MODEL        1
REMARK 921   NORMALIZED FREE ENERGY PREDICTED BY IDOCK:   -7.78 KCAL/MOL
REMARK 922        TOTAL FREE ENERGY PREDICTED BY IDOCK:  -14.04 KCAL/MOL
REMARK 923 INTER-LIGAND FREE ENERGY PREDICTED BY IDOCK:  -11.87 KCAL/MOL
REMARK 924 INTRA-LIGAND FREE ENERGY PREDICTED BY IDOCK:   -2.17 KCAL/MOL
REMARK 927      BINDING AFFINITY PREDICTED BY RF-SCORE:    0.00 PKD
ROOT
HETATM    1  C   UNL     1     -10.355   5.431  67.130  1.00  0.00    -0.288 C  
HETATM    2  C   UNL     1      -9.577   6.611  67.712  1.00  0.00    -0.123 C  
HETATM    3  C   UNL     1      -8.077   6.378  67.507  1.00  0.00    -0.117 C  
ENDROOT
BRANCH   2   4
HETATM    4  O   UNL     1     -10.061   7.818  67.076  1.00  0.00    -0.218 OA 
BRANCH   4   5
HETATM    5  C   UNL     1     -10.447   8.846  67.910  1.00  0.00    -0.223 A  
HETATM    6  C   UNL     1     -10.803  10.131  67.467  1.00  0.00    -0.290 A  
HETATM    7  C   UNL     1     -12.072  11.738  70.644  1.00  0.00    -0.407 C  
HETATM    8  C   UNL     1     -11.477  10.944  68.376  1.00  0.00    -0.374 A  
HETATM    9  C   UNL     1     -10.515   8.516  69.292  1.00  0.00    -0.224 A  
HETATM   10  C   UNL     1     -11.552  10.640  69.749  1.00  0.00    -0.385 A  
HETATM   11  C   UNL     1     -11.050   9.408  70.244  1.00  0.00    -0.299 A  
BRANCH   6  12
HETATM   12  N   UNL     1     -10.628  10.611  66.155  1.00  0.00    -0.187 NA 
HETATM   13  H   UNL     1     -10.410   9.883  65.474  1.00  0.00     0.000 HD 
BRANCH  12  14
HETATM   14  C   UNL     1     -10.696  11.867  65.621  1.00  0.00    -0.280 A  
HETATM   15  N   UNL     1      -9.745  12.810  65.911  1.00  0.00    -0.237 NA 
HETATM   16  C   UNL     1     -11.936  13.483  64.549  1.00  0.00    -0.410 A  
HETATM   17  N   UNL     1     -11.804  12.180  64.987  1.00  0.00    -0.333 NA 
HETATM   18  C   UNL     1      -9.929  14.180  65.685  1.00  0.00    -0.306 A  
HETATM   19  C   UNL     1     -11.121  14.505  64.827  1.00  0.00    -0.391 A  
HETATM   20 CL   UNL     1     -11.438  16.118  64.334  1.00  0.00    -0.364 Cl 
BRANCH  18  21
HETATM   21  N   UNL     1      -9.244  15.195  66.158  1.00  0.00    -0.391 NA 
HETATM   22  H   UNL     1      -8.494  15.607  65.602  1.00  0.00     0.000 HD 
BRANCH  21  23
HETATM   23  C   UNL     1      -9.541  15.709  67.425  1.00  0.00    -0.217 A  
HETATM   24  C   UNL     1      -9.564  14.840  68.526  1.00  0.00    -0.218 A  
HETATM   25  C   UNL     1     -10.218  15.192  69.701  1.00  0.00    -0.219 A  
HETATM   26  C   UNL     1     -10.789  16.454  69.813  1.00  0.00    -0.343 A  
HETATM   27  C   UNL     1     -10.607  17.394  68.798  1.00  0.00    -0.283 A  
HETATM   28  C   UNL     1      -9.939  17.038  67.617  1.00  0.00    -0.280 A  
BRANCH  28  29
HETATM   29  S   UNL     1      -9.260  18.386  66.636  1.00  0.00    -0.306 S  
HETATM   30  O   UNL     1      -8.258  17.790  65.766  1.00  0.00    -0.538 OA 
HETATM   31  O   UNL     1     -10.413  19.025  66.025  1.00  0.00    -0.457 OA 
BRANCH  29  32
HETATM   32  C   UNL     1      -8.405  19.591  67.640  1.00  0.00    -0.305 C  
HETATM   33  C   UNL     1      -7.515  18.948  68.708  1.00  0.00    -0.360 C  
HETATM   34  C   UNL     1      -7.540  20.480  66.731  1.00  0.00    -0.290 C  
ENDBRANCH  29  32
ENDBRANCH  28  29
ENDBRANCH  21  23
ENDBRANCH  18  21
ENDBRANCH  12  14
ENDBRANCH   6  12
BRANCH  11  35
HETATM   35  C   UNL     1     -11.152   9.110  71.755  1.00  0.00    -0.437 C  
HETATM   36  C   UNL     1     -12.515   8.494  72.130  1.00  0.00    -0.437 C  
HETATM   37  C   UNL     1     -12.548   6.996  71.876  1.00  0.00    -0.295 C  
HETATM   38  N   UNL     1     -11.558   6.334  72.712  1.00  0.00    -0.482 NA 
HETATM   39  H   UNL     1     -11.634   5.319  72.649  1.00  0.00     0.000 HD 
HETATM   40  C   UNL     1     -10.203   6.788  72.403  1.00  0.00    -0.180 C  
HETATM   41  C   UNL     1     -10.048   8.305  72.477  1.00  0.00    -0.376 C  
ENDBRANCH  11  35
ENDBRANCH   4   5
ENDBRANCH   2   4
TORSDOF 9
ENDMDL
MODEL        2
REMARK 921   NORMALIZED FREE ENERGY PREDICTED BY IDOCK:   -7.51 KCAL/MOL
REMARK 922        TOTAL FREE ENERGY PREDICTED BY IDOCK:  -13.63 KCAL/MOL
REMARK 923 INTER-LIGAND FREE ENERGY PREDICTED BY IDOCK:  -10.61 KCAL/MOL
REMARK 924 INTRA-LIGAND FREE ENERGY PREDICTED BY IDOCK:   -3.02 KCAL/MOL
REMARK 927      BINDING AFFINITY PREDICTED BY RF-SCORE:    0.00 PKD
ROOT
HETATM    1  C   UNL     1     -13.881  15.253  71.507  1.00  0.00    -0.617 C  
HETATM    2  C   UNL     1     -12.465  15.812  71.642  1.00  0.00    -0.463 C  
HETATM    3  C   UNL     1     -12.213  16.202  73.103  1.00  0.00    -0.643 C  
ENDROOT
BRANCH   2   4
HETATM    4  O   UNL     1     -11.544  14.811  71.149  1.00  0.00    -0.315 OA 
BRANCH   4   5
HETATM    5  C   UNL     1     -11.380  14.740  69.781  1.00  0.00    -0.283 A  
HETATM    6  C   UNL     1     -11.901  13.715  68.976  1.00  0.00    -0.352 A  
HETATM    7  C   UNL     1     -11.149  14.983  65.496  1.00  0.00    -0.358 C  
HETATM    8  C   UNL     1     -11.939  13.951  67.603  1.00  0.00    -0.403 A  
HETATM    9  C   UNL     1     -10.667  15.824  69.196  1.00  0.00    -0.246 A  
HETATM   10  C   UNL     1     -11.237  15.014  67.002  1.00  0.00    -0.328 A  
HETATM   11  C   UNL     1     -10.564  15.977  67.798  1.00  0.00    -0.309 A  
BRANCH   6  12
HETATM   12  N   UNL     1     -12.484  12.526  69.457  1.00  0.00     0.106 NA 
HETATM   13  H   UNL     1     -13.471  12.424  69.219  1.00  0.00     0.000 HD 
BRANCH  12  14
HETATM   14  C   UNL     1     -11.976  11.484  70.180  1.00  0.00    -0.369 A  
HETATM   15  N   UNL     1     -10.802  10.878  69.820  1.00  0.00    -0.226 NA 
HETATM   16  C   UNL     1     -12.308   9.843  71.761  1.00  0.00    -0.368 A  
HETATM   17  N   UNL     1     -12.758  10.972  71.106  1.00  0.00    -0.402 NA 
HETATM   18  C   UNL     1     -10.409   9.621  70.295  1.00  0.00    -0.280 A  
HETATM   19  C   UNL     1     -11.224   9.123  71.456  1.00  0.00    -0.360 A  
HETATM   20 CL   UNL     1     -10.814   7.662  72.257  1.00  0.00    -0.291 Cl 
BRANCH  18  21
HETATM   21  N   UNL     1      -9.478   8.818  69.834  1.00  0.00    -0.166 NA 
HETATM   22  H   UNL     1      -8.671   8.586  70.414  1.00  0.00     0.000 HD 
BRANCH  21  23
HETATM   23  C   UNL     1      -9.593   8.280  68.547  1.00  0.00    -0.149 A  
HETATM   24  C   UNL     1     -10.674   7.434  68.256  1.00  0.00    -0.151 A  
HETATM   25  C   UNL     1     -10.636   6.577  67.162  1.00  0.00    -0.398 A  
HETATM   26  C   UNL     1      -9.546   6.617  66.301  1.00  0.00    -0.092 A  
HETATM   27  C   UNL     1      -8.557   7.586  66.472  1.00  0.00    -0.134 A  
HETATM   28  C   UNL     1      -8.603   8.455  67.573  1.00  0.00    -0.129 A  
BRANCH  28  29
HETATM   29  S   UNL     1      -7.666   9.985  67.433  1.00  0.00    -0.094 S  
HETATM   30  O   UNL     1      -7.456  10.458  68.793  1.00  0.00    -0.082 OA 
HETATM   31  O   UNL     1      -6.501   9.642  66.633  1.00  0.00    -0.065 OA 
BRANCH  29  32
HETATM   32  C   UNL     1      -8.580  11.266  66.589  1.00  0.00    -0.167 C  
HETATM   33  C   UNL     1     -10.031  10.867  66.303  1.00  0.00    -0.274 C  
HETATM   34  C   UNL     1      -8.568  12.543  67.445  1.00  0.00    -0.187 C  
ENDBRANCH  29  32
ENDBRANCH  28  29
ENDBRANCH  21  23
ENDBRANCH  18  21
ENDBRANCH  12  14
ENDBRANCH   6  12
BRANCH  11  35
HETATM   35  C   UNL     1      -9.807  17.128  67.103  1.00  0.00    -0.271 C  
HETATM   36  C   UNL     1     -10.448  18.499  67.397  1.00  0.00    -0.455 C  
HETATM   37  C   UNL     1      -9.990  19.063  68.733  1.00  0.00    -0.411 C  
HETATM   38  N   UNL     1      -8.552  19.283  68.706  1.00  0.00    -0.360 NA 
HETATM   39  H   UNL     1      -8.232  19.766  69.545  1.00  0.00     0.000 HD 
HETATM   40  C   UNL     1      -7.821  18.034  68.498  1.00  0.00    -0.303 C  
HETATM   41  C   UNL     1      -8.275  17.273  67.256  1.00  0.00    -0.213 C  
ENDBRANCH  11  35
ENDBRANCH   4   5
ENDBRANCH   2   4
TORSDOF 9
ENDMDL
MODEL        3
REMARK 921   NORMALIZED FREE ENERGY PREDICTED BY IDOCK:   -7.51 KCAL/MOL
REMARK 922        TOTAL FREE ENERGY PREDICTED BY IDOCK:  -13.63 KCAL/MOL
REMARK 923 INTER-LIGAND FREE ENERGY PREDICTED BY IDOCK:  -12.17 KCAL/MOL
REMARK 924 INTRA-LIGAND FREE ENERGY PREDICTED BY IDOCK:   -1.46 KCAL/MOL
REMARK 927      BINDING AFFINITY PREDICTED BY RF-SCORE:    0.00 PKD
ROOT
HETATM    1  C   UNL     1     -11.779  16.042  71.684  1.00  0.00    -0.583 C  
HETATM    2  C   UNL     1     -12.626  14.829  71.299  1.00  0.00    -0.334 C  
HETATM    3  C   UNL     1     -13.952  14.875  72.065  1.00  0.00    -0.591 C  
ENDROOT
BRANCH   2   4
HETATM    4  O   UNL     1     -12.794  14.845  69.861  1.00  0.00    -0.164 OA 
BRANCH   4   5
HETATM    5  C   UNL     1     -12.015  13.966  69.137  1.00  0.00    -0.363 A  
HETATM    6  C   UNL     1     -11.809  12.621  69.487  1.00  0.00    -0.312 A  
HETATM    7  C   UNL     1      -9.942  11.300  66.477  1.00  0.00    -0.247 C  
HETATM    8  C   UNL     1     -11.283  11.789  68.500  1.00  0.00    -0.306 A  
HETATM    9  C   UNL     1     -11.445  14.497  67.947  1.00  0.00    -0.348 A  
HETATM   10  C   UNL     1     -10.709  12.293  67.317  1.00  0.00    -0.263 A  
HETATM   11  C   UNL     1     -10.765  13.680  67.020  1.00  0.00    -0.278 A  
BRANCH   6  12
HETATM   12  N   UNL     1     -12.193  12.036  70.708  1.00  0.00    -0.410 NA 
HETATM   13  H   UNL     1     -12.554  12.702  71.391  1.00  0.00     0.000 HD 
BRANCH  12  14
HETATM   14  C   UNL     1     -12.175  10.743  71.151  1.00  0.00    -0.352 A  
HETATM   15  N   UNL     1     -11.039   9.981  71.061  1.00  0.00    -0.328 NA 
HETATM   16  C   UNL     1     -13.346   8.875  71.813  1.00  0.00    -0.386 A  
HETATM   17  N   UNL     1     -13.333  10.215  71.480  1.00  0.00    -0.363 NA 
HETATM   18  C   UNL     1     -11.041   8.585  71.173  1.00  0.00    -0.260 A  
HETATM   19  C   UNL     1     -12.330   8.014  71.697  1.00  0.00    -0.314 A  
HETATM   20 CL   UNL     1     -12.481   6.336  72.024  1.00  0.00    -0.267 Cl 
BRANCH  18  21
HETATM   21  N   UNL     1     -10.105   7.729  70.838  1.00  0.00    -0.187 NA 
HETATM   22  H   UNL     1      -9.421   7.423  71.530  1.00  0.00     0.000 HD 
BRANCH  21  23
HETATM   23  C   UNL     1     -10.044   7.237  69.529  1.00  0.00    -0.182 A  
HETATM   24  C   UNL     1     -10.230   8.124  68.457  1.00  0.00    -0.233 A  
HETATM   25  C   UNL     1     -10.569   7.656  67.193  1.00  0.00    -0.410 A  
HETATM   26  C   UNL     1     -10.647   6.286  66.970  1.00  0.00    -0.386 A  
HETATM   27  C   UNL     1     -10.279   5.394  67.977  1.00  0.00    -0.221 A  
HETATM   28  C   UNL     1      -9.929   5.870  69.249  1.00  0.00    -0.174 A  
BRANCH  28  29
HETATM   29  S   UNL     1      -8.952   4.767  70.283  1.00  0.00    -0.108 S  
HETATM   30  O   UNL     1      -8.329   3.811  69.381  1.00  0.00    -0.060 OA 
HETATM   31  O   UNL     1      -8.094   5.643  71.063  1.00  0.00    -0.114 OA 
BRANCH  29  32
HETATM   32  C   UNL     1      -9.965   3.815  71.405  1.00  0.00    -0.108 C  
HETATM   33  C   UNL     1      -9.621   2.323  71.393  1.00  0.00    -0.222 C  
HETATM   34  C   UNL     1      -9.788   4.362  72.831  1.00  0.00    -0.186 C  
ENDBRANCH  29  32
ENDBRANCH  28  29
ENDBRANCH  21  23
ENDBRANCH  18  21
ENDBRANCH  12  14
ENDBRANCH   6  12
BRANCH  11  35
HETATM   35  C   UNL     1     -10.126  14.193  65.713  1.00  0.00    -0.352 C  
HETATM   36  C   UNL     1     -11.002  13.882  64.483  1.00  0.00    -0.379 C  
HETATM   37  C   UNL     1     -12.104  14.912  64.297  1.00  0.00    -0.353 C  
HETATM   38  N   UNL     1     -11.516  16.223  64.059  1.00  0.00    -1.521 NA 
HETATM   39  H   UNL     1     -12.227  16.912  63.817  1.00  0.00     0.000 HD 
HETATM   40  C   UNL     1     -10.708  16.664  65.194  1.00  0.00    -0.189 C  
HETATM   41  C   UNL     1      -9.635  15.655  65.594  1.00  0.00    -0.319 C  
ENDBRANCH  11  35
ENDBRANCH   4   5
ENDBRANCH   2   4
TORSDOF 9
ENDMDL
MODEL        4
REMARK 921   NORMALIZED FREE ENERGY PREDICTED BY IDOCK:   -7.51 KCAL/MOL
REMARK 922        TOTAL FREE ENERGY PREDICTED BY IDOCK:  -13.63 KCAL/MOL
REMARK 923 INTER-LIGAND FREE ENERGY PREDICTED BY IDOCK:  -11.50 KCAL/MOL
REMARK 924 INTRA-LIGAND FREE ENERGY PREDICTED BY IDOCK:   -2.13 KCAL/MOL
REMARK 927      BINDING AFFINITY PREDICTED BY RF-SCORE:    0.00 PKD
ROOT
HETATM    1  C   UNL     1     -11.675  16.211  71.543  1.00  0.00    -0.533 C  
HETATM    2  C   UNL     1     -12.142  14.760  71.431  1.00  0.00    -0.344 C  
HETATM    3  C   UNL     1     -13.103  14.448  72.584  1.00  0.00    -0.564 C  
ENDROOT
BRANCH   2   4
HETATM    4  O   UNL     1     -12.740  14.585  70.125  1.00  0.00    -0.323 OA 
BRANCH   4   5
HETATM    5  C   UNL     1     -12.121  13.692  69.275  1.00  0.00    -0.314 A  
HETATM    6  C   UNL     1     -12.161  12.297  69.431  1.00  0.00    -0.176 A  
HETATM    7  C   UNL     1     -10.523  11.098  66.242  1.00  0.00    -0.312 C  
HETATM    8  C   UNL     1     -11.779  11.530  68.331  1.00  0.00    -0.372 A  
HETATM    9  C   UNL     1     -11.451  14.274  68.163  1.00  0.00    -0.336 A  
HETATM   10  C   UNL     1     -11.111  12.084  67.222  1.00  0.00    -0.341 A  
HETATM   11  C   UNL     1     -10.916  13.486  67.122  1.00  0.00    -0.302 A  
BRANCH   6  12
HETATM   12  N   UNL     1     -12.657  11.624  70.564  1.00  0.00    -0.224 NA 
HETATM   13  H   UNL     1     -13.355  12.154  71.087  1.00  0.00     0.000 HD 
BRANCH  12  14
HETATM   14  C   UNL     1     -12.381  10.396  71.095  1.00  0.00    -0.400 A  
HETATM   15  N   UNL     1     -11.093   9.934  71.176  1.00  0.00    -0.340 NA 
HETATM   16  C   UNL     1     -13.139   8.326  71.759  1.00  0.00    -0.344 A  
HETATM   17  N   UNL     1     -13.408   9.612  71.337  1.00  0.00    -0.382 NA 
HETATM   18  C   UNL     1     -10.773   8.586  71.384  1.00  0.00    -0.250 A  
HETATM   19  C   UNL     1     -11.939   7.737  71.808  1.00  0.00    -0.296 A  
HETATM   20 CL   UNL     1     -11.720   6.089  72.233  1.00  0.00    -0.364 Cl 
BRANCH  18  21
HETATM   21  N   UNL     1      -9.625   7.974  71.207  1.00  0.00    -0.154 NA 
HETATM   22  H   UNL     1      -9.359   7.203  71.820  1.00  0.00     0.000 HD 
BRANCH  21  23
HETATM   23  C   UNL     1      -8.768   8.379  70.178  1.00  0.00    -0.136 A  
HETATM   24  C   UNL     1      -7.865   9.427  70.416  1.00  0.00    -0.179 A  
HETATM   25  C   UNL     1      -7.285  10.124  69.361  1.00  0.00    -0.096 A  
HETATM   26  C   UNL     1      -7.543   9.725  68.055  1.00  0.00    -0.082 A  
HETATM   27  C   UNL     1      -8.285   8.569  67.813  1.00  0.00    -0.122 A  
HETATM   28  C   UNL     1      -8.861   7.863  68.880  1.00  0.00    -0.142 A  
BRANCH  28  29
HETATM   29  S   UNL     1      -9.297   6.144  68.569  1.00  0.00    -0.116 S  
HETATM   30  O   UNL     1      -8.283   5.342  69.236  1.00  0.00    -0.092 OA 
HETATM   31  O   UNL     1     -10.677   6.020  69.009  1.00  0.00    -0.258 OA 
BRANCH  29  32
HETATM   32  C   UNL     1      -9.211   5.726  66.835  1.00  0.00    -0.122 C  
HETATM   33  C   UNL     1      -7.989   4.868  66.492  1.00  0.00    -0.107 C  
HETATM   34  C   UNL     1     -10.487   4.968  66.436  1.00  0.00    -0.349 C  
ENDBRANCH  29  32
ENDBRANCH  28  29
ENDBRANCH  21  23
ENDBRANCH  18  21
ENDBRANCH  12  14
ENDBRANCH   6  12
BRANCH  11  35
HETATM   35  C   UNL     1     -10.181  14.055  65.890  1.00  0.00    -0.332 C  
HETATM   36  C   UNL     1     -10.987  13.849  64.592  1.00  0.00    -0.406 C  
HETATM   37  C   UNL     1     -12.044  14.924  64.404  1.00  0.00    -0.401 C  
HETATM   38  N   UNL     1     -11.404  16.226  64.283  1.00  0.00    -1.209 NA 
HETATM   39  H   UNL     1     -12.078  16.952  64.042  1.00  0.00     0.000 HD 
HETATM   40  C   UNL     1     -10.656  16.571  65.491  1.00  0.00    -0.295 C  
HETATM   41  C   UNL     1      -9.641  15.504  65.892  1.00  0.00    -0.383 C  
ENDBRANCH  11  35
ENDBRANCH   4   5
ENDBRANCH   2   4
TORSDOF 9
ENDMDL
MODEL        5
REMARK 921   NORMALIZED FREE ENERGY PREDICTED BY IDOCK:   -7.41 KCAL/MOL
REMARK 922        TOTAL FREE ENERGY PREDICTED BY IDOCK:  -13.48 KCAL/MOL
REMARK 923 INTER-LIGAND FREE ENERGY PREDICTED BY IDOCK:  -11.33 KCAL/MOL
REMARK 924 INTRA-LIGAND FREE ENERGY PREDICTED BY IDOCK:   -2.15 KCAL/MOL
REMARK 927      BINDING AFFINITY PREDICTED BY RF-SCORE:    0.00 PKD
ROOT
HETATM    1  C   UNL     1     -11.301  15.443  71.702  1.00  0.00    -0.455 C  
HETATM    2  C   UNL     1     -12.490  14.544  71.362  1.00  0.00    -0.353 C  
HETATM    3  C   UNL     1     -13.699  14.966  72.202  1.00  0.00    -0.550 C  
ENDROOT
BRANCH   2   4
HETATM    4  O   UNL     1     -12.722  14.637  69.936  1.00  0.00    -0.241 OA 
BRANCH   4   5
HETATM    5  C   UNL     1     -12.044  13.739  69.138  1.00  0.00    -0.333 A  
HETATM    6  C   UNL     1     -11.899  12.373  69.434  1.00  0.00    -0.304 A  
HETATM    7  C   UNL     1     -10.306  11.046  66.274  1.00  0.00    -0.304 C  
HETATM    8  C   UNL     1     -11.487  11.545  68.392  1.00  0.00    -0.364 A  
HETATM    9  C   UNL     1     -11.517  14.274  67.930  1.00  0.00    -0.341 A  
HETATM   10  C   UNL     1     -10.957  12.053  67.189  1.00  0.00    -0.320 A  
HETATM   11  C   UNL     1     -10.947  13.450  66.938  1.00  0.00    -0.295 A  
BRANCH   6  12
HETATM   12  N   UNL     1     -12.242  11.771  70.659  1.00  0.00    -0.380 NA 
HETATM   13  H   UNL     1     -12.663  12.412  71.332  1.00  0.00     0.000 HD 
BRANCH  12  14
HETATM   14  C   UNL     1     -12.116  10.490  71.118  1.00  0.00    -0.370 A  
HETATM   15  N   UNL     1     -10.989   9.754  70.863  1.00  0.00    -0.326 NA 
HETATM   16  C   UNL     1     -13.115   8.608  71.992  1.00  0.00    -0.381 A  
HETATM   17  N   UNL     1     -13.193   9.940  71.636  1.00  0.00    -0.404 NA 
HETATM   18  C   UNL     1     -10.933   8.362  71.000  1.00  0.00    -0.246 A  
HETATM   19  C   UNL     1     -12.106   7.771  71.732  1.00  0.00    -0.298 A  
HETATM   20 CL   UNL     1     -12.155   6.098  72.110  1.00  0.00    -0.341 Cl 
BRANCH  18  21
HETATM   21  N   UNL     1     -10.038   7.522  70.536  1.00  0.00    -0.188 NA 
HETATM   22  H   UNL     1      -9.644   6.806  71.147  1.00  0.00     0.000 HD 
BRANCH  21  23
HETATM   23  C   UNL     1      -9.622   7.609  69.202  1.00  0.00    -0.155 A  
HETATM   24  C   UNL     1     -10.591   7.646  68.187  1.00  0.00    -0.187 A  
HETATM   25  C   UNL     1     -10.259   7.340  66.872  1.00  0.00    -0.340 A  
HETATM   26  C   UNL     1      -8.936   7.071  66.546  1.00  0.00    -0.165 A  
HETATM   27  C   UNL     1      -7.937   7.218  67.509  1.00  0.00    -0.113 A  
HETATM   28  C   UNL     1      -8.274   7.536  68.833  1.00  0.00    -0.128 A  
BRANCH  28  29
HETATM   29  S   UNL     1      -6.970   8.248  69.849  1.00  0.00    -0.044 S  
HETATM   30  O   UNL     1      -7.061   7.593  71.145  1.00  0.00    -0.053 OA 
HETATM   31  O   UNL     1      -5.752   8.078  69.073  1.00  0.00    -0.033 OA 
BRANCH  29  32
HETATM   32  C   UNL     1      -7.217   9.992  70.146  1.00  0.00    -0.161 C  
HETATM   33  C   UNL     1      -5.947  10.695  70.635  1.00  0.00    -0.097 C  
HETATM   34  C   UNL     1      -7.696  10.661  68.847  1.00  0.00    -0.121 C  
ENDBRANCH  29  32
ENDBRANCH  28  29
ENDBRANCH  21  23
ENDBRANCH  18  21
ENDBRANCH  12  14
ENDBRANCH   6  12
BRANCH  11  35
HETATM   35  C   UNL     1     -10.360  13.968  65.608  1.00  0.00    -0.342 C  
HETATM   36  C   UNL     1     -11.303  13.699  64.418  1.00  0.00    -0.394 C  
HETATM   37  C   UNL     1     -12.387  14.758  64.303  1.00  0.00    -0.320 C  
HETATM   38  N   UNL     1     -11.779  16.057  64.055  1.00  0.00    -1.249 NA 
HETATM   39  H   UNL     1     -12.483  16.768  63.859  1.00  0.00     0.000 HD 
HETATM   40  C   UNL     1     -10.905  16.460  65.155  1.00  0.00    -0.275 C  
HETATM   41  C   UNL     1      -9.839  15.419  65.487  1.00  0.00    -0.359 C  
ENDBRANCH  11  35
ENDBRANCH   4   5
ENDBRANCH   2   4
TORSDOF 9
ENDMDL
MODEL        6
REMARK 921   NORMALIZED FREE ENERGY PREDICTED BY IDOCK:   -7.31 KCAL/MOL
REMARK 922        TOTAL FREE ENERGY PREDICTED BY IDOCK:  -13.33 KCAL/MOL
REMARK 923 INTER-LIGAND FREE ENERGY PREDICTED BY IDOCK:  -11.38 KCAL/MOL
REMARK 924 INTRA-LIGAND FREE ENERGY PREDICTED BY IDOCK:   -1.95 KCAL/MOL
REMARK 927      BINDING AFFINITY PREDICTED BY RF-SCORE:    0.00 PKD
ROOT
HETATM    1  C   UNL     1      -9.955  10.962  65.547  1.00  0.00    -0.315 C  
HETATM    2  C   UNL     1     -10.096   9.928  66.663  1.00  0.00    -0.233 C  
HETATM    3  C   UNL     1      -9.447   8.613  66.219  1.00  0.00    -0.307 C  
ENDROOT
BRANCH   2   4
HETATM    4  O   UNL     1      -9.501  10.484  67.860  1.00  0.00    -0.145 OA 
BRANCH   4   5
HETATM    5  C   UNL     1     -10.312  10.568  68.973  1.00  0.00    -0.213 A  
HETATM    6  C   UNL     1     -10.881  11.761  69.447  1.00  0.00    -0.064 A  
HETATM    7  C   UNL     1     -13.184  10.511  72.171  1.00  0.00    -0.398 C  
HETATM    8  C   UNL     1     -11.924  11.640  70.363  1.00  0.00    -0.448 A  
HETATM    9  C   UNL     1     -10.592   9.331  69.617  1.00  0.00    -0.241 A  
HETATM   10  C   UNL     1     -12.216  10.426  71.016  1.00  0.00    -0.498 A  
HETATM   11  C   UNL     1     -11.535   9.233  70.662  1.00  0.00    -0.327 A  
BRANCH   6  12
HETATM   12  N   UNL     1     -10.554  13.051  68.988  1.00  0.00    -0.423 NA 
HETATM   13  H   UNL     1     -10.162  13.660  69.707  1.00  0.00     0.000 HD 
BRANCH  12  14
HETATM   14  C   UNL     1     -10.662  13.642  67.760  1.00  0.00    -0.246 A  
HETATM   15  N   UNL     1      -9.695  14.496  67.299  1.00  0.00    -0.228 NA 
HETATM   16  C   UNL     1     -11.979  14.201  65.957  1.00  0.00    -0.413 A  
HETATM   17  N   UNL     1     -11.813  13.509  67.139  1.00  0.00    -0.376 NA 
HETATM   18  C   UNL     1      -9.897  15.381  66.232  1.00  0.00    -0.297 A  
HETATM   19  C   UNL     1     -11.148  15.113  65.442  1.00  0.00    -0.367 A  
HETATM   20 CL   UNL     1     -11.501  16.009  64.023  1.00  0.00    -0.086 Cl 
BRANCH  18  21
HETATM   21  N   UNL     1      -9.180  16.421  65.876  1.00  0.00    -0.469 NA 
HETATM   22  H   UNL     1      -8.520  16.345  65.102  1.00  0.00     0.000 HD 
BRANCH  21  23
HETATM   23  C   UNL     1      -9.322  17.635  66.559  1.00  0.00    -0.272 A  
HETATM   24  C   UNL     1     -10.594  18.020  67.009  1.00  0.00    -0.320 A  
HETATM   25  C   UNL     1     -10.868  19.345  67.328  1.00  0.00    -0.561 A  
HETATM   26  C   UNL     1      -9.847  20.286  67.276  1.00  0.00    -0.593 A  
HETATM   27  C   UNL     1      -8.538  19.880  67.015  1.00  0.00    -0.389 A  
HETATM   28  C   UNL     1      -8.263  18.540  66.702  1.00  0.00    -0.274 A  
BRANCH  28  29
HETATM   29  S   UNL     1      -6.565  17.989  66.933  1.00  0.00    -0.191 S  
HETATM   30  O   UNL     1      -6.445  16.731  66.213  1.00  0.00    -0.211 OA 
HETATM   31  O   UNL     1      -5.744  19.110  66.508  1.00  0.00    -0.161 OA 
BRANCH  29  32
HETATM   32  C   UNL     1      -6.197  17.628  68.644  1.00  0.00    -0.187 C  
HETATM   33  C   UNL     1      -6.246  18.873  69.535  1.00  0.00    -0.290 C  
HETATM   34  C   UNL     1      -7.204  16.592  69.169  1.00  0.00    -0.220 C  
ENDBRANCH  29  32
ENDBRANCH  28  29
ENDBRANCH  21  23
ENDBRANCH  18  21
ENDBRANCH  12  14
ENDBRANCH   6  12
BRANCH  11  35
HETATM   35  C   UNL     1     -11.883   7.923  71.399  1.00  0.00    -0.328 C  
HETATM   36  C   UNL     1     -12.284   6.801  70.421  1.00  0.00    -0.180 C  
HETATM   37  C   UNL     1     -11.070   6.098  69.836  1.00  0.00    -0.410 C  
HETATM   38  N   UNL     1     -10.313   5.458  70.903  1.00  0.00    -0.235 NA 
HETATM   39  H   UNL     1      -9.557   4.883  70.531  1.00  0.00     0.000 HD 
HETATM   40  C   UNL     1      -9.816   6.435  71.870  1.00  0.00    -0.157 C  
HETATM   41  C   UNL     1     -10.915   7.323  72.445  1.00  0.00    -0.306 C  
ENDBRANCH  11  35
ENDBRANCH   4   5
ENDBRANCH   2   4
TORSDOF 9
ENDMDL
MODEL        7
REMARK 921   NORMALIZED FREE ENERGY PREDICTED BY IDOCK:   -7.30 KCAL/MOL
REMARK 922        TOTAL FREE ENERGY PREDICTED BY IDOCK:  -13.31 KCAL/MOL
REMARK 923 INTER-LIGAND FREE ENERGY PREDICTED BY IDOCK:  -11.25 KCAL/MOL
REMARK 924 INTRA-LIGAND FREE ENERGY PREDICTED BY IDOCK:   -2.06 KCAL/MOL
REMARK 927      BINDING AFFINITY PREDICTED BY RF-SCORE:    0.00 PKD
ROOT
HETATM    1  C   UNL     1     -14.123  15.242  71.364  1.00  0.00    -0.595 C  
HETATM    2  C   UNL     1     -12.657  15.343  70.946  1.00  0.00    -0.438 C  
HETATM    3  C   UNL     1     -11.827  15.850  72.130  1.00  0.00    -0.615 C  
ENDROOT
BRANCH   2   4
HETATM    4  O   UNL     1     -12.240  14.041  70.470  1.00  0.00    -0.320 OA 
BRANCH   4   5
HETATM    5  C   UNL     1     -11.787  13.973  69.169  1.00  0.00    -0.350 A  
HETATM    6  C   UNL     1     -11.892  12.832  68.355  1.00  0.00    -0.310 A  
HETATM    7  C   UNL     1     -10.740  14.144  65.003  1.00  0.00    -0.429 C  
HETATM    8  C   UNL     1     -11.698  13.016  66.988  1.00  0.00    -0.441 A  
HETATM    9  C   UNL     1     -11.227  15.175  68.655  1.00  0.00    -0.295 A  
HETATM   10  C   UNL     1     -11.141  14.196  66.458  1.00  0.00    -0.318 A  
HETATM   11  C   UNL     1     -10.875  15.310  67.296  1.00  0.00    -0.318 A  
BRANCH   6  12
HETATM   12  N   UNL     1     -12.284  11.555  68.801  1.00  0.00    -0.443 NA 
HETATM   13  H   UNL     1     -12.987  11.109  68.211  1.00  0.00     0.000 HD 
BRANCH  12  14
HETATM   14  C   UNL     1     -11.899  10.800  69.872  1.00  0.00    -0.335 A  
HETATM   15  N   UNL     1     -10.581  10.492  70.083  1.00  0.00    -0.193 NA 
HETATM   16  C   UNL     1     -12.481   9.365  71.576  1.00  0.00    -0.366 A  
HETATM   17  N   UNL     1     -12.858  10.228  70.567  1.00  0.00    -0.284 NA 
HETATM   18  C   UNL     1     -10.159   9.466  70.939  1.00  0.00    -0.296 A  
HETATM   19  C   UNL     1     -11.243   8.930  71.834  1.00  0.00    -0.377 A  
HETATM   20 CL   UNL     1     -10.891   7.761  73.039  1.00  0.00    -0.456 Cl 
BRANCH  18  21
HETATM   21  N   UNL     1      -8.983   8.890  71.020  1.00  0.00    -0.221 NA 
HETATM   22  H   UNL     1      -8.777   8.257  71.793  1.00  0.00     0.000 HD 
BRANCH  21  23
HETATM   23  C   UNL     1      -8.010   9.146  70.047  1.00  0.00    -0.113 A  
HETATM   24  C   UNL     1      -6.994  10.073  70.324  1.00  0.00    -0.153 A  
HETATM   25  C   UNL     1      -6.256  10.653  69.299  1.00  0.00    -0.050 A  
HETATM   26  C   UNL     1      -6.475  10.249  67.987  1.00  0.00    -0.060 A  
HETATM   27  C   UNL     1      -7.346   9.193  67.719  1.00  0.00    -0.084 A  
HETATM   28  C   UNL     1      -8.083   8.604  68.758  1.00  0.00    -0.116 A  
BRANCH  28  29
HETATM   29  S   UNL     1      -8.722   6.948  68.456  1.00  0.00    -0.124 S  
HETATM   30  O   UNL     1      -8.161   6.523  67.184  1.00  0.00    -0.112 OA 
HETATM   31  O   UNL     1      -8.382   6.191  69.650  1.00  0.00    -0.120 OA 
BRANCH  29  32
HETATM   32  C   UNL     1     -10.497   6.932  68.257  1.00  0.00    -0.206 C  
HETATM   33  C   UNL     1     -10.940   6.254  66.957  1.00  0.00    -0.442 C  
HETATM   34  C   UNL     1     -11.131   6.198  69.450  1.00  0.00    -0.479 C  
ENDBRANCH  29  32
ENDBRANCH  28  29
ENDBRANCH  21  23
ENDBRANCH  18  21
ENDBRANCH  12  14
ENDBRANCH   6  12
BRANCH  11  35
HETATM   35  C   UNL     1     -10.266  16.585  66.677  1.00  0.00    -0.302 C  
HETATM   36  C   UNL     1     -10.707  17.857  67.428  1.00  0.00    -0.306 C  
HETATM   37  C   UNL     1      -9.861  18.106  68.667  1.00  0.00    -0.377 C  
HETATM   38  N   UNL     1      -8.475  18.322  68.279  1.00  0.00    -0.288 NA 
HETATM   39  H   UNL     1      -7.904  18.604  69.076  1.00  0.00     0.000 HD 
HETATM   40  C   UNL     1      -7.915  17.148  67.610  1.00  0.00    -0.178 C  
HETATM   41  C   UNL     1      -8.745  16.687  66.415  1.00  0.00    -0.345 C  
ENDBRANCH  11  35
ENDBRANCH   4   5
ENDBRANCH   2   4
TORSDOF 9
ENDMDL
MODEL        8
REMARK 921   NORMALIZED FREE ENERGY PREDICTED BY IDOCK:   -7.30 KCAL/MOL
REMARK 922        TOTAL FREE ENERGY PREDICTED BY IDOCK:  -13.30 KCAL/MOL
REMARK 923 INTER-LIGAND FREE ENERGY PREDICTED BY IDOCK:  -11.06 KCAL/MOL
REMARK 924 INTRA-LIGAND FREE ENERGY PREDICTED BY IDOCK:   -2.24 KCAL/MOL
REMARK 927      BINDING AFFINITY PREDICTED BY RF-SCORE:    0.00 PKD
ROOT
HETATM    1  C   UNL     1      -9.158   9.051  67.568  1.00  0.00    -0.145 C  
HETATM    2  C   UNL     1      -8.429   8.920  68.904  1.00  0.00    -0.131 C  
HETATM    3  C   UNL     1      -6.917   8.898  68.654  1.00  0.00    -0.064 C  
ENDROOT
BRANCH   2   4
HETATM    4  O   UNL     1      -8.854  10.015  69.750  1.00  0.00    -0.203 OA 
BRANCH   4   5
HETATM    5  C   UNL     1     -10.024   9.833  70.458  1.00  0.00    -0.193 A  
HETATM    6  C   UNL     1     -11.167  10.636  70.314  1.00  0.00    -0.285 A  
HETATM    7  C   UNL     1     -13.704   8.785  72.417  1.00  0.00    -0.471 C  
HETATM    8  C   UNL     1     -12.357  10.136  70.839  1.00  0.00    -0.461 A  
HETATM    9  C   UNL     1     -10.032   8.720  71.344  1.00  0.00    -0.354 A  
HETATM   10  C   UNL     1     -12.388   9.039  71.722  1.00  0.00    -0.438 A  
HETATM   11  C   UNL     1     -11.206   8.308  72.009  1.00  0.00    -0.389 A  
BRANCH   6  12
HETATM   12  N   UNL     1     -11.221  11.843  69.590  1.00  0.00    -0.455 NA 
HETATM   13  H   UNL     1     -11.467  12.655  70.157  1.00  0.00     0.000 HD 
BRANCH  12  14
HETATM   14  C   UNL     1     -11.005  12.132  68.272  1.00  0.00    -0.234 A  
HETATM   15  N   UNL     1      -9.910  12.854  67.877  1.00  0.00    -0.220 NA 
HETATM   16  C   UNL     1     -11.831  12.257  66.127  1.00  0.00    -0.329 A  
HETATM   17  N   UNL     1     -11.986  11.859  67.440  1.00  0.00    -0.601 NA 
HETATM   18  C   UNL     1      -9.807  13.466  66.621  1.00  0.00    -0.278 A  
HETATM   19  C   UNL     1     -10.852  13.023  65.635  1.00  0.00    -0.273 A  
HETATM   20 CL   UNL     1     -10.813  13.565  64.008  1.00  0.00    -0.236 Cl 
BRANCH  18  21
HETATM   21  N   UNL     1      -8.969  14.394  66.222  1.00  0.00    -0.489 NA 
HETATM   22  H   UNL     1      -8.888  14.616  65.230  1.00  0.00     0.000 HD 
BRANCH  21  23
HETATM   23  C   UNL     1      -8.185  15.078  67.159  1.00  0.00    -0.222 A  
HETATM   24  C   UNL     1      -6.910  14.583  67.474  1.00  0.00    -0.168 A  
HETATM   25  C   UNL     1      -6.264  14.967  68.643  1.00  0.00    -0.085 A  
HETATM   26  C   UNL     1      -6.854  15.915  69.470  1.00  0.00    -0.192 A  
HETATM   27  C   UNL     1      -8.028  16.554  69.072  1.00  0.00    -0.225 A  
HETATM   28  C   UNL     1      -8.674  16.169  67.887  1.00  0.00    -0.174 A  
BRANCH  28  29
HETATM   29  S   UNL     1      -9.811  17.363  67.164  1.00  0.00    -0.289 S  
HETATM   30  O   UNL     1      -9.868  17.060  65.743  1.00  0.00    -0.525 OA 
HETATM   31  O   UNL     1     -11.030  17.244  67.946  1.00  0.00    -0.336 OA 
BRANCH  29  32
HETATM   32  C   UNL     1      -9.209  19.040  67.299  1.00  0.00    -0.286 C  
HETATM   33  C   UNL     1      -8.102  19.354  66.289  1.00  0.00    -0.335 C  
HETATM   34  C   UNL     1     -10.379  20.014  67.083  1.00  0.00    -0.554 C  
ENDBRANCH  29  32
ENDBRANCH  28  29
ENDBRANCH  21  23
ENDBRANCH  18  21
ENDBRANCH  12  14
ENDBRANCH   6  12
BRANCH  11  35
HETATM   35  C   UNL     1     -11.282   7.111  72.979  1.00  0.00    -0.279 C  
HETATM   36  C   UNL     1     -11.560   5.787  72.240  1.00  0.00    -0.300 C  
HETATM   37  C   UNL     1     -10.291   5.182  71.662  1.00  0.00    -0.207 C  
HETATM   38  N   UNL     1      -9.366   4.861  72.739  1.00  0.00    -0.131 NA 
HETATM   39  H   UNL     1      -8.554   4.350  72.393  1.00  0.00     0.000 HD 
HETATM   40  C   UNL     1      -8.969   6.056  73.481  1.00  0.00    -0.124 C  
HETATM   41  C   UNL     1     -10.156   6.856  74.009  1.00  0.00    -0.383 C  
ENDBRANCH  11  35
ENDBRANCH   4   5
ENDBRANCH   2   4
TORSDOF 9
ENDMDL
MODEL        9
REMARK 921   NORMALIZED FREE ENERGY PREDICTED BY IDOCK:   -7.19 KCAL/MOL
REMARK 922        TOTAL FREE ENERGY PREDICTED BY IDOCK:  -13.15 KCAL/MOL
REMARK 923 INTER-LIGAND FREE ENERGY PREDICTED BY IDOCK:  -11.07 KCAL/MOL
REMARK 924 INTRA-LIGAND FREE ENERGY PREDICTED BY IDOCK:   -2.08 KCAL/MOL
REMARK 927      BINDING AFFINITY PREDICTED BY RF-SCORE:    0.00 PKD
ROOT
HETATM    1  C   UNL     1     -10.242   8.907  67.000  1.00  0.00    -0.345 C  
HETATM    2  C   UNL     1      -9.204   9.192  68.085  1.00  0.00    -0.131 C  
HETATM    3  C   UNL     1      -7.829   9.377  67.434  1.00  0.00    -0.102 C  
ENDROOT
BRANCH   2   4
HETATM    4  O   UNL     1      -9.646  10.352  68.829  1.00  0.00    -0.161 OA 
BRANCH   4   5
HETATM    5  C   UNL     1     -10.653  10.151  69.750  1.00  0.00    -0.260 A  
HETATM    6  C   UNL     1     -11.910  10.776  69.695  1.00  0.00    -0.320 A  
HETATM    7  C   UNL     1     -13.793   9.008  72.454  1.00  0.00    -0.540 C  
HETATM    8  C   UNL     1     -12.918  10.230  70.487  1.00  0.00    -0.251 A  
HETATM    9  C   UNL     1     -10.362   9.207  70.774  1.00  0.00    -0.323 A  
HETATM   10  C   UNL     1     -12.652   9.299  71.510  1.00  0.00    -0.430 A  
HETATM   11  C   UNL     1     -11.346   8.773  71.687  1.00  0.00    -0.390 A  
BRANCH   6  12
HETATM   12  N   UNL     1     -12.251  11.829  68.826  1.00  0.00    -0.341 NA 
HETATM   13  H   UNL     1     -12.812  11.539  68.024  1.00  0.00     0.000 HD 
BRANCH  12  14
HETATM   14  C   UNL     1     -11.973  13.167  68.853  1.00  0.00    -0.277 A  
HETATM   15  N   UNL     1     -11.471  13.808  67.751  1.00  0.00    -0.303 NA 
HETATM   16  C   UNL     1     -11.629  15.078  70.090  1.00  0.00    -0.287 A  
HETATM   17  N   UNL     1     -12.025  13.757  70.027  1.00  0.00    -0.321 NA 
HETATM   18  C   UNL     1     -10.857  15.065  67.808  1.00  0.00    -0.284 A  
HETATM   19  C   UNL     1     -11.058  15.787  69.111  1.00  0.00    -0.283 A  
HETATM   20 CL   UNL     1     -10.490  17.392  69.325  1.00  0.00    -0.283 Cl 
BRANCH  18  21
HETATM   21  N   UNL     1     -10.102  15.656  66.911  1.00  0.00    -0.257 NA 
HETATM   22  H   UNL     1     -10.530  16.180  66.148  1.00  0.00     0.000 HD 
BRANCH  21  23
HETATM   23  C   UNL     1      -8.708  15.566  67.002  1.00  0.00    -0.231 A  
HETATM   24  C   UNL     1      -8.110  14.300  67.097  1.00  0.00    -0.154 A  
HETATM   25  C   UNL     1      -6.813  14.156  67.576  1.00  0.00    -0.151 A  
HETATM   26  C   UNL     1      -6.071  15.288  67.890  1.00  0.00    -0.169 A  
HETATM   27  C   UNL     1      -6.586  16.556  67.619  1.00  0.00    -0.171 A  
HETATM   28  C   UNL     1      -7.893  16.697  67.128  1.00  0.00    -0.179 A  
BRANCH  28  29
HETATM   29  S   UNL     1      -8.277  18.244  66.291  1.00  0.00    -0.162 S  
HETATM   30  O   UNL     1      -7.207  18.463  65.331  1.00  0.00    -0.534 OA 
HETATM   31  O   UNL     1      -9.631  18.075  65.790  1.00  0.00    -0.505 OA 
BRANCH  29  32
HETATM   32  C   UNL     1      -8.251  19.642  67.404  1.00  0.00    -0.298 C  
HETATM   33  C   UNL     1      -7.100  20.608  67.113  1.00  0.00    -0.385 C  
HETATM   34  C   UNL     1      -9.585  20.399  67.293  1.00  0.00    -0.592 C  
ENDBRANCH  29  32
ENDBRANCH  28  29
ENDBRANCH  21  23
ENDBRANCH  18  21
ENDBRANCH  12  14
ENDBRANCH   6  12
BRANCH  11  35
HETATM   35  C   UNL     1     -11.095   7.754  72.817  1.00  0.00    -0.457 C  
HETATM   36  C   UNL     1     -11.573   6.340  72.435  1.00  0.00    -0.325 C  
HETATM   37  C   UNL     1     -10.543   5.600  71.597  1.00  0.00    -0.241 C  
HETATM   38  N   UNL     1      -9.321   5.421  72.368  1.00  0.00    -0.144 NA 
HETATM   39  H   UNL     1      -8.652   4.830  71.876  1.00  0.00     0.000 HD 
HETATM   40  C   UNL     1      -8.727   6.705  72.738  1.00  0.00    -0.122 C  
HETATM   41  C   UNL     1      -9.698   7.626  73.470  1.00  0.00    -0.358 C  
ENDBRANCH  11  35
ENDBRANCH   4   5
ENDBRANCH   2   4
TORSDOF 9
ENDMDL
MODEL       10
REMARK 921   NORMALIZED FREE ENERGY PREDICTED BY IDOCK:   -7.18 KCAL/MOL
REMARK 922        TOTAL FREE ENERGY PREDICTED BY IDOCK:  -13.13 KCAL/MOL
REMARK 923 INTER-LIGAND FREE ENERGY PREDICTED BY IDOCK:  -10.62 KCAL/MOL
REMARK 924 INTRA-LIGAND FREE ENERGY PREDICTED BY IDOCK:   -2.51 KCAL/MOL
REMARK 927      BINDING AFFINITY PREDICTED BY RF-SCORE:    0.00 PKD
ROOT
HETATM    1  C   UNL     1     -12.854  13.853  65.278  1.00  0.00    -0.437 C  
HETATM    2  C   UNL     1     -11.968  12.661  64.920  1.00  0.00    -0.406 C  
HETATM    3  C   UNL     1     -11.722  12.650  63.408  1.00  0.00    -0.571 C  
ENDROOT
BRANCH   2   4
HETATM    4  O   UNL     1     -10.752  12.762  65.698  1.00  0.00    -0.266 OA 
BRANCH   4   5
HETATM    5  C   UNL     1     -10.350  11.626  66.370  1.00  0.00    -0.230 A  
HETATM    6  C   UNL     1     -11.037  11.071  67.463  1.00  0.00    -0.302 A  
HETATM    7  C   UNL     1      -9.177   7.825  67.998  1.00  0.00    -0.140 C  
HETATM    8  C   UNL     1     -10.703   9.766  67.817  1.00  0.00    -0.329 A  
HETATM    9  C   UNL     1      -9.186  10.993  65.854  1.00  0.00    -0.220 A  
HETATM   10  C   UNL     1      -9.553   9.121  67.322  1.00  0.00    -0.200 A  
HETATM   11  C   UNL     1      -8.750   9.738  66.328  1.00  0.00    -0.152 A  
BRANCH   6  12
HETATM   12  N   UNL     1     -12.100  11.690  68.148  1.00  0.00    -0.558 NA 
HETATM   13  H   UNL     1     -13.006  11.247  67.990  1.00  0.00     0.000 HD 
BRANCH  12  14
HETATM   14  C   UNL     1     -12.148  12.769  68.984  1.00  0.00    -0.144 A  
HETATM   15  N   UNL     1     -11.673  13.992  68.588  1.00  0.00    -0.332 NA 
HETATM   16  C   UNL     1     -12.420  13.593  71.116  1.00  0.00    -0.359 A  
HETATM   17  N   UNL     1     -12.485  12.534  70.233  1.00  0.00    -0.149 NA 
HETATM   18  C   UNL     1     -11.381  15.029  69.484  1.00  0.00    -0.288 A  
HETATM   19  C   UNL     1     -11.910  14.805  70.874  1.00  0.00    -0.322 A  
HETATM   20 CL   UNL     1     -11.764  16.019  72.077  1.00  0.00    -0.572 Cl 
BRANCH  18  21
HETATM   21  N   UNL     1     -10.676  16.118  69.284  1.00  0.00    -0.271 NA 
HETATM   22  H   UNL     1     -11.121  17.033  69.354  1.00  0.00     0.000 HD 
BRANCH  21  23
HETATM   23  C   UNL     1      -9.315  16.023  68.975  1.00  0.00    -0.239 A  
HETATM   24  C   UNL     1      -8.521  15.094  69.667  1.00  0.00    -0.064 A  
HETATM   25  C   UNL     1      -7.137  15.218  69.695  1.00  0.00    -0.187 A  
HETATM   26  C   UNL     1      -6.527  16.230  68.964  1.00  0.00    -0.162 A  
HETATM   27  C   UNL     1      -7.290  17.039  68.122  1.00  0.00    -0.192 A  
HETATM   28  C   UNL     1      -8.686  16.906  68.089  1.00  0.00    -0.226 A  
BRANCH  28  29
HETATM   29  S   UNL     1      -9.524  17.546  66.630  1.00  0.00    -0.284 S  
HETATM   30  O   UNL     1      -8.477  17.988  65.723  1.00  0.00    -0.499 OA 
HETATM   31  O   UNL     1     -10.404  16.473  66.200  1.00  0.00    -0.319 OA 
BRANCH  29  32
HETATM   32  C   UNL     1     -10.516  18.986  66.996  1.00  0.00    -0.434 C  
HETATM   33  C   UNL     1     -10.109  19.669  68.304  1.00  0.00    -0.560 C  
HETATM   34  C   UNL     1     -10.388  19.993  65.841  1.00  0.00    -0.529 C  
ENDBRANCH  29  32
ENDBRANCH  28  29
ENDBRANCH  21  23
ENDBRANCH  18  21
ENDBRANCH  12  14
ENDBRANCH   6  12
BRANCH  11  35
HETATM   35  C   UNL     1      -7.498   8.999  65.810  1.00  0.00    -0.090 C  
HETATM   36  C   UNL     1      -7.840   8.010  64.679  1.00  0.00    -0.140 C  
HETATM   37  C   UNL     1      -7.937   8.702  63.329  1.00  0.00    -0.163 C  
HETATM   38  N   UNL     1      -6.649   9.286  62.984  1.00  0.00    -0.094 NA 
HETATM   39  H   UNL     1      -6.650   9.659  62.035  1.00  0.00     0.000 HD 
HETATM   40  C   UNL     1      -6.241  10.300  63.956  1.00  0.00    -0.110 C  
HETATM   41  C   UNL     1      -6.234   9.785  65.392  1.00  0.00    -0.080 C  
ENDBRANCH  11  35
ENDBRANCH   4   5
ENDBRANCH   2   4
TORSDOF 9
ENDMDL
MODEL       11
REMARK 921   NORMALIZED FREE ENERGY PREDICTED BY IDOCK:   -7.16 KCAL/MOL
REMARK 922        TOTAL FREE ENERGY PREDICTED BY IDOCK:  -13.10 KCAL/MOL
REMARK 923 INTER-LIGAND FREE ENERGY PREDICTED BY IDOCK:  -11.04 KCAL/MOL
REMARK 924 INTRA-LIGAND FREE ENERGY PREDICTED BY IDOCK:   -2.06 KCAL/MOL
REMARK 927      BINDING AFFINITY PREDICTED BY RF-SCORE:    0.00 PKD
ROOT
HETATM    1  C   UNL     1      -6.485  12.193  68.333  1.00  0.00    -0.056 C  
HETATM    2  C   UNL     1      -6.946  10.883  68.971  1.00  0.00    -0.089 C  
HETATM    3  C   UNL     1      -6.245  10.705  70.322  1.00  0.00    -0.139 C  
ENDROOT
BRANCH   2   4
HETATM    4  O   UNL     1      -8.389  10.924  69.076  1.00  0.00    -0.152 OA 
BRANCH   4   5
HETATM    5  C   UNL     1      -9.073   9.805  68.647  1.00  0.00    -0.130 A  
HETATM    6  C   UNL     1      -9.224   9.441  67.299  1.00  0.00    -0.130 A  
HETATM    7  C   UNL     1     -10.832   6.032  67.577  1.00  0.00    -0.393 C  
HETATM    8  C   UNL     1      -9.643   8.137  67.043  1.00  0.00    -0.253 A  
HETATM    9  C   UNL     1      -9.600   8.981  69.679  1.00  0.00    -0.175 A  
HETATM   10  C   UNL     1     -10.173   7.305  68.049  1.00  0.00    -0.225 A  
HETATM   11  C   UNL     1     -10.177   7.723  69.405  1.00  0.00    -0.208 A  
BRANCH   6  12
HETATM   12  N   UNL     1      -8.882  10.251  66.199  1.00  0.00    -0.148 NA 
HETATM   13  H   UNL     1      -7.938  10.092  65.846  1.00  0.00     0.000 HD 
BRANCH  12  14
HETATM   14  C   UNL     1      -9.576  11.210  65.516  1.00  0.00    -0.226 A  
HETATM   15  N   UNL     1     -10.114  12.291  66.164  1.00  0.00    -0.239 NA 
HETATM   16  C   UNL     1     -10.669  11.851  63.594  1.00  0.00    -0.442 A  
HETATM   17  N   UNL     1      -9.865  10.948  64.260  1.00  0.00    -0.281 NA 
HETATM   18  C   UNL     1     -11.101  13.110  65.602  1.00  0.00    -0.275 A  
HETATM   19  C   UNL     1     -11.309  12.896  64.128  1.00  0.00    -0.393 A  
HETATM   20 CL   UNL     1     -12.384  13.892  63.237  1.00  0.00    -0.075 Cl 
BRANCH  18  21
HETATM   21  N   UNL     1     -11.886  13.980  66.192  1.00  0.00    -0.387 NA 
HETATM   22  H   UNL     1     -12.765  14.255  65.753  1.00  0.00     0.000 HD 
BRANCH  21  23
HETATM   23  C   UNL     1     -11.517  14.531  67.425  1.00  0.00    -0.368 A  
HETATM   24  C   UNL     1     -11.786  13.814  68.601  1.00  0.00    -0.409 A  
HETATM   25  C   UNL     1     -11.811  14.452  69.836  1.00  0.00    -0.382 A  
HETATM   26  C   UNL     1     -11.487  15.800  69.916  1.00  0.00    -0.347 A  
HETATM   27  C   UNL     1     -11.033  16.476  68.783  1.00  0.00    -0.330 A  
HETATM   28  C   UNL     1     -11.001  15.828  67.539  1.00  0.00    -0.293 A  
BRANCH  28  29
HETATM   29  S   UNL     1      -9.914  16.532  66.289  1.00  0.00    -0.346 S  
HETATM   30  O   UNL     1      -8.702  15.729  66.305  1.00  0.00    -0.310 OA 
HETATM   31  O   UNL     1     -10.709  16.561  65.072  1.00  0.00    -0.662 OA 
BRANCH  29  32
HETATM   32  C   UNL     1      -9.419  18.202  66.685  1.00  0.00    -0.302 C  
HETATM   33  C   UNL     1      -8.005  18.532  66.196  1.00  0.00    -0.216 C  
HETATM   34  C   UNL     1     -10.414  19.187  66.050  1.00  0.00    -0.546 C  
ENDBRANCH  29  32
ENDBRANCH  28  29
ENDBRANCH  21  23
ENDBRANCH  18  21
ENDBRANCH  12  14
ENDBRANCH   6  12
BRANCH  11  35
HETATM   35  C   UNL     1     -10.764   6.783  70.478  1.00  0.00    -0.277 C  
HETATM   36  C   UNL     1     -10.013   6.900  71.820  1.00  0.00    -0.183 C  
HETATM   37  C   UNL     1     -10.506   8.078  72.644  1.00  0.00    -0.339 C  
HETATM   38  N   UNL     1     -11.911   7.889  72.978  1.00  0.00    -0.633 NA 
HETATM   39  H   UNL     1     -12.240   8.605  73.625  1.00  0.00     0.000 HD 
HETATM   40  C   UNL     1     -12.745   7.829  71.779  1.00  0.00    -0.329 C  
HETATM   41  C   UNL     1     -12.281   6.775  70.778  1.00  0.00    -0.353 C  
ENDBRANCH  11  35
ENDBRANCH   4   5
ENDBRANCH   2   4
TORSDOF 9
ENDMDL
MODEL       12
REMARK 921   NORMALIZED FREE ENERGY PREDICTED BY IDOCK:   -7.14 KCAL/MOL
REMARK 922        TOTAL FREE ENERGY PREDICTED BY IDOCK:  -13.07 KCAL/MOL
REMARK 923 INTER-LIGAND FREE ENERGY PREDICTED BY IDOCK:  -11.44 KCAL/MOL
REMARK 924 INTRA-LIGAND FREE ENERGY PREDICTED BY IDOCK:   -1.63 KCAL/MOL
REMARK 927      BINDING AFFINITY PREDICTED BY RF-SCORE:    0.00 PKD
ROOT
HETATM    1  C   UNL     1      -8.468   5.985  65.934  1.00  0.00    -0.143 C  
HETATM    2  C   UNL     1      -9.499   6.692  66.813  1.00  0.00    -0.160 C  
HETATM    3  C   UNL     1     -10.576   5.687  67.237  1.00  0.00    -0.328 C  
ENDROOT
BRANCH   2   4
HETATM    4  O   UNL     1      -8.797   7.286  67.931  1.00  0.00    -0.129 OA 
BRANCH   4   5
HETATM    5  C   UNL     1      -9.464   8.272  68.628  1.00  0.00    -0.147 A  
HETATM    6  C   UNL     1      -9.820   9.518  68.086  1.00  0.00    -0.155 A  
HETATM    7  C   UNL     1     -11.953  10.994  70.836  1.00  0.00    -0.391 C  
HETATM    8  C   UNL     1     -10.763  10.263  68.791  1.00  0.00    -0.247 A  
HETATM    9  C   UNL     1      -9.829   7.935  69.961  1.00  0.00    -0.181 A  
HETATM   10  C   UNL     1     -11.136   9.950  70.113  1.00  0.00    -0.353 A  
HETATM   11  C   UNL     1     -10.656   8.771  70.739  1.00  0.00    -0.269 A  
BRANCH   6  12
HETATM   12  N   UNL     1      -9.382  10.014  66.844  1.00  0.00    -0.156 NA 
HETATM   13  H   UNL     1      -8.481   9.640  66.543  1.00  0.00     0.000 HD 
BRANCH  12  14
HETATM   14  C   UNL     1      -9.936  10.901  65.964  1.00  0.00    -0.240 A  
HETATM   15  N   UNL     1     -10.328  12.149  66.371  1.00  0.00    -0.215 NA 
HETATM   16  C   UNL     1     -10.919  11.287  63.918  1.00  0.00    -0.305 A  
HETATM   17  N   UNL     1     -10.249  10.436  64.774  1.00  0.00    -0.318 NA 
HETATM   18  C   UNL     1     -11.193  12.962  65.627  1.00  0.00    -0.295 A  
HETATM   19  C   UNL     1     -11.417  12.490  64.217  1.00  0.00    -0.362 A  
HETATM   20 CL   UNL     1     -12.342  13.423  63.114  1.00  0.00    -0.340 Cl 
BRANCH  18  21
HETATM   21  N   UNL     1     -11.859  14.027  66.011  1.00  0.00    -0.370 NA 
HETATM   22  H   UNL     1     -12.558  14.441  65.394  1.00  0.00     0.000 HD 
BRANCH  21  23
HETATM   23  C   UNL     1     -11.608  14.593  67.266  1.00  0.00    -0.387 A  
HETATM   24  C   UNL     1     -11.868  13.838  68.420  1.00  0.00    -0.411 A  
HETATM   25  C   UNL     1     -12.017  14.452  69.657  1.00  0.00    -0.385 A  
HETATM   26  C   UNL     1     -11.828  15.825  69.766  1.00  0.00    -0.352 A  
HETATM   27  C   UNL     1     -11.384  16.556  68.665  1.00  0.00    -0.237 A  
HETATM   28  C   UNL     1     -11.226  15.931  67.419  1.00  0.00    -0.134 A  
BRANCH  28  29
HETATM   29  S   UNL     1     -10.149  16.754  66.234  1.00  0.00    -0.335 S  
HETATM   30  O   UNL     1      -8.949  15.937  66.141  1.00  0.00    -0.317 OA 
HETATM   31  O   UNL     1     -10.962  16.926  65.041  1.00  0.00    -0.593 OA 
BRANCH  29  32
HETATM   32  C   UNL     1      -9.621  18.364  66.801  1.00  0.00    -0.307 C  
HETATM   33  C   UNL     1      -8.155  18.656  66.470  1.00  0.00    -0.301 C  
HETATM   34  C   UNL     1     -10.508  19.441  66.155  1.00  0.00    -0.600 C  
ENDBRANCH  29  32
ENDBRANCH  28  29
ENDBRANCH  21  23
ENDBRANCH  18  21
ENDBRANCH  12  14
ENDBRANCH   6  12
BRANCH  11  35
HETATM   35  C   UNL     1     -11.087   8.462  72.188  1.00  0.00    -0.415 C  
HETATM   36  C   UNL     1     -12.502   7.852  72.251  1.00  0.00    -0.265 C  
HETATM   37  C   UNL     1     -12.486   6.356  71.982  1.00  0.00    -0.160 C  
HETATM   38  N   UNL     1     -11.705   5.682  73.010  1.00  0.00    -0.535 NA 
HETATM   39  H   UNL     1     -11.770   4.668  72.923  1.00  0.00     0.000 HD 
HETATM   40  C   UNL     1     -10.314   6.130  73.009  1.00  0.00    -0.206 C  
HETATM   41  C   UNL     1     -10.171   7.644  73.128  1.00  0.00    -0.401 C  
ENDBRANCH  11  35
ENDBRANCH   4   5
ENDBRANCH   2   4
TORSDOF 9
ENDMDL
MODEL       13
REMARK 921   NORMALIZED FREE ENERGY PREDICTED BY IDOCK:   -7.12 KCAL/MOL
REMARK 922        TOTAL FREE ENERGY PREDICTED BY IDOCK:  -13.04 KCAL/MOL
REMARK 923 INTER-LIGAND FREE ENERGY PREDICTED BY IDOCK:  -11.52 KCAL/MOL
REMARK 924 INTRA-LIGAND FREE ENERGY PREDICTED BY IDOCK:   -1.52 KCAL/MOL
REMARK 927      BINDING AFFINITY PREDICTED BY RF-SCORE:    0.00 PKD
ROOT
HETATM    1  C   UNL     1     -12.969  10.616  71.683  1.00  0.00    -0.582 C  
HETATM    2  C   UNL     1     -12.900   9.119  71.981  1.00  0.00    -0.408 C  
HETATM    3  C   UNL     1     -14.306   8.601  72.301  1.00  0.00    -0.486 C  
ENDROOT
BRANCH   2   4
HETATM    4  O   UNL     1     -12.296   8.467  70.838  1.00  0.00    -0.197 OA 
BRANCH   4   5
HETATM    5  C   UNL     1     -10.960   8.727  70.611  1.00  0.00    -0.238 A  
HETATM    6  C   UNL     1     -10.474   9.457  69.514  1.00  0.00    -0.218 A  
HETATM    7  C   UNL     1      -6.809   9.815  70.367  1.00  0.00    -0.135 C  
HETATM    8  C   UNL     1      -9.160   9.914  69.597  1.00  0.00    -0.245 A  
HETATM    9  C   UNL     1     -10.067   8.239  71.605  1.00  0.00    -0.279 A  
HETATM   10  C   UNL     1      -8.257   9.441  70.569  1.00  0.00    -0.221 A  
HETATM   11  C   UNL     1      -8.696   8.568  71.598  1.00  0.00    -0.262 A  
BRANCH   6  12
HETATM   12  N   UNL     1     -11.241   9.851  68.402  1.00  0.00    -0.505 NA 
HETATM   13  H   UNL     1     -11.888   9.135  68.071  1.00  0.00     0.000 HD 
BRANCH  12  14
HETATM   14  C   UNL     1     -11.283  11.012  67.681  1.00  0.00    -0.305 A  
HETATM   15  N   UNL     1     -11.453  12.222  68.300  1.00  0.00    -0.291 NA 
HETATM   16  C   UNL     1     -11.515  12.051  65.640  1.00  0.00    -0.316 A  
HETATM   17  N   UNL     1     -11.349  10.893  66.373  1.00  0.00    -0.091 NA 
HETATM   18  C   UNL     1     -11.840  13.384  67.620  1.00  0.00    -0.354 A  
HETATM   19  C   UNL     1     -11.763  13.272  66.123  1.00  0.00    -0.374 A  
HETATM   20 CL   UNL     1     -12.074  14.631  65.122  1.00  0.00    -0.342 Cl 
BRANCH  18  21
HETATM   21  N   UNL     1     -12.301  14.511  68.109  1.00  0.00    -0.588 NA 
HETATM   22  H   UNL     1     -12.864  15.129  67.524  1.00  0.00     0.000 HD 
BRANCH  21  23
HETATM   23  C   UNL     1     -12.021  14.865  69.434  1.00  0.00    -0.301 A  
HETATM   24  C   UNL     1     -12.591  14.117  70.476  1.00  0.00    -0.410 A  
HETATM   25  C   UNL     1     -12.677  14.634  71.763  1.00  0.00    -0.405 A  
HETATM   26  C   UNL     1     -12.121  15.877  72.039  1.00  0.00    -0.591 A  
HETATM   27  C   UNL     1     -11.386  16.544  71.058  1.00  0.00    -0.062 A  
HETATM   28  C   UNL     1     -11.294  16.015  69.762  1.00  0.00    -0.331 A  
BRANCH  28  29
HETATM   29  S   UNL     1      -9.922  16.594  68.751  1.00  0.00    -0.280 S  
HETATM   30  O   UNL     1      -8.712  16.095  69.385  1.00  0.00    -0.227 OA 
HETATM   31  O   UNL     1     -10.232  16.145  67.403  1.00  0.00    -0.260 OA 
BRANCH  29  32
HETATM   32  C   UNL     1      -9.789  18.375  68.742  1.00  0.00    -0.361 C  
HETATM   33  C   UNL     1      -8.343  18.861  68.605  1.00  0.00    -0.384 C  
HETATM   34  C   UNL     1     -10.622  18.937  67.578  1.00  0.00    -0.524 C  
ENDBRANCH  29  32
ENDBRANCH  28  29
ENDBRANCH  21  23
ENDBRANCH  18  21
ENDBRANCH  12  14
ENDBRANCH   6  12
BRANCH  11  35
HETATM   35  C   UNL     1      -7.677   8.073  72.646  1.00  0.00    -0.160 C  
HETATM   36  C   UNL     1      -8.260   8.100  74.073  1.00  0.00    -0.314 C  
HETATM   37  C   UNL     1      -9.097   6.865  74.367  1.00  0.00    -0.206 C  
HETATM   38  N   UNL     1      -8.261   5.676  74.291  1.00  0.00    -0.104 NA 
HETATM   39  H   UNL     1      -8.767   4.844  74.594  1.00  0.00     0.000 HD 
HETATM   40  C   UNL     1      -7.698   5.500  72.953  1.00  0.00    -0.098 C  
HETATM   41  C   UNL     1      -6.939   6.727  72.456  1.00  0.00    -0.064 C  
ENDBRANCH  11  35
ENDBRANCH   4   5
ENDBRANCH   2   4
TORSDOF 9
ENDMDL
MODEL       14
REMARK 921   NORMALIZED FREE ENERGY PREDICTED BY IDOCK:   -7.08 KCAL/MOL
REMARK 922        TOTAL FREE ENERGY PREDICTED BY IDOCK:  -12.97 KCAL/MOL
REMARK 923 INTER-LIGAND FREE ENERGY PREDICTED BY IDOCK:  -11.12 KCAL/MOL
REMARK 924 INTRA-LIGAND FREE ENERGY PREDICTED BY IDOCK:   -1.86 KCAL/MOL
REMARK 927      BINDING AFFINITY PREDICTED BY RF-SCORE:    0.00 PKD
ROOT
HETATM    1  C   UNL     1     -13.467   9.746  72.240  1.00  0.00    -0.443 C  
HETATM    2  C   UNL     1     -13.021  10.900  71.342  1.00  0.00    -0.424 C  
HETATM    3  C   UNL     1     -13.354  12.230  72.025  1.00  0.00    -0.491 C  
ENDROOT
BRANCH   2   4
HETATM    4  O   UNL     1     -11.609  10.732  71.072  1.00  0.00    -0.264 OA 
BRANCH   4   5
HETATM    5  C   UNL     1     -11.274  10.049  69.922  1.00  0.00    -0.275 A  
HETATM    6  C   UNL     1     -11.345  10.596  68.630  1.00  0.00    -0.281 A  
HETATM    7  C   UNL     1      -9.730   7.894  66.538  1.00  0.00    -0.279 C  
HETATM    8  C   UNL     1     -10.671   9.912  67.620  1.00  0.00    -0.339 A  
HETATM    9  C   UNL     1     -10.792   8.725  70.118  1.00  0.00    -0.241 A  
HETATM   10  C   UNL     1     -10.189   8.600  67.791  1.00  0.00    -0.282 A  
HETATM   11  C   UNL     1     -10.256   7.964  69.058  1.00  0.00    -0.216 A  
BRANCH   6  12
HETATM   12  N   UNL     1     -11.945  11.828  68.306  1.00  0.00    -0.528 NA 
HETATM   13  H   UNL     1     -12.770  12.046  68.866  1.00  0.00     0.000 HD 
BRANCH  12  14
HETATM   14  C   UNL     1     -11.632  12.786  67.384  1.00  0.00    -0.356 A  
HETATM   15  N   UNL     1     -10.858  13.866  67.721  1.00  0.00    -0.248 NA 
HETATM   16  C   UNL     1     -12.047  13.755  65.337  1.00  0.00    -0.407 A  
HETATM   17  N   UNL     1     -12.261  12.725  66.231  1.00  0.00    -0.538 NA 
HETATM   18  C   UNL     1     -10.785  15.030  66.945  1.00  0.00    -0.308 A  
HETATM   19  C   UNL     1     -11.379  14.889  65.571  1.00  0.00    -0.339 A  
HETATM   20 CL   UNL     1     -11.269  16.165  64.430  1.00  0.00    -0.358 Cl 
BRANCH  18  21
HETATM   21  N   UNL     1     -10.324  16.214  67.275  1.00  0.00    -0.282 NA 
HETATM   22  H   UNL     1     -10.967  16.996  67.395  1.00  0.00     0.000 HD 
BRANCH  21  23
HETATM   23  C   UNL     1      -8.950  16.402  67.462  1.00  0.00    -0.192 A  
HETATM   24  C   UNL     1      -8.053  15.464  66.927  1.00  0.00    -0.259 A  
HETATM   25  C   UNL     1      -6.748  15.373  67.397  1.00  0.00    -0.178 A  
HETATM   26  C   UNL     1      -6.303  16.277  68.354  1.00  0.00    -0.119 A  
HETATM   27  C   UNL     1      -7.125  17.332  68.753  1.00  0.00    -0.238 A  
HETATM   28  C   UNL     1      -8.438  17.424  68.270  1.00  0.00    -0.249 A  
BRANCH  28  29
HETATM   29  S   UNL     1      -9.219  19.044  68.362  1.00  0.00    -0.366 S  
HETATM   30  O   UNL     1     -10.622  18.802  68.658  1.00  0.00    -0.161 OA 
HETATM   31  O   UNL     1      -8.427  19.790  69.326  1.00  0.00    -0.141 OA 
BRANCH  29  32
HETATM   32  C   UNL     1      -9.175  19.908  66.799  1.00  0.00    -0.378 C  
HETATM   33  C   UNL     1      -8.019  19.452  65.903  1.00  0.00    -0.198 C  
HETATM   34  C   UNL     1     -10.504  19.681  66.060  1.00  0.00    -0.622 C  
ENDBRANCH  29  32
ENDBRANCH  28  29
ENDBRANCH  21  23
ENDBRANCH  18  21
ENDBRANCH  12  14
ENDBRANCH   6  12
BRANCH  11  35
HETATM   35  C   UNL     1      -9.716   6.527  69.205  1.00  0.00    -0.152 C  
HETATM   36  C   UNL     1      -8.292   6.503  69.795  1.00  0.00    -0.127 C  
HETATM   37  C   UNL     1      -8.305   6.607  71.311  1.00  0.00    -0.124 C  
HETATM   38  N   UNL     1      -8.999   5.459  71.876  1.00  0.00    -0.135 NA 
HETATM   39  H   UNL     1      -8.925   5.441  72.893  1.00  0.00     0.000 HD 
HETATM   40  C   UNL     1     -10.394   5.406  71.441  1.00  0.00    -0.228 C  
HETATM   41  C   UNL     1     -10.550   5.440  69.923  1.00  0.00    -0.351 C  
ENDBRANCH  11  35
ENDBRANCH   4   5
ENDBRANCH   2   4
TORSDOF 9
ENDMDL
MODEL       15
REMARK 921   NORMALIZED FREE ENERGY PREDICTED BY IDOCK:   -7.06 KCAL/MOL
REMARK 922        TOTAL FREE ENERGY PREDICTED BY IDOCK:  -12.94 KCAL/MOL
REMARK 923 INTER-LIGAND FREE ENERGY PREDICTED BY IDOCK:  -10.85 KCAL/MOL
REMARK 924 INTRA-LIGAND FREE ENERGY PREDICTED BY IDOCK:   -2.09 KCAL/MOL
REMARK 927      BINDING AFFINITY PREDICTED BY RF-SCORE:    0.00 PKD
ROOT
HETATM    1  C   UNL     1      -9.478   8.627  66.178  1.00  0.00    -0.308 C  
HETATM    2  C   UNL     1      -9.623   9.550  67.388  1.00  0.00    -0.141 C  
HETATM    3  C   UNL     1      -9.739  11.000  66.907  1.00  0.00    -0.215 C  
ENDROOT
BRANCH   2   4
HETATM    4  O   UNL     1     -10.771   9.105  68.150  1.00  0.00    -0.206 OA 
BRANCH   4   5
HETATM    5  C   UNL     1     -10.555   8.808  69.479  1.00  0.00    -0.219 A  
HETATM    6  C   UNL     1     -11.404   9.206  70.525  1.00  0.00    -0.257 A  
HETATM    7  C   UNL     1      -9.935   7.363  73.480  1.00  0.00    -0.377 C  
HETATM    8  C   UNL     1     -11.238   8.561  71.749  1.00  0.00    -0.379 A  
HETATM    9  C   UNL     1      -9.409   8.008  69.746  1.00  0.00    -0.159 A  
HETATM   10  C   UNL     1     -10.110   7.769  72.037  1.00  0.00    -0.244 A  
HETATM   11  C   UNL     1      -9.150   7.486  71.031  1.00  0.00    -0.148 A  
BRANCH   6  12
HETATM   12  N   UNL     1     -12.469  10.118  70.398  1.00  0.00    -0.489 NA 
HETATM   13  H   UNL     1     -13.388   9.676  70.347  1.00  0.00     0.000 HD 
BRANCH  12  14
HETATM   14  C   UNL     1     -12.505  11.482  70.331  1.00  0.00    -0.240 A  
HETATM   15  N   UNL     1     -11.923  12.155  69.289  1.00  0.00    -0.289 NA 
HETATM   16  C   UNL     1     -12.874  13.493  71.390  1.00  0.00    -0.355 A  
HETATM   17  N   UNL     1     -12.946  12.114  71.397  1.00  0.00    -0.330 NA 
HETATM   18  C   UNL     1     -11.628  13.524  69.328  1.00  0.00    -0.316 A  
HETATM   19  C   UNL     1     -12.269  14.256  70.475  1.00  0.00    -0.356 A  
HETATM   20 CL   UNL     1     -12.129  15.960  70.618  1.00  0.00    -0.399 Cl 
BRANCH  18  21
HETATM   21  N   UNL     1     -10.840  14.221  68.543  1.00  0.00    -0.245 NA 
HETATM   22  H   UNL     1      -9.939  14.551  68.888  1.00  0.00     0.000 HD 
BRANCH  21  23
HETATM   23  C   UNL     1     -11.238  14.510  67.233  1.00  0.00    -0.332 A  
HETATM   24  C   UNL     1     -12.385  13.891  66.715  1.00  0.00    -0.370 A  
HETATM   25  C   UNL     1     -12.604  13.824  65.344  1.00  0.00    -0.534 A  
HETATM   26  C   UNL     1     -11.714  14.449  64.479  1.00  0.00    -0.430 A  
HETATM   27  C   UNL     1     -10.676  15.228  64.990  1.00  0.00    -0.461 A  
HETATM   28  C   UNL     1     -10.463  15.300  66.375  1.00  0.00    -0.303 A  
BRANCH  28  29
HETATM   29  S   UNL     1      -9.519  16.711  66.973  1.00  0.00    -0.237 S  
HETATM   30  O   UNL     1      -8.929  16.298  68.237  1.00  0.00    -0.184 OA 
HETATM   31  O   UNL     1      -8.631  17.063  65.878  1.00  0.00    -0.521 OA 
BRANCH  29  32
HETATM   32  C   UNL     1     -10.559  18.118  67.338  1.00  0.00    -0.388 C  
HETATM   33  C   UNL     1     -10.123  18.864  68.602  1.00  0.00    -0.447 C  
HETATM   34  C   UNL     1     -10.531  19.088  66.145  1.00  0.00    -0.541 C  
ENDBRANCH  29  32
ENDBRANCH  28  29
ENDBRANCH  21  23
ENDBRANCH  18  21
ENDBRANCH  12  14
ENDBRANCH   6  12
BRANCH  11  35
HETATM   35  C   UNL     1      -7.928   6.613  71.384  1.00  0.00    -0.107 C  
HETATM   36  C   UNL     1      -8.246   5.108  71.283  1.00  0.00    -0.117 C  
HETATM   37  C   UNL     1      -8.140   4.601  69.853  1.00  0.00    -0.068 C  
HETATM   38  N   UNL     1      -6.774   4.762  69.376  1.00  0.00    -0.043 NA 
HETATM   39  H   UNL     1      -6.645   4.327  68.463  1.00  0.00     0.000 HD 
HETATM   40  C   UNL     1      -6.372   6.167  69.361  1.00  0.00    -0.041 C  
HETATM   41  C   UNL     1      -6.559   6.859  70.708  1.00  0.00    -0.052 C  
ENDBRANCH  11  35
ENDBRANCH   4   5
ENDBRANCH   2   4
TORSDOF 9
ENDMDL
MODEL       16
REMARK 921   NORMALIZED FREE ENERGY PREDICTED BY IDOCK:   -7.05 KCAL/MOL
REMARK 922        TOTAL FREE ENERGY PREDICTED BY IDOCK:  -12.92 KCAL/MOL
REMARK 923 INTER-LIGAND FREE ENERGY PREDICTED BY IDOCK:  -10.99 KCAL/MOL
REMARK 924 INTRA-LIGAND FREE ENERGY PREDICTED BY IDOCK:   -1.93 KCAL/MOL
REMARK 927      BINDING AFFINITY PREDICTED BY RF-SCORE:    0.00 PKD
ROOT
HETATM    1  C   UNL     1      -8.039   9.644  67.608  1.00  0.00    -0.113 C  
HETATM    2  C   UNL     1      -8.429  10.040  69.031  1.00  0.00    -0.147 C  
HETATM    3  C   UNL     1      -7.246  10.747  69.701  1.00  0.00    -0.127 C  
ENDROOT
BRANCH   2   4
HETATM    4  O   UNL     1      -9.618  10.862  68.953  1.00  0.00    -0.192 OA 
BRANCH   4   5
HETATM    5  C   UNL     1     -10.583  10.648  69.915  1.00  0.00    -0.151 A  
HETATM    6  C   UNL     1     -11.563  11.590  70.272  1.00  0.00    -0.214 A  
HETATM    7  C   UNL     1     -13.772   9.586  72.595  1.00  0.00    -0.255 C  
HETATM    8  C   UNL     1     -12.650  11.117  71.005  1.00  0.00    -0.503 A  
HETATM    9  C   UNL     1     -10.565   9.361  70.520  1.00  0.00    -0.331 A  
HETATM   10  C   UNL     1     -12.652   9.849  71.617  1.00  0.00    -0.519 A  
HETATM   11  C   UNL     1     -11.586   8.938  71.397  1.00  0.00    -0.382 A  
BRANCH   6  12
HETATM   12  N   UNL     1     -11.582  12.934  69.855  1.00  0.00    -0.511 NA 
HETATM   13  H   UNL     1     -11.880  13.588  70.580  1.00  0.00     0.000 HD 
BRANCH  12  14
HETATM   14  C   UNL     1     -11.278  13.529  68.663  1.00  0.00    -0.278 A  
HETATM   15  N   UNL     1     -10.378  14.560  68.597  1.00  0.00    -0.237 NA 
HETATM   16  C   UNL     1     -11.809  13.885  66.451  1.00  0.00    -0.411 A  
HETATM   17  N   UNL     1     -12.025  13.202  67.632  1.00  0.00    -0.346 NA 
HETATM   18  C   UNL     1     -10.277  15.422  67.498  1.00  0.00    -0.244 A  
HETATM   19  C   UNL     1     -11.019  14.949  66.278  1.00  0.00    -0.338 A  
HETATM   20 CL   UNL     1     -10.909  15.804  64.795  1.00  0.00    -0.441 Cl 
BRANCH  18  21
HETATM   21  N   UNL     1      -9.678  16.587  67.415  1.00  0.00    -0.243 NA 
HETATM   22  H   UNL     1     -10.217  17.423  67.186  1.00  0.00     0.000 HD 
BRANCH  21  23
HETATM   23  C   UNL     1      -8.300  16.682  67.640  1.00  0.00    -0.173 A  
HETATM   24  C   UNL     1      -7.453  15.694  67.115  1.00  0.00    -0.253 A  
HETATM   25  C   UNL     1      -6.170  15.512  67.617  1.00  0.00    -0.174 A  
HETATM   26  C   UNL     1      -5.692  16.373  68.598  1.00  0.00    -0.109 A  
HETATM   27  C   UNL     1      -6.453  17.474  68.990  1.00  0.00    -0.227 A  
HETATM   28  C   UNL     1      -7.745  17.659  68.474  1.00  0.00    -0.281 A  
BRANCH  28  29
HETATM   29  S   UNL     1      -8.420  19.325  68.569  1.00  0.00    -0.367 S  
HETATM   30  O   UNL     1      -9.811  19.177  68.968  1.00  0.00    -0.410 OA 
HETATM   31  O   UNL     1      -7.520  20.047  69.452  1.00  0.00    -0.167 OA 
BRANCH  29  32
HETATM   32  C   UNL     1      -8.436  20.141  66.980  1.00  0.00    -0.335 C  
HETATM   33  C   UNL     1      -7.326  19.644  66.048  1.00  0.00    -0.308 C  
HETATM   34  C   UNL     1      -9.799  19.911  66.308  1.00  0.00    -0.570 C  
ENDBRANCH  29  32
ENDBRANCH  28  29
ENDBRANCH  21  23
ENDBRANCH  18  21
ENDBRANCH  12  14
ENDBRANCH   6  12
BRANCH  11  35
HETATM   35  C   UNL     1     -11.625   7.557  72.084  1.00  0.00    -0.340 C  
HETATM   36  C   UNL     1     -11.479   6.405  71.070  1.00  0.00    -0.394 C  
HETATM   37  C   UNL     1     -10.023   6.141  70.719  1.00  0.00    -0.189 C  
HETATM   38  N   UNL     1      -9.298   5.729  71.912  1.00  0.00    -0.151 NA 
HETATM   39  H   UNL     1      -8.348   5.435  71.688  1.00  0.00     0.000 HD 
HETATM   40  C   UNL     1      -9.307   6.774  72.934  1.00  0.00    -0.135 C  
HETATM   41  C   UNL     1     -10.712   7.250  73.293  1.00  0.00    -0.428 C  
ENDBRANCH  11  35
ENDBRANCH   4   5
ENDBRANCH   2   4
TORSDOF 9
ENDMDL
MODEL       17
REMARK 921   NORMALIZED FREE ENERGY PREDICTED BY IDOCK:   -7.04 KCAL/MOL
REMARK 922        TOTAL FREE ENERGY PREDICTED BY IDOCK:  -12.91 KCAL/MOL
REMARK 923 INTER-LIGAND FREE ENERGY PREDICTED BY IDOCK:  -11.32 KCAL/MOL
REMARK 924 INTRA-LIGAND FREE ENERGY PREDICTED BY IDOCK:   -1.59 KCAL/MOL
REMARK 927      BINDING AFFINITY PREDICTED BY RF-SCORE:    0.00 PKD
ROOT
HETATM    1  C   UNL     1     -13.848  15.094  71.332  1.00  0.00    -0.587 C  
HETATM    2  C   UNL     1     -12.413  15.556  71.080  1.00  0.00    -0.432 C  
HETATM    3  C   UNL     1     -11.821  16.100  72.385  1.00  0.00    -0.637 C  
ENDROOT
BRANCH   2   4
HETATM    4  O   UNL     1     -11.675  14.435  70.539  1.00  0.00    -0.286 OA 
BRANCH   4   5
HETATM    5  C   UNL     1     -11.455  14.437  69.177  1.00  0.00    -0.294 A  
HETATM    6  C   UNL     1     -11.827  13.390  68.317  1.00  0.00    -0.358 A  
HETATM    7  C   UNL     1     -11.101  14.871  64.916  1.00  0.00    -0.424 C  
HETATM    8  C   UNL     1     -11.842  13.675  66.953  1.00  0.00    -0.451 A  
HETATM    9  C   UNL     1     -10.851  15.615  68.660  1.00  0.00    -0.273 A  
HETATM   10  C   UNL     1     -11.246  14.833  66.417  1.00  0.00    -0.342 A  
HETATM   11  C   UNL     1     -10.715  15.834  67.272  1.00  0.00    -0.313 A  
BRANCH   6  12
HETATM   12  N   UNL     1     -12.286  12.126  68.732  1.00  0.00    -0.178 NA 
HETATM   13  H   UNL     1     -13.072  11.772  68.187  1.00  0.00     0.000 HD 
BRANCH  12  14
HETATM   14  C   UNL     1     -11.877  11.284  69.728  1.00  0.00    -0.364 A  
HETATM   15  N   UNL     1     -10.717  10.563  69.612  1.00  0.00    -0.251 NA 
HETATM   16  C   UNL     1     -12.385  10.111  71.642  1.00  0.00    -0.377 A  
HETATM   17  N   UNL     1     -12.736  11.053  70.696  1.00  0.00    -0.313 NA 
HETATM   18  C   UNL     1     -10.420   9.454  70.414  1.00  0.00    -0.256 A  
HETATM   19  C   UNL     1     -11.326   9.297  71.603  1.00  0.00    -0.397 A  
HETATM   20 CL   UNL     1     -11.040   8.073  72.771  1.00  0.00    -0.455 Cl 
BRANCH  18  21
HETATM   21  N   UNL     1      -9.508   8.526  70.234  1.00  0.00    -0.163 NA 
HETATM   22  H   UNL     1      -8.663   8.525  70.804  1.00  0.00     0.000 HD 
BRANCH  21  23
HETATM   23  C   UNL     1      -9.697   7.541  69.259  1.00  0.00    -0.163 A  
HETATM   24  C   UNL     1     -10.172   7.916  67.992  1.00  0.00    -0.256 A  
HETATM   25  C   UNL     1     -10.742   6.980  67.137  1.00  0.00    -0.433 A  
HETATM   26  C   UNL     1     -10.770   5.641  67.510  1.00  0.00    -0.272 A  
HETATM   27  C   UNL     1     -10.130   5.230  68.680  1.00  0.00    -0.238 A  
HETATM   28  C   UNL     1      -9.548   6.177  69.536  1.00  0.00    -0.143 A  
BRANCH  28  29
HETATM   29  S   UNL     1      -8.296   5.569  70.678  1.00  0.00    -0.119 S  
HETATM   30  O   UNL     1      -7.630   4.468  70.001  1.00  0.00    -0.053 OA 
HETATM   31  O   UNL     1      -7.510   6.740  71.032  1.00  0.00    -0.081 OA 
BRANCH  29  32
HETATM   32  C   UNL     1      -9.009   4.889  72.168  1.00  0.00    -0.131 C  
HETATM   33  C   UNL     1      -9.598   3.490  71.957  1.00  0.00    -0.212 C  
HETATM   34  C   UNL     1      -7.928   4.821  73.259  1.00  0.00    -0.100 C  
ENDBRANCH  29  32
ENDBRANCH  28  29
ENDBRANCH  21  23
ENDBRANCH  18  21
ENDBRANCH  12  14
ENDBRANCH   6  12
BRANCH  11  35
HETATM   35  C   UNL     1     -10.072  17.089  66.649  1.00  0.00    -0.308 C  
HETATM   36  C   UNL     1     -10.599  18.387  67.291  1.00  0.00    -0.435 C  
HETATM   37  C   UNL     1      -9.875  18.713  68.587  1.00  0.00    -0.385 C  
HETATM   38  N   UNL     1      -8.462  18.937  68.317  1.00  0.00    -0.318 NA 
HETATM   39  H   UNL     1      -7.971  19.269  69.147  1.00  0.00     0.000 HD 
HETATM   40  C   UNL     1      -7.825  17.744  67.761  1.00  0.00    -0.216 C  
HETATM   41  C   UNL     1      -8.535  17.209  66.521  1.00  0.00    -0.309 C  
ENDBRANCH  11  35
ENDBRANCH   4   5
ENDBRANCH   2   4
TORSDOF 9
ENDMDL
MODEL       18
REMARK 921   NORMALIZED FREE ENERGY PREDICTED BY IDOCK:   -7.03 KCAL/MOL
REMARK 922        TOTAL FREE ENERGY PREDICTED BY IDOCK:  -12.89 KCAL/MOL
REMARK 923 INTER-LIGAND FREE ENERGY PREDICTED BY IDOCK:  -10.69 KCAL/MOL
REMARK 924 INTRA-LIGAND FREE ENERGY PREDICTED BY IDOCK:   -2.21 KCAL/MOL
REMARK 927      BINDING AFFINITY PREDICTED BY RF-SCORE:    0.00 PKD
ROOT
HETATM    1  C   UNL     1     -12.526  12.981  65.565  1.00  0.00    -0.496 C  
HETATM    2  C   UNL     1     -11.675  14.247  65.659  1.00  0.00    -0.358 C  
HETATM    3  C   UNL     1     -12.047  15.192  64.513  1.00  0.00    -0.310 C  
ENDROOT
BRANCH   2   4
HETATM    4  O   UNL     1     -11.885  14.825  66.970  1.00  0.00    -0.362 OA 
BRANCH   4   5
HETATM    5  C   UNL     1     -10.756  15.090  67.718  1.00  0.00    -0.278 A  
HETATM    6  C   UNL     1      -9.972  14.104  68.338  1.00  0.00    -0.235 A  
HETATM    7  C   UNL     1      -7.026  16.113  69.592  1.00  0.00    -0.112 C  
HETATM    8  C   UNL     1      -8.704  14.489  68.769  1.00  0.00    -0.147 A  
HETATM    9  C   UNL     1     -10.385  16.461  67.795  1.00  0.00    -0.287 A  
HETATM   10  C   UNL     1      -8.316  15.841  68.858  1.00  0.00    -0.213 A  
HETATM   11  C   UNL     1      -9.169  16.870  68.381  1.00  0.00    -0.253 A  
BRANCH   6  12
HETATM   12  N   UNL     1     -10.324  12.747  68.457  1.00  0.00    -0.272 NA 
HETATM   13  H   UNL     1     -10.031  12.172  67.666  1.00  0.00     0.000 HD 
BRANCH  12  14
HETATM   14  C   UNL     1     -10.985  12.052  69.431  1.00  0.00    -0.066 A  
HETATM   15  N   UNL     1     -10.773  10.710  69.609  1.00  0.00    -0.252 NA 
HETATM   16  C   UNL     1     -12.717  11.954  70.945  1.00  0.00    -0.209 A  
HETATM   17  N   UNL     1     -11.962  12.681  70.046  1.00  0.00    -0.341 NA 
HETATM   18  C   UNL     1     -11.642   9.886  70.336  1.00  0.00    -0.282 A  
HETATM   19  C   UNL     1     -12.657  10.635  71.153  1.00  0.00    -0.423 A  
HETATM   20 CL   UNL     1     -13.724   9.804  72.209  1.00  0.00    -0.407 Cl 
BRANCH  18  21
HETATM   21  N   UNL     1     -11.715   8.575  70.353  1.00  0.00    -0.476 NA 
HETATM   22  H   UNL     1     -12.432   8.098  69.806  1.00  0.00     0.000 HD 
BRANCH  21  23
HETATM   23  C   UNL     1     -10.810   7.834  71.121  1.00  0.00    -0.235 A  
HETATM   24  C   UNL     1     -10.940   7.836  72.519  1.00  0.00    -0.395 A  
HETATM   25  C   UNL     1      -9.879   7.463  73.335  1.00  0.00    -0.345 A  
HETATM   26  C   UNL     1      -8.700   7.007  72.758  1.00  0.00    -0.136 A  
HETATM   27  C   UNL     1      -8.626   6.821  71.377  1.00  0.00    -0.124 A  
HETATM   28  C   UNL     1      -9.703   7.190  70.557  1.00  0.00    -0.176 A  
BRANCH  28  29
HETATM   29  S   UNL     1      -9.775   6.427  68.928  1.00  0.00    -0.127 S  
HETATM   30  O   UNL     1      -8.797   5.351  68.941  1.00  0.00    -0.100 OA 
HETATM   31  O   UNL     1     -11.175   6.087  68.733  1.00  0.00    -0.331 OA 
BRANCH  29  32
HETATM   32  C   UNL     1      -9.274   7.549  67.631  1.00  0.00    -0.127 C  
HETATM   33  C   UNL     1     -10.460   8.264  66.977  1.00  0.00    -0.384 C  
HETATM   34  C   UNL     1      -8.313   8.597  68.214  1.00  0.00    -0.127 C  
ENDBRANCH  29  32
ENDBRANCH  28  29
ENDBRANCH  21  23
ENDBRANCH  18  21
ENDBRANCH  12  14
ENDBRANCH   6  12
BRANCH  11  35
HETATM   35  C   UNL     1      -8.708  18.338  68.495  1.00  0.00    -0.325 C  
HETATM   36  C   UNL     1      -7.764  18.737  67.343  1.00  0.00    -0.240 C  
HETATM   37  C   UNL     1      -8.531  19.120  66.088  1.00  0.00    -0.232 C  
HETATM   38  N   UNL     1      -9.361  20.286  66.357  1.00  0.00    -0.600 NA 
HETATM   39  H   UNL     1      -9.800  20.636  65.505  1.00  0.00     0.000 HD 
HETATM   40  C   UNL     1     -10.353  20.011  67.395  1.00  0.00    -0.393 C  
HETATM   41  C   UNL     1      -9.738  19.476  68.685  1.00  0.00    -0.514 C  
ENDBRANCH  11  35
ENDBRANCH   4   5
ENDBRANCH   2   4
TORSDOF 9
ENDMDL
MODEL       19
REMARK 921   NORMALIZED FREE ENERGY PREDICTED BY IDOCK:   -7.02 KCAL/MOL
REMARK 922        TOTAL FREE ENERGY PREDICTED BY IDOCK:  -12.88 KCAL/MOL
REMARK 923 INTER-LIGAND FREE ENERGY PREDICTED BY IDOCK:  -10.18 KCAL/MOL
REMARK 924 INTRA-LIGAND FREE ENERGY PREDICTED BY IDOCK:   -2.70 KCAL/MOL
REMARK 927      BINDING AFFINITY PREDICTED BY RF-SCORE:    0.00 PKD
ROOT
HETATM    1  C   UNL     1     -10.551  12.826  64.096  1.00  0.00    -0.441 C  
HETATM    2  C   UNL     1     -11.250  13.608  65.208  1.00  0.00    -0.299 C  
HETATM    3  C   UNL     1     -12.749  13.290  65.183  1.00  0.00    -0.464 C  
ENDROOT
BRANCH   2   4
HETATM    4  O   UNL     1     -10.612  13.264  66.461  1.00  0.00    -0.281 OA 
BRANCH   4   5
HETATM    5  C   UNL     1     -10.930  14.045  67.553  1.00  0.00    -0.277 A  
HETATM    6  C   UNL     1     -11.503  13.552  68.736  1.00  0.00    -0.311 A  
HETATM    7  C   UNL     1     -11.390  16.582  70.992  1.00  0.00    -0.062 C  
HETATM    8  C   UNL     1     -11.459  14.386  69.851  1.00  0.00    -0.314 A  
HETATM    9  C   UNL     1     -10.593  15.422  67.435  1.00  0.00    -0.289 A  
HETATM   10  C   UNL     1     -11.133  15.753  69.758  1.00  0.00    -0.322 A  
HETATM   11  C   UNL     1     -10.703  16.310  68.525  1.00  0.00    -0.307 A  
BRANCH   6  12
HETATM   12  N   UNL     1     -12.014  12.251  68.905  1.00  0.00    -0.291 NA 
HETATM   13  H   UNL     1     -12.669  11.965  68.177  1.00  0.00     0.000 HD 
BRANCH  12  14
HETATM   14  C   UNL     1     -11.797  11.297  69.860  1.00  0.00    -0.360 A  
HETATM   15  N   UNL     1     -10.733  10.438  69.773  1.00  0.00    -0.267 NA 
HETATM   16  C   UNL     1     -12.603  10.078  71.639  1.00  0.00    -0.427 A  
HETATM   17  N   UNL     1     -12.754  11.119  70.744  1.00  0.00    -0.320 NA 
HETATM   18  C   UNL     1     -10.645   9.249  70.507  1.00  0.00    -0.252 A  
HETATM   19  C   UNL     1     -11.656   9.135  71.614  1.00  0.00    -0.379 A  
HETATM   20 CL   UNL     1     -11.623   7.809  72.703  1.00  0.00    -0.409 Cl 
BRANCH  18  21
HETATM   21  N   UNL     1      -9.847   8.223  70.322  1.00  0.00    -0.182 NA 
HETATM   22  H   UNL     1      -9.195   7.945  71.056  1.00  0.00     0.000 HD 
BRANCH  21  23
HETATM   23  C   UNL     1      -9.893   7.509  69.119  1.00  0.00    -0.170 A  
HETATM   24  C   UNL     1     -10.986   6.667  68.866  1.00  0.00    -0.325 A  
HETATM   25  C   UNL     1     -10.907   5.661  67.910  1.00  0.00    -0.171 A  
HETATM   26  C   UNL     1      -9.757   5.540  67.140  1.00  0.00    -0.155 A  
HETATM   27  C   UNL     1      -8.740   6.489  67.251  1.00  0.00    -0.110 A  
HETATM   28  C   UNL     1      -8.827   7.508  68.211  1.00  0.00    -0.125 A  
BRANCH  28  29
HETATM   29  S   UNL     1      -7.813   8.969  67.931  1.00  0.00    -0.101 S  
HETATM   30  O   UNL     1      -7.338   9.389  69.239  1.00  0.00    -0.067 OA 
HETATM   31  O   UNL     1      -6.834   8.563  66.937  1.00  0.00    -0.067 OA 
BRANCH  29  32
HETATM   32  C   UNL     1      -8.759  10.335  67.275  1.00  0.00    -0.125 C  
HETATM   33  C   UNL     1      -7.876  11.428  66.666  1.00  0.00    -0.137 C  
HETATM   34  C   UNL     1      -9.724   9.809  66.199  1.00  0.00    -0.309 C  
ENDBRANCH  29  32
ENDBRANCH  28  29
ENDBRANCH  21  23
ENDBRANCH  18  21
ENDBRANCH  12  14
ENDBRANCH   6  12
BRANCH  11  35
HETATM   35  C   UNL     1     -10.354  17.812  68.463  1.00  0.00    -0.366 C  
HETATM   36  C   UNL     1      -8.831  18.049  68.437  1.00  0.00    -0.300 C  
HETATM   37  C   UNL     1      -8.258  17.901  67.037  1.00  0.00    -0.226 C  
HETATM   38  N   UNL     1      -8.841  18.906  66.160  1.00  0.00    -0.466 NA 
HETATM   39  H   UNL     1      -8.393  18.907  65.244  1.00  0.00     0.000 HD 
HETATM   40  C   UNL     1     -10.289  18.745  66.046  1.00  0.00    -0.422 C  
HETATM   41  C   UNL     1     -10.998  18.729  67.397  1.00  0.00    -0.281 C  
ENDBRANCH  11  35
ENDBRANCH   4   5
ENDBRANCH   2   4
TORSDOF 9
ENDMDL
MODEL       20
REMARK 921   NORMALIZED FREE ENERGY PREDICTED BY IDOCK:   -6.97 KCAL/MOL
REMARK 922        TOTAL FREE ENERGY PREDICTED BY IDOCK:  -12.80 KCAL/MOL
REMARK 923 INTER-LIGAND FREE ENERGY PREDICTED BY IDOCK:  -11.27 KCAL/MOL
REMARK 924 INTRA-LIGAND FREE ENERGY PREDICTED BY IDOCK:   -1.53 KCAL/MOL
REMARK 927      BINDING AFFINITY PREDICTED BY RF-SCORE:    0.00 PKD
ROOT
HETATM    1  C   UNL     1     -10.706  13.031  64.203  1.00  0.00    -0.429 C  
HETATM    2  C   UNL     1     -10.605  14.418  64.835  1.00  0.00    -0.434 C  
HETATM    3  C   UNL     1     -11.818  15.255  64.417  1.00  0.00    -0.288 C  
ENDROOT
BRANCH   2   4
HETATM    4  O   UNL     1     -10.494  14.246  66.268  1.00  0.00    -0.281 OA 
BRANCH   4   5
HETATM    5  C   UNL     1      -9.400  14.822  66.879  1.00  0.00    -0.240 A  
HETATM    6  C   UNL     1      -8.163  14.178  67.051  1.00  0.00    -0.071 A  
HETATM    7  C   UNL     1      -5.996  16.975  68.380  1.00  0.00    -0.143 C  
HETATM    8  C   UNL     1      -7.075  14.985  67.377  1.00  0.00    -0.206 A  
HETATM    9  C   UNL     1      -9.577  16.168  67.304  1.00  0.00    -0.231 A  
HETATM   10  C   UNL     1      -7.227  16.319  67.804  1.00  0.00    -0.152 A  
HETATM   11  C   UNL     1      -8.502  16.941  67.791  1.00  0.00    -0.198 A  
BRANCH   6  12
HETATM   12  N   UNL     1      -7.922  12.812  66.812  1.00  0.00    -0.400 NA 
HETATM   13  H   UNL     1      -7.002  12.616  66.416  1.00  0.00     0.000 HD 
BRANCH  12  14
HETATM   14  C   UNL     1      -8.688  11.697  67.010  1.00  0.00    -0.173 A  
HETATM   15  N   UNL     1      -9.108  11.342  68.265  1.00  0.00    -0.166 NA 
HETATM   16  C   UNL     1      -9.501   9.701  66.200  1.00  0.00    -0.217 A  
HETATM   17  N   UNL     1      -8.833  10.890  65.982  1.00  0.00    -0.183 NA 
HETATM   18  C   UNL     1      -9.590  10.065  68.581  1.00  0.00    -0.155 A  
HETATM   19  C   UNL     1      -9.892   9.211  67.381  1.00  0.00    -0.184 A  
HETATM   20 CL   UNL     1     -10.610   7.663  67.561  1.00  0.00    -0.332 Cl 
BRANCH  18  21
HETATM   21  N   UNL     1      -9.755   9.514  69.760  1.00  0.00    -0.199 NA 
HETATM   22  H   UNL     1      -8.968   9.065  70.229  1.00  0.00     0.000 HD 
BRANCH  21  23
HETATM   23  C   UNL     1     -11.012   9.541  70.374  1.00  0.00    -0.278 A  
HETATM   24  C   UNL     1     -11.876  10.616  70.114  1.00  0.00    -0.421 A  
HETATM   25  C   UNL     1     -12.936  10.904  70.966  1.00  0.00    -0.396 A  
HETATM   26  C   UNL     1     -13.191  10.067  72.045  1.00  0.00    -0.545 A  
HETATM   27  C   UNL     1     -12.458   8.890  72.204  1.00  0.00    -0.459 A  
HETATM   28  C   UNL     1     -11.394   8.599  71.338  1.00  0.00    -0.284 A  
BRANCH  28  29
HETATM   29  S   UNL     1     -10.883   6.876  71.238  1.00  0.00    -0.240 S  
HETATM   30  O   UNL     1     -11.775   6.243  70.280  1.00  0.00    -0.384 OA 
HETATM   31  O   UNL     1      -9.462   6.922  70.934  1.00  0.00    -0.158 OA 
BRANCH  29  32
HETATM   32  C   UNL     1     -11.108   6.012  72.785  1.00  0.00    -0.269 C  
HETATM   33  C   UNL     1     -10.655   4.550  72.717  1.00  0.00    -0.263 C  
HETATM   34  C   UNL     1     -10.315   6.735  73.886  1.00  0.00    -0.397 C  
ENDBRANCH  29  32
ENDBRANCH  28  29
ENDBRANCH  21  23
ENDBRANCH  18  21
ENDBRANCH  12  14
ENDBRANCH   6  12
BRANCH  11  35
HETATM   35  C   UNL     1      -8.628  18.404  68.265  1.00  0.00    -0.321 C  
HETATM   36  C   UNL     1      -7.825  19.370  67.372  1.00  0.00    -0.286 C  
HETATM   37  C   UNL     1      -8.595  19.755  66.119  1.00  0.00    -0.338 C  
HETATM   38  N   UNL     1      -9.813  20.460  66.489  1.00  0.00    -0.609 NA 
HETATM   39  H   UNL     1     -10.293  20.831  65.669  1.00  0.00     0.000 HD 
HETATM   40  C   UNL     1     -10.699  19.617  67.291  1.00  0.00    -0.458 C  
HETATM   41  C   UNL     1     -10.017  19.033  68.524  1.00  0.00    -0.486 C  
ENDBRANCH  11  35
ENDBRANCH   4   5
ENDBRANCH   2   4
TORSDOF 9
ENDMDL
MODEL       21
REMARK 921   NORMALIZED FREE ENERGY PREDICTED BY IDOCK:   -6.94 KCAL/MOL
REMARK 922        TOTAL FREE ENERGY PREDICTED BY IDOCK:  -12.75 KCAL/MOL
REMARK 923 INTER-LIGAND FREE ENERGY PREDICTED BY IDOCK:   -9.67 KCAL/MOL
REMARK 924 INTRA-LIGAND FREE ENERGY PREDICTED BY IDOCK:   -3.08 KCAL/MOL
REMARK 927      BINDING AFFINITY PREDICTED BY RF-SCORE:    0.00 PKD
ROOT
HETATM    1  C   UNL     1     -12.583  12.169  63.593  1.00  0.00    -0.616 C  
HETATM    2  C   UNL     1     -11.494  12.523  64.605  1.00  0.00    -0.327 C  
HETATM    3  C   UNL     1     -11.286  14.041  64.612  1.00  0.00    -0.377 C  
ENDROOT
BRANCH   2   4
HETATM    4  O   UNL     1     -11.896  11.994  65.891  1.00  0.00    -0.499 OA 
BRANCH   4   5
HETATM    5  C   UNL     1     -11.080  11.030  66.447  1.00  0.00    -0.068 A  
HETATM    6  C   UNL     1     -11.205  10.553  67.762  1.00  0.00    -0.273 A  
HETATM    7  C   UNL     1      -8.735   7.692  67.801  1.00  0.00    -0.127 C  
HETATM    8  C   UNL     1     -10.538   9.368  68.066  1.00  0.00    -0.278 A  
HETATM    9  C   UNL     1     -10.095  10.489  65.574  1.00  0.00    -0.349 A  
HETATM   10  C   UNL     1      -9.557   8.816  67.219  1.00  0.00    -0.214 A  
HETATM   11  C   UNL     1      -9.300   9.384  65.944  1.00  0.00    -0.290 A  
BRANCH   6  12
HETATM   12  N   UNL     1     -12.032  11.117  68.751  1.00  0.00    -0.557 NA 
HETATM   13  H   UNL     1     -12.782  10.500  69.064  1.00  0.00     0.000 HD 
BRANCH  12  14
HETATM   14  C   UNL     1     -12.020  12.334  69.372  1.00  0.00    -0.259 A  
HETATM   15  N   UNL     1     -11.109  13.296  69.025  1.00  0.00    -0.258 NA 
HETATM   16  C   UNL     1     -12.690  13.644  71.144  1.00  0.00    -0.353 A  
HETATM   17  N   UNL     1     -12.784  12.462  70.435  1.00  0.00     0.018 NA 
HETATM   18  C   UNL     1     -10.821  14.407  69.829  1.00  0.00    -0.051 A  
HETATM   19  C   UNL     1     -11.798  14.620  70.952  1.00  0.00    -0.313 A  
HETATM   20 CL   UNL     1     -11.686  16.000  71.965  1.00  0.00    -0.572 Cl 
BRANCH  18  21
HETATM   21  N   UNL     1      -9.802  15.232  69.762  1.00  0.00    -0.427 NA 
HETATM   22  H   UNL     1      -9.141  15.290  70.537  1.00  0.00     0.000 HD 
BRANCH  21  23
HETATM   23  C   UNL     1      -9.624  16.032  68.628  1.00  0.00    -0.222 A  
HETATM   24  C   UNL     1     -10.571  17.027  68.339  1.00  0.00    -0.375 A  
HETATM   25  C   UNL     1     -10.670  17.571  67.064  1.00  0.00    -0.157 A  
HETATM   26  C   UNL     1      -9.767  17.180  66.083  1.00  0.00    -0.263 A  
HETATM   27  C   UNL     1      -8.704  16.337  66.409  1.00  0.00    -0.354 A  
HETATM   28  C   UNL     1      -8.603  15.797  67.700  1.00  0.00    -0.163 A  
BRANCH  28  29
HETATM   29  S   UNL     1      -6.977  15.211  68.203  1.00  0.00    -0.139 S  
HETATM   30  O   UNL     1      -6.058  15.609  67.149  1.00  0.00    -0.323 OA 
HETATM   31  O   UNL     1      -6.777  15.755  69.537  1.00  0.00    -0.169 OA 
BRANCH  29  32
HETATM   32  C   UNL     1      -6.897  13.429  68.297  1.00  0.00    -0.106 C  
HETATM   33  C   UNL     1      -7.928  12.742  67.395  1.00  0.00    -0.179 C  
HETATM   34  C   UNL     1      -5.488  12.965  67.894  1.00  0.00    -0.112 C  
ENDBRANCH  29  32
ENDBRANCH  28  29
ENDBRANCH  21  23
ENDBRANCH  18  21
ENDBRANCH  12  14
ENDBRANCH   6  12
BRANCH  11  35
HETATM   35  C   UNL     1      -8.219   8.751  65.045  1.00  0.00    -0.156 C  
HETATM   36  C   UNL     1      -8.488   9.011  63.549  1.00  0.00    -0.173 C  
HETATM   37  C   UNL     1      -7.989  10.379  63.113  1.00  0.00    -0.125 C  
HETATM   38  N   UNL     1      -6.546  10.452  63.285  1.00  0.00    -0.280 NA 
HETATM   39  H   UNL     1      -6.166  11.315  62.895  1.00  0.00     0.000 HD 
HETATM   40  C   UNL     1      -6.163  10.286  64.686  1.00  0.00    -0.116 C  
HETATM   41  C   UNL     1      -6.718   9.010  65.312  1.00  0.00    -0.068 C  
ENDBRANCH  11  35
ENDBRANCH   4   5
ENDBRANCH   2   4
TORSDOF 9
ENDMDL
MODEL       22
REMARK 921   NORMALIZED FREE ENERGY PREDICTED BY IDOCK:   -6.85 KCAL/MOL
REMARK 922        TOTAL FREE ENERGY PREDICTED BY IDOCK:  -12.62 KCAL/MOL
REMARK 923 INTER-LIGAND FREE ENERGY PREDICTED BY IDOCK:   -9.93 KCAL/MOL
REMARK 924 INTRA-LIGAND FREE ENERGY PREDICTED BY IDOCK:   -2.69 KCAL/MOL
REMARK 927      BINDING AFFINITY PREDICTED BY RF-SCORE:    0.00 PKD
ROOT
HETATM    1  C   UNL     1     -13.048   8.776  72.533  1.00  0.00    -0.392 C  
HETATM    2  C   UNL     1     -12.156   9.777  71.800  1.00  0.00    -0.346 C  
HETATM    3  C   UNL     1     -10.784   9.144  71.551  1.00  0.00    -0.437 C  
ENDROOT
BRANCH   2   4
HETATM    4  O   UNL     1     -12.836  10.169  70.583  1.00  0.00    -0.309 OA 
BRANCH   4   5
HETATM    5  C   UNL     1     -12.353  11.288  69.937  1.00  0.00    -0.233 A  
HETATM    6  C   UNL     1     -11.823  11.281  68.636  1.00  0.00    -0.300 A  
HETATM    7  C   UNL     1     -11.352  14.968  67.954  1.00  0.00    -0.344 C  
HETATM    8  C   UNL     1     -11.688  12.516  68.006  1.00  0.00    -0.410 A  
HETATM    9  C   UNL     1     -12.463  12.506  70.663  1.00  0.00    -0.323 A  
HETATM   10  C   UNL     1     -11.788  13.734  68.705  1.00  0.00    -0.398 A  
HETATM   11  C   UNL     1     -12.168  13.753  70.073  1.00  0.00    -0.407 A  
BRANCH   6  12
HETATM   12  N   UNL     1     -11.526  10.124  67.891  1.00  0.00    -0.636 NA 
HETATM   13  H   UNL     1     -12.350   9.636  67.537  1.00  0.00     0.000 HD 
BRANCH  12  14
HETATM   14  C   UNL     1     -10.343   9.530  67.550  1.00  0.00    -0.248 A  
HETATM   15  N   UNL     1      -9.933   8.372  68.156  1.00  0.00    -0.184 NA 
HETATM   16  C   UNL     1      -8.291   9.686  66.518  1.00  0.00    -0.120 A  
HETATM   17  N   UNL     1      -9.540  10.219  66.770  1.00  0.00    -0.167 NA 
HETATM   18  C   UNL     1      -8.613   7.906  68.109  1.00  0.00    -0.123 A  
HETATM   19  C   UNL     1      -7.751   8.611  67.098  1.00  0.00    -0.096 A  
HETATM   20 CL   UNL     1      -6.141   8.095  66.804  1.00  0.00    -0.052 Cl 
BRANCH  18  21
HETATM   21  N   UNL     1      -8.033   6.993  68.852  1.00  0.00    -0.118 NA 
HETATM   22  H   UNL     1      -7.707   6.123  68.431  1.00  0.00     0.000 HD 
BRANCH  21  23
HETATM   23  C   UNL     1      -7.862   7.214  70.224  1.00  0.00    -0.104 A  
HETATM   24  C   UNL     1      -7.300   8.425  70.655  1.00  0.00    -0.056 A  
HETATM   25  C   UNL     1      -6.752   8.545  71.927  1.00  0.00    -0.085 A  
HETATM   26  C   UNL     1      -6.833   7.475  72.810  1.00  0.00    -0.066 A  
HETATM   27  C   UNL     1      -7.557   6.335  72.459  1.00  0.00    -0.101 A  
HETATM   28  C   UNL     1      -8.116   6.221  71.177  1.00  0.00    -0.118 A  
BRANCH  28  29
HETATM   29  S   UNL     1      -9.463   5.041  70.987  1.00  0.00    -0.171 S  
HETATM   30  O   UNL     1     -10.518   5.742  70.273  1.00  0.00    -0.234 OA 
HETATM   31  O   UNL     1      -8.858   3.877  70.360  1.00  0.00    -0.075 OA 
BRANCH  29  32
HETATM   32  C   UNL     1     -10.158   4.546  72.557  1.00  0.00    -0.176 C  
HETATM   33  C   UNL     1     -11.469   5.270  72.878  1.00  0.00    -0.339 C  
HETATM   34  C   UNL     1     -10.410   3.030  72.540  1.00  0.00    -0.184 C  
ENDBRANCH  29  32
ENDBRANCH  28  29
ENDBRANCH  21  23
ENDBRANCH  18  21
ENDBRANCH  12  14
ENDBRANCH   6  12
BRANCH  11  35
HETATM   35  C   UNL     1     -12.269  15.107  70.805  1.00  0.00    -0.392 C  
HETATM   36  C   UNL     1     -13.723  15.452  71.181  1.00  0.00    -0.497 C  
HETATM   37  C   UNL     1     -14.152  14.772  72.471  1.00  0.00    -0.361 C  
HETATM   38  N   UNL     1     -13.324  15.243  73.572  1.00  0.00    -0.622 NA 
HETATM   39  H   UNL     1     -13.660  14.892  74.468  1.00  0.00     0.000 HD 
HETATM   40  C   UNL     1     -11.915  14.913  73.364  1.00  0.00    -0.241 C  
HETATM   41  C   UNL     1     -11.373  15.413  72.028  1.00  0.00    -0.466 C  
ENDBRANCH  11  35
ENDBRANCH   4   5
ENDBRANCH   2   4
TORSDOF 9
ENDMDL
MODEL       23
REMARK 921   NORMALIZED FREE ENERGY PREDICTED BY IDOCK:   -6.84 KCAL/MOL
REMARK 922        TOTAL FREE ENERGY PREDICTED BY IDOCK:  -12.61 KCAL/MOL
REMARK 923 INTER-LIGAND FREE ENERGY PREDICTED BY IDOCK:   -9.74 KCAL/MOL
REMARK 924 INTRA-LIGAND FREE ENERGY PREDICTED BY IDOCK:   -2.87 KCAL/MOL
REMARK 927      BINDING AFFINITY PREDICTED BY RF-SCORE:    0.00 PKD
ROOT
HETATM    1  C   UNL     1      -7.095   9.635  65.086  1.00  0.00    -0.114 C  
HETATM    2  C   UNL     1      -7.980  10.292  64.028  1.00  0.00    -0.126 C  
HETATM    3  C   UNL     1      -7.336  10.114  62.649  1.00  0.00    -0.143 C  
ENDROOT
BRANCH   2   4
HETATM    4  O   UNL     1      -9.299   9.702  64.124  1.00  0.00    -0.236 OA 
BRANCH   4   5
HETATM    5  C   UNL     1     -10.027   9.996  65.258  1.00  0.00    -0.298 A  
HETATM    6  C   UNL     1     -10.291   9.076  66.287  1.00  0.00    -0.060 A  
HETATM    7  C   UNL     1     -11.906  11.267  68.909  1.00  0.00    -0.413 C  
HETATM    8  C   UNL     1     -10.744   9.599  67.496  1.00  0.00    -0.321 A  
HETATM    9  C   UNL     1     -10.477  11.341  65.362  1.00  0.00    -0.326 A  
HETATM   10  C   UNL     1     -11.198  10.926  67.621  1.00  0.00    -0.379 A  
HETATM   11  C   UNL     1     -11.087  11.833  66.535  1.00  0.00    -0.364 A  
BRANCH   6  12
HETATM   12  N   UNL     1     -10.031   7.694  66.221  1.00  0.00    -0.464 NA 
HETATM   13  H   UNL     1     -10.286   7.267  65.330  1.00  0.00     0.000 HD 
BRANCH  12  14
HETATM   14  C   UNL     1      -9.502   6.817  67.126  1.00  0.00    -0.142 A  
HETATM   15  N   UNL     1     -10.227   6.395  68.209  1.00  0.00    -0.156 NA 
HETATM   16  C   UNL     1      -7.644   5.769  67.992  1.00  0.00    -0.085 A  
HETATM   17  N   UNL     1      -8.218   6.557  67.014  1.00  0.00    -0.112 NA 
HETATM   18  C   UNL     1      -9.648   5.785  69.330  1.00  0.00    -0.139 A  
HETATM   19  C   UNL     1      -8.220   5.359  69.126  1.00  0.00    -0.093 A  
HETATM   20 CL   UNL     1      -7.383   4.481  70.340  1.00  0.00    -0.049 Cl 
BRANCH  18  21
HETATM   21  N   UNL     1     -10.162   5.593  70.522  1.00  0.00    -0.215 NA 
HETATM   22  H   UNL     1     -10.079   4.681  70.972  1.00  0.00     0.000 HD 
BRANCH  21  23
HETATM   23  C   UNL     1     -10.824   6.638  71.175  1.00  0.00    -0.241 A  
HETATM   24  C   UNL     1     -12.227   6.630  71.227  1.00  0.00    -0.369 A  
HETATM   25  C   UNL     1     -12.938   7.793  71.498  1.00  0.00    -0.357 A  
HETATM   26  C   UNL     1     -12.249   8.962  71.798  1.00  0.00    -0.429 A  
HETATM   27  C   UNL     1     -10.861   8.936  71.937  1.00  0.00    -0.433 A  
HETATM   28  C   UNL     1     -10.147   7.758  71.671  1.00  0.00    -0.185 A  
BRANCH  28  29
HETATM   29  S   UNL     1      -8.502   7.632  72.392  1.00  0.00    -0.127 S  
HETATM   30  O   UNL     1      -8.436   8.646  73.433  1.00  0.00    -0.385 OA 
HETATM   31  O   UNL     1      -8.364   6.237  72.775  1.00  0.00    -0.119 OA 
BRANCH  29  32
HETATM   32  C   UNL     1      -7.215   8.030  71.218  1.00  0.00    -0.062 C  
HETATM   33  C   UNL     1      -7.721   8.884  70.052  1.00  0.00    -0.078 C  
HETATM   34  C   UNL     1      -6.088   8.784  71.943  1.00  0.00    -0.072 C  
ENDBRANCH  29  32
ENDBRANCH  28  29
ENDBRANCH  21  23
ENDBRANCH  18  21
ENDBRANCH  12  14
ENDBRANCH   6  12
BRANCH  11  35
HETATM   35  C   UNL     1     -11.595  13.279  66.710  1.00  0.00    -0.408 C  
HETATM   36  C   UNL     1     -10.435  14.290  66.802  1.00  0.00    -0.273 C  
HETATM   37  C   UNL     1      -9.916  14.685  65.428  1.00  0.00    -0.330 C  
HETATM   38  N   UNL     1     -10.974  15.345  64.676  1.00  0.00    -0.656 NA 
HETATM   39  H   UNL     1     -10.625  15.723  63.795  1.00  0.00     0.000 HD 
HETATM   40  C   UNL     1     -12.116  14.458  64.462  1.00  0.00    -0.481 C  
HETATM   41  C   UNL     1     -12.663  13.863  65.756  1.00  0.00    -0.503 C  
ENDBRANCH  11  35
ENDBRANCH   4   5
ENDBRANCH   2   4
TORSDOF 9
ENDMDL
MODEL       24
REMARK 921   NORMALIZED FREE ENERGY PREDICTED BY IDOCK:   -6.84 KCAL/MOL
REMARK 922        TOTAL FREE ENERGY PREDICTED BY IDOCK:  -12.60 KCAL/MOL
REMARK 923 INTER-LIGAND FREE ENERGY PREDICTED BY IDOCK:  -10.38 KCAL/MOL
REMARK 924 INTRA-LIGAND FREE ENERGY PREDICTED BY IDOCK:   -2.22 KCAL/MOL
REMARK 927      BINDING AFFINITY PREDICTED BY RF-SCORE:    0.00 PKD
ROOT
HETATM    1  C   UNL     1     -13.433   7.457  71.507  1.00  0.00    -0.445 C  
HETATM    2  C   UNL     1     -11.925   7.240  71.629  1.00  0.00    -0.308 C  
HETATM    3  C   UNL     1     -11.661   6.034  72.537  1.00  0.00    -0.315 C  
ENDROOT
BRANCH   2   4
HETATM    4  O   UNL     1     -11.390   7.079  70.294  1.00  0.00    -0.285 OA 
BRANCH   4   5
HETATM    5  C   UNL     1     -10.265   7.815  69.985  1.00  0.00    -0.210 A  
HETATM    6  C   UNL     1     -10.292   9.134  69.503  1.00  0.00    -0.215 A  
HETATM    7  C   UNL     1      -6.629  10.066  69.546  1.00  0.00    -0.055 C  
HETATM    8  C   UNL     1      -9.095   9.846  69.554  1.00  0.00    -0.237 A  
HETATM    9  C   UNL     1      -9.024   7.163  70.230  1.00  0.00    -0.152 A  
HETATM   10  C   UNL     1      -7.856   9.221  69.790  1.00  0.00    -0.100 A  
HETATM   11  C   UNL     1      -7.793   7.842  70.122  1.00  0.00    -0.097 A  
BRANCH   6  12
HETATM   12  N   UNL     1     -11.449   9.817  69.082  1.00  0.00    -0.465 NA 
HETATM   13  H   UNL     1     -12.011   9.300  68.405  1.00  0.00     0.000 HD 
BRANCH  12  14
HETATM   14  C   UNL     1     -11.961  11.041  69.409  1.00  0.00    -0.337 A  
HETATM   15  N   UNL     1     -12.140  12.010  68.457  1.00  0.00    -0.364 NA 
HETATM   16  C   UNL     1     -12.487  12.581  71.038  1.00  0.00    -0.258 A  
HETATM   17  N   UNL     1     -12.086  11.306  70.691  1.00  0.00    -0.377 NA 
HETATM   18  C   UNL     1     -12.331  13.363  68.765  1.00  0.00     0.072 A  
HETATM   19  C   UNL     1     -12.623  13.626  70.216  1.00  0.00    -0.186 A  
HETATM   20 CL   UNL     1     -13.011  15.205  70.764  1.00  0.00    -0.458 Cl 
BRANCH  18  21
HETATM   21  N   UNL     1     -12.236  14.410  67.978  1.00  0.00    -0.609 NA 
HETATM   22  H   UNL     1     -13.049  15.004  67.820  1.00  0.00     0.000 HD 
BRANCH  21  23
HETATM   23  C   UNL     1     -11.018  14.709  67.357  1.00  0.00    -0.308 A  
HETATM   24  C   UNL     1      -9.847  14.743  68.131  1.00  0.00    -0.221 A  
HETATM   25  C   UNL     1      -8.710  15.400  67.677  1.00  0.00    -0.174 A  
HETATM   26  C   UNL     1      -8.707  15.963  66.406  1.00  0.00    -0.362 A  
HETATM   27  C   UNL     1      -9.796  15.769  65.556  1.00  0.00    -0.300 A  
HETATM   28  C   UNL     1     -10.940  15.098  66.015  1.00  0.00    -0.332 A  
BRANCH  28  29
HETATM   29  S   UNL     1     -12.027  14.405  64.758  1.00  0.00    -0.464 S  
HETATM   30  O   UNL     1     -13.230  13.977  65.454  1.00  0.00    -0.761 OA 
HETATM   31  O   UNL     1     -12.145  15.444  63.748  1.00  0.00    -0.469 OA 
BRANCH  29  32
HETATM   32  C   UNL     1     -11.337  12.944  63.996  1.00  0.00    -0.415 C  
HETATM   33  C   UNL     1     -10.510  12.102  64.971  1.00  0.00    -0.326 C  
HETATM   34  C   UNL     1     -12.480  12.084  63.431  1.00  0.00    -0.625 C  
ENDBRANCH  29  32
ENDBRANCH  28  29
ENDBRANCH  21  23
ENDBRANCH  18  21
ENDBRANCH  12  14
ENDBRANCH   6  12
BRANCH  11  35
HETATM   35  C   UNL     1      -6.417   7.193  70.375  1.00  0.00    -0.046 C  
HETATM   36  C   UNL     1      -5.989   7.307  71.852  1.00  0.00    -0.037 C  
HETATM   37  C   UNL     1      -6.612   6.216  72.708  1.00  0.00    -0.065 C  
HETATM   38  N   UNL     1      -6.155   4.912  72.250  1.00  0.00    -0.024 NA 
HETATM   39  H   UNL     1      -6.465   4.168  72.875  1.00  0.00     0.000 HD 
HETATM   40  C   UNL     1      -6.561   4.654  70.870  1.00  0.00    -0.031 C  
HETATM   41  C   UNL     1      -6.124   5.750  69.902  1.00  0.00    -0.026 C  
ENDBRANCH  11  35
ENDBRANCH   4   5
ENDBRANCH   2   4
TORSDOF 9
ENDMDL
MODEL       25
REMARK 921   NORMALIZED FREE ENERGY PREDICTED BY IDOCK:   -6.77 KCAL/MOL
REMARK 922        TOTAL FREE ENERGY PREDICTED BY IDOCK:  -12.50 KCAL/MOL
REMARK 923 INTER-LIGAND FREE ENERGY PREDICTED BY IDOCK:  -10.29 KCAL/MOL
REMARK 924 INTRA-LIGAND FREE ENERGY PREDICTED BY IDOCK:   -2.21 KCAL/MOL
REMARK 927      BINDING AFFINITY PREDICTED BY RF-SCORE:    0.00 PKD
ROOT
HETATM    1  C   UNL     1      -9.505   8.090  66.508  1.00  0.00    -0.278 C  
HETATM    2  C   UNL     1      -8.244   8.422  67.304  1.00  0.00    -0.112 C  
HETATM    3  C   UNL     1      -7.210   9.059  66.370  1.00  0.00    -0.087 C  
ENDROOT
BRANCH   2   4
HETATM    4  O   UNL     1      -8.628   9.282  68.404  1.00  0.00    -0.123 OA 
BRANCH   4   5
HETATM    5  C   UNL     1      -9.373   8.704  69.411  1.00  0.00    -0.150 A  
HETATM    6  C   UNL     1     -10.742   8.940  69.615  1.00  0.00    -0.217 A  
HETATM    7  C   UNL     1     -11.584   6.429  72.312  1.00  0.00    -0.341 C  
HETATM    8  C   UNL     1     -11.417   8.048  70.446  1.00  0.00    -0.140 A  
HETATM    9  C   UNL     1      -8.669   7.785  70.239  1.00  0.00    -0.143 A  
HETATM   10  C   UNL     1     -10.741   7.134  71.277  1.00  0.00    -0.245 A  
HETATM   11  C   UNL     1      -9.331   6.994  71.201  1.00  0.00    -0.158 A  
BRANCH   6  12
HETATM   12  N   UNL     1     -11.497   9.934  68.962  1.00  0.00    -0.475 NA 
HETATM   13  H   UNL     1     -11.771   9.686  68.011  1.00  0.00     0.000 HD 
BRANCH  12  14
HETATM   14  C   UNL     1     -11.932  11.166  69.362  1.00  0.00    -0.349 A  
HETATM   15  N   UNL     1     -12.156  12.166  68.453  1.00  0.00    -0.356 NA 
HETATM   16  C   UNL     1     -12.253  12.679  71.067  1.00  0.00    -0.097 A  
HETATM   17  N   UNL     1     -11.934  11.400  70.656  1.00  0.00    -0.352 NA 
HETATM   18  C   UNL     1     -12.267  13.516  68.808  1.00  0.00    -0.143 A  
HETATM   19  C   UNL     1     -12.420  13.750  70.285  1.00  0.00    -0.289 A  
HETATM   20 CL   UNL     1     -12.698  15.327  70.902  1.00  0.00    -0.452 Cl 
BRANCH  18  21
HETATM   21  N   UNL     1     -12.200  14.579  68.041  1.00  0.00    -0.603 NA 
HETATM   22  H   UNL     1     -13.000  15.209  67.972  1.00  0.00     0.000 HD 
BRANCH  21  23
HETATM   23  C   UNL     1     -11.033  14.848  67.318  1.00  0.00    -0.323 A  
HETATM   24  C   UNL     1      -9.812  14.943  68.004  1.00  0.00    -0.216 A  
HETATM   25  C   UNL     1      -8.718  15.579  67.429  1.00  0.00    -0.194 A  
HETATM   26  C   UNL     1      -8.811  16.058  66.128  1.00  0.00    -0.366 A  
HETATM   27  C   UNL     1      -9.954  15.800  65.371  1.00  0.00    -0.273 A  
HETATM   28  C   UNL     1     -11.053  15.150  65.951  1.00  0.00    -0.319 A  
BRANCH  28  29
HETATM   29  S   UNL     1     -12.216  14.367  64.821  1.00  0.00    -0.415 S  
HETATM   30  O   UNL     1     -13.311  13.875  65.643  1.00  0.00    -0.620 OA 
HETATM   31  O   UNL     1     -12.504  15.377  63.817  1.00  0.00    -0.663 OA 
BRANCH  29  32
HETATM   32  C   UNL     1     -11.514  12.939  64.008  1.00  0.00    -0.422 C  
HETATM   33  C   UNL     1     -10.524  12.180  64.896  1.00  0.00    -0.325 C  
HETATM   34  C   UNL     1     -12.649  11.989  63.592  1.00  0.00    -0.605 C  
ENDBRANCH  29  32
ENDBRANCH  28  29
ENDBRANCH  21  23
ENDBRANCH  18  21
ENDBRANCH  12  14
ENDBRANCH   6  12
BRANCH  11  35
HETATM   35  C   UNL     1      -8.626   5.980  72.126  1.00  0.00    -0.128 C  
HETATM   36  C   UNL     1      -8.579   4.570  71.506  1.00  0.00    -0.126 C  
HETATM   37  C   UNL     1      -7.422   4.418  70.532  1.00  0.00    -0.049 C  
HETATM   38  N   UNL     1      -6.160   4.596  71.236  1.00  0.00    -0.017 NA 
HETATM   39  H   UNL     1      -5.364   4.388  70.634  1.00  0.00     0.000 HD 
HETATM   40  C   UNL     1      -6.054   5.933  71.818  1.00  0.00    -0.036 C  
HETATM   41  C   UNL     1      -7.232   6.289  72.721  1.00  0.00    -0.087 C  
ENDBRANCH  11  35
ENDBRANCH   4   5
ENDBRANCH   2   4
TORSDOF 9
ENDMDL
MODEL       26
REMARK 921   NORMALIZED FREE ENERGY PREDICTED BY IDOCK:   -6.77 KCAL/MOL
REMARK 922        TOTAL FREE ENERGY PREDICTED BY IDOCK:  -12.50 KCAL/MOL
REMARK 923 INTER-LIGAND FREE ENERGY PREDICTED BY IDOCK:  -11.22 KCAL/MOL
REMARK 924 INTRA-LIGAND FREE ENERGY PREDICTED BY IDOCK:   -1.28 KCAL/MOL
REMARK 927      BINDING AFFINITY PREDICTED BY RF-SCORE:    0.00 PKD
ROOT
HETATM    1  C   UNL     1     -10.012   7.532  73.229  1.00  0.00    -0.368 C  
HETATM    2  C   UNL     1     -10.330   6.496  72.151  1.00  0.00    -0.198 C  
HETATM    3  C   UNL     1     -10.517   5.124  72.808  1.00  0.00    -0.261 C  
ENDROOT
BRANCH   2   4
HETATM    4  O   UNL     1     -11.500   6.951  71.430  1.00  0.00    -0.256 OA 
BRANCH   4   5
HETATM    5  C   UNL     1     -11.276   7.632  70.252  1.00  0.00    -0.216 A  
HETATM    6  C   UNL     1     -11.408   9.023  70.107  1.00  0.00    -0.121 A  
HETATM    7  C   UNL     1     -10.066   9.585  66.619  1.00  0.00    -0.321 C  
HETATM    8  C   UNL     1     -10.837   9.594  68.972  1.00  0.00    -0.206 A  
HETATM    9  C   UNL     1     -10.843   6.832  69.159  1.00  0.00    -0.298 A  
HETATM   10  C   UNL     1     -10.406   8.822  67.876  1.00  0.00    -0.281 A  
HETATM   11  C   UNL     1     -10.416   7.404  67.942  1.00  0.00    -0.265 A  
BRANCH   6  12
HETATM   12  N   UNL     1     -11.971   9.886  71.067  1.00  0.00    -0.337 NA 
HETATM   13  H   UNL     1     -12.109   9.454  71.981  1.00  0.00     0.000 HD 
BRANCH  12  14
HETATM   14  C   UNL     1     -12.368  11.192  71.006  1.00  0.00    -0.382 A  
HETATM   15  N   UNL     1     -11.835  12.050  70.080  1.00  0.00    -0.331 NA 
HETATM   16  C   UNL     1     -13.434  12.972  72.004  1.00  0.00    -0.492 A  
HETATM   17  N   UNL     1     -13.126  11.626  71.988  1.00  0.00    -0.440 NA 
HETATM   18  C   UNL     1     -11.935  13.444  70.178  1.00  0.00    -0.326 A  
HETATM   19  C   UNL     1     -12.923  13.916  71.208  1.00  0.00    -0.341 A  
HETATM   20 CL   UNL     1     -13.279  15.585  71.386  1.00  0.00    -0.559 Cl 
BRANCH  18  21
HETATM   21  N   UNL     1     -11.254  14.367  69.540  1.00  0.00    -0.257 NA 
HETATM   22  H   UNL     1     -10.668  15.020  70.060  1.00  0.00     0.000 HD 
BRANCH  21  23
HETATM   23  C   UNL     1     -11.333  14.455  68.145  1.00  0.00    -0.294 A  
HETATM   24  C   UNL     1     -12.235  13.627  67.459  1.00  0.00    -0.259 A  
HETATM   25  C   UNL     1     -12.088  13.383  66.099  1.00  0.00    -0.481 A  
HETATM   26  C   UNL     1     -11.080  14.031  65.393  1.00  0.00    -0.318 A  
HETATM   27  C   UNL     1     -10.300  15.000  66.025  1.00  0.00    -0.326 A  
HETATM   28  C   UNL     1     -10.457  15.249  67.396  1.00  0.00    -0.270 A  
BRANCH  28  29
HETATM   29  S   UNL     1      -9.858  16.836  68.001  1.00  0.00    -0.274 S  
HETATM   30  O   UNL     1     -10.723  17.199  69.112  1.00  0.00    -0.301 OA 
HETATM   31  O   UNL     1      -8.444  16.629  68.265  1.00  0.00    -0.189 OA 
BRANCH  29  32
HETATM   32  C   UNL     1     -10.027  18.133  66.785  1.00  0.00    -0.351 C  
HETATM   33  C   UNL     1     -10.761  19.362  67.328  1.00  0.00    -0.603 C  
HETATM   34  C   UNL     1      -8.630  18.554  66.300  1.00  0.00    -0.223 C  
ENDBRANCH  29  32
ENDBRANCH  28  29
ENDBRANCH  21  23
ENDBRANCH  18  21
ENDBRANCH  12  14
ENDBRANCH   6  12
BRANCH  11  35
HETATM   35  C   UNL     1      -9.935   6.592  66.721  1.00  0.00    -0.238 C  
HETATM   36  C   UNL     1      -8.397   6.529  66.641  1.00  0.00    -0.113 C  
HETATM   37  C   UNL     1      -7.827   5.440  67.535  1.00  0.00    -0.100 C  
HETATM   38  N   UNL     1      -8.312   4.140  67.094  1.00  0.00    -0.100 NA 
HETATM   39  H   UNL     1      -7.858   3.381  67.601  1.00  0.00     0.000 HD 
HETATM   40  C   UNL     1      -9.768   4.049  67.188  1.00  0.00    -0.166 C  
HETATM   41  C   UNL     1     -10.487   5.174  66.448  1.00  0.00    -0.356 C  
ENDBRANCH  11  35
ENDBRANCH   4   5
ENDBRANCH   2   4
TORSDOF 9
ENDMDL
MODEL       27
REMARK 921   NORMALIZED FREE ENERGY PREDICTED BY IDOCK:   -6.73 KCAL/MOL
REMARK 922        TOTAL FREE ENERGY PREDICTED BY IDOCK:  -12.44 KCAL/MOL
REMARK 923 INTER-LIGAND FREE ENERGY PREDICTED BY IDOCK:  -10.36 KCAL/MOL
REMARK 924 INTRA-LIGAND FREE ENERGY PREDICTED BY IDOCK:   -2.07 KCAL/MOL
REMARK 927      BINDING AFFINITY PREDICTED BY RF-SCORE:    0.00 PKD
ROOT
HETATM    1  C   UNL     1     -11.660  12.031  63.582  1.00  0.00    -0.578 C  
HETATM    2  C   UNL     1     -10.460  11.199  64.033  1.00  0.00    -0.383 C  
HETATM    3  C   UNL     1      -9.418  11.163  62.910  1.00  0.00    -0.382 C  
ENDROOT
BRANCH   2   4
HETATM    4  O   UNL     1      -9.957  11.776  65.262  1.00  0.00    -0.242 OA 
BRANCH   4   5
HETATM    5  C   UNL     1     -10.058  10.999  66.398  1.00  0.00    -0.229 A  
HETATM    6  C   UNL     1     -11.021  11.191  67.403  1.00  0.00    -0.290 A  
HETATM    7  C   UNL     1     -10.478   8.166  69.603  1.00  0.00    -0.224 C  
HETATM    8  C   UNL     1     -11.205  10.144  68.304  1.00  0.00    -0.246 A  
HETATM    9  C   UNL     1      -9.131   9.924  66.484  1.00  0.00    -0.179 A  
HETATM   10  C   UNL     1     -10.298   9.072  68.410  1.00  0.00    -0.242 A  
HETATM   11  C   UNL     1      -9.217   8.947  67.498  1.00  0.00    -0.153 A  
BRANCH   6  12
HETATM   12  N   UNL     1     -11.879  12.303  67.498  1.00  0.00    -0.519 NA 
HETATM   13  H   UNL     1     -12.577  12.351  66.755  1.00  0.00     0.000 HD 
BRANCH  12  14
HETATM   14  C   UNL     1     -11.955  13.329  68.397  1.00  0.00    -0.301 A  
HETATM   15  N   UNL     1     -11.417  14.557  68.115  1.00  0.00    -0.297 NA 
HETATM   16  C   UNL     1     -12.352  14.026  70.555  1.00  0.00    -0.367 A  
HETATM   17  N   UNL     1     -12.386  13.027  69.602  1.00  0.00    -0.127 NA 
HETATM   18  C   UNL     1     -11.159  15.525  69.094  1.00  0.00    -0.272 A  
HETATM   19  C   UNL     1     -11.791  15.233  70.427  1.00  0.00    -0.324 A  
HETATM   20 CL   UNL     1     -11.695  16.364  71.713  1.00  0.00    -0.497 Cl 
BRANCH  18  21
HETATM   21  N   UNL     1     -10.410  16.600  69.014  1.00  0.00    -0.297 NA 
HETATM   22  H   UNL     1     -10.829  17.523  69.126  1.00  0.00     0.000 HD 
BRANCH  21  23
HETATM   23  C   UNL     1      -9.036  16.479  68.775  1.00  0.00    -0.256 A  
HETATM   24  C   UNL     1      -8.302  15.518  69.488  1.00  0.00    -0.206 A  
HETATM   25  C   UNL     1      -6.919  15.609  69.592  1.00  0.00    -0.167 A  
HETATM   26  C   UNL     1      -6.247  16.621  68.916  1.00  0.00    -0.159 A  
HETATM   27  C   UNL     1      -6.946  17.465  68.052  1.00  0.00    -0.187 A  
HETATM   28  C   UNL     1      -8.341  17.364  67.943  1.00  0.00    -0.230 A  
BRANCH  28  29
HETATM   29  S   UNL     1      -9.086  18.054  66.456  1.00  0.00    -0.245 S  
HETATM   30  O   UNL     1      -8.017  18.743  65.749  1.00  0.00    -0.476 OA 
HETATM   31  O   UNL     1      -9.734  16.928  65.802  1.00  0.00    -0.517 OA 
BRANCH  29  32
HETATM   32  C   UNL     1     -10.324  19.287  66.826  1.00  0.00    -0.432 C  
HETATM   33  C   UNL     1      -9.813  20.369  67.783  1.00  0.00    -0.494 C  
HETATM   34  C   UNL     1     -10.783  19.949  65.517  1.00  0.00    -0.305 C  
ENDBRANCH  29  32
ENDBRANCH  28  29
ENDBRANCH  21  23
ENDBRANCH  18  21
ENDBRANCH  12  14
ENDBRANCH   6  12
BRANCH  11  35
HETATM   35  C   UNL     1      -8.245   7.758  67.646  1.00  0.00    -0.125 C  
HETATM   36  C   UNL     1      -8.740   6.512  66.884  1.00  0.00    -0.115 C  
HETATM   37  C   UNL     1      -8.378   6.569  65.409  1.00  0.00    -0.140 C  
HETATM   38  N   UNL     1      -6.930   6.590  65.259  1.00  0.00    -0.051 NA 
HETATM   39  H   UNL     1      -6.655   6.513  64.280  1.00  0.00     0.000 HD 
HETATM   40  C   UNL     1      -6.342   7.772  65.888  1.00  0.00    -0.042 C  
HETATM   41  C   UNL     1      -6.737   7.929  67.354  1.00  0.00    -0.069 C  
ENDBRANCH  11  35
ENDBRANCH   4   5
ENDBRANCH   2   4
TORSDOF 9
ENDMDL
MODEL       28
REMARK 921   NORMALIZED FREE ENERGY PREDICTED BY IDOCK:   -6.73 KCAL/MOL
REMARK 922        TOTAL FREE ENERGY PREDICTED BY IDOCK:  -12.43 KCAL/MOL
REMARK 923 INTER-LIGAND FREE ENERGY PREDICTED BY IDOCK:  -10.13 KCAL/MOL
REMARK 924 INTRA-LIGAND FREE ENERGY PREDICTED BY IDOCK:   -2.30 KCAL/MOL
REMARK 927      BINDING AFFINITY PREDICTED BY RF-SCORE:    0.00 PKD
ROOT
HETATM    1  C   UNL     1     -12.036   8.561  72.325  1.00  0.00    -0.455 C  
HETATM    2  C   UNL     1     -11.428   9.712  71.524  1.00  0.00    -0.369 C  
HETATM    3  C   UNL     1     -10.082   9.266  70.942  1.00  0.00    -0.373 C  
ENDROOT
BRANCH   2   4
HETATM    4  O   UNL     1     -12.387  10.105  70.514  1.00  0.00    -0.281 OA 
BRANCH   4   5
HETATM    5  C   UNL     1     -12.107  11.257  69.809  1.00  0.00    -0.325 A  
HETATM    6  C   UNL     1     -11.703  11.281  68.464  1.00  0.00    -0.308 A  
HETATM    7  C   UNL     1     -11.755  14.980  67.689  1.00  0.00    -0.281 C  
HETATM    8  C   UNL     1     -11.780  12.507  67.806  1.00  0.00    -0.419 A  
HETATM    9  C   UNL     1     -12.300  12.471  70.525  1.00  0.00    -0.345 A  
HETATM   10  C   UNL     1     -11.965  13.721  68.495  1.00  0.00    -0.402 A  
HETATM   11  C   UNL     1     -12.216  13.729  69.892  1.00  0.00    -0.383 A  
BRANCH   6  12
HETATM   12  N   UNL     1     -11.337  10.150  67.710  1.00  0.00    -0.565 NA 
HETATM   13  H   UNL     1     -12.117   9.533  67.483  1.00  0.00     0.000 HD 
BRANCH  12  14
HETATM   14  C   UNL     1     -10.133   9.722  67.224  1.00  0.00    -0.207 A  
HETATM   15  N   UNL     1      -9.804   8.392  67.223  1.00  0.00    -0.184 NA 
HETATM   16  C   UNL     1      -7.984  10.229  66.573  1.00  0.00    -0.118 A  
HETATM   17  N   UNL     1      -9.244  10.651  66.947  1.00  0.00    -0.154 NA 
HETATM   18  C   UNL     1      -8.492   7.926  67.065  1.00  0.00    -0.124 A  
HETATM   19  C   UNL     1      -7.521   8.976  66.601  1.00  0.00    -0.086 A  
HETATM   20 CL   UNL     1      -5.896   8.568  66.229  1.00  0.00    -0.043 Cl 
BRANCH  18  21
HETATM   21  N   UNL     1      -8.004   6.734  67.317  1.00  0.00    -0.112 NA 
HETATM   22  H   UNL     1      -7.367   6.599  68.103  1.00  0.00     0.000 HD 
BRANCH  21  23
HETATM   23  C   UNL     1      -8.357   5.649  66.508  1.00  0.00    -0.110 A  
HETATM   24  C   UNL     1      -8.060   5.695  65.137  1.00  0.00    -0.127 A  
HETATM   25  C   UNL     1      -8.713   4.862  64.236  1.00  0.00    -0.130 A  
HETATM   26  C   UNL     1      -9.615   3.917  64.709  1.00  0.00    -0.177 A  
HETATM   27  C   UNL     1      -9.775   3.733  66.083  1.00  0.00    -0.136 A  
HETATM   28  C   UNL     1      -9.107   4.570  66.990  1.00  0.00    -0.125 A  
BRANCH  28  29
HETATM   29  S   UNL     1      -8.908   3.946  68.666  1.00  0.00    -0.119 S  
HETATM   30  O   UNL     1      -9.463   2.601  68.668  1.00  0.00    -0.189 OA 
HETATM   31  O   UNL     1      -7.494   4.110  68.964  1.00  0.00    -0.054 OA 
BRANCH  29  32
HETATM   32  C   UNL     1      -9.854   4.884  69.856  1.00  0.00    -0.225 C  
HETATM   33  C   UNL     1      -8.980   5.804  70.714  1.00  0.00    -0.156 C  
HETATM   34  C   UNL     1     -10.899   5.731  69.113  1.00  0.00    -0.355 C  
ENDBRANCH  29  32
ENDBRANCH  28  29
ENDBRANCH  21  23
ENDBRANCH  18  21
ENDBRANCH  12  14
ENDBRANCH   6  12
BRANCH  11  35
HETATM   35  C   UNL     1     -12.414  15.079  70.612  1.00  0.00    -0.422 C  
HETATM   36  C   UNL     1     -13.891  15.323  70.981  1.00  0.00    -0.414 C  
HETATM   37  C   UNL     1     -14.274  14.626  72.276  1.00  0.00    -0.463 C  
HETATM   38  N   UNL     1     -13.485  15.165  73.375  1.00  0.00    -0.606 NA 
HETATM   39  H   UNL     1     -13.798  14.799  74.274  1.00  0.00     0.000 HD 
HETATM   40  C   UNL     1     -12.055  14.934  73.173  1.00  0.00    -0.267 C  
HETATM   41  C   UNL     1     -11.546  15.459  71.834  1.00  0.00    -0.521 C  
ENDBRANCH  11  35
ENDBRANCH   4   5
ENDBRANCH   2   4
TORSDOF 9
ENDMDL
MODEL       29
REMARK 921   NORMALIZED FREE ENERGY PREDICTED BY IDOCK:   -6.69 KCAL/MOL
REMARK 922        TOTAL FREE ENERGY PREDICTED BY IDOCK:  -12.37 KCAL/MOL
REMARK 923 INTER-LIGAND FREE ENERGY PREDICTED BY IDOCK:  -10.82 KCAL/MOL
REMARK 924 INTRA-LIGAND FREE ENERGY PREDICTED BY IDOCK:   -1.56 KCAL/MOL
REMARK 927      BINDING AFFINITY PREDICTED BY RF-SCORE:    0.00 PKD
ROOT
HETATM    1  C   UNL     1      -7.821  12.557  68.275  1.00  0.00    -0.144 C  
HETATM    2  C   UNL     1      -8.121  13.967  67.769  1.00  0.00    -0.167 C  
HETATM    3  C   UNL     1      -9.097  13.885  66.591  1.00  0.00    -0.209 C  
ENDROOT
BRANCH   2   4
HETATM    4  O   UNL     1      -8.630  14.739  68.883  1.00  0.00    -0.170 OA 
BRANCH   4   5
HETATM    5  C   UNL     1      -9.105  16.002  68.595  1.00  0.00    -0.213 A  
HETATM    6  C   UNL     1     -10.468  16.338  68.538  1.00  0.00    -0.278 A  
HETATM    7  C   UNL     1     -10.338  20.096  68.153  1.00  0.00    -0.441 C  
HETATM    8  C   UNL     1     -10.782  17.696  68.566  1.00  0.00    -0.193 A  
HETATM    9  C   UNL     1      -8.108  16.997  68.396  1.00  0.00    -0.245 A  
HETATM   10  C   UNL     1      -9.812  18.698  68.367  1.00  0.00    -0.424 A  
HETATM   11  C   UNL     1      -8.438  18.362  68.260  1.00  0.00    -0.321 A  
BRANCH   6  12
HETATM   12  N   UNL     1     -11.530  15.415  68.566  1.00  0.00    -0.335 NA 
HETATM   13  H   UNL     1     -12.280  15.627  67.907  1.00  0.00     0.000 HD 
BRANCH  12  14
HETATM   14  C   UNL     1     -11.746  14.287  69.307  1.00  0.00    -0.321 A  
HETATM   15  N   UNL     1     -11.488  13.043  68.793  1.00  0.00    -0.276 NA 
HETATM   16  C   UNL     1     -12.721  13.299  71.143  1.00  0.00    -0.320 A  
HETATM   17  N   UNL     1     -12.389  14.442  70.443  1.00  0.00    -0.323 NA 
HETATM   18  C   UNL     1     -11.994  11.862  69.351  1.00  0.00    -0.289 A  
HETATM   19  C   UNL     1     -12.590  12.038  70.720  1.00  0.00    -0.222 A  
HETATM   20 CL   UNL     1     -13.146  10.685  71.617  1.00  0.00    -0.550 Cl 
BRANCH  18  21
HETATM   21  N   UNL     1     -12.062  10.663  68.822  1.00  0.00    -0.790 NA 
HETATM   22  H   UNL     1     -12.842  10.047  69.053  1.00  0.00     0.000 HD 
BRANCH  21  23
HETATM   23  C   UNL     1     -11.065  10.230  67.941  1.00  0.00    -0.276 A  
HETATM   24  C   UNL     1     -10.870  10.924  66.736  1.00  0.00    -0.283 A  
HETATM   25  C   UNL     1     -10.196  10.334  65.673  1.00  0.00    -0.301 A  
HETATM   26  C   UNL     1      -9.639   9.071  65.833  1.00  0.00    -0.317 A  
HETATM   27  C   UNL     1      -9.661   8.453  67.084  1.00  0.00    -0.250 A  
HETATM   28  C   UNL     1     -10.335   9.055  68.157  1.00  0.00    -0.214 A  
BRANCH  28  29
HETATM   29  S   UNL     1      -9.861   8.521  69.810  1.00  0.00    -0.190 S  
HETATM   30  O   UNL     1      -8.817   7.524  69.630  1.00  0.00    -0.140 OA 
HETATM   31  O   UNL     1      -9.533   9.745  70.522  1.00  0.00    -0.229 OA 
BRANCH  29  32
HETATM   32  C   UNL     1     -11.197   7.702  70.667  1.00  0.00    -0.266 C  
HETATM   33  C   UNL     1     -11.533   6.333  70.070  1.00  0.00    -0.460 C  
HETATM   34  C   UNL     1     -10.814   7.526  72.146  1.00  0.00    -0.282 C  
ENDBRANCH  29  32
ENDBRANCH  28  29
ENDBRANCH  21  23
ENDBRANCH  18  21
ENDBRANCH  12  14
ENDBRANCH   6  12
BRANCH  11  35
HETATM   35  C   UNL     1      -7.405  19.488  68.043  1.00  0.00    -0.317 C  
HETATM   36  C   UNL     1      -5.982  19.050  68.443  1.00  0.00    -0.228 C  
HETATM   37  C   UNL     1      -5.297  18.268  67.335  1.00  0.00    -0.138 C  
HETATM   38  N   UNL     1      -5.148  19.112  66.158  1.00  0.00    -0.141 NA 
HETATM   39  H   UNL     1      -4.591  18.654  65.438  1.00  0.00     0.000 HD 
HETATM   40  C   UNL     1      -6.444  19.543  65.638  1.00  0.00    -0.240 C  
HETATM   41  C   UNL     1      -7.315  20.227  66.688  1.00  0.00    -0.316 C  
ENDBRANCH  11  35
ENDBRANCH   4   5
ENDBRANCH   2   4
TORSDOF 9
ENDMDL
MODEL       30
REMARK 921   NORMALIZED FREE ENERGY PREDICTED BY IDOCK:   -6.65 KCAL/MOL
REMARK 922        TOTAL FREE ENERGY PREDICTED BY IDOCK:  -12.31 KCAL/MOL
REMARK 923 INTER-LIGAND FREE ENERGY PREDICTED BY IDOCK:   -9.88 KCAL/MOL
REMARK 924 INTRA-LIGAND FREE ENERGY PREDICTED BY IDOCK:   -2.43 KCAL/MOL
REMARK 927      BINDING AFFINITY PREDICTED BY RF-SCORE:    0.00 PKD
ROOT
HETATM    1  C   UNL     1     -10.241  12.484  64.025  1.00  0.00    -0.390 C  
HETATM    2  C   UNL     1     -11.106  13.162  65.087  1.00  0.00    -0.287 C  
HETATM    3  C   UNL     1     -12.576  12.805  64.845  1.00  0.00    -0.541 C  
ENDROOT
BRANCH   2   4
HETATM    4  O   UNL     1     -10.621  12.744  66.386  1.00  0.00    -0.252 OA 
BRANCH   4   5
HETATM    5  C   UNL     1     -10.967  13.538  67.460  1.00  0.00    -0.268 A  
HETATM    6  C   UNL     1     -11.592  13.061  68.624  1.00  0.00    -0.318 A  
HETATM    7  C   UNL     1     -11.513  16.104  70.865  1.00  0.00    -0.421 C  
HETATM    8  C   UNL     1     -11.575  13.902  69.735  1.00  0.00    -0.335 A  
HETATM    9  C   UNL     1     -10.603  14.908  67.347  1.00  0.00    -0.263 A  
HETATM   10  C   UNL     1     -11.224  15.262  69.646  1.00  0.00    -0.289 A  
HETATM   11  C   UNL     1     -10.739  15.805  68.427  1.00  0.00    -0.281 A  
BRANCH   6  12
HETATM   12  N   UNL     1     -12.130  11.770  68.782  1.00  0.00    -0.388 NA 
HETATM   13  H   UNL     1     -12.800  11.509  68.057  1.00  0.00     0.000 HD 
BRANCH  12  14
HETATM   14  C   UNL     1     -11.924  10.799  69.721  1.00  0.00    -0.325 A  
HETATM   15  N   UNL     1     -10.858   9.942  69.631  1.00  0.00    -0.240 NA 
HETATM   16  C   UNL     1     -12.751   9.546  71.467  1.00  0.00    -0.372 A  
HETATM   17  N   UNL     1     -12.891  10.603  70.590  1.00  0.00    -0.348 NA 
HETATM   18  C   UNL     1     -10.778   8.739  70.344  1.00  0.00    -0.225 A  
HETATM   19  C   UNL     1     -11.803   8.604  71.436  1.00  0.00    -0.297 A  
HETATM   20 CL   UNL     1     -11.782   7.258  72.500  1.00  0.00    -0.276 Cl 
BRANCH  18  21
HETATM   21  N   UNL     1      -9.977   7.717  70.150  1.00  0.00    -0.185 NA 
HETATM   22  H   UNL     1     -10.366   6.790  69.977  1.00  0.00     0.000 HD 
BRANCH  21  23
HETATM   23  C   UNL     1      -8.590   7.900  70.180  1.00  0.00    -0.134 A  
HETATM   24  C   UNL     1      -7.979   8.283  71.384  1.00  0.00    -0.139 A  
HETATM   25  C   UNL     1      -6.710   8.851  71.392  1.00  0.00    -0.085 A  
HETATM   26  C   UNL     1      -6.006   8.967  70.200  1.00  0.00    -0.034 A  
HETATM   27  C   UNL     1      -6.525   8.417  69.028  1.00  0.00    -0.048 A  
HETATM   28  C   UNL     1      -7.802   7.837  69.025  1.00  0.00    -0.118 A  
BRANCH  28  29
HETATM   29  S   UNL     1      -8.162   6.684  67.690  1.00  0.00    -0.123 S  
HETATM   30  O   UNL     1      -6.940   6.573  66.910  1.00  0.00    -0.064 OA 
HETATM   31  O   UNL     1      -8.672   5.493  68.349  1.00  0.00    -0.106 OA 
BRANCH  29  32
HETATM   32  C   UNL     1      -9.416   7.303  66.579  1.00  0.00    -0.163 C  
HETATM   33  C   UNL     1     -10.828   6.860  66.975  1.00  0.00    -0.436 C  
HETATM   34  C   UNL     1      -9.357   8.839  66.557  1.00  0.00    -0.260 C  
ENDBRANCH  29  32
ENDBRANCH  28  29
ENDBRANCH  21  23
ENDBRANCH  18  21
ENDBRANCH  12  14
ENDBRANCH   6  12
BRANCH  11  35
HETATM   35  C   UNL     1     -10.363  17.300  68.369  1.00  0.00    -0.366 C  
HETATM   36  C   UNL     1      -8.838  17.508  68.295  1.00  0.00    -0.274 C  
HETATM   37  C   UNL     1      -8.314  17.366  66.875  1.00  0.00    -0.235 C  
HETATM   38  N   UNL     1      -8.906  18.391  66.029  1.00  0.00    -0.498 NA 
HETATM   39  H   UNL     1      -8.489  18.394  65.098  1.00  0.00     0.000 HD 
HETATM   40  C   UNL     1     -10.361  18.259  65.962  1.00  0.00    -0.363 C  
HETATM   41  C   UNL     1     -11.025  18.242  67.336  1.00  0.00    -0.132 C  
ENDBRANCH  11  35
ENDBRANCH   4   5
ENDBRANCH   2   4
TORSDOF 9
ENDMDL
MODEL       31
REMARK 921   NORMALIZED FREE ENERGY PREDICTED BY IDOCK:   -6.64 KCAL/MOL
REMARK 922        TOTAL FREE ENERGY PREDICTED BY IDOCK:  -12.30 KCAL/MOL
REMARK 923 INTER-LIGAND FREE ENERGY PREDICTED BY IDOCK:  -10.29 KCAL/MOL
REMARK 924 INTRA-LIGAND FREE ENERGY PREDICTED BY IDOCK:   -2.01 KCAL/MOL
REMARK 927      BINDING AFFINITY PREDICTED BY RF-SCORE:    0.00 PKD
ROOT
HETATM    1  C   UNL     1     -13.524   9.038  72.497  1.00  0.00    -0.485 C  
HETATM    2  C   UNL     1     -12.475   9.916  71.817  1.00  0.00    -0.397 C  
HETATM    3  C   UNL     1     -11.149   9.152  71.740  1.00  0.00    -0.437 C  
ENDROOT
BRANCH   2   4
HETATM    4  O   UNL     1     -12.992  10.299  70.519  1.00  0.00    -0.320 OA 
BRANCH   4   5
HETATM    5  C   UNL     1     -12.417  11.404  69.925  1.00  0.00    -0.125 A  
HETATM    6  C   UNL     1     -11.816  11.393  68.656  1.00  0.00    -0.310 A  
HETATM    7  C   UNL     1     -11.120  15.064  68.082  1.00  0.00    -0.296 C  
HETATM    8  C   UNL     1     -11.582  12.632  68.061  1.00  0.00    -0.394 A  
HETATM    9  C   UNL     1     -12.506  12.612  70.671  1.00  0.00    -0.323 A  
HETATM   10  C   UNL     1     -11.660  13.840  68.781  1.00  0.00    -0.363 A  
HETATM   11  C   UNL     1     -12.115  13.853  70.125  1.00  0.00    -0.418 A  
BRANCH   6  12
HETATM   12  N   UNL     1     -11.536  10.237  67.903  1.00  0.00    -0.670 NA 
HETATM   13  H   UNL     1     -12.317   9.920  67.327  1.00  0.00     0.000 HD 
BRANCH  12  14
HETATM   14  C   UNL     1     -10.418   9.459  67.797  1.00  0.00    -0.254 A  
HETATM   15  N   UNL     1     -10.106   8.535  68.759  1.00  0.00    -0.192 NA 
HETATM   16  C   UNL     1      -8.377   9.076  66.804  1.00  0.00    -0.115 A  
HETATM   17  N   UNL     1      -9.567   9.774  66.845  1.00  0.00    -0.172 NA 
HETATM   18  C   UNL     1      -8.835   7.961  68.890  1.00  0.00    -0.142 A  
HETATM   19  C   UNL     1      -7.928   8.209  67.717  1.00  0.00    -0.127 A  
HETATM   20 CL   UNL     1      -6.376   7.481  67.635  1.00  0.00    -0.051 Cl 
BRANCH  18  21
HETATM   21  N   UNL     1      -8.329   7.298  69.903  1.00  0.00    -0.133 NA 
HETATM   22  H   UNL     1      -7.797   7.790  70.621  1.00  0.00     0.000 HD 
BRANCH  21  23
HETATM   23  C   UNL     1      -8.520   5.915  69.998  1.00  0.00    -0.126 A  
HETATM   24  C   UNL     1      -8.770   5.178  68.830  1.00  0.00    -0.096 A  
HETATM   25  C   UNL     1      -9.344   3.914  68.892  1.00  0.00    -0.231 A  
HETATM   26  C   UNL     1      -9.601   3.340  70.131  1.00  0.00    -0.191 A  
HETATM   27  C   UNL     1      -9.182   3.981  71.297  1.00  0.00    -0.197 A  
HETATM   28  C   UNL     1      -8.595   5.254  71.230  1.00  0.00    -0.128 A  
BRANCH  28  29
HETATM   29  S   UNL     1      -7.596   5.756  72.641  1.00  0.00    -0.098 S  
HETATM   30  O   UNL     1      -7.085   4.530  73.234  1.00  0.00    -0.072 OA 
HETATM   31  O   UNL     1      -6.644   6.715  72.106  1.00  0.00    -0.057 OA 
BRANCH  29  32
HETATM   32  C   UNL     1      -8.567   6.561  73.906  1.00  0.00    -0.124 C  
HETATM   33  C   UNL     1      -8.297   8.067  73.991  1.00  0.00    -0.323 C  
HETATM   34  C   UNL     1     -10.059   6.332  73.619  1.00  0.00    -0.241 C  
ENDBRANCH  29  32
ENDBRANCH  28  29
ENDBRANCH  21  23
ENDBRANCH  18  21
ENDBRANCH  12  14
ENDBRANCH   6  12
BRANCH  11  35
HETATM   35  C   UNL     1     -12.188  15.196  70.880  1.00  0.00    -0.398 C  
HETATM   36  C   UNL     1     -13.642  15.661  71.089  1.00  0.00    -0.308 C  
HETATM   37  C   UNL     1     -14.282  14.997  72.298  1.00  0.00    -0.497 C  
HETATM   38  N   UNL     1     -13.557  15.371  73.503  1.00  0.00    -0.602 NA 
HETATM   39  H   UNL     1     -14.030  15.035  74.342  1.00  0.00     0.000 HD 
HETATM   40  C   UNL     1     -12.167  14.922  73.456  1.00  0.00    -0.373 C  
HETATM   41  C   UNL     1     -11.425  15.397  72.210  1.00  0.00    -0.506 C  
ENDBRANCH  11  35
ENDBRANCH   4   5
ENDBRANCH   2   4
TORSDOF 9
ENDMDL
MODEL       32
REMARK 921   NORMALIZED FREE ENERGY PREDICTED BY IDOCK:   -6.63 KCAL/MOL
REMARK 922        TOTAL FREE ENERGY PREDICTED BY IDOCK:  -12.29 KCAL/MOL
REMARK 923 INTER-LIGAND FREE ENERGY PREDICTED BY IDOCK:  -10.11 KCAL/MOL
REMARK 924 INTRA-LIGAND FREE ENERGY PREDICTED BY IDOCK:   -2.18 KCAL/MOL
REMARK 927      BINDING AFFINITY PREDICTED BY RF-SCORE:    0.00 PKD
ROOT
HETATM    1  C   UNL     1      -9.265   3.627  66.541  1.00  0.00    -0.183 C  
HETATM    2  C   UNL     1      -9.664   3.610  68.016  1.00  0.00    -0.041 C  
HETATM    3  C   UNL     1      -9.148   2.322  68.665  1.00  0.00    -0.202 C  
ENDROOT
BRANCH   2   4
HETATM    4  O   UNL     1      -9.140   4.811  68.631  1.00  0.00    -0.103 OA 
BRANCH   4   5
HETATM    5  C   UNL     1     -10.017   5.546  69.402  1.00  0.00    -0.208 A  
HETATM    6  C   UNL     1     -10.860   6.549  68.898  1.00  0.00    -0.301 A  
HETATM    7  C   UNL     1     -12.999   7.366  71.906  1.00  0.00    -0.296 C  
HETATM    8  C   UNL     1     -11.906   6.962  69.721  1.00  0.00    -0.068 A  
HETATM    9  C   UNL     1     -10.059   5.193  70.780  1.00  0.00    -0.303 A  
HETATM   10  C   UNL     1     -11.966   6.629  71.089  1.00  0.00    -0.412 A  
HETATM   11  C   UNL     1     -11.020   5.737  71.657  1.00  0.00    -0.308 A  
BRANCH   6  12
HETATM   12  N   UNL     1     -10.795   7.083  67.597  1.00  0.00    -0.442 NA 
HETATM   13  H   UNL     1     -11.618   6.885  67.027  1.00  0.00     0.000 HD 
BRANCH  12  14
HETATM   14  C   UNL     1      -9.838   7.816  66.953  1.00  0.00    -0.235 A  
HETATM   15  N   UNL     1      -9.836   9.184  67.014  1.00  0.00    -0.190 NA 
HETATM   16  C   UNL     1      -8.162   7.908  65.377  1.00  0.00    -0.138 A  
HETATM   17  N   UNL     1      -9.052   7.163  66.126  1.00  0.00    -0.151 NA 
HETATM   18  C   UNL     1      -9.114   9.991  66.125  1.00  0.00    -0.156 A  
HETATM   19  C   UNL     1      -8.111   9.241  65.294  1.00  0.00    -0.121 A  
HETATM   20 CL   UNL     1      -7.044  10.074  64.239  1.00  0.00    -0.132 Cl 
BRANCH  18  21
HETATM   21  N   UNL     1      -9.237  11.277  65.893  1.00  0.00    -0.209 NA 
HETATM   22  H   UNL     1      -8.441  11.899  66.034  1.00  0.00     0.000 HD 
BRANCH  21  23
HETATM   23  C   UNL     1     -10.460  11.794  65.452  1.00  0.00    -0.272 A  
HETATM   24  C   UNL     1     -10.890  11.511  64.146  1.00  0.00    -0.435 A  
HETATM   25  C   UNL     1     -11.863  12.290  63.529  1.00  0.00    -0.601 A  
HETATM   26  C   UNL     1     -12.473  13.313  64.244  1.00  0.00    -0.337 A  
HETATM   27  C   UNL     1     -12.191  13.481  65.600  1.00  0.00    -0.500 A  
HETATM   28  C   UNL     1     -11.215  12.688  66.222  1.00  0.00    -0.311 A  
BRANCH  28  29
HETATM   29  S   UNL     1     -11.301  12.560  68.015  1.00  0.00    -0.312 S  
HETATM   30  O   UNL     1     -12.203  11.455  68.300  1.00  0.00    -0.588 OA 
HETATM   31  O   UNL     1      -9.919  12.454  68.452  1.00  0.00    -0.220 OA 
BRANCH  29  32
HETATM   32  C   UNL     1     -12.027  14.010  68.764  1.00  0.00    -0.347 C  
HETATM   33  C   UNL     1     -12.402  13.793  70.233  1.00  0.00    -0.407 C  
HETATM   34  C   UNL     1     -11.032  15.179  68.666  1.00  0.00    -0.256 C  
ENDBRANCH  29  32
ENDBRANCH  28  29
ENDBRANCH  21  23
ENDBRANCH  18  21
ENDBRANCH  12  14
ENDBRANCH   6  12
BRANCH  11  35
HETATM   35  C   UNL     1     -11.119   5.395  73.158  1.00  0.00    -0.363 C  
HETATM   36  C   UNL     1     -11.004   3.879  73.413  1.00  0.00    -0.327 C  
HETATM   37  C   UNL     1      -9.556   3.418  73.448  1.00  0.00    -0.107 C  
HETATM   38  N   UNL     1      -8.861   4.070  74.548  1.00  0.00    -0.094 NA 
HETATM   39  H   UNL     1      -7.920   3.696  74.669  1.00  0.00     0.000 HD 
HETATM   40  C   UNL     1      -8.842   5.523  74.387  1.00  0.00    -0.117 C  
HETATM   41  C   UNL     1     -10.232   6.123  74.195  1.00  0.00    -0.320 C  
ENDBRANCH  11  35
ENDBRANCH   4   5
ENDBRANCH   2   4
TORSDOF 9
ENDMDL
MODEL       33
REMARK 921   NORMALIZED FREE ENERGY PREDICTED BY IDOCK:   -6.63 KCAL/MOL
REMARK 922        TOTAL FREE ENERGY PREDICTED BY IDOCK:  -12.28 KCAL/MOL
REMARK 923 INTER-LIGAND FREE ENERGY PREDICTED BY IDOCK:  -10.09 KCAL/MOL
REMARK 924 INTRA-LIGAND FREE ENERGY PREDICTED BY IDOCK:   -2.19 KCAL/MOL
REMARK 927      BINDING AFFINITY PREDICTED BY RF-SCORE:    0.00 PKD
ROOT
HETATM    1  C   UNL     1     -12.883   8.964  72.494  1.00  0.00    -0.401 C  
HETATM    2  C   UNL     1     -11.935   9.728  71.571  1.00  0.00    -0.407 C  
HETATM    3  C   UNL     1     -10.751   8.827  71.206  1.00  0.00    -0.339 C  
ENDROOT
BRANCH   2   4
HETATM    4  O   UNL     1     -12.696  10.169  70.421  1.00  0.00    -0.238 OA 
BRANCH   4   5
HETATM    5  C   UNL     1     -12.257  11.314  69.789  1.00  0.00    -0.275 A  
HETATM    6  C   UNL     1     -11.775  11.352  68.470  1.00  0.00    -0.318 A  
HETATM    7  C   UNL     1     -11.394  15.065  67.877  1.00  0.00    -0.344 C  
HETATM    8  C   UNL     1     -11.684  12.607  67.871  1.00  0.00    -0.412 A  
HETATM    9  C   UNL     1     -12.362  12.509  70.553  1.00  0.00    -0.345 A  
HETATM   10  C   UNL     1     -11.781  13.803  68.608  1.00  0.00    -0.391 A  
HETATM   11  C   UNL     1     -12.110  13.777  69.988  1.00  0.00    -0.416 A  
BRANCH   6  12
HETATM   12  N   UNL     1     -11.485  10.222  67.682  1.00  0.00    -0.579 NA 
HETATM   13  H   UNL     1     -12.274   9.893  67.125  1.00  0.00     0.000 HD 
BRANCH  12  14
HETATM   14  C   UNL     1     -10.347   9.483  67.522  1.00  0.00    -0.248 A  
HETATM   15  N   UNL     1     -10.356   8.319  66.799  1.00  0.00    -0.318 NA 
HETATM   16  C   UNL     1      -8.191   9.024  68.187  1.00  0.00    -0.113 A  
HETATM   17  N   UNL     1      -9.308   9.834  68.247  1.00  0.00    -0.129 NA 
HETATM   18  C   UNL     1      -9.340   7.358  66.878  1.00  0.00    -0.157 A  
HETATM   19  C   UNL     1      -8.099   7.835  67.582  1.00  0.00    -0.124 A  
HETATM   20 CL   UNL     1      -6.700   6.846  67.666  1.00  0.00    -0.065 Cl 
BRANCH  18  21
HETATM   21  N   UNL     1      -9.351   6.109  66.474  1.00  0.00    -0.151 NA 
HETATM   22  H   UNL     1      -9.210   5.891  65.488  1.00  0.00     0.000 HD 
BRANCH  21  23
HETATM   23  C   UNL     1      -9.557   5.078  67.397  1.00  0.00    -0.145 A  
HETATM   24  C   UNL     1     -10.173   5.373  68.624  1.00  0.00    -0.246 A  
HETATM   25  C   UNL     1     -10.052   4.512  69.709  1.00  0.00    -0.177 A  
HETATM   26  C   UNL     1      -9.379   3.306  69.553  1.00  0.00    -0.235 A  
HETATM   27  C   UNL     1      -8.930   2.917  68.291  1.00  0.00    -0.193 A  
HETATM   28  C   UNL     1      -9.061   3.785  67.196  1.00  0.00    -0.159 A  
BRANCH  28  29
HETATM   29  S   UNL     1      -8.993   3.035  65.560  1.00  0.00    -0.147 S  
HETATM   30  O   UNL     1      -9.205   1.610  65.758  1.00  0.00    -0.093 OA 
HETATM   31  O   UNL     1      -9.961   3.775  64.767  1.00  0.00    -0.184 OA 
BRANCH  29  32
HETATM   32  C   UNL     1      -7.385   3.206  64.802  1.00  0.00    -0.071 C  
HETATM   33  C   UNL     1      -7.319   4.373  63.812  1.00  0.00    -0.054 C  
HETATM   34  C   UNL     1      -6.330   3.417  65.900  1.00  0.00    -0.032 C  
ENDBRANCH  29  32
ENDBRANCH  28  29
ENDBRANCH  21  23
ENDBRANCH  18  21
ENDBRANCH  12  14
ENDBRANCH   6  12
BRANCH  11  35
HETATM   35  C   UNL     1     -12.208  15.108  70.762  1.00  0.00    -0.392 C  
HETATM   36  C   UNL     1     -13.666  15.587  70.903  1.00  0.00    -0.191 C  
HETATM   37  C   UNL     1     -14.375  14.910  72.065  1.00  0.00    -0.561 C  
HETATM   38  N   UNL     1     -13.710  15.255  73.313  1.00  0.00    -0.605 NA 
HETATM   39  H   UNL     1     -14.229  14.910  74.120  1.00  0.00     0.000 HD 
HETATM   40  C   UNL     1     -12.324  14.790  73.330  1.00  0.00    -0.339 C  
HETATM   41  C   UNL     1     -11.514  15.278  72.133  1.00  0.00    -0.499 C  
ENDBRANCH  11  35
ENDBRANCH   4   5
ENDBRANCH   2   4
TORSDOF 9
ENDMDL
MODEL       34
REMARK 921   NORMALIZED FREE ENERGY PREDICTED BY IDOCK:   -6.62 KCAL/MOL
REMARK 922        TOTAL FREE ENERGY PREDICTED BY IDOCK:  -12.28 KCAL/MOL
REMARK 923 INTER-LIGAND FREE ENERGY PREDICTED BY IDOCK:  -10.48 KCAL/MOL
REMARK 924 INTRA-LIGAND FREE ENERGY PREDICTED BY IDOCK:   -1.80 KCAL/MOL
REMARK 927      BINDING AFFINITY PREDICTED BY RF-SCORE:    0.00 PKD
ROOT
HETATM    1  C   UNL     1     -10.321  12.736  64.092  1.00  0.00    -0.401 C  
HETATM    2  C   UNL     1     -11.012  13.547  65.187  1.00  0.00    -0.320 C  
HETATM    3  C   UNL     1     -12.520  13.280  65.139  1.00  0.00    -0.525 C  
ENDROOT
BRANCH   2   4
HETATM    4  O   UNL     1     -10.407  13.190  66.453  1.00  0.00    -0.276 OA 
BRANCH   4   5
HETATM    5  C   UNL     1     -10.753  13.959  67.544  1.00  0.00    -0.267 A  
HETATM    6  C   UNL     1     -11.361  13.454  68.705  1.00  0.00    -0.292 A  
HETATM    7  C   UNL     1     -11.303  16.457  70.999  1.00  0.00    -0.207 C  
HETATM    8  C   UNL     1     -11.345  14.275  69.831  1.00  0.00    -0.254 A  
HETATM    9  C   UNL     1     -10.410  15.337  67.452  1.00  0.00    -0.256 A  
HETATM   10  C   UNL     1     -11.013  15.642  69.762  1.00  0.00    -0.307 A  
HETATM   11  C   UNL     1     -10.548  16.212  68.549  1.00  0.00    -0.284 A  
BRANCH   6  12
HETATM   12  N   UNL     1     -11.879  12.152  68.845  1.00  0.00    -0.313 NA 
HETATM   13  H   UNL     1     -12.476  11.859  68.071  1.00  0.00     0.000 HD 
BRANCH  12  14
HETATM   14  C   UNL     1     -11.734  11.207  69.821  1.00  0.00    -0.345 A  
HETATM   15  N   UNL     1     -10.676  10.337  69.811  1.00  0.00    -0.268 NA 
HETATM   16  C   UNL     1     -12.664  10.015  71.557  1.00  0.00    -0.429 A  
HETATM   17  N   UNL     1     -12.747  11.048  70.644  1.00  0.00    -0.313 NA 
HETATM   18  C   UNL     1     -10.647   9.154  70.561  1.00  0.00    -0.235 A  
HETATM   19  C   UNL     1     -11.728   9.063  71.602  1.00  0.00    -0.361 A  
HETATM   20 CL   UNL     1     -11.779   7.748  72.704  1.00  0.00    -0.386 Cl 
BRANCH  18  21
HETATM   21  N   UNL     1      -9.850   8.118  70.438  1.00  0.00    -0.186 NA 
HETATM   22  H   UNL     1      -9.190   7.891  71.182  1.00  0.00     0.000 HD 
BRANCH  21  23
HETATM   23  C   UNL     1      -9.907   7.325  69.286  1.00  0.00    -0.166 A  
HETATM   24  C   UNL     1     -10.473   7.859  68.118  1.00  0.00    -0.227 A  
HETATM   25  C   UNL     1     -10.911   7.029  67.092  1.00  0.00    -0.427 A  
HETATM   26  C   UNL     1     -10.713   5.657  67.192  1.00  0.00    -0.316 A  
HETATM   27  C   UNL     1      -9.982   5.134  68.259  1.00  0.00    -0.208 A  
HETATM   28  C   UNL     1      -9.534   5.976  69.288  1.00  0.00    -0.132 A  
BRANCH  28  29
HETATM   29  S   UNL     1      -8.168   5.368  70.291  1.00  0.00    -0.102 S  
HETATM   30  O   UNL     1      -7.697   4.155  69.642  1.00  0.00    -0.053 OA 
HETATM   31  O   UNL     1      -7.254   6.493  70.402  1.00  0.00    -0.075 OA 
BRANCH  29  32
HETATM   32  C   UNL     1      -8.690   4.893  71.932  1.00  0.00    -0.128 C  
HETATM   33  C   UNL     1      -8.509   6.015  72.959  1.00  0.00    -0.119 C  
HETATM   34  C   UNL     1     -10.171   4.483  71.890  1.00  0.00    -0.241 C  
ENDBRANCH  29  32
ENDBRANCH  28  29
ENDBRANCH  21  23
ENDBRANCH  18  21
ENDBRANCH  12  14
ENDBRANCH   6  12
BRANCH  11  35
HETATM   35  C   UNL     1     -10.193  17.713  68.513  1.00  0.00    -0.386 C  
HETATM   36  C   UNL     1      -8.682  17.944  68.312  1.00  0.00    -0.277 C  
HETATM   37  C   UNL     1      -8.286  17.860  66.847  1.00  0.00    -0.242 C  
HETATM   38  N   UNL     1      -8.962  18.908  66.096  1.00  0.00    -0.470 NA 
HETATM   39  H   UNL     1      -8.630  18.950  65.133  1.00  0.00     0.000 HD 
HETATM   40  C   UNL     1     -10.415  18.759  66.153  1.00  0.00    -0.446 C  
HETATM   41  C   UNL     1     -10.954  18.683  67.579  1.00  0.00    -0.238 C  
ENDBRANCH  11  35
ENDBRANCH   4   5
ENDBRANCH   2   4
TORSDOF 9
ENDMDL
MODEL       35
REMARK 921   NORMALIZED FREE ENERGY PREDICTED BY IDOCK:   -6.62 KCAL/MOL
REMARK 922        TOTAL FREE ENERGY PREDICTED BY IDOCK:  -12.28 KCAL/MOL
REMARK 923 INTER-LIGAND FREE ENERGY PREDICTED BY IDOCK:  -10.99 KCAL/MOL
REMARK 924 INTRA-LIGAND FREE ENERGY PREDICTED BY IDOCK:   -1.29 KCAL/MOL
REMARK 927      BINDING AFFINITY PREDICTED BY RF-SCORE:    0.00 PKD
ROOT
HETATM    1  C   UNL     1     -10.742   5.801  70.865  1.00  0.00    -0.333 C  
HETATM    2  C   UNL     1     -11.074   7.292  70.904  1.00  0.00    -0.261 C  
HETATM    3  C   UNL     1     -11.385   7.703  72.347  1.00  0.00    -0.381 C  
ENDROOT
BRANCH   2   4
HETATM    4  O   UNL     1      -9.955   8.011  70.333  1.00  0.00    -0.187 OA 
BRANCH   4   5
HETATM    5  C   UNL     1     -10.124   8.509  69.058  1.00  0.00    -0.199 A  
HETATM    6  C   UNL     1     -10.972   9.581  68.736  1.00  0.00    -0.080 A  
HETATM    7  C   UNL     1     -10.128  10.192  65.103  1.00  0.00    -0.329 C  
HETATM    8  C   UNL     1     -10.788  10.175  67.489  1.00  0.00    -0.349 A  
HETATM    9  C   UNL     1      -9.333   7.889  68.052  1.00  0.00    -0.152 A  
HETATM   10  C   UNL     1     -10.013   9.577  66.476  1.00  0.00    -0.329 A  
HETATM   11  C   UNL     1      -9.272   8.395  66.736  1.00  0.00    -0.214 A  
BRANCH   6  12
HETATM   12  N   UNL     1     -11.907  10.164  69.612  1.00  0.00    -0.469 NA 
HETATM   13  H   UNL     1     -12.429   9.487  70.169  1.00  0.00     0.000 HD 
BRANCH  12  14
HETATM   14  C   UNL     1     -12.247  11.465  69.859  1.00  0.00    -0.277 A  
HETATM   15  N   UNL     1     -11.930  12.459  68.970  1.00  0.00    -0.279 NA 
HETATM   16  C   UNL     1     -12.939  13.065  71.363  1.00  0.00    -0.283 A  
HETATM   17  N   UNL     1     -12.707  11.738  71.060  1.00  0.00    -0.326 NA 
HETATM   18  C   UNL     1     -11.939  13.819  69.304  1.00  0.00    -0.352 A  
HETATM   19  C   UNL     1     -12.608  14.123  70.616  1.00  0.00    -0.351 A  
HETATM   20 CL   UNL     1     -12.830  15.743  71.136  1.00  0.00    -0.526 Cl 
BRANCH  18  21
HETATM   21  N   UNL     1     -11.404  14.830  68.661  1.00  0.00    -0.271 NA 
HETATM   22  H   UNL     1     -11.034  15.627  69.180  1.00  0.00     0.000 HD 
BRANCH  21  23
HETATM   23  C   UNL     1     -11.340  14.815  67.263  1.00  0.00    -0.357 A  
HETATM   24  C   UNL     1     -12.323  14.118  66.543  1.00  0.00    -0.405 A  
HETATM   25  C   UNL     1     -12.107  13.738  65.224  1.00  0.00    -0.425 A  
HETATM   26  C   UNL     1     -10.934  14.122  64.585  1.00  0.00    -0.393 A  
HETATM   27  C   UNL     1     -10.037  14.975  65.229  1.00  0.00    -0.378 A  
HETATM   28  C   UNL     1     -10.262  15.363  66.558  1.00  0.00    -0.280 A  
BRANCH  28  29
HETATM   29  S   UNL     1      -9.419  16.853  67.117  1.00  0.00    -0.243 S  
HETATM   30  O   UNL     1      -8.928  16.562  68.455  1.00  0.00    -0.204 OA 
HETATM   31  O   UNL     1      -8.452  17.152  66.075  1.00  0.00    -0.482 OA 
BRANCH  29  32
HETATM   32  C   UNL     1     -10.531  18.241  67.278  1.00  0.00    -0.398 C  
HETATM   33  C   UNL     1     -10.265  19.070  68.538  1.00  0.00    -0.422 C  
HETATM   34  C   UNL     1     -10.391  19.145  66.042  1.00  0.00    -0.538 C  
ENDBRANCH  29  32
ENDBRANCH  28  29
ENDBRANCH  21  23
ENDBRANCH  18  21
ENDBRANCH  12  14
ENDBRANCH   6  12
BRANCH  11  35
HETATM   35  C   UNL     1      -8.434   7.770  65.602  1.00  0.00    -0.153 C  
HETATM   36  C   UNL     1      -6.979   8.282  65.611  1.00  0.00    -0.067 C  
HETATM   37  C   UNL     1      -6.118   7.523  66.607  1.00  0.00    -0.044 C  
HETATM   38  N   UNL     1      -6.053   6.118  66.230  1.00  0.00    -0.028 NA 
HETATM   39  H   UNL     1      -5.391   5.606  66.812  1.00  0.00     0.000 HD 
HETATM   40  C   UNL     1      -7.376   5.495  66.249  1.00  0.00    -0.078 C  
HETATM   41  C   UNL     1      -8.400   6.238  65.396  1.00  0.00    -0.148 C  
ENDBRANCH  11  35
ENDBRANCH   4   5
ENDBRANCH   2   4
TORSDOF 9
ENDMDL
MODEL       36
REMARK 921   NORMALIZED FREE ENERGY PREDICTED BY IDOCK:   -6.62 KCAL/MOL
REMARK 922        TOTAL FREE ENERGY PREDICTED BY IDOCK:  -12.27 KCAL/MOL
REMARK 923 INTER-LIGAND FREE ENERGY PREDICTED BY IDOCK:  -10.50 KCAL/MOL
REMARK 924 INTRA-LIGAND FREE ENERGY PREDICTED BY IDOCK:   -1.77 KCAL/MOL
REMARK 927      BINDING AFFINITY PREDICTED BY RF-SCORE:    0.00 PKD
ROOT
HETATM    1  C   UNL     1     -10.192   8.380  67.884  1.00  0.00    -0.273 C  
HETATM    2  C   UNL     1      -9.036   9.227  68.414  1.00  0.00    -0.128 C  
HETATM    3  C   UNL     1      -8.473  10.082  67.275  1.00  0.00    -0.122 C  
ENDROOT
BRANCH   2   4
HETATM    4  O   UNL     1      -9.533  10.009  69.526  1.00  0.00    -0.204 OA 
BRANCH   4   5
HETATM    5  C   UNL     1      -9.778   9.330  70.702  1.00  0.00    -0.272 A  
HETATM    6  C   UNL     1     -11.048   9.195  71.285  1.00  0.00    -0.335 A  
HETATM    7  C   UNL     1     -10.369   6.770  74.104  1.00  0.00    -0.322 C  
HETATM    8  C   UNL     1     -11.187   8.220  72.271  1.00  0.00    -0.443 A  
HETATM    9  C   UNL     1      -8.643   8.709  71.294  1.00  0.00    -0.236 A  
HETATM   10  C   UNL     1     -10.078   7.595  72.874  1.00  0.00    -0.343 A  
HETATM   11  C   UNL     1      -8.763   7.844  72.402  1.00  0.00    -0.206 A  
BRANCH   6  12
HETATM   12  N   UNL     1     -12.204   9.887  70.875  1.00  0.00    -0.316 NA 
HETATM   13  H   UNL     1     -12.990   9.279  70.645  1.00  0.00     0.000 HD 
BRANCH  12  14
HETATM   14  C   UNL     1     -12.471  11.219  70.728  1.00  0.00    -0.376 A  
HETATM   15  N   UNL     1     -11.961  11.930  69.674  1.00  0.00    -0.309 NA 
HETATM   16  C   UNL     1     -13.233  13.185  71.653  1.00  0.00    -0.346 A  
HETATM   17  N   UNL     1     -13.067  11.817  71.736  1.00  0.00    -0.445 NA 
HETATM   18  C   UNL     1     -11.909  13.329  69.645  1.00  0.00    -0.327 A  
HETATM   19  C   UNL     1     -12.723  13.995  70.720  1.00  0.00    -0.326 A  
HETATM   20 CL   UNL     1     -12.887  15.702  70.770  1.00  0.00    -0.503 Cl 
BRANCH  18  21
HETATM   21  N   UNL     1     -11.215  14.113  68.854  1.00  0.00    -0.253 NA 
HETATM   22  H   UNL     1     -10.598  14.822  69.251  1.00  0.00     0.000 HD 
BRANCH  21  23
HETATM   23  C   UNL     1     -11.321  13.977  67.465  1.00  0.00    -0.321 A  
HETATM   24  C   UNL     1     -12.150  12.973  66.940  1.00  0.00    -0.349 A  
HETATM   25  C   UNL     1     -12.000  12.536  65.629  1.00  0.00    -0.492 A  
HETATM   26  C   UNL     1     -11.069  13.157  64.804  1.00  0.00    -0.351 A  
HETATM   27  C   UNL     1     -10.376  14.280  65.257  1.00  0.00    -0.417 A  
HETATM   28  C   UNL     1     -10.536  14.723  66.578  1.00  0.00    -0.299 A  
BRANCH  28  29
HETATM   29  S   UNL     1     -10.083  16.432  66.916  1.00  0.00    -0.289 S  
HETATM   30  O   UNL     1     -10.137  17.126  65.639  1.00  0.00    -0.561 OA 
HETATM   31  O   UNL     1     -10.985  16.859  67.974  1.00  0.00    -0.354 OA 
BRANCH  29  32
HETATM   32  C   UNL     1      -8.403  16.585  67.504  1.00  0.00    -0.164 C  
HETATM   33  C   UNL     1      -7.825  15.255  67.996  1.00  0.00    -0.137 C  
HETATM   34  C   UNL     1      -7.520  17.128  66.368  1.00  0.00    -0.341 C  
ENDBRANCH  29  32
ENDBRANCH  28  29
ENDBRANCH  21  23
ENDBRANCH  18  21
ENDBRANCH  12  14
ENDBRANCH   6  12
BRANCH  11  35
HETATM   35  C   UNL     1      -7.573   7.140  73.088  1.00  0.00    -0.084 C  
HETATM   36  C   UNL     1      -7.277   5.765  72.458  1.00  0.00    -0.086 C  
HETATM   37  C   UNL     1      -6.425   5.887  71.205  1.00  0.00    -0.045 C  
HETATM   38  N   UNL     1      -5.134   6.467  71.544  1.00  0.00    -0.021 NA 
HETATM   39  H   UNL     1      -4.499   6.456  70.746  1.00  0.00     0.000 HD 
HETATM   40  C   UNL     1      -5.278   7.814  72.094  1.00  0.00    -0.036 C  
HETATM   41  C   UNL     1      -6.228   7.876  73.286  1.00  0.00    -0.069 C  
ENDBRANCH  11  35
ENDBRANCH   4   5
ENDBRANCH   2   4
TORSDOF 9
ENDMDL
MODEL       37
REMARK 921   NORMALIZED FREE ENERGY PREDICTED BY IDOCK:   -6.60 KCAL/MOL
REMARK 922        TOTAL FREE ENERGY PREDICTED BY IDOCK:  -12.25 KCAL/MOL
REMARK 923 INTER-LIGAND FREE ENERGY PREDICTED BY IDOCK:  -10.23 KCAL/MOL
REMARK 924 INTRA-LIGAND FREE ENERGY PREDICTED BY IDOCK:   -2.02 KCAL/MOL
REMARK 927      BINDING AFFINITY PREDICTED BY RF-SCORE:    0.00 PKD
ROOT
HETATM    1  C   UNL     1     -13.942   9.090  72.219  1.00  0.00    -0.522 C  
HETATM    2  C   UNL     1     -13.326   7.748  71.823  1.00  0.00    -0.319 C  
HETATM    3  C   UNL     1     -14.402   6.659  71.888  1.00  0.00    -0.190 C  
ENDROOT
BRANCH   2   4
HETATM    4  O   UNL     1     -12.742   7.900  70.507  1.00  0.00     0.233 OA 
BRANCH   4   5
HETATM    5  C   UNL     1     -11.378   8.097  70.453  1.00  0.00    -0.181 A  
HETATM    6  C   UNL     1     -10.766   9.238  69.909  1.00  0.00    -0.234 A  
HETATM    7  C   UNL     1      -7.139   8.703  70.827  1.00  0.00    -0.061 C  
HETATM    8  C   UNL     1      -9.424   9.441  70.222  1.00  0.00    -0.294 A  
HETATM    9  C   UNL     1     -10.590   7.067  71.040  1.00  0.00    -0.239 A  
HETATM   10  C   UNL     1      -8.624   8.435  70.798  1.00  0.00    -0.159 A  
HETATM   11  C   UNL     1      -9.197   7.203  71.210  1.00  0.00    -0.151 A  
BRANCH   6  12
HETATM   12  N   UNL     1     -11.430  10.237  69.172  1.00  0.00    -0.426 NA 
HETATM   13  H   UNL     1     -11.520  10.027  68.178  1.00  0.00     0.000 HD 
BRANCH  12  14
HETATM   14  C   UNL     1     -11.977  11.435  69.537  1.00  0.00    -0.341 A  
HETATM   15  N   UNL     1     -12.177  12.430  68.617  1.00  0.00    -0.109 NA 
HETATM   16  C   UNL     1     -12.552  12.905  71.214  1.00  0.00    -0.256 A  
HETATM   17  N   UNL     1     -12.115  11.653  70.826  1.00  0.00    -0.343 NA 
HETATM   18  C   UNL     1     -12.406  13.767  68.969  1.00  0.00    -0.068 A  
HETATM   19  C   UNL     1     -12.712  13.973  70.426  1.00  0.00    -0.253 A  
HETATM   20 CL   UNL     1     -13.144  15.522  71.024  1.00  0.00    -0.551 Cl 
BRANCH  18  21
HETATM   21  N   UNL     1     -12.335  14.841  68.218  1.00  0.00    -0.586 NA 
HETATM   22  H   UNL     1     -13.138  15.466  68.144  1.00  0.00     0.000 HD 
BRANCH  21  23
HETATM   23  C   UNL     1     -11.157  15.130  67.519  1.00  0.00    -0.319 A  
HETATM   24  C   UNL     1      -9.970  15.335  68.239  1.00  0.00    -0.222 A  
HETATM   25  C   UNL     1      -8.890  15.995  67.663  1.00  0.00    -0.190 A  
HETATM   26  C   UNL     1      -8.960  16.386  66.332  1.00  0.00    -0.340 A  
HETATM   27  C   UNL     1     -10.058  16.019  65.554  1.00  0.00    -0.336 A  
HETATM   28  C   UNL     1     -11.142  15.345  66.136  1.00  0.00    -0.230 A  
BRANCH  28  29
HETATM   29  S   UNL     1     -12.218  14.430  65.020  1.00  0.00    -0.389 S  
HETATM   30  O   UNL     1     -13.371  14.025  65.809  1.00  0.00    -0.543 OA 
HETATM   31  O   UNL     1     -12.432  15.320  63.890  1.00  0.00    -0.737 OA 
BRANCH  29  32
HETATM   32  C   UNL     1     -11.458  12.927  64.426  1.00  0.00    -0.357 C  
HETATM   33  C   UNL     1     -11.404  11.830  65.494  1.00  0.00    -0.283 C  
HETATM   34  C   UNL     1     -12.246  12.409  63.212  1.00  0.00    -0.520 C  
ENDBRANCH  29  32
ENDBRANCH  28  29
ENDBRANCH  21  23
ENDBRANCH  18  21
ENDBRANCH  12  14
ENDBRANCH   6  12
BRANCH  11  35
HETATM   35  C   UNL     1      -8.288   6.126  71.838  1.00  0.00    -0.118 C  
HETATM   36  C   UNL     1      -8.306   6.185  73.379  1.00  0.00    -0.116 C  
HETATM   37  C   UNL     1      -9.503   5.453  73.961  1.00  0.00    -0.136 C  
HETATM   38  N   UNL     1      -9.434   4.042  73.608  1.00  0.00    -0.103 NA 
HETATM   39  H   UNL     1     -10.162   3.504  74.078  1.00  0.00     0.000 HD 
HETATM   40  C   UNL     1      -9.478   3.848  72.159  1.00  0.00    -0.132 C  
HETATM   41  C   UNL     1      -8.411   4.644  71.415  1.00  0.00    -0.108 C  
ENDBRANCH  11  35
ENDBRANCH   4   5
ENDBRANCH   2   4
TORSDOF 9
ENDMDL
MODEL       38
REMARK 921   NORMALIZED FREE ENERGY PREDICTED BY IDOCK:   -6.59 KCAL/MOL
REMARK 922        TOTAL FREE ENERGY PREDICTED BY IDOCK:  -12.22 KCAL/MOL
REMARK 923 INTER-LIGAND FREE ENERGY PREDICTED BY IDOCK:  -10.81 KCAL/MOL
REMARK 924 INTRA-LIGAND FREE ENERGY PREDICTED BY IDOCK:   -1.41 KCAL/MOL
REMARK 927      BINDING AFFINITY PREDICTED BY RF-SCORE:    0.00 PKD
ROOT
HETATM    1  C   UNL     1     -10.907   6.571  67.017  1.00  0.00    -0.465 C  
HETATM    2  C   UNL     1      -9.938   7.495  67.754  1.00  0.00    -0.171 C  
HETATM    3  C   UNL     1      -8.501   7.030  67.497  1.00  0.00    -0.122 C  
ENDROOT
BRANCH   2   4
HETATM    4  O   UNL     1     -10.191   8.849  67.309  1.00  0.00    -0.216 OA 
BRANCH   4   5
HETATM    5  C   UNL     1     -10.729   9.717  68.236  1.00  0.00    -0.217 A  
HETATM    6  C   UNL     1     -11.023  11.066  67.978  1.00  0.00    -0.258 A  
HETATM    7  C   UNL     1     -12.839  12.096  71.128  1.00  0.00    -0.313 C  
HETATM    8  C   UNL     1     -11.854  11.713  68.889  1.00  0.00    -0.392 A  
HETATM    9  C   UNL     1     -11.026   9.145  69.504  1.00  0.00    -0.138 A  
HETATM   10  C   UNL     1     -12.158  11.168  70.152  1.00  0.00    -0.443 A  
HETATM   11  C   UNL     1     -11.729   9.860  70.496  1.00  0.00    -0.373 A  
BRANCH   6  12
HETATM   12  N   UNL     1     -10.634  11.770  66.823  1.00  0.00    -0.229 NA 
HETATM   13  H   UNL     1     -10.452  11.173  66.015  1.00  0.00     0.000 HD 
BRANCH  12  14
HETATM   14  C   UNL     1     -10.457  13.103  66.578  1.00  0.00    -0.279 A  
HETATM   15  N   UNL     1      -9.667  13.872  67.391  1.00  0.00    -0.229 NA 
HETATM   16  C   UNL     1     -11.142  15.009  65.484  1.00  0.00    -0.357 A  
HETATM   17  N   UNL     1     -11.224  13.642  65.656  1.00  0.00    -0.296 NA 
HETATM   18  C   UNL     1      -9.712  15.272  67.405  1.00  0.00    -0.208 A  
HETATM   19  C   UNL     1     -10.471  15.872  66.253  1.00  0.00    -0.318 A  
HETATM   20 CL   UNL     1     -10.528  17.572  66.027  1.00  0.00    -0.335 Cl 
BRANCH  18  21
HETATM   21  N   UNL     1      -9.235  16.105  68.300  1.00  0.00    -0.194 NA 
HETATM   22  H   UNL     1      -9.871  16.689  68.844  1.00  0.00     0.000 HD 
BRANCH  21  23
HETATM   23  C   UNL     1      -7.854  16.191  68.509  1.00  0.00    -0.172 A  
HETATM   24  C   UNL     1      -7.085  15.017  68.483  1.00  0.00    -0.110 A  
HETATM   25  C   UNL     1      -5.820  14.978  69.058  1.00  0.00    -0.096 A  
HETATM   26  C   UNL     1      -5.278  16.139  69.595  1.00  0.00    -0.119 A  
HETATM   27  C   UNL     1      -5.952  17.353  69.456  1.00  0.00    -0.246 A  
HETATM   28  C   UNL     1      -7.226  17.389  68.868  1.00  0.00    -0.250 A  
BRANCH  28  29
HETATM   29  S   UNL     1      -7.771  18.979  68.222  1.00  0.00    -0.324 S  
HETATM   30  O   UNL     1      -9.193  19.069  68.514  1.00  0.00    -0.338 OA 
HETATM   31  O   UNL     1      -6.878  19.956  68.825  1.00  0.00    -0.313 OA 
BRANCH  29  32
HETATM   32  C   UNL     1      -7.612  19.080  66.446  1.00  0.00    -0.263 C  
HETATM   33  C   UNL     1      -7.130  20.455  65.972  1.00  0.00    -0.255 C  
HETATM   34  C   UNL     1      -6.621  18.006  65.967  1.00  0.00    -0.310 C  
ENDBRANCH  29  32
ENDBRANCH  28  29
ENDBRANCH  21  23
ENDBRANCH  18  21
ENDBRANCH  12  14
ENDBRANCH   6  12
BRANCH  11  35
HETATM   35  C   UNL     1     -12.083   9.297  71.888  1.00  0.00    -0.440 C  
HETATM   36  C   UNL     1     -13.531   8.771  71.947  1.00  0.00    -0.447 C  
HETATM   37  C   UNL     1     -13.644   7.359  71.395  1.00  0.00    -0.325 C  
HETATM   38  N   UNL     1     -12.847   6.450  72.206  1.00  0.00    -0.519 NA 
HETATM   39  H   UNL     1     -12.993   5.479  71.931  1.00  0.00     0.000 HD 
HETATM   40  C   UNL     1     -11.430   6.806  72.178  1.00  0.00    -0.282 C  
HETATM   41  C   UNL     1     -11.168   8.256  72.575  1.00  0.00    -0.446 C  
ENDBRANCH  11  35
ENDBRANCH   4   5
ENDBRANCH   2   4
TORSDOF 9
ENDMDL
MODEL       39
REMARK 921   NORMALIZED FREE ENERGY PREDICTED BY IDOCK:   -6.58 KCAL/MOL
REMARK 922        TOTAL FREE ENERGY PREDICTED BY IDOCK:  -12.20 KCAL/MOL
REMARK 923 INTER-LIGAND FREE ENERGY PREDICTED BY IDOCK:   -9.94 KCAL/MOL
REMARK 924 INTRA-LIGAND FREE ENERGY PREDICTED BY IDOCK:   -2.26 KCAL/MOL
REMARK 927      BINDING AFFINITY PREDICTED BY RF-SCORE:    0.00 PKD
ROOT
HETATM    1  C   UNL     1     -11.292   7.596  72.844  1.00  0.00    -0.394 C  
HETATM    2  C   UNL     1     -11.845   8.257  71.582  1.00  0.00    -0.299 C  
HETATM    3  C   UNL     1     -13.176   8.942  71.912  1.00  0.00    -0.443 C  
ENDROOT
BRANCH   2   4
HETATM    4  O   UNL     1     -10.839   9.171  71.083  1.00  0.00    -0.257 OA 
BRANCH   4   5
HETATM    5  C   UNL     1     -10.554   9.102  69.735  1.00  0.00    -0.229 A  
HETATM    6  C   UNL     1     -11.154   9.916  68.760  1.00  0.00    -0.135 A  
HETATM    7  C   UNL     1      -9.165   9.038  65.668  1.00  0.00    -0.288 C  
HETATM    8  C   UNL     1     -10.535   9.961  67.512  1.00  0.00    -0.310 A  
HETATM    9  C   UNL     1      -9.552   8.161  69.371  1.00  0.00    -0.167 A  
HETATM   10  C   UNL     1      -9.544   9.037  67.129  1.00  0.00    -0.218 A  
HETATM   11  C   UNL     1      -9.036   8.093  68.060  1.00  0.00    -0.134 A  
BRANCH   6  12
HETATM   12  N   UNL     1     -12.255  10.765  68.980  1.00  0.00    -0.761 NA 
HETATM   13  H   UNL     1     -13.153  10.353  68.722  1.00  0.00     0.000 HD 
BRANCH  12  14
HETATM   14  C   UNL     1     -12.350  12.035  69.475  1.00  0.00     0.002 A  
HETATM   15  N   UNL     1     -12.204  13.125  68.658  1.00  0.00    -0.164 NA 
HETATM   16  C   UNL     1     -12.363  13.437  71.301  1.00  0.00    -0.194 A  
HETATM   17  N   UNL     1     -12.391  12.157  70.784  1.00  0.00    -0.358 NA 
HETATM   18  C   UNL     1     -11.952  14.416  69.139  1.00  0.00    -0.322 A  
HETATM   19  C   UNL     1     -12.152  14.568  70.621  1.00  0.00    -0.322 A  
HETATM   20 CL   UNL     1     -12.016  16.104  71.374  1.00  0.00    -0.489 Cl 
BRANCH  18  21
HETATM   21  N   UNL     1     -11.521  15.470  68.485  1.00  0.00    -0.347 NA 
HETATM   22  H   UNL     1     -12.143  16.265  68.333  1.00  0.00     0.000 HD 
BRANCH  21  23
HETATM   23  C   UNL     1     -10.210  15.504  67.998  1.00  0.00    -0.229 A  
HETATM   24  C   UNL     1      -9.142  15.427  68.906  1.00  0.00    -0.218 A  
HETATM   25  C   UNL     1      -7.866  15.842  68.544  1.00  0.00    -0.142 A  
HETATM   26  C   UNL     1      -7.628  16.263  67.242  1.00  0.00    -0.203 A  
HETATM   27  C   UNL     1      -8.635  16.163  66.281  1.00  0.00    -0.373 A  
HETATM   28  C   UNL     1      -9.920  15.736  66.648  1.00  0.00    -0.257 A  
BRANCH  28  29
HETATM   29  S   UNL     1     -10.967  15.102  65.328  1.00  0.00    -0.415 S  
HETATM   30  O   UNL     1     -12.218  14.707  65.956  1.00  0.00    -0.286 OA 
HETATM   31  O   UNL     1     -10.998  16.160  64.331  1.00  0.00    -0.612 OA 
BRANCH  29  32
HETATM   32  C   UNL     1     -10.293  13.629  64.576  1.00  0.00    -0.330 C  
HETATM   33  C   UNL     1      -9.674  12.672  65.599  1.00  0.00    -0.149 C  
HETATM   34  C   UNL     1     -11.410  12.897  63.813  1.00  0.00    -0.490 C  
ENDBRANCH  29  32
ENDBRANCH  28  29
ENDBRANCH  21  23
ENDBRANCH  18  21
ENDBRANCH  12  14
ENDBRANCH   6  12
BRANCH  11  35
HETATM   35  C   UNL     1      -7.950   7.098  67.603  1.00  0.00    -0.114 C  
HETATM   36  C   UNL     1      -6.555   7.485  68.133  1.00  0.00    -0.050 C  
HETATM   37  C   UNL     1      -6.336   7.002  69.558  1.00  0.00    -0.035 C  
HETATM   38  N   UNL     1      -6.399   5.549  69.598  1.00  0.00    -0.032 NA 
HETATM   39  H   UNL     1      -6.143   5.190  70.518  1.00  0.00     0.000 HD 
HETATM   40  C   UNL     1      -7.709   5.055  69.178  1.00  0.00    -0.076 C  
HETATM   41  C   UNL     1      -8.135   5.577  67.809  1.00  0.00    -0.101 C  
ENDBRANCH  11  35
ENDBRANCH   4   5
ENDBRANCH   2   4
TORSDOF 9
ENDMDL
MODEL       40
REMARK 921   NORMALIZED FREE ENERGY PREDICTED BY IDOCK:   -6.57 KCAL/MOL
REMARK 922        TOTAL FREE ENERGY PREDICTED BY IDOCK:  -12.20 KCAL/MOL
REMARK 923 INTER-LIGAND FREE ENERGY PREDICTED BY IDOCK:  -10.59 KCAL/MOL
REMARK 924 INTRA-LIGAND FREE ENERGY PREDICTED BY IDOCK:   -1.61 KCAL/MOL
REMARK 927      BINDING AFFINITY PREDICTED BY RF-SCORE:    0.00 PKD
ROOT
HETATM    1  C   UNL     1     -13.613  15.096  71.245  1.00  0.00    -0.559 C  
HETATM    2  C   UNL     1     -12.265  15.815  71.206  1.00  0.00    -0.438 C  
HETATM    3  C   UNL     1     -11.963  16.397  72.591  1.00  0.00    -0.595 C  
ENDROOT
BRANCH   2   4
HETATM    4  O   UNL     1     -11.269  14.868  70.752  1.00  0.00    -0.250 OA 
BRANCH   4   5
HETATM    5  C   UNL     1     -10.971  14.880  69.405  1.00  0.00    -0.271 A  
HETATM    6  C   UNL     1     -11.334  13.863  68.507  1.00  0.00    -0.280 A  
HETATM    7  C   UNL     1     -10.351  15.361  65.179  1.00  0.00    -0.405 C  
HETATM    8  C   UNL     1     -11.258  14.167  67.150  1.00  0.00    -0.330 A  
HETATM    9  C   UNL     1     -10.290  16.040  68.943  1.00  0.00    -0.235 A  
HETATM   10  C   UNL     1     -10.585  15.307  66.669  1.00  0.00    -0.304 A  
HETATM   11  C   UNL     1     -10.065  16.273  67.570  1.00  0.00    -0.258 A  
BRANCH   6  12
HETATM   12  N   UNL     1     -11.868  12.613  68.874  1.00  0.00    -0.311 NA 
HETATM   13  H   UNL     1     -12.802  12.666  69.283  1.00  0.00     0.000 HD 
BRANCH  12  14
HETATM   14  C   UNL     1     -11.373  11.343  68.787  1.00  0.00    -0.271 A  
HETATM   15  N   UNL     1     -10.688  10.777  69.830  1.00  0.00    -0.225 NA 
HETATM   16  C   UNL     1     -10.807   9.540  67.471  1.00  0.00    -0.170 A  
HETATM   17  N   UNL     1     -11.413  10.774  67.602  1.00  0.00    -0.508 NA 
HETATM   18  C   UNL     1      -9.876   9.644  69.691  1.00  0.00    -0.215 A  
HETATM   19  C   UNL     1     -10.052   8.921  68.384  1.00  0.00    -0.189 A  
HETATM   20 CL   UNL     1      -9.240   7.440  68.082  1.00  0.00    -0.134 Cl 
BRANCH  18  21
HETATM   21  N   UNL     1      -8.967   9.175  70.513  1.00  0.00    -0.213 NA 
HETATM   22  H   UNL     1      -7.991   9.452  70.406  1.00  0.00     0.000 HD 
BRANCH  21  23
HETATM   23  C   UNL     1      -9.336   8.293  71.535  1.00  0.00    -0.180 A  
HETATM   24  C   UNL     1     -10.505   7.529  71.388  1.00  0.00    -0.226 A  
HETATM   25  C   UNL     1     -11.125   6.952  72.490  1.00  0.00    -0.302 A  
HETATM   26  C   UNL     1     -10.535   7.068  73.744  1.00  0.00    -0.392 A  
HETATM   27  C   UNL     1      -9.279   7.660  73.871  1.00  0.00    -0.303 A  
HETATM   28  C   UNL     1      -8.652   8.233  72.754  1.00  0.00    -0.203 A  
BRANCH  28  29
HETATM   29  S   UNL     1      -6.868   8.455  72.856  1.00  0.00    -0.037 S  
HETATM   30  O   UNL     1      -6.511   9.366  71.780  1.00  0.00    -0.277 OA 
HETATM   31  O   UNL     1      -6.618   8.872  74.226  1.00  0.00    -0.300 OA 
BRANCH  29  32
HETATM   32  C   UNL     1      -5.977   6.938  72.550  1.00  0.00    -0.042 C  
HETATM   33  C   UNL     1      -5.622   6.190  73.838  1.00  0.00    -0.049 C  
HETATM   34  C   UNL     1      -6.832   6.024  71.656  1.00  0.00    -0.068 C  
ENDBRANCH  29  32
ENDBRANCH  28  29
ENDBRANCH  21  23
ENDBRANCH  18  21
ENDBRANCH  12  14
ENDBRANCH   6  12
BRANCH  11  35
HETATM   35  C   UNL     1      -9.335  17.509  67.006  1.00  0.00    -0.262 C  
HETATM   36  C   UNL     1     -10.308  18.490  66.322  1.00  0.00    -0.459 C  
HETATM   37  C   UNL     1     -10.989  19.405  67.326  1.00  0.00    -0.342 C  
HETATM   38  N   UNL     1      -9.992  20.224  68.000  1.00  0.00    -0.371 NA 
HETATM   39  H   UNL     1     -10.427  20.927  68.596  1.00  0.00     0.000 HD 
HETATM   40  C   UNL     1      -9.040  19.404  68.748  1.00  0.00    -0.361 C  
HETATM   41  C   UNL     1      -8.371  18.331  67.893  1.00  0.00    -0.259 C  
ENDBRANCH  11  35
ENDBRANCH   4   5
ENDBRANCH   2   4
TORSDOF 9
ENDMDL
MODEL       41
REMARK 921   NORMALIZED FREE ENERGY PREDICTED BY IDOCK:   -6.56 KCAL/MOL
REMARK 922        TOTAL FREE ENERGY PREDICTED BY IDOCK:  -12.18 KCAL/MOL
REMARK 923 INTER-LIGAND FREE ENERGY PREDICTED BY IDOCK:  -10.27 KCAL/MOL
REMARK 924 INTRA-LIGAND FREE ENERGY PREDICTED BY IDOCK:   -1.91 KCAL/MOL
REMARK 927      BINDING AFFINITY PREDICTED BY RF-SCORE:    0.00 PKD
ROOT
HETATM    1  C   UNL     1     -10.966   9.065  71.849  1.00  0.00    -0.423 C  
HETATM    2  C   UNL     1     -10.018   8.993  70.652  1.00  0.00    -0.233 C  
HETATM    3  C   UNL     1      -8.699   8.348  71.091  1.00  0.00    -0.194 C  
ENDROOT
BRANCH   2   4
HETATM    4  O   UNL     1     -10.689   8.262  69.598  1.00  0.00    -0.230 OA 
BRANCH   4   5
HETATM    5  C   UNL     1     -10.503   8.721  68.311  1.00  0.00    -0.187 A  
HETATM    6  C   UNL     1     -11.074   9.900  67.803  1.00  0.00    -0.129 A  
HETATM    7  C   UNL     1      -9.400  10.197  64.427  1.00  0.00    -0.348 C  
HETATM    8  C   UNL     1     -10.537  10.398  66.618  1.00  0.00    -0.245 A  
HETATM    9  C   UNL     1      -9.635   7.935  67.504  1.00  0.00    -0.190 A  
HETATM   10  C   UNL     1      -9.679   9.636  65.800  1.00  0.00    -0.350 A  
HETATM   11  C   UNL     1      -9.218   8.363  66.226  1.00  0.00    -0.263 A  
BRANCH   6  12
HETATM   12  N   UNL     1     -12.059  10.666  68.454  1.00  0.00    -0.813 NA 
HETATM   13  H   UNL     1     -12.932  10.164  68.619  1.00  0.00     0.000 HD 
BRANCH  12  14
HETATM   14  C   UNL     1     -12.069  11.956  68.906  1.00  0.00    -0.155 A  
HETATM   15  N   UNL     1     -11.759  12.999  68.074  1.00  0.00    -0.340 NA 
HETATM   16  C   UNL     1     -12.082  13.414  70.688  1.00  0.00    -0.295 A  
HETATM   17  N   UNL     1     -12.194  12.125  70.204  1.00  0.00    -0.270 NA 
HETATM   18  C   UNL     1     -11.420  14.277  68.538  1.00  0.00    -0.298 A  
HETATM   19  C   UNL     1     -11.714  14.497  69.996  1.00  0.00    -0.301 A  
HETATM   20 CL   UNL     1     -11.488  16.037  70.717  1.00  0.00    -0.422 Cl 
BRANCH  18  21
HETATM   21  N   UNL     1     -10.844  15.264  67.892  1.00  0.00    -0.279 NA 
HETATM   22  H   UNL     1     -11.386  16.089  67.633  1.00  0.00     0.000 HD 
BRANCH  21  23
HETATM   23  C   UNL     1      -9.487  15.184  67.559  1.00  0.00    -0.206 A  
HETATM   24  C   UNL     1      -8.818  13.959  67.713  1.00  0.00    -0.189 A  
HETATM   25  C   UNL     1      -7.431  13.907  67.781  1.00  0.00    -0.174 A  
HETATM   26  C   UNL     1      -6.694  15.073  67.616  1.00  0.00    -0.201 A  
HETATM   27  C   UNL     1      -7.339  16.262  67.273  1.00  0.00    -0.216 A  
HETATM   28  C   UNL     1      -8.739  16.310  67.197  1.00  0.00    -0.191 A  
BRANCH  28  29
HETATM   29  S   UNL     1      -9.450  17.654  66.233  1.00  0.00    -0.167 S  
HETATM   30  O   UNL     1      -8.329  18.456  65.768  1.00  0.00    -0.478 OA 
HETATM   31  O   UNL     1     -10.292  17.003  65.243  1.00  0.00    -0.626 OA 
BRANCH  29  32
HETATM   32  C   UNL     1     -10.468  18.735  67.225  1.00  0.00    -0.431 C  
HETATM   33  C   UNL     1      -9.896  18.965  68.627  1.00  0.00    -0.463 C  
HETATM   34  C   UNL     1     -10.610  20.089  66.510  1.00  0.00    -0.461 C  
ENDBRANCH  29  32
ENDBRANCH  28  29
ENDBRANCH  21  23
ENDBRANCH  18  21
ENDBRANCH  12  14
ENDBRANCH   6  12
BRANCH  11  35
HETATM   35  C   UNL     1      -8.278   7.559  65.303  1.00  0.00    -0.130 C  
HETATM   36  C   UNL     1      -6.810   8.007  65.445  1.00  0.00    -0.062 C  
HETATM   37  C   UNL     1      -6.130   7.351  66.637  1.00  0.00    -0.043 C  
HETATM   38  N   UNL     1      -6.100   5.908  66.451  1.00  0.00    -0.028 NA 
HETATM   39  H   UNL     1      -5.550   5.449  67.177  1.00  0.00     0.000 HD 
HETATM   40  C   UNL     1      -7.448   5.348  66.369  1.00  0.00    -0.087 C  
HETATM   41  C   UNL     1      -8.309   6.013  65.298  1.00  0.00    -0.148 C  
ENDBRANCH  11  35
ENDBRANCH   4   5
ENDBRANCH   2   4
TORSDOF 9
ENDMDL
MODEL       42
REMARK 921   NORMALIZED FREE ENERGY PREDICTED BY IDOCK:   -6.55 KCAL/MOL
REMARK 922        TOTAL FREE ENERGY PREDICTED BY IDOCK:  -12.17 KCAL/MOL
REMARK 923 INTER-LIGAND FREE ENERGY PREDICTED BY IDOCK:  -10.61 KCAL/MOL
REMARK 924 INTRA-LIGAND FREE ENERGY PREDICTED BY IDOCK:   -1.56 KCAL/MOL
REMARK 927      BINDING AFFINITY PREDICTED BY RF-SCORE:    0.00 PKD
ROOT
HETATM    1  C   UNL     1     -13.007  11.899  71.780  1.00  0.00    -0.455 C  
HETATM    2  C   UNL     1     -12.506  10.537  71.303  1.00  0.00    -0.419 C  
HETATM    3  C   UNL     1     -13.535   9.463  71.671  1.00  0.00    -0.467 C  
ENDROOT
BRANCH   2   4
HETATM    4  O   UNL     1     -12.259  10.629  69.879  1.00  0.00    -0.307 OA 
BRANCH   4   5
HETATM    5  C   UNL     1     -10.977  10.349  69.454  1.00  0.00    -0.251 A  
HETATM    6  C   UNL     1     -10.064  11.319  69.007  1.00  0.00    -0.128 A  
HETATM    7  C   UNL     1      -6.890   9.302  68.631  1.00  0.00    -0.061 C  
HETATM    8  C   UNL     1      -8.727  10.935  68.929  1.00  0.00    -0.144 A  
HETATM    9  C   UNL     1     -10.593   8.982  69.535  1.00  0.00    -0.231 A  
HETATM   10  C   UNL     1      -8.325   9.587  69.002  1.00  0.00    -0.126 A  
HETATM   11  C   UNL     1      -9.267   8.566  69.294  1.00  0.00    -0.153 A  
BRANCH   6  12
HETATM   12  N   UNL     1     -10.381  12.665  68.742  1.00  0.00    -0.390 NA 
HETATM   13  H   UNL     1     -10.487  13.238  69.580  1.00  0.00     0.000 HD 
BRANCH  12  14
HETATM   14  C   UNL     1     -10.572  13.350  67.575  1.00  0.00    -0.250 A  
HETATM   15  N   UNL     1      -9.626  14.222  67.104  1.00  0.00    -0.238 NA 
HETATM   16  C   UNL     1     -12.013  14.064  65.928  1.00  0.00    -0.408 A  
HETATM   17  N   UNL     1     -11.770  13.281  67.039  1.00  0.00    -0.368 NA 
HETATM   18  C   UNL     1      -9.892  15.189  66.126  1.00  0.00    -0.300 A  
HETATM   19  C   UNL     1     -11.206  15.000  65.419  1.00  0.00    -0.356 A  
HETATM   20 CL   UNL     1     -11.650  16.007  64.104  1.00  0.00    -0.246 Cl 
BRANCH  18  21
HETATM   21  N   UNL     1      -9.184  16.243  65.793  1.00  0.00    -0.458 NA 
HETATM   22  H   UNL     1      -8.525  16.190  65.016  1.00  0.00     0.000 HD 
BRANCH  21  23
HETATM   23  C   UNL     1      -9.334  17.439  66.504  1.00  0.00    -0.270 A  
HETATM   24  C   UNL     1     -10.470  17.617  67.308  1.00  0.00    -0.338 A  
HETATM   25  C   UNL     1     -10.869  18.886  67.711  1.00  0.00    -0.349 A  
HETATM   26  C   UNL     1     -10.086  19.985  67.379  1.00  0.00    -0.568 A  
HETATM   27  C   UNL     1      -8.857  19.800  66.745  1.00  0.00    -0.410 A  
HETATM   28  C   UNL     1      -8.454  18.516  66.347  1.00  0.00    -0.258 A  
BRANCH  28  29
HETATM   29  S   UNL     1      -6.692  18.274  66.071  1.00  0.00    -0.288 S  
HETATM   30  O   UNL     1      -6.439  16.857  66.283  1.00  0.00    -0.211 OA 
HETATM   31  O   UNL     1      -6.437  18.831  64.752  1.00  0.00    -0.506 OA 
BRANCH  29  32
HETATM   32  C   UNL     1      -5.691  19.150  67.263  1.00  0.00    -0.174 C  
HETATM   33  C   UNL     1      -5.524  20.633  66.920  1.00  0.00    -0.213 C  
HETATM   34  C   UNL     1      -6.338  19.024  68.653  1.00  0.00    -0.266 C  
ENDBRANCH  29  32
ENDBRANCH  28  29
ENDBRANCH  21  23
ENDBRANCH  18  21
ENDBRANCH  12  14
ENDBRANCH   6  12
BRANCH  11  35
HETATM   35  C   UNL     1      -8.787   7.102  69.367  1.00  0.00    -0.136 C  
HETATM   36  C   UNL     1      -8.241   6.743  70.764  1.00  0.00    -0.123 C  
HETATM   37  C   UNL     1      -9.355   6.382  71.733  1.00  0.00    -0.150 C  
HETATM   38  N   UNL     1     -10.057   5.199  71.254  1.00  0.00    -0.202 NA 
HETATM   39  H   UNL     1     -10.734   4.865  71.938  1.00  0.00     0.000 HD 
HETATM   40  C   UNL     1     -10.683   5.436  69.954  1.00  0.00    -0.221 C  
HETATM   41  C   UNL     1      -9.703   5.947  68.901  1.00  0.00    -0.168 C  
ENDBRANCH  11  35
ENDBRANCH   4   5
ENDBRANCH   2   4
TORSDOF 9
ENDMDL
MODEL       43
REMARK 921   NORMALIZED FREE ENERGY PREDICTED BY IDOCK:   -6.52 KCAL/MOL
REMARK 922        TOTAL FREE ENERGY PREDICTED BY IDOCK:  -12.13 KCAL/MOL
REMARK 923 INTER-LIGAND FREE ENERGY PREDICTED BY IDOCK:  -10.51 KCAL/MOL
REMARK 924 INTRA-LIGAND FREE ENERGY PREDICTED BY IDOCK:   -1.61 KCAL/MOL
REMARK 927      BINDING AFFINITY PREDICTED BY RF-SCORE:    0.00 PKD
ROOT
HETATM    1  C   UNL     1     -13.324   8.800  72.131  1.00  0.00    -0.465 C  
HETATM    2  C   UNL     1     -12.140   8.389  71.256  1.00  0.00    -0.284 C  
HETATM    3  C   UNL     1     -10.850   8.479  72.078  1.00  0.00    -0.405 C  
ENDROOT
BRANCH   2   4
HETATM    4  O   UNL     1     -12.404   7.060  70.748  1.00  0.00    -0.352 OA 
BRANCH   4   5
HETATM    5  C   UNL     1     -11.310   6.318  70.353  1.00  0.00    -0.372 A  
HETATM    6  C   UNL     1     -10.654   6.475  69.121  1.00  0.00    -0.243 A  
HETATM    7  C   UNL     1      -7.640   4.233  69.541  1.00  0.00    -0.054 C  
HETATM    8  C   UNL     1      -9.390   5.901  69.005  1.00  0.00    -0.138 A  
HETATM    9  C   UNL     1     -10.831   5.382  71.311  1.00  0.00    -0.201 A  
HETATM   10  C   UNL     1      -8.897   4.968  69.939  1.00  0.00    -0.130 A  
HETATM   11  C   UNL     1      -9.626   4.674  71.120  1.00  0.00    -0.238 A  
BRANCH   6  12
HETATM   12  N   UNL     1     -11.127   7.252  68.047  1.00  0.00    -0.491 NA 
HETATM   13  H   UNL     1     -11.916   6.836  67.551  1.00  0.00     0.000 HD 
BRANCH  12  14
HETATM   14  C   UNL     1     -10.729   8.459  67.543  1.00  0.00    -0.137 A  
HETATM   15  N   UNL     1     -11.257   9.631  68.016  1.00  0.00    -0.044 NA 
HETATM   16  C   UNL     1      -9.668   9.639  65.875  1.00  0.00    -0.275 A  
HETATM   17  N   UNL     1      -9.975   8.429  66.466  1.00  0.00    -0.273 NA 
HETATM   18  C   UNL     1     -11.157  10.849  67.332  1.00  0.00    -0.307 A  
HETATM   19  C   UNL     1     -10.173  10.834  66.195  1.00  0.00    -0.250 A  
HETATM   20 CL   UNL     1      -9.818  12.267  65.320  1.00  0.00    -0.237 Cl 
BRANCH  18  21
HETATM   21  N   UNL     1     -11.834  11.958  67.518  1.00  0.00    -0.597 NA 
HETATM   22  H   UNL     1     -12.323  12.394  66.737  1.00  0.00     0.000 HD 
BRANCH  21  23
HETATM   23  C   UNL     1     -11.883  12.542  68.789  1.00  0.00    -0.303 A  
HETATM   24  C   UNL     1     -11.978  11.714  69.918  1.00  0.00    -0.414 A  
HETATM   25  C   UNL     1     -12.418  12.215  71.137  1.00  0.00    -0.337 A  
HETATM   26  C   UNL     1     -12.692  13.572  71.259  1.00  0.00    -0.432 A  
HETATM   27  C   UNL     1     -12.419  14.436  70.199  1.00  0.00    -0.395 A  
HETATM   28  C   UNL     1     -11.967  13.928  68.972  1.00  0.00    -0.364 A  
BRANCH  28  29
HETATM   29  S   UNL     1     -11.120  15.084  67.882  1.00  0.00    -0.318 S  
HETATM   30  O   UNL     1     -11.596  14.797  66.538  1.00  0.00    -0.355 OA 
HETATM   31  O   UNL     1     -11.389  16.397  68.445  1.00  0.00    -0.366 OA 
BRANCH  29  32
HETATM   32  C   UNL     1      -9.353  14.824  67.859  1.00  0.00    -0.193 C  
HETATM   33  C   UNL     1      -8.679  15.447  66.633  1.00  0.00    -0.332 C  
HETATM   34  C   UNL     1      -8.738  15.427  69.133  1.00  0.00    -0.242 C  
ENDBRANCH  29  32
ENDBRANCH  28  29
ENDBRANCH  21  23
ENDBRANCH  18  21
ENDBRANCH  12  14
ENDBRANCH   6  12
BRANCH  11  35
HETATM   35  C   UNL     1      -9.053   3.648  72.119  1.00  0.00    -0.151 C  
HETATM   36  C   UNL     1      -9.161   4.140  73.576  1.00  0.00    -0.107 C  
HETATM   37  C   UNL     1     -10.539   3.876  74.163  1.00  0.00    -0.215 C  
HETATM   38  N   UNL     1     -10.791   2.443  74.197  1.00  0.00    -0.168 NA 
HETATM   39  H   UNL     1     -11.658   2.228  74.689  1.00  0.00     0.000 HD 
HETATM   40  C   UNL     1     -10.782   1.863  72.855  1.00  0.00    -0.150 C  
HETATM   41  C   UNL     1      -9.503   2.169  72.079  1.00  0.00    -0.177 C  
ENDBRANCH  11  35
ENDBRANCH   4   5
ENDBRANCH   2   4
TORSDOF 9
ENDMDL
MODEL       44
REMARK 921   NORMALIZED FREE ENERGY PREDICTED BY IDOCK:   -6.47 KCAL/MOL
REMARK 922        TOTAL FREE ENERGY PREDICTED BY IDOCK:  -12.04 KCAL/MOL
REMARK 923 INTER-LIGAND FREE ENERGY PREDICTED BY IDOCK:   -9.95 KCAL/MOL
REMARK 924 INTRA-LIGAND FREE ENERGY PREDICTED BY IDOCK:   -2.09 KCAL/MOL
REMARK 927      BINDING AFFINITY PREDICTED BY RF-SCORE:    0.00 PKD
ROOT
HETATM    1  C   UNL     1     -10.454  15.373  66.271  1.00  0.00    -0.310 C  
HETATM    2  C   UNL     1     -11.456  14.553  67.083  1.00  0.00    -0.368 C  
HETATM    3  C   UNL     1     -12.506  13.959  66.138  1.00  0.00    -0.478 C  
ENDROOT
BRANCH   2   4
HETATM    4  O   UNL     1     -10.715  13.551  67.820  1.00  0.00    -0.246 OA 
BRANCH   4   5
HETATM    5  C   UNL     1     -11.439  12.759  68.687  1.00  0.00    -0.303 A  
HETATM    6  C   UNL     1     -11.650  11.382  68.508  1.00  0.00    -0.318 A  
HETATM    7  C   UNL     1     -13.316  10.411  71.759  1.00  0.00    -0.456 C  
HETATM    8  C   UNL     1     -12.106  10.668  69.615  1.00  0.00    -0.312 A  
HETATM    9  C   UNL     1     -11.942  13.422  69.841  1.00  0.00    -0.408 A  
HETATM   10  C   UNL     1     -12.613  11.303  70.765  1.00  0.00    -0.425 A  
HETATM   11  C   UNL     1     -12.555  12.715  70.896  1.00  0.00    -0.338 A  
BRANCH   6  12
HETATM   12  N   UNL     1     -11.335  10.660  67.342  1.00  0.00    -0.416 NA 
HETATM   13  H   UNL     1     -11.619  11.124  66.478  1.00  0.00     0.000 HD 
BRANCH  12  14
HETATM   14  C   UNL     1     -10.719   9.456  67.146  1.00  0.00    -0.163 A  
HETATM   15  N   UNL     1     -10.674   8.515  68.141  1.00  0.00    -0.107 NA 
HETATM   16  C   UNL     1      -9.286   8.162  65.892  1.00  0.00    -0.056 A  
HETATM   17  N   UNL     1     -10.012   9.326  66.045  1.00  0.00    -0.292 NA 
HETATM   18  C   UNL     1      -9.789   7.429  68.132  1.00  0.00    -0.156 A  
HETATM   19  C   UNL     1      -9.105   7.208  66.812  1.00  0.00    -0.147 A  
HETATM   20 CL   UNL     1      -8.083   5.852  66.567  1.00  0.00    -0.102 Cl 
BRANCH  18  21
HETATM   21  N   UNL     1      -9.449   6.634  69.119  1.00  0.00    -0.137 NA 
HETATM   22  H   UNL     1      -8.824   5.846  68.947  1.00  0.00     0.000 HD 
BRANCH  21  23
HETATM   23  C   UNL     1      -9.945   6.866  70.407  1.00  0.00    -0.179 A  
HETATM   24  C   UNL     1     -11.125   6.222  70.810  1.00  0.00    -0.377 A  
HETATM   25  C   UNL     1     -11.865   6.696  71.887  1.00  0.00    -0.375 A  
HETATM   26  C   UNL     1     -11.388   7.774  72.623  1.00  0.00    -0.449 A  
HETATM   27  C   UNL     1     -10.125   8.300  72.349  1.00  0.00    -0.383 A  
HETATM   28  C   UNL     1      -9.377   7.814  71.266  1.00  0.00    -0.152 A  
BRANCH  28  29
HETATM   29  S   UNL     1      -7.603   8.114  71.312  1.00  0.00    -0.091 S  
HETATM   30  O   UNL     1      -7.218   8.483  69.959  1.00  0.00    -0.049 OA 
HETATM   31  O   UNL     1      -7.412   9.087  72.375  1.00  0.00    -0.340 OA 
BRANCH  29  32
HETATM   32  C   UNL     1      -6.676   6.641  71.716  1.00  0.00    -0.062 C  
HETATM   33  C   UNL     1      -5.165   6.886  71.765  1.00  0.00    -0.028 C  
HETATM   34  C   UNL     1      -7.144   6.109  73.081  1.00  0.00    -0.084 C  
ENDBRANCH  29  32
ENDBRANCH  28  29
ENDBRANCH  21  23
ENDBRANCH  18  21
ENDBRANCH  12  14
ENDBRANCH   6  12
BRANCH  11  35
HETATM   35  C   UNL     1     -13.119  13.373  72.172  1.00  0.00    -0.487 C  
HETATM   36  C   UNL     1     -12.037  14.153  72.945  1.00  0.00     0.284 C  
HETATM   37  C   UNL     1     -11.823  15.545  72.373  1.00  0.00    -0.471 C  
HETATM   38  N   UNL     1     -13.050  16.319  72.497  1.00  0.00    -0.230 NA 
HETATM   39  H   UNL     1     -12.906  17.292  72.227  1.00  0.00     0.000 HD 
HETATM   40  C   UNL     1     -14.147  15.713  71.744  1.00  0.00    -0.327 C  
HETATM   41  C   UNL     1     -14.390  14.252  72.112  1.00  0.00    -0.608 C  
ENDBRANCH  11  35
ENDBRANCH   4   5
ENDBRANCH   2   4
TORSDOF 9
ENDMDL
MODEL       45
REMARK 921   NORMALIZED FREE ENERGY PREDICTED BY IDOCK:   -6.45 KCAL/MOL
REMARK 922        TOTAL FREE ENERGY PREDICTED BY IDOCK:  -12.02 KCAL/MOL
REMARK 923 INTER-LIGAND FREE ENERGY PREDICTED BY IDOCK:  -10.23 KCAL/MOL
REMARK 924 INTRA-LIGAND FREE ENERGY PREDICTED BY IDOCK:   -1.79 KCAL/MOL
REMARK 927      BINDING AFFINITY PREDICTED BY RF-SCORE:    0.00 PKD
ROOT
HETATM    1  C   UNL     1     -13.090  10.512  71.869  1.00  0.00    -0.567 C  
HETATM    2  C   UNL     1     -12.919   9.002  72.036  1.00  0.00    -0.407 C  
HETATM    3  C   UNL     1     -14.299   8.337  72.058  1.00  0.00    -0.541 C  
ENDROOT
BRANCH   2   4
HETATM    4  O   UNL     1     -12.072   8.530  70.961  1.00  0.00    -0.282 OA 
BRANCH   4   5
HETATM    5  C   UNL     1     -10.765   8.233  71.286  1.00  0.00    -0.227 A  
HETATM    6  C   UNL     1      -9.661   9.016  70.911  1.00  0.00    -0.264 A  
HETATM    7  C   UNL     1      -6.842   7.369  72.816  1.00  0.00    -0.064 C  
HETATM    8  C   UNL     1      -8.464   8.776  71.582  1.00  0.00    -0.209 A  
HETATM    9  C   UNL     1     -10.587   7.073  72.090  1.00  0.00    -0.240 A  
HETATM   10  C   UNL     1      -8.263   7.632  72.380  1.00  0.00    -0.140 A  
HETATM   11  C   UNL     1      -9.332   6.736  72.640  1.00  0.00    -0.152 A  
BRANCH   6  12
HETATM   12  N   UNL     1      -9.702  10.086  69.998  1.00  0.00    -0.367 NA 
HETATM   13  H   UNL     1     -10.145  10.928  70.367  1.00  0.00     0.000 HD 
BRANCH  12  14
HETATM   14  C   UNL     1      -9.260  10.211  68.711  1.00  0.00    -0.164 A  
HETATM   15  N   UNL     1      -9.070  11.445  68.145  1.00  0.00    -0.167 NA 
HETATM   16  C   UNL     1      -8.890   9.240  66.656  1.00  0.00    -0.128 A  
HETATM   17  N   UNL     1      -9.217   9.111  67.992  1.00  0.00    -0.134 NA 
HETATM   18  C   UNL     1      -8.954  11.646  66.763  1.00  0.00    -0.189 A  
HETATM   19  C   UNL     1      -8.753  10.382  65.975  1.00  0.00    -0.152 A  
HETATM   20 CL   UNL     1      -8.463  10.436  64.285  1.00  0.00    -0.169 Cl 
BRANCH  18  21
HETATM   21  N   UNL     1      -9.050  12.763  66.082  1.00  0.00    -0.438 NA 
HETATM   22  H   UNL     1      -8.214  13.313  65.882  1.00  0.00     0.000 HD 
BRANCH  21  23
HETATM   23  C   UNL     1     -10.300  13.201  65.628  1.00  0.00    -0.284 A  
HETATM   24  C   UNL     1     -11.296  12.251  65.351  1.00  0.00    -0.389 A  
HETATM   25  C   UNL     1     -12.384  12.571  64.548  1.00  0.00    -0.545 A  
HETATM   26  C   UNL     1     -12.528  13.871  64.078  1.00  0.00    -0.263 A  
HETATM   27  C   UNL     1     -11.649  14.867  64.504  1.00  0.00    -0.356 A  
HETATM   28  C   UNL     1     -10.556  14.542  65.321  1.00  0.00    -0.383 A  
BRANCH  28  29
HETATM   29  S   UNL     1      -9.826  15.890  66.266  1.00  0.00    -0.328 S  
HETATM   30  O   UNL     1      -8.391  15.654  66.267  1.00  0.00    -0.254 OA 
HETATM   31  O   UNL     1     -10.327  17.103  65.640  1.00  0.00    -0.557 OA 
BRANCH  29  32
HETATM   32  C   UNL     1     -10.342  15.877  67.976  1.00  0.00    -0.262 C  
HETATM   33  C   UNL     1     -11.602  15.037  68.208  1.00  0.00    -0.355 C  
HETATM   34  C   UNL     1      -9.199  15.320  68.842  1.00  0.00    -0.211 C  
ENDBRANCH  29  32
ENDBRANCH  28  29
ENDBRANCH  21  23
ENDBRANCH  18  21
ENDBRANCH  12  14
ENDBRANCH   6  12
BRANCH  11  35
HETATM   35  C   UNL     1      -9.074   5.495  73.520  1.00  0.00    -0.128 C  
HETATM   36  C   UNL     1     -10.293   5.145  74.395  1.00  0.00    -0.313 C  
HETATM   37  C   UNL     1     -11.326   4.333  73.630  1.00  0.00    -0.191 C  
HETATM   38  N   UNL     1     -10.744   3.065  73.215  1.00  0.00    -0.174 NA 
HETATM   39  H   UNL     1     -11.444   2.451  72.800  1.00  0.00     0.000 HD 
HETATM   40  C   UNL     1      -9.607   3.263  72.318  1.00  0.00    -0.136 C  
HETATM   41  C   UNL     1      -8.538   4.184  72.899  1.00  0.00    -0.100 C  
ENDBRANCH  11  35
ENDBRANCH   4   5
ENDBRANCH   2   4
TORSDOF 9
ENDMDL
MODEL       46
REMARK 921   NORMALIZED FREE ENERGY PREDICTED BY IDOCK:   -6.45 KCAL/MOL
REMARK 922        TOTAL FREE ENERGY PREDICTED BY IDOCK:  -12.01 KCAL/MOL
REMARK 923 INTER-LIGAND FREE ENERGY PREDICTED BY IDOCK:   -9.06 KCAL/MOL
REMARK 924 INTRA-LIGAND FREE ENERGY PREDICTED BY IDOCK:   -2.95 KCAL/MOL
REMARK 927      BINDING AFFINITY PREDICTED BY RF-SCORE:    0.00 PKD
ROOT
HETATM    1  C   UNL     1      -9.497  10.525  65.814  1.00  0.00    -0.249 C  
HETATM    2  C   UNL     1     -10.446  10.438  67.008  1.00  0.00    -0.251 C  
HETATM    3  C   UNL     1     -10.648   8.967  67.386  1.00  0.00    -0.309 C  
ENDROOT
BRANCH   2   4
HETATM    4  O   UNL     1      -9.885  11.233  68.080  1.00  0.00    -0.168 OA 
BRANCH   4   5
HETATM    5  C   UNL     1     -10.684  12.235  68.591  1.00  0.00    -0.233 A  
HETATM    6  C   UNL     1     -11.681  12.032  69.559  1.00  0.00    -0.342 A  
HETATM    7  C   UNL     1     -12.717  15.574  70.380  1.00  0.00    -0.382 C  
HETATM    8  C   UNL     1     -12.166  13.166  70.208  1.00  0.00    -0.376 A  
HETATM    9  C   UNL     1     -10.407  13.543  68.105  1.00  0.00    -0.247 A  
HETATM   10  C   UNL     1     -11.909  14.470  69.742  1.00  0.00    -0.367 A  
HETATM   11  C   UNL     1     -11.024  14.686  68.654  1.00  0.00    -0.266 A  
BRANCH   6  12
HETATM   12  N   UNL     1     -12.142  10.775  69.994  1.00  0.00    -0.325 NA 
HETATM   13  H   UNL     1     -12.969  10.443  69.498  1.00  0.00     0.000 HD 
BRANCH  12  14
HETATM   14  C   UNL     1     -11.689   9.915  70.955  1.00  0.00    -0.382 A  
HETATM   15  N   UNL     1     -10.362   9.584  71.039  1.00  0.00    -0.302 NA 
HETATM   16  C   UNL     1     -12.163   8.318  72.545  1.00  0.00    -0.307 A  
HETATM   17  N   UNL     1     -12.602   9.279  71.656  1.00  0.00    -0.342 NA 
HETATM   18  C   UNL     1      -9.891   8.476  71.756  1.00  0.00    -0.269 A  
HETATM   19  C   UNL     1     -10.914   7.857  72.668  1.00  0.00    -0.378 A  
HETATM   20 CL   UNL     1     -10.489   6.571  73.722  1.00  0.00    -0.328 Cl 
BRANCH  18  21
HETATM   21  N   UNL     1      -8.718   7.892  71.695  1.00  0.00    -0.117 NA 
HETATM   22  H   UNL     1      -8.388   7.326  72.477  1.00  0.00     0.000 HD 
BRANCH  21  23
HETATM   23  C   UNL     1      -7.919   8.045  70.556  1.00  0.00    -0.096 A  
HETATM   24  C   UNL     1      -7.134   9.201  70.424  1.00  0.00    -0.079 A  
HETATM   25  C   UNL     1      -6.643   9.594  69.184  1.00  0.00    -0.049 A  
HETATM   26  C   UNL     1      -6.868   8.788  68.074  1.00  0.00    -0.070 A  
HETATM   27  C   UNL     1      -7.481   7.545  68.228  1.00  0.00    -0.109 A  
HETATM   28  C   UNL     1      -7.967   7.148  69.483  1.00  0.00    -0.128 A  
BRANCH  28  29
HETATM   29  S   UNL     1      -8.215   5.382  69.730  1.00  0.00    -0.101 S  
HETATM   30  O   UNL     1      -7.282   4.712  68.838  1.00  0.00    -0.052 OA 
HETATM   31  O   UNL     1      -8.069   5.178  71.162  1.00  0.00    -0.102 OA 
BRANCH  29  32
HETATM   32  C   UNL     1      -9.849   4.852  69.243  1.00  0.00    -0.201 C  
HETATM   33  C   UNL     1     -10.901   5.954  69.399  1.00  0.00    -0.422 C  
HETATM   34  C   UNL     1      -9.814   4.394  67.775  1.00  0.00    -0.152 C  
ENDBRANCH  29  32
ENDBRANCH  28  29
ENDBRANCH  21  23
ENDBRANCH  18  21
ENDBRANCH  12  14
ENDBRANCH   6  12
BRANCH  11  35
HETATM   35  C   UNL     1     -10.766  16.129  68.173  1.00  0.00    -0.315 C  
HETATM   36  C   UNL     1      -9.677  16.830  69.009  1.00  0.00    -0.244 C  
HETATM   37  C   UNL     1      -8.279  16.468  68.536  1.00  0.00    -0.212 C  
HETATM   38  N   UNL     1      -8.093  16.920  67.165  1.00  0.00    -0.179 NA 
HETATM   39  H   UNL     1      -7.128  16.795  66.858  1.00  0.00     0.000 HD 
HETATM   40  C   UNL     1      -9.032  16.270  66.253  1.00  0.00    -0.331 C  
HETATM   41  C   UNL     1     -10.488  16.427  66.681  1.00  0.00    -0.274 C  
ENDBRANCH  11  35
ENDBRANCH   4   5
ENDBRANCH   2   4
TORSDOF 9
ENDMDL
MODEL       47
REMARK 921   NORMALIZED FREE ENERGY PREDICTED BY IDOCK:   -6.44 KCAL/MOL
REMARK 922        TOTAL FREE ENERGY PREDICTED BY IDOCK:  -12.00 KCAL/MOL
REMARK 923 INTER-LIGAND FREE ENERGY PREDICTED BY IDOCK:   -9.58 KCAL/MOL
REMARK 924 INTRA-LIGAND FREE ENERGY PREDICTED BY IDOCK:   -2.42 KCAL/MOL
REMARK 927      BINDING AFFINITY PREDICTED BY RF-SCORE:    0.00 PKD
ROOT
HETATM    1  C   UNL     1     -10.197  11.348  65.328  1.00  0.00    -0.320 C  
HETATM    2  C   UNL     1      -9.997  12.218  66.568  1.00  0.00    -0.220 C  
HETATM    3  C   UNL     1      -8.497  12.407  66.817  1.00  0.00    -0.095 C  
ENDROOT
BRANCH   2   4
HETATM    4  O   UNL     1     -10.704  13.463  66.354  1.00  0.00    -0.283 OA 
BRANCH   4   5
HETATM    5  C   UNL     1     -10.979  14.220  67.474  1.00  0.00    -0.289 A  
HETATM    6  C   UNL     1     -11.474  13.695  68.679  1.00  0.00    -0.307 A  
HETATM    7  C   UNL     1     -11.306  16.693  70.975  1.00  0.00     0.106 C  
HETATM    8  C   UNL     1     -11.387  14.513  69.804  1.00  0.00    -0.305 A  
HETATM    9  C   UNL     1     -10.682  15.607  67.360  1.00  0.00    -0.309 A  
HETATM   10  C   UNL     1     -11.099  15.889  69.715  1.00  0.00    -0.324 A  
HETATM   11  C   UNL     1     -10.752  16.475  68.470  1.00  0.00    -0.336 A  
BRANCH   6  12
HETATM   12  N   UNL     1     -11.943  12.379  68.856  1.00  0.00    -0.285 NA 
HETATM   13  H   UNL     1     -12.589  12.070  68.128  1.00  0.00     0.000 HD 
BRANCH  12  14
HETATM   14  C   UNL     1     -11.698  11.439  69.816  1.00  0.00    -0.344 A  
HETATM   15  N   UNL     1     -10.593  10.630  69.747  1.00  0.00    -0.220 NA 
HETATM   16  C   UNL     1     -12.474  10.186  71.585  1.00  0.00    -0.409 A  
HETATM   17  N   UNL     1     -12.659  11.217  70.685  1.00  0.00    -0.309 NA 
HETATM   18  C   UNL     1     -10.461   9.447  70.485  1.00  0.00    -0.274 A  
HETATM   19  C   UNL     1     -11.484   9.288  71.576  1.00  0.00    -0.384 A  
HETATM   20 CL   UNL     1     -11.407   7.967  72.669  1.00  0.00    -0.458 Cl 
BRANCH  18  21
HETATM   21  N   UNL     1      -9.614   8.459  70.316  1.00  0.00    -0.164 NA 
HETATM   22  H   UNL     1      -9.417   7.818  71.085  1.00  0.00     0.000 HD 
BRANCH  21  23
HETATM   23  C   UNL     1      -8.981   8.285  69.080  1.00  0.00    -0.147 A  
HETATM   24  C   UNL     1      -7.767   8.946  68.836  1.00  0.00    -0.095 A  
HETATM   25  C   UNL     1      -7.304   9.132  67.539  1.00  0.00    -0.084 A  
HETATM   26  C   UNL     1      -8.013   8.588  66.475  1.00  0.00    -0.099 A  
HETATM   27  C   UNL     1      -9.116   7.769  66.718  1.00  0.00    -0.185 A  
HETATM   28  C   UNL     1      -9.576   7.576  68.029  1.00  0.00    -0.143 A  
BRANCH  28  29
HETATM   29  S   UNL     1     -10.593   6.119  68.321  1.00  0.00    -0.287 S  
HETATM   30  O   UNL     1     -11.617   6.523  69.272  1.00  0.00    -0.309 OA 
HETATM   31  O   UNL     1     -11.011   5.681  66.999  1.00  0.00    -0.237 OA 
BRANCH  29  32
HETATM   32  C   UNL     1      -9.677   4.796  69.097  1.00  0.00    -0.188 C  
HETATM   33  C   UNL     1      -8.202   4.778  68.687  1.00  0.00    -0.083 C  
HETATM   34  C   UNL     1      -9.774   4.945  70.624  1.00  0.00    -0.271 C  
ENDBRANCH  29  32
ENDBRANCH  28  29
ENDBRANCH  21  23
ENDBRANCH  18  21
ENDBRANCH  12  14
ENDBRANCH   6  12
BRANCH  11  35
HETATM   35  C   UNL     1     -10.442  17.986  68.412  1.00  0.00    -0.326 C  
HETATM   36  C   UNL     1      -8.926  18.262  68.377  1.00  0.00    -0.324 C  
HETATM   37  C   UNL     1      -8.360  18.137  66.972  1.00  0.00    -0.240 C  
HETATM   38  N   UNL     1      -8.975  19.130  66.104  1.00  0.00    -0.455 NA 
HETATM   39  H   UNL     1      -8.534  19.147  65.185  1.00  0.00     0.000 HD 
HETATM   40  C   UNL     1     -10.420  18.932  66.001  1.00  0.00    -0.446 C  
HETATM   41  C   UNL     1     -11.118  18.891  67.357  1.00  0.00    -0.131 C  
ENDBRANCH  11  35
ENDBRANCH   4   5
ENDBRANCH   2   4
TORSDOF 9
ENDMDL
MODEL       48
REMARK 921   NORMALIZED FREE ENERGY PREDICTED BY IDOCK:   -6.43 KCAL/MOL
REMARK 922        TOTAL FREE ENERGY PREDICTED BY IDOCK:  -11.99 KCAL/MOL
REMARK 923 INTER-LIGAND FREE ENERGY PREDICTED BY IDOCK:   -9.80 KCAL/MOL
REMARK 924 INTRA-LIGAND FREE ENERGY PREDICTED BY IDOCK:   -2.19 KCAL/MOL
REMARK 927      BINDING AFFINITY PREDICTED BY RF-SCORE:    0.00 PKD
ROOT
HETATM    1  C   UNL     1     -11.142  10.062  69.674  1.00  0.00    -0.300 C  
HETATM    2  C   UNL     1     -10.353   8.857  69.162  1.00  0.00    -0.220 C  
HETATM    3  C   UNL     1     -10.773   7.609  69.945  1.00  0.00    -0.253 C  
ENDROOT
BRANCH   2   4
HETATM    4  O   UNL     1     -10.588   8.746  67.738  1.00  0.00    -0.239 OA 
BRANCH   4   5
HETATM    5  C   UNL     1      -9.481   8.538  66.942  1.00  0.00    -0.183 A  
HETATM    6  C   UNL     1      -8.539   9.530  66.625  1.00  0.00    -0.134 A  
HETATM    7  C   UNL     1      -5.865   7.540  64.843  1.00  0.00    -0.038 C  
HETATM    8  C   UNL     1      -7.323   9.098  66.099  1.00  0.00    -0.095 A  
HETATM    9  C   UNL     1      -9.307   7.205  66.477  1.00  0.00    -0.208 A  
HETATM   10  C   UNL     1      -7.131   7.784  65.628  1.00  0.00    -0.060 A  
HETATM   11  C   UNL     1      -8.140   6.801  65.795  1.00  0.00    -0.123 A  
BRANCH   6  12
HETATM   12  N   UNL     1      -8.688  10.903  66.899  1.00  0.00    -0.141 NA 
HETATM   13  H   UNL     1      -8.089  11.242  67.652  1.00  0.00     0.000 HD 
BRANCH  12  14
HETATM   14  C   UNL     1      -9.483  11.868  66.346  1.00  0.00    -0.228 A  
HETATM   15  N   UNL     1     -10.121  12.792  67.130  1.00  0.00    -0.232 NA 
HETATM   16  C   UNL     1     -10.656  12.641  64.523  1.00  0.00    -0.346 A  
HETATM   17  N   UNL     1      -9.758  11.745  65.066  1.00  0.00    -0.223 NA 
HETATM   18  C   UNL     1     -11.193  13.573  66.679  1.00  0.00    -0.312 A  
HETATM   19  C   UNL     1     -11.394  13.534  65.189  1.00  0.00    -0.301 A  
HETATM   20 CL   UNL     1     -12.575  14.525  64.435  1.00  0.00    -0.318 Cl 
BRANCH  18  21
HETATM   21  N   UNL     1     -12.057  14.272  67.377  1.00  0.00    -0.567 NA 
HETATM   22  H   UNL     1     -12.937  14.565  66.954  1.00  0.00     0.000 HD 
BRANCH  21  23
HETATM   23  C   UNL     1     -11.768  14.616  68.703  1.00  0.00    -0.329 A  
HETATM   24  C   UNL     1     -12.137  13.736  69.732  1.00  0.00    -0.400 A  
HETATM   25  C   UNL     1     -12.239  14.176  71.046  1.00  0.00    -0.432 A  
HETATM   26  C   UNL     1     -11.896  15.487  71.357  1.00  0.00    -0.461 A  
HETATM   27  C   UNL     1     -11.347  16.314  70.376  1.00  0.00    -0.313 A  
HETATM   28  C   UNL     1     -11.237  15.863  69.053  1.00  0.00    -0.327 A  
BRANCH  28  29
HETATM   29  S   UNL     1     -10.049  16.718  68.005  1.00  0.00    -0.298 S  
HETATM   30  O   UNL     1      -8.845  15.902  68.008  1.00  0.00    -0.175 OA 
HETATM   31  O   UNL     1     -10.740  16.927  66.744  1.00  0.00    -0.240 OA 
BRANCH  29  32
HETATM   32  C   UNL     1      -9.581  18.309  68.669  1.00  0.00    -0.335 C  
HETATM   33  C   UNL     1      -8.080  18.586  68.541  1.00  0.00    -0.354 C  
HETATM   34  C   UNL     1     -10.361  19.411  67.934  1.00  0.00    -0.542 C  
ENDBRANCH  29  32
ENDBRANCH  28  29
ENDBRANCH  21  23
ENDBRANCH  18  21
ENDBRANCH  12  14
ENDBRANCH   6  12
BRANCH  11  35
HETATM   35  C   UNL     1      -7.891   5.373  65.267  1.00  0.00    -0.097 C  
HETATM   36  C   UNL     1      -7.623   4.374  66.411  1.00  0.00    -0.086 C  
HETATM   37  C   UNL     1      -8.913   3.871  67.038  1.00  0.00    -0.138 C  
HETATM   38  N   UNL     1      -9.694   3.151  66.043  1.00  0.00    -0.399 NA 
HETATM   39  H   UNL     1     -10.510   2.704  66.461  1.00  0.00     0.000 HD 
HETATM   40  C   UNL     1     -10.072   4.016  64.927  1.00  0.00    -0.205 C  
HETATM   41  C   UNL     1      -8.880   4.713  64.278  1.00  0.00    -0.146 C  
ENDBRANCH  11  35
ENDBRANCH   4   5
ENDBRANCH   2   4
TORSDOF 9
ENDMDL
MODEL       49
REMARK 921   NORMALIZED FREE ENERGY PREDICTED BY IDOCK:   -6.43 KCAL/MOL
REMARK 922        TOTAL FREE ENERGY PREDICTED BY IDOCK:  -11.98 KCAL/MOL
REMARK 923 INTER-LIGAND FREE ENERGY PREDICTED BY IDOCK:  -10.63 KCAL/MOL
REMARK 924 INTRA-LIGAND FREE ENERGY PREDICTED BY IDOCK:   -1.35 KCAL/MOL
REMARK 927      BINDING AFFINITY PREDICTED BY RF-SCORE:    0.00 PKD
ROOT
HETATM    1  C   UNL     1     -12.497   8.605  72.514  1.00  0.00    -0.372 C  
HETATM    2  C   UNL     1     -12.843   7.342  71.726  1.00  0.00    -0.331 C  
HETATM    3  C   UNL     1     -14.366   7.198  71.644  1.00  0.00    -0.528 C  
ENDROOT
BRANCH   2   4
HETATM    4  O   UNL     1     -12.205   7.439  70.430  1.00  0.00    -0.066 OA 
BRANCH   4   5
HETATM    5  C   UNL     1     -10.915   7.927  70.409  1.00  0.00    -0.249 A  
HETATM    6  C   UNL     1     -10.560   9.198  69.929  1.00  0.00    -0.230 A  
HETATM    7  C   UNL     1      -6.909   9.409  70.883  1.00  0.00    -0.100 C  
HETATM    8  C   UNL     1      -9.294   9.668  70.273  1.00  0.00    -0.292 A  
HETATM    9  C   UNL     1      -9.929   7.063  70.960  1.00  0.00    -0.196 A  
HETATM   10  C   UNL     1      -8.301   8.830  70.816  1.00  0.00    -0.185 A  
HETATM   11  C   UNL     1      -8.598   7.486  71.160  1.00  0.00    -0.121 A  
BRANCH   6  12
HETATM   12  N   UNL     1     -11.418  10.066  69.228  1.00  0.00    -0.445 NA 
HETATM   13  H   UNL     1     -11.702   9.717  68.312  1.00  0.00     0.000 HD 
BRANCH  12  14
HETATM   14  C   UNL     1     -11.943  11.288  69.542  1.00  0.00    -0.351 A  
HETATM   15  N   UNL     1     -11.959  12.308  68.628  1.00  0.00    -0.286 NA 
HETATM   16  C   UNL     1     -12.664  12.761  71.159  1.00  0.00    -0.263 A  
HETATM   17  N   UNL     1     -12.247  11.493  70.805  1.00  0.00    -0.381 NA 
HETATM   18  C   UNL     1     -12.159  13.650  68.977  1.00  0.00    -0.309 A  
HETATM   19  C   UNL     1     -12.653  13.849  70.383  1.00  0.00    -0.282 A  
HETATM   20 CL   UNL     1     -13.079  15.411  70.952  1.00  0.00    -0.526 Cl 
BRANCH  18  21
HETATM   21  N   UNL     1     -11.926  14.730  68.269  1.00  0.00    -0.529 NA 
HETATM   22  H   UNL     1     -11.934  15.646  68.719  1.00  0.00     0.000 HD 
BRANCH  21  23
HETATM   23  C   UNL     1     -11.665  14.626  66.898  1.00  0.00    -0.350 A  
HETATM   24  C   UNL     1     -12.558  13.908  66.087  1.00  0.00    -0.426 A  
HETATM   25  C   UNL     1     -12.170  13.441  64.837  1.00  0.00    -0.450 A  
HETATM   26  C   UNL     1     -10.906  13.757  64.352  1.00  0.00    -0.343 A  
HETATM   27  C   UNL     1     -10.083  14.628  65.066  1.00  0.00    -0.318 A  
HETATM   28  C   UNL     1     -10.482  15.104  66.324  1.00  0.00    -0.307 A  
BRANCH  28  29
HETATM   29  S   UNL     1      -9.680  16.606  66.909  1.00  0.00    -0.265 S  
HETATM   30  O   UNL     1      -9.142  17.265  65.729  1.00  0.00    -0.523 OA 
HETATM   31  O   UNL     1     -10.697  17.298  67.684  1.00  0.00    -0.359 OA 
BRANCH  29  32
HETATM   32  C   UNL     1      -8.288  16.261  67.973  1.00  0.00    -0.165 C  
HETATM   33  C   UNL     1      -7.179  15.480  67.263  1.00  0.00    -0.242 C  
HETATM   34  C   UNL     1      -7.713  17.587  68.498  1.00  0.00    -0.272 C  
ENDBRANCH  29  32
ENDBRANCH  28  29
ENDBRANCH  21  23
ENDBRANCH  18  21
ENDBRANCH  12  14
ENDBRANCH   6  12
BRANCH  11  35
HETATM   35  C   UNL     1      -7.484   6.600  71.754  1.00  0.00    -0.091 C  
HETATM   36  C   UNL     1      -7.363   6.771  73.281  1.00  0.00    -0.079 C  
HETATM   37  C   UNL     1      -8.377   5.921  74.029  1.00  0.00    -0.113 C  
HETATM   38  N   UNL     1      -8.132   4.512  73.756  1.00  0.00    -0.100 NA 
HETATM   39  H   UNL     1      -8.723   3.912  74.332  1.00  0.00     0.000 HD 
HETATM   40  C   UNL     1      -8.285   4.205  72.334  1.00  0.00    -0.099 C  
HETATM   41  C   UNL     1      -7.423   5.087  71.436  1.00  0.00    -0.086 C  
ENDBRANCH  11  35
ENDBRANCH   4   5
ENDBRANCH   2   4
TORSDOF 9
ENDMDL
MODEL       50
REMARK 921   NORMALIZED FREE ENERGY PREDICTED BY IDOCK:   -6.41 KCAL/MOL
REMARK 922        TOTAL FREE ENERGY PREDICTED BY IDOCK:  -11.95 KCAL/MOL
REMARK 923 INTER-LIGAND FREE ENERGY PREDICTED BY IDOCK:  -10.48 KCAL/MOL
REMARK 924 INTRA-LIGAND FREE ENERGY PREDICTED BY IDOCK:   -1.47 KCAL/MOL
REMARK 927      BINDING AFFINITY PREDICTED BY RF-SCORE:    0.00 PKD
ROOT
HETATM    1  C   UNL     1     -12.571  13.443  71.174  1.00  0.00    -0.430 C  
HETATM    2  C   UNL     1     -12.180  14.760  70.505  1.00  0.00    -0.322 C  
HETATM    3  C   UNL     1     -12.105  15.863  71.566  1.00  0.00    -0.533 C  
ENDROOT
BRANCH   2   4
HETATM    4  O   UNL     1     -10.930  14.549  69.807  1.00  0.00    -0.230 OA 
BRANCH   4   5
HETATM    5  C   UNL     1     -10.898  14.896  68.472  1.00  0.00    -0.247 A  
HETATM    6  C   UNL     1     -11.481  14.136  67.445  1.00  0.00    -0.345 A  
HETATM    7  C   UNL     1     -11.089  16.414  64.455  1.00  0.00    -0.107 C  
HETATM    8  C   UNL     1     -11.655  14.768  66.216  1.00  0.00    -0.298 A  
HETATM    9  C   UNL     1     -10.261  16.134  68.180  1.00  0.00    -0.247 A  
HETATM   10  C   UNL     1     -11.031  15.991  65.903  1.00  0.00    -0.115 A  
HETATM   11  C   UNL     1     -10.296  16.701  66.888  1.00  0.00    -0.299 A  
BRANCH   6  12
HETATM   12  N   UNL     1     -11.997  12.834  67.596  1.00  0.00    -0.349 NA 
HETATM   13  H   UNL     1     -12.935  12.805  67.997  1.00  0.00     0.000 HD 
BRANCH  12  14
HETATM   14  C   UNL     1     -11.480  11.603  67.307  1.00  0.00    -0.277 A  
HETATM   15  N   UNL     1     -11.605  10.559  68.185  1.00  0.00    -0.409 NA 
HETATM   16  C   UNL     1     -10.072  10.317  66.018  1.00  0.00    -0.244 A  
HETATM   17  N   UNL     1     -10.698  11.524  66.252  1.00  0.00    -0.264 NA 
HETATM   18  C   UNL     1     -10.825   9.398  68.114  1.00  0.00    -0.119 A  
HETATM   19  C   UNL     1     -10.055   9.255  66.830  1.00  0.00    -0.256 A  
HETATM   20 CL   UNL     1      -9.145   7.838  66.503  1.00  0.00    -0.193 Cl 
BRANCH  18  21
HETATM   21  N   UNL     1     -10.643   8.469  69.023  1.00  0.00    -0.337 NA 
HETATM   22  H   UNL     1     -11.166   7.594  68.971  1.00  0.00     0.000 HD 
BRANCH  21  23
HETATM   23  C   UNL     1      -9.732   8.679  70.064  1.00  0.00    -0.171 A  
HETATM   24  C   UNL     1      -8.781   9.705  69.943  1.00  0.00    -0.236 A  
HETATM   25  C   UNL     1      -7.634   9.712  70.728  1.00  0.00    -0.031 A  
HETATM   26  C   UNL     1      -7.465   8.734  71.700  1.00  0.00    -0.099 A  
HETATM   27  C   UNL     1      -8.490   7.824  71.959  1.00  0.00    -0.146 A  
HETATM   28  C   UNL     1      -9.651   7.825  71.170  1.00  0.00    -0.158 A  
BRANCH  28  29
HETATM   29  S   UNL     1     -11.111   7.051  71.883  1.00  0.00    -0.250 S  
HETATM   30  O   UNL     1     -11.155   5.698  71.350  1.00  0.00    -0.239 OA 
HETATM   31  O   UNL     1     -10.966   7.223  73.319  1.00  0.00    -0.352 OA 
BRANCH  29  32
HETATM   32  C   UNL     1     -12.623   7.848  71.363  1.00  0.00    -0.300 C  
HETATM   33  C   UNL     1     -13.854   6.952  71.534  1.00  0.00    -0.275 C  
HETATM   34  C   UNL     1     -12.821   9.135  72.180  1.00  0.00    -0.486 C  
ENDBRANCH  29  32
ENDBRANCH  28  29
ENDBRANCH  21  23
ENDBRANCH  18  21
ENDBRANCH  12  14
ENDBRANCH   6  12
BRANCH  11  35
HETATM   35  C   UNL     1      -9.628  18.038  66.508  1.00  0.00    -0.318 C  
HETATM   36  C   UNL     1     -10.258  19.231  67.254  1.00  0.00    -0.512 C  
HETATM   37  C   UNL     1      -9.683  19.392  68.652  1.00  0.00    -0.433 C  
HETATM   38  N   UNL     1      -8.257  19.671  68.567  1.00  0.00    -0.326 NA 
HETATM   39  H   UNL     1      -7.866  19.897  69.482  1.00  0.00     0.000 HD 
HETATM   40  C   UNL     1      -7.531  18.573  67.932  1.00  0.00    -0.238 C  
HETATM   41  C   UNL     1      -8.090  18.197  66.563  1.00  0.00    -0.295 C  
ENDBRANCH  11  35
ENDBRANCH   4   5
ENDBRANCH   2   4
TORSDOF 9
ENDMDL
MODEL       51
REMARK 921   NORMALIZED FREE ENERGY PREDICTED BY IDOCK:   -6.41 KCAL/MOL
REMARK 922        TOTAL FREE ENERGY PREDICTED BY IDOCK:  -11.95 KCAL/MOL
REMARK 923 INTER-LIGAND FREE ENERGY PREDICTED BY IDOCK:   -9.67 KCAL/MOL
REMARK 924 INTRA-LIGAND FREE ENERGY PREDICTED BY IDOCK:   -2.28 KCAL/MOL
REMARK 927      BINDING AFFINITY PREDICTED BY RF-SCORE:    0.00 PKD
ROOT
HETATM    1  C   UNL     1     -12.479  14.312  64.697  1.00  0.00    -0.371 C  
HETATM    2  C   UNL     1     -12.080  12.842  64.811  1.00  0.00    -0.432 C  
HETATM    3  C   UNL     1     -12.280  12.157  63.454  1.00  0.00    -0.635 C  
ENDROOT
BRANCH   2   4
HETATM    4  O   UNL     1     -10.713  12.788  65.283  1.00  0.00    -0.282 OA 
BRANCH   4   5
HETATM    5  C   UNL     1     -10.360  11.686  66.033  1.00  0.00    -0.243 A  
HETATM    6  C   UNL     1     -11.038  11.268  67.190  1.00  0.00    -0.301 A  
HETATM    7  C   UNL     1      -9.371   7.957  67.930  1.00  0.00    -0.150 C  
HETATM    8  C   UNL     1     -10.776   9.975  67.639  1.00  0.00    -0.340 A  
HETATM    9  C   UNL     1      -9.258  10.937  65.533  1.00  0.00    -0.232 A  
HETATM   10  C   UNL     1      -9.689   9.217  67.162  1.00  0.00    -0.225 A  
HETATM   11  C   UNL     1      -8.886   9.697  66.095  1.00  0.00    -0.173 A  
BRANCH   6  12
HETATM   12  N   UNL     1     -12.033  12.008  67.856  1.00  0.00    -0.547 NA 
HETATM   13  H   UNL     1     -12.984  11.702  67.649  1.00  0.00     0.000 HD 
BRANCH  12  14
HETATM   14  C   UNL     1     -11.966  13.060  68.726  1.00  0.00    -0.266 A  
HETATM   15  N   UNL     1     -11.070  14.079  68.536  1.00  0.00    -0.246 NA 
HETATM   16  C   UNL     1     -12.498  13.945  70.784  1.00  0.00    -0.375 A  
HETATM   17  N   UNL     1     -12.653  12.947  69.842  1.00  0.00     0.074 NA 
HETATM   18  C   UNL     1     -10.716  14.987  69.542  1.00  0.00    -0.256 A  
HETATM   19  C   UNL     1     -11.611  14.944  70.749  1.00  0.00    -0.296 A  
HETATM   20 CL   UNL     1     -11.415  16.069  72.030  1.00  0.00    -0.444 Cl 
BRANCH  18  21
HETATM   21  N   UNL     1      -9.696  15.812  69.587  1.00  0.00    -0.274 NA 
HETATM   22  H   UNL     1      -9.019  15.746  70.347  1.00  0.00     0.000 HD 
BRANCH  21  23
HETATM   23  C   UNL     1      -9.537  16.783  68.591  1.00  0.00    -0.255 A  
HETATM   24  C   UNL     1     -10.542  17.745  68.410  1.00  0.00    -0.297 A  
HETATM   25  C   UNL     1     -10.637  18.465  67.225  1.00  0.00    -0.435 A  
HETATM   26  C   UNL     1      -9.675  18.286  66.238  1.00  0.00    -0.293 A  
HETATM   27  C   UNL     1      -8.567  17.475  66.484  1.00  0.00    -0.293 A  
HETATM   28  C   UNL     1      -8.471  16.756  67.684  1.00  0.00    -0.190 A  
BRANCH  28  29
HETATM   29  S   UNL     1      -6.825  16.209  68.168  1.00  0.00    -0.131 S  
HETATM   30  O   UNL     1      -7.020  15.142  69.137  1.00  0.00    -0.123 OA 
HETATM   31  O   UNL     1      -6.151  15.893  66.919  1.00  0.00    -0.297 OA 
BRANCH  29  32
HETATM   32  C   UNL     1      -5.903  17.489  69.005  1.00  0.00    -0.194 C  
HETATM   33  C   UNL     1      -6.679  18.806  69.109  1.00  0.00    -0.306 C  
HETATM   34  C   UNL     1      -5.540  17.006  70.419  1.00  0.00    -0.180 C  
ENDBRANCH  29  32
ENDBRANCH  28  29
ENDBRANCH  21  23
ENDBRANCH  18  21
ENDBRANCH  12  14
ENDBRANCH   6  12
BRANCH  11  35
HETATM   35  C   UNL     1      -7.705   8.837  65.599  1.00  0.00    -0.091 C  
HETATM   36  C   UNL     1      -8.119   7.900  64.447  1.00  0.00    -0.103 C  
HETATM   37  C   UNL     1      -8.107   8.613  63.104  1.00  0.00    -0.170 C  
HETATM   38  N   UNL     1      -6.756   9.063  62.799  1.00  0.00    -0.094 NA 
HETATM   39  H   UNL     1      -6.694   9.443  61.855  1.00  0.00     0.000 HD 
HETATM   40  C   UNL     1      -6.271  10.018  63.793  1.00  0.00    -0.132 C  
HETATM   41  C   UNL     1      -6.355   9.491  65.223  1.00  0.00    -0.073 C  
ENDBRANCH  11  35
ENDBRANCH   4   5
ENDBRANCH   2   4
TORSDOF 9
ENDMDL
MODEL       52
REMARK 921   NORMALIZED FREE ENERGY PREDICTED BY IDOCK:   -6.40 KCAL/MOL
REMARK 922        TOTAL FREE ENERGY PREDICTED BY IDOCK:  -11.94 KCAL/MOL
REMARK 923 INTER-LIGAND FREE ENERGY PREDICTED BY IDOCK:   -9.52 KCAL/MOL
REMARK 924 INTRA-LIGAND FREE ENERGY PREDICTED BY IDOCK:   -2.41 KCAL/MOL
REMARK 927      BINDING AFFINITY PREDICTED BY RF-SCORE:    0.00 PKD
ROOT
HETATM    1  C   UNL     1     -10.309  14.675  66.314  1.00  0.00    -0.301 C  
HETATM    2  C   UNL     1     -11.351  13.755  66.949  1.00  0.00    -0.328 C  
HETATM    3  C   UNL     1     -12.114  13.016  65.844  1.00  0.00    -0.503 C  
ENDROOT
BRANCH   2   4
HETATM    4  O   UNL     1     -10.663  12.868  67.862  1.00  0.00    -0.212 OA 
BRANCH   4   5
HETATM    5  C   UNL     1     -11.436  12.238  68.815  1.00  0.00    -0.311 A  
HETATM    6  C   UNL     1     -11.746  10.868  68.800  1.00  0.00    -0.286 A  
HETATM    7  C   UNL     1     -13.458  10.409  72.138  1.00  0.00    -0.301 C  
HETATM    8  C   UNL     1     -12.245  10.324  69.981  1.00  0.00    -0.191 A  
HETATM    9  C   UNL     1     -11.883  13.066  69.881  1.00  0.00    -0.377 A  
HETATM   10  C   UNL     1     -12.698  11.125  71.048  1.00  0.00    -0.476 A  
HETATM   11  C   UNL     1     -12.539  12.534  71.011  1.00  0.00    -0.350 A  
BRANCH   6  12
HETATM   12  N   UNL     1     -11.490   9.993  67.727  1.00  0.00    -0.571 NA 
HETATM   13  H   UNL     1     -12.257   9.923  67.058  1.00  0.00     0.000 HD 
BRANCH  12  14
HETATM   14  C   UNL     1     -10.408   9.220  67.412  1.00  0.00    -0.263 A  
HETATM   15  N   UNL     1      -9.934   8.278  68.286  1.00  0.00    -0.184 NA 
HETATM   16  C   UNL     1      -8.572   8.862  66.070  1.00  0.00    -0.145 A  
HETATM   17  N   UNL     1      -9.736   9.557  66.333  1.00  0.00    -0.212 NA 
HETATM   18  C   UNL     1      -8.660   7.705  68.181  1.00  0.00    -0.123 A  
HETATM   19  C   UNL     1      -7.971   7.979  66.873  1.00  0.00    -0.104 A  
HETATM   20 CL   UNL     1      -6.458   7.257  66.507  1.00  0.00    -0.050 Cl 
BRANCH  18  21
HETATM   21  N   UNL     1      -7.985   7.023  69.077  1.00  0.00    -0.115 NA 
HETATM   22  H   UNL     1      -7.216   7.465  69.581  1.00  0.00     0.000 HD 
BRANCH  21  23
HETATM   23  C   UNL     1      -8.321   5.690  69.339  1.00  0.00    -0.107 A  
HETATM   24  C   UNL     1      -7.901   4.692  68.446  1.00  0.00    -0.080 A  
HETATM   25  C   UNL     1      -8.515   3.445  68.429  1.00  0.00    -0.104 A  
HETATM   26  C   UNL     1      -9.503   3.157  69.363  1.00  0.00    -0.189 A  
HETATM   27  C   UNL     1      -9.794   4.072  70.375  1.00  0.00    -0.209 A  
HETATM   28  C   UNL     1      -9.167   5.327  70.394  1.00  0.00    -0.148 A  
BRANCH  28  29
HETATM   29  S   UNL     1      -9.149   6.196  71.970  1.00  0.00    -0.142 S  
HETATM   30  O   UNL     1      -9.394   5.190  72.991  1.00  0.00    -0.132 OA 
HETATM   31  O   UNL     1      -7.883   6.911  71.992  1.00  0.00    -0.094 OA 
BRANCH  29  32
HETATM   32  C   UNL     1     -10.477   7.384  72.104  1.00  0.00    -0.209 C  
HETATM   33  C   UNL     1     -10.042   8.803  71.725  1.00  0.00    -0.403 C  
HETATM   34  C   UNL     1     -11.635   6.951  71.190  1.00  0.00    -0.363 C  
ENDBRANCH  29  32
ENDBRANCH  28  29
ENDBRANCH  21  23
ENDBRANCH  18  21
ENDBRANCH  12  14
ENDBRANCH   6  12
BRANCH  11  35
HETATM   35  C   UNL     1     -13.047  13.378  72.199  1.00  0.00    -0.487 C  
HETATM   36  C   UNL     1     -11.966  14.344  72.724  1.00  0.00     0.115 C  
HETATM   37  C   UNL     1     -11.899  15.620  71.902  1.00  0.00    -0.452 C  
HETATM   38  N   UNL     1     -13.165  16.333  72.000  1.00  0.00    -0.144 NA 
HETATM   39  H   UNL     1     -13.113  17.248  71.553  1.00  0.00     0.000 HD 
HETATM   40  C   UNL     1     -14.271  15.540  71.466  1.00  0.00    -0.366 C  
HETATM   41  C   UNL     1     -14.379  14.157  72.102  1.00  0.00    -0.606 C  
ENDBRANCH  11  35
ENDBRANCH   4   5
ENDBRANCH   2   4
TORSDOF 9
ENDMDL
MODEL       53
REMARK 921   NORMALIZED FREE ENERGY PREDICTED BY IDOCK:   -6.39 KCAL/MOL
REMARK 922        TOTAL FREE ENERGY PREDICTED BY IDOCK:  -11.92 KCAL/MOL
REMARK 923 INTER-LIGAND FREE ENERGY PREDICTED BY IDOCK:   -9.93 KCAL/MOL
REMARK 924 INTRA-LIGAND FREE ENERGY PREDICTED BY IDOCK:   -2.00 KCAL/MOL
REMARK 927      BINDING AFFINITY PREDICTED BY RF-SCORE:    0.00 PKD
ROOT
HETATM    1  C   UNL     1      -6.626  13.709  69.490  1.00  0.00    -0.069 C  
HETATM    2  C   UNL     1      -7.668  14.227  68.500  1.00  0.00    -0.137 C  
HETATM    3  C   UNL     1      -8.283  13.042  67.747  1.00  0.00    -0.168 C  
ENDROOT
BRANCH   2   4
HETATM    4  O   UNL     1      -8.640  15.000  69.243  1.00  0.00    -0.206 OA 
BRANCH   4   5
HETATM    5  C   UNL     1      -9.147  16.122  68.620  1.00  0.00    -0.218 A  
HETATM    6  C   UNL     1     -10.501  16.297  68.290  1.00  0.00    -0.284 A  
HETATM    7  C   UNL     1     -10.570  19.889  67.117  1.00  0.00    -0.527 C  
HETATM    8  C   UNL     1     -10.909  17.591  67.974  1.00  0.00    -0.260 A  
HETATM    9  C   UNL     1      -8.203  17.152  68.358  1.00  0.00    -0.253 A  
HETATM   10  C   UNL     1      -9.991  18.626  67.707  1.00  0.00    -0.381 A  
HETATM   11  C   UNL     1      -8.598  18.419  67.880  1.00  0.00    -0.285 A  
BRANCH   6  12
HETATM   12  N   UNL     1     -11.487  15.294  68.361  1.00  0.00    -0.332 NA 
HETATM   13  H   UNL     1     -12.122  15.280  67.562  1.00  0.00     0.000 HD 
BRANCH  12  14
HETATM   14  C   UNL     1     -11.754  14.335  69.297  1.00  0.00    -0.321 A  
HETATM   15  N   UNL     1     -11.432  13.022  69.076  1.00  0.00    -0.285 NA 
HETATM   16  C   UNL     1     -12.879  13.711  71.206  1.00  0.00    -0.344 A  
HETATM   17  N   UNL     1     -12.500  14.697  70.318  1.00  0.00    -0.348 NA 
HETATM   18  C   UNL     1     -11.970  11.964  69.819  1.00  0.00    -0.307 A  
HETATM   19  C   UNL     1     -12.692  12.395  71.066  1.00  0.00    -0.223 A  
HETATM   20 CL   UNL     1     -13.308  11.237  72.172  1.00  0.00    -0.458 Cl 
BRANCH  18  21
HETATM   21  N   UNL     1     -11.972  10.680  69.546  1.00  0.00    -0.463 NA 
HETATM   22  H   UNL     1     -12.811  10.240  69.166  1.00  0.00     0.000 HD 
BRANCH  21  23
HETATM   23  C   UNL     1     -10.823   9.914  69.774  1.00  0.00    -0.269 A  
HETATM   24  C   UNL     1     -10.607   9.373  71.051  1.00  0.00    -0.400 A  
HETATM   25  C   UNL     1      -9.341   8.956  71.445  1.00  0.00    -0.338 A  
HETATM   26  C   UNL     1      -8.292   9.003  70.535  1.00  0.00    -0.205 A  
HETATM   27  C   UNL     1      -8.536   9.359  69.209  1.00  0.00    -0.141 A  
HETATM   28  C   UNL     1      -9.817   9.771  68.812  1.00  0.00    -0.169 A  
BRANCH  28  29
HETATM   29  S   UNL     1     -10.189   9.667  67.054  1.00  0.00    -0.246 S  
HETATM   30  O   UNL     1     -10.830   8.377  66.851  1.00  0.00    -0.211 OA 
HETATM   31  O   UNL     1     -10.949  10.871  66.758  1.00  0.00    -0.254 OA 
BRANCH  29  32
HETATM   32  C   UNL     1      -8.714   9.662  66.047  1.00  0.00    -0.138 C  
HETATM   33  C   UNL     1      -8.259   8.248  65.670  1.00  0.00    -0.134 C  
HETATM   34  C   UNL     1      -8.977  10.465  64.763  1.00  0.00    -0.228 C  
ENDBRANCH  29  32
ENDBRANCH  28  29
ENDBRANCH  21  23
ENDBRANCH  18  21
ENDBRANCH  12  14
ENDBRANCH   6  12
BRANCH  11  35
HETATM   35  C   UNL     1      -7.624  19.577  67.578  1.00  0.00    -0.290 C  
HETATM   36  C   UNL     1      -6.191  19.263  68.049  1.00  0.00    -0.231 C  
HETATM   37  C   UNL     1      -5.433  18.419  67.037  1.00  0.00    -0.129 C  
HETATM   38  N   UNL     1      -5.299  19.155  65.788  1.00  0.00    -0.150 NA 
HETATM   39  H   UNL     1      -4.698  18.663  65.127  1.00  0.00     0.000 HD 
HETATM   40  C   UNL     1      -6.603  19.458  65.200  1.00  0.00    -0.234 C  
HETATM   41  C   UNL     1      -7.538  20.187  66.159  1.00  0.00    -0.294 C  
ENDBRANCH  11  35
ENDBRANCH   4   5
ENDBRANCH   2   4
TORSDOF 9
ENDMDL
MODEL       54
REMARK 921   NORMALIZED FREE ENERGY PREDICTED BY IDOCK:   -6.39 KCAL/MOL
REMARK 922        TOTAL FREE ENERGY PREDICTED BY IDOCK:  -11.92 KCAL/MOL
REMARK 923 INTER-LIGAND FREE ENERGY PREDICTED BY IDOCK:   -9.77 KCAL/MOL
REMARK 924 INTRA-LIGAND FREE ENERGY PREDICTED BY IDOCK:   -2.15 KCAL/MOL
REMARK 927      BINDING AFFINITY PREDICTED BY RF-SCORE:    0.00 PKD
ROOT
HETATM    1  C   UNL     1     -12.901  12.837  64.661  1.00  0.00    -0.355 C  
HETATM    2  C   UNL     1     -12.043  14.037  65.059  1.00  0.00    -0.415 C  
HETATM    3  C   UNL     1     -12.198  15.140  64.007  1.00  0.00    -0.070 C  
ENDROOT
BRANCH   2   4
HETATM    4  O   UNL     1     -12.446  14.450  66.387  1.00  0.00    -0.389 OA 
BRANCH   4   5
HETATM    5  C   UNL     1     -11.442  14.597  67.321  1.00  0.00    -0.372 A  
HETATM    6  C   UNL     1     -10.896  13.538  68.066  1.00  0.00    -0.250 A  
HETATM    7  C   UNL     1      -8.002  15.219  69.823  1.00  0.00    -0.039 C  
HETATM    8  C   UNL     1      -9.687  13.784  68.713  1.00  0.00    -0.069 A  
HETATM    9  C   UNL     1     -10.935  15.918  67.467  1.00  0.00    -0.280 A  
HETATM   10  C   UNL     1      -9.168  15.083  68.873  1.00  0.00    -0.206 A  
HETATM   11  C   UNL     1      -9.800  16.195  68.258  1.00  0.00    -0.224 A  
BRANCH   6  12
HETATM   12  N   UNL     1     -11.418  12.232  68.116  1.00  0.00    -0.293 NA 
HETATM   13  H   UNL     1     -12.290  12.154  68.640  1.00  0.00     0.000 HD 
BRANCH  12  14
HETATM   14  C   UNL     1     -10.977  11.048  67.595  1.00  0.00    -0.275 A  
HETATM   15  N   UNL     1     -10.893   9.922  68.371  1.00  0.00    -0.234 NA 
HETATM   16  C   UNL     1      -9.901   9.927  65.896  1.00  0.00    -0.274 A  
HETATM   17  N   UNL     1     -10.460  11.090  66.387  1.00  0.00    -0.254 NA 
HETATM   18  C   UNL     1     -10.147   8.793  68.008  1.00  0.00    -0.196 A  
HETATM   19  C   UNL     1      -9.694   8.793  66.574  1.00  0.00    -0.259 A  
HETATM   20 CL   UNL     1      -8.879   7.438  65.908  1.00  0.00    -0.173 Cl 
BRANCH  18  21
HETATM   21  N   UNL     1      -9.758   7.786  68.754  1.00  0.00    -0.155 NA 
HETATM   22  H   UNL     1      -9.784   6.836  68.384  1.00  0.00     0.000 HD 
BRANCH  21  23
HETATM   23  C   UNL     1      -9.306   8.017  70.058  1.00  0.00    -0.156 A  
HETATM   24  C   UNL     1      -8.283   8.955  70.271  1.00  0.00    -0.134 A  
HETATM   25  C   UNL     1      -7.537   8.945  71.443  1.00  0.00    -0.118 A  
HETATM   26  C   UNL     1      -7.859   8.044  72.451  1.00  0.00    -0.161 A  
HETATM   27  C   UNL     1      -8.991   7.238  72.329  1.00  0.00    -0.150 A  
HETATM   28  C   UNL     1      -9.748   7.257  71.148  1.00  0.00    -0.171 A  
BRANCH  28  29
HETATM   29  S   UNL     1     -11.441   6.658  71.265  1.00  0.00    -0.327 S  
HETATM   30  O   UNL     1     -11.895   6.455  69.898  1.00  0.00    -0.384 OA 
HETATM   31  O   UNL     1     -11.373   5.506  72.149  1.00  0.00    -0.232 OA 
BRANCH  29  32
HETATM   32  C   UNL     1     -12.540   7.867  71.987  1.00  0.00    -0.296 C  
HETATM   33  C   UNL     1     -12.146   9.306  71.641  1.00  0.00    -0.451 C  
HETATM   34  C   UNL     1     -13.973   7.604  71.495  1.00  0.00    -0.500 C  
ENDBRANCH  29  32
ENDBRANCH  28  29
ENDBRANCH  21  23
ENDBRANCH  18  21
ENDBRANCH  12  14
ENDBRANCH   6  12
BRANCH  11  35
HETATM   35  C   UNL     1      -9.201  17.603  68.456  1.00  0.00    -0.281 C  
HETATM   36  C   UNL     1      -8.093  17.907  67.428  1.00  0.00    -0.217 C  
HETATM   37  C   UNL     1      -8.666  18.385  66.103  1.00  0.00    -0.104 C  
HETATM   38  N   UNL     1      -9.391  19.631  66.302  1.00  0.00    -0.377 NA 
HETATM   39  H   UNL     1      -9.689  20.035  65.415  1.00  0.00     0.000 HD 
HETATM   40  C   UNL     1     -10.519  19.456  67.216  1.00  0.00    -0.467 C  
HETATM   41  C   UNL     1     -10.117  18.845  68.555  1.00  0.00    -0.460 C  
ENDBRANCH  11  35
ENDBRANCH   4   5
ENDBRANCH   2   4
TORSDOF 9
ENDMDL
MODEL       55
REMARK 921   NORMALIZED FREE ENERGY PREDICTED BY IDOCK:   -6.35 KCAL/MOL
REMARK 922        TOTAL FREE ENERGY PREDICTED BY IDOCK:  -11.87 KCAL/MOL
REMARK 923 INTER-LIGAND FREE ENERGY PREDICTED BY IDOCK:  -10.35 KCAL/MOL
REMARK 924 INTRA-LIGAND FREE ENERGY PREDICTED BY IDOCK:   -1.52 KCAL/MOL
REMARK 927      BINDING AFFINITY PREDICTED BY RF-SCORE:    0.00 PKD
ROOT
HETATM    1  C   UNL     1      -6.344  14.213  70.447  1.00  0.00    -0.103 C  
HETATM    2  C   UNL     1      -6.828  14.843  69.142  1.00  0.00    -0.132 C  
HETATM    3  C   UNL     1      -5.884  14.437  68.005  1.00  0.00    -0.149 C  
ENDROOT
BRANCH   2   4
HETATM    4  O   UNL     1      -8.196  14.423  68.927  1.00  0.00    -0.141 OA 
BRANCH   4   5
HETATM    5  C   UNL     1      -8.839  14.946  67.824  1.00  0.00    -0.173 A  
HETATM    6  C   UNL     1      -9.183  14.200  66.684  1.00  0.00    -0.252 A  
HETATM    7  C   UNL     1     -11.258  16.674  64.720  1.00  0.00    -0.072 C  
HETATM    8  C   UNL     1     -10.106  14.775  65.813  1.00  0.00    -0.364 A  
HETATM    9  C   UNL     1      -9.192  16.320  67.920  1.00  0.00    -0.201 A  
HETATM   10  C   UNL     1     -10.466  16.134  65.886  1.00  0.00    -0.366 A  
HETATM   11  C   UNL     1      -9.997  16.951  66.948  1.00  0.00    -0.279 A  
BRANCH   6  12
HETATM   12  N   UNL     1      -8.753  12.887  66.418  1.00  0.00    -0.424 NA 
HETATM   13  H   UNL     1      -7.855  12.835  65.936  1.00  0.00     0.000 HD 
BRANCH  12  14
HETATM   14  C   UNL     1      -9.310  11.667  66.683  1.00  0.00    -0.194 A  
HETATM   15  N   UNL     1      -9.669  11.316  67.958  1.00  0.00    -0.174 NA 
HETATM   16  C   UNL     1      -9.750   9.515  65.994  1.00  0.00    -0.272 A  
HETATM   17  N   UNL     1      -9.303  10.789  65.705  1.00  0.00    -0.197 NA 
HETATM   18  C   UNL     1      -9.919   9.995  68.349  1.00  0.00    -0.160 A  
HETATM   19  C   UNL     1     -10.057   9.032  67.202  1.00  0.00    -0.243 A  
HETATM   20 CL   UNL     1     -10.490   7.395  67.475  1.00  0.00    -0.314 Cl 
BRANCH  18  21
HETATM   21  N   UNL     1      -9.992   9.492  69.559  1.00  0.00    -0.182 NA 
HETATM   22  H   UNL     1      -9.192   9.000  69.957  1.00  0.00     0.000 HD 
BRANCH  21  23
HETATM   23  C   UNL     1     -11.169   9.631  70.304  1.00  0.00    -0.271 A  
HETATM   24  C   UNL     1     -12.027  10.708  70.030  1.00  0.00    -0.408 A  
HETATM   25  C   UNL     1     -12.974  11.121  70.959  1.00  0.00    -0.338 A  
HETATM   26  C   UNL     1     -13.126  10.409  72.143  1.00  0.00    -0.427 A  
HETATM   27  C   UNL     1     -12.412   9.227  72.342  1.00  0.00    -0.307 A  
HETATM   28  C   UNL     1     -11.463   8.808  71.397  1.00  0.00    -0.297 A  
BRANCH  28  29
HETATM   29  S   UNL     1     -11.015   7.065  71.423  1.00  0.00    -0.245 S  
HETATM   30  O   UNL     1     -12.009   6.378  70.614  1.00  0.00    -0.340 OA 
HETATM   31  O   UNL     1      -9.627   7.026  70.992  1.00  0.00    -0.170 OA 
BRANCH  29  32
HETATM   32  C   UNL     1     -11.123   6.361  73.061  1.00  0.00    -0.200 C  
HETATM   33  C   UNL     1     -11.085   4.830  73.051  1.00  0.00    -0.352 C  
HETATM   34  C   UNL     1      -9.957   6.888  73.914  1.00  0.00    -0.365 C  
ENDBRANCH  29  32
ENDBRANCH  28  29
ENDBRANCH  21  23
ENDBRANCH  18  21
ENDBRANCH  12  14
ENDBRANCH   6  12
BRANCH  11  35
HETATM   35  C   UNL     1     -10.415  18.435  66.994  1.00  0.00    -0.429 C  
HETATM   36  C   UNL     1     -10.030  19.100  68.330  1.00  0.00    -0.493 C  
HETATM   37  C   UNL     1      -8.579  19.554  68.340  1.00  0.00    -0.349 C  
HETATM   38  N   UNL     1      -8.372  20.560  67.310  1.00  0.00    -0.428 NA 
HETATM   39  H   UNL     1      -7.439  20.967  67.366  1.00  0.00     0.000 HD 
HETATM   40  C   UNL     1      -8.643  20.027  65.975  1.00  0.00    -0.204 C  
HETATM   41  C   UNL     1     -10.029  19.401  65.850  1.00  0.00    -0.334 C  
ENDBRANCH  11  35
ENDBRANCH   4   5
ENDBRANCH   2   4
TORSDOF 9
ENDMDL
MODEL       56
REMARK 921   NORMALIZED FREE ENERGY PREDICTED BY IDOCK:   -6.33 KCAL/MOL
REMARK 922        TOTAL FREE ENERGY PREDICTED BY IDOCK:  -11.83 KCAL/MOL
REMARK 923 INTER-LIGAND FREE ENERGY PREDICTED BY IDOCK:   -9.45 KCAL/MOL
REMARK 924 INTRA-LIGAND FREE ENERGY PREDICTED BY IDOCK:   -2.38 KCAL/MOL
REMARK 927      BINDING AFFINITY PREDICTED BY RF-SCORE:    0.00 PKD
ROOT
HETATM    1  C   UNL     1     -12.552  13.457  65.512  1.00  0.00    -0.520 C  
HETATM    2  C   UNL     1     -11.419  14.446  65.784  1.00  0.00    -0.335 C  
HETATM    3  C   UNL     1     -11.380  15.491  64.664  1.00  0.00    -0.363 C  
ENDROOT
BRANCH   2   4
HETATM    4  O   UNL     1     -11.637  15.020  67.096  1.00  0.00    -0.342 OA 
BRANCH   4   5
HETATM    5  C   UNL     1     -10.511  15.326  67.833  1.00  0.00    -0.253 A  
HETATM    6  C   UNL     1      -9.787  14.392  68.592  1.00  0.00    -0.231 A  
HETATM    7  C   UNL     1      -6.773  16.408  69.658  1.00  0.00    -0.145 C  
HETATM    8  C   UNL     1      -8.511  14.770  69.003  1.00  0.00    -0.140 A  
HETATM    9  C   UNL     1     -10.076  16.677  67.747  1.00  0.00    -0.275 A  
HETATM   10  C   UNL     1      -8.061  16.103  68.932  1.00  0.00    -0.228 A  
HETATM   11  C   UNL     1      -8.853  17.101  68.308  1.00  0.00    -0.245 A  
BRANCH   6  12
HETATM   12  N   UNL     1     -10.207  13.077  68.870  1.00  0.00    -0.435 NA 
HETATM   13  H   UNL     1     -10.604  12.958  69.803  1.00  0.00     0.000 HD 
BRANCH  12  14
HETATM   14  C   UNL     1     -10.184  11.930  68.128  1.00  0.00    -0.199 A  
HETATM   15  N   UNL     1     -10.814  10.794  68.562  1.00  0.00    -0.210 NA 
HETATM   16  C   UNL     1      -9.251  10.723  66.404  1.00  0.00    -0.170 A  
HETATM   17  N   UNL     1      -9.376  11.915  67.090  1.00  0.00    -0.177 NA 
HETATM   18  C   UNL     1     -10.550   9.522  68.038  1.00  0.00    -0.230 A  
HETATM   19  C   UNL     1      -9.750   9.537  66.765  1.00  0.00    -0.197 A  
HETATM   20 CL   UNL     1      -9.437   8.086  65.904  1.00  0.00    -0.115 Cl 
BRANCH  18  21
HETATM   21  N   UNL     1     -10.858   8.345  68.532  1.00  0.00    -0.435 NA 
HETATM   22  H   UNL     1     -11.219   7.614  67.921  1.00  0.00     0.000 HD 
BRANCH  21  23
HETATM   23  C   UNL     1     -10.691   8.096  69.899  1.00  0.00    -0.241 A  
HETATM   24  C   UNL     1     -11.794   8.227  70.757  1.00  0.00    -0.172 A  
HETATM   25  C   UNL     1     -11.619   8.381  72.128  1.00  0.00    -0.442 A  
HETATM   26  C   UNL     1     -10.338   8.324  72.663  1.00  0.00    -0.374 A  
HETATM   27  C   UNL     1      -9.254   8.004  71.846  1.00  0.00    -0.222 A  
HETATM   28  C   UNL     1      -9.435   7.841  70.464  1.00  0.00    -0.163 A  
BRANCH  28  29
HETATM   29  S   UNL     1      -8.171   6.905  69.589  1.00  0.00    -0.133 S  
HETATM   30  O   UNL     1      -7.385   6.232  70.611  1.00  0.00    -0.078 OA 
HETATM   31  O   UNL     1      -8.900   6.092  68.630  1.00  0.00    -0.110 OA 
BRANCH  29  32
HETATM   32  C   UNL     1      -7.040   7.962  68.697  1.00  0.00    -0.076 C  
HETATM   33  C   UNL     1      -7.036   9.401  69.222  1.00  0.00    -0.058 C  
HETATM   34  C   UNL     1      -5.620   7.383  68.803  1.00  0.00    -0.022 C  
ENDBRANCH  29  32
ENDBRANCH  28  29
ENDBRANCH  21  23
ENDBRANCH  18  21
ENDBRANCH  12  14
ENDBRANCH   6  12
BRANCH  11  35
HETATM   35  C   UNL     1      -8.325  18.550  68.248  1.00  0.00    -0.344 C  
HETATM   36  C   UNL     1      -7.144  18.693  67.268  1.00  0.00    -0.210 C  
HETATM   37  C   UNL     1      -7.616  18.852  65.832  1.00  0.00    -0.178 C  
HETATM   38  N   UNL     1      -8.400  20.072  65.705  1.00  0.00    -0.513 NA 
HETATM   39  H   UNL     1      -8.635  20.266  64.732  1.00  0.00     0.000 HD 
HETATM   40  C   UNL     1      -9.597  20.031  66.545  1.00  0.00    -0.420 C  
HETATM   41  C   UNL     1      -9.291  19.734  68.010  1.00  0.00    -0.444 C  
ENDBRANCH  11  35
ENDBRANCH   4   5
ENDBRANCH   2   4
TORSDOF 9
ENDMDL
MODEL       57
REMARK 921   NORMALIZED FREE ENERGY PREDICTED BY IDOCK:   -6.31 KCAL/MOL
REMARK 922        TOTAL FREE ENERGY PREDICTED BY IDOCK:  -11.81 KCAL/MOL
REMARK 923 INTER-LIGAND FREE ENERGY PREDICTED BY IDOCK:   -8.86 KCAL/MOL
REMARK 924 INTRA-LIGAND FREE ENERGY PREDICTED BY IDOCK:   -2.94 KCAL/MOL
REMARK 927      BINDING AFFINITY PREDICTED BY RF-SCORE:    0.00 PKD
ROOT
HETATM    1  C   UNL     1      -8.934   9.656  62.872  1.00  0.00    -0.260 C  
HETATM    2  C   UNL     1      -7.861   8.998  63.738  1.00  0.00    -0.137 C  
HETATM    3  C   UNL     1      -6.717   8.511  62.842  1.00  0.00    -0.090 C  
ENDROOT
BRANCH   2   4
HETATM    4  O   UNL     1      -7.440   9.963  64.731  1.00  0.00    -0.125 OA 
BRANCH   4   5
HETATM    5  C   UNL     1      -7.403   9.528  66.040  1.00  0.00    -0.097 A  
HETATM    6  C   UNL     1      -6.876  10.277  67.106  1.00  0.00    -0.082 A  
HETATM    7  C   UNL     1      -7.828   8.171  70.096  1.00  0.00    -0.098 C  
HETATM    8  C   UNL     1      -7.206   9.856  68.392  1.00  0.00    -0.073 A  
HETATM    9  C   UNL     1      -7.987   8.253  66.275  1.00  0.00    -0.100 A  
HETATM   10  C   UNL     1      -7.780   8.596  68.649  1.00  0.00    -0.099 A  
HETATM   11  C   UNL     1      -8.174   7.750  67.580  1.00  0.00    -0.124 A  
BRANCH   6  12
HETATM   12  N   UNL     1      -6.143  11.471  66.970  1.00  0.00    -0.116 NA 
HETATM   13  H   UNL     1      -5.239  11.351  66.511  1.00  0.00     0.000 HD 
BRANCH  12  14
HETATM   14  C   UNL     1      -6.412  12.760  67.335  1.00  0.00    -0.137 A  
HETATM   15  N   UNL     1      -7.686  13.260  67.275  1.00  0.00    -0.132 NA 
HETATM   16  C   UNL     1      -5.631  14.874  67.804  1.00  0.00    -0.063 A  
HETATM   17  N   UNL     1      -5.377  13.541  67.554  1.00  0.00    -0.339 NA 
HETATM   18  C   UNL     1      -7.975  14.631  67.302  1.00  0.00    -0.197 A  
HETATM   19  C   UNL     1      -6.811  15.494  67.704  1.00  0.00    -0.181 A  
HETATM   20 CL   UNL     1      -7.003  17.186  67.919  1.00  0.00    -0.166 Cl 
BRANCH  18  21
HETATM   21  N   UNL     1      -9.088  15.246  66.979  1.00  0.00    -0.212 NA 
HETATM   22  H   UNL     1      -9.096  15.915  66.209  1.00  0.00     0.000 HD 
BRANCH  21  23
HETATM   23  C   UNL     1     -10.264  14.985  67.691  1.00  0.00    -0.236 A  
HETATM   24  C   UNL     1     -10.377  15.441  69.013  1.00  0.00    -0.243 A  
HETATM   25  C   UNL     1     -11.315  14.893  69.880  1.00  0.00    -0.311 A  
HETATM   26  C   UNL     1     -12.205  13.937  69.408  1.00  0.00    -0.338 A  
HETATM   27  C   UNL     1     -12.228  13.615  68.051  1.00  0.00    -0.175 A  
HETATM   28  C   UNL     1     -11.285  14.176  67.177  1.00  0.00    -0.317 A  
BRANCH  28  29
HETATM   29  S   UNL     1     -11.705  14.174  65.426  1.00  0.00    -0.361 S  
HETATM   30  O   UNL     1     -13.142  13.963  65.355  1.00  0.00    -0.752 OA 
HETATM   31  O   UNL     1     -11.162  15.418  64.906  1.00  0.00    -0.401 OA 
BRANCH  29  32
HETATM   32  C   UNL     1     -10.951  12.812  64.549  1.00  0.00    -0.341 C  
HETATM   33  C   UNL     1     -10.440  11.714  65.488  1.00  0.00    -0.321 C  
HETATM   34  C   UNL     1     -11.978  12.207  63.578  1.00  0.00    -0.619 C  
ENDBRANCH  29  32
ENDBRANCH  28  29
ENDBRANCH  21  23
ENDBRANCH  18  21
ENDBRANCH  12  14
ENDBRANCH   6  12
BRANCH  11  35
HETATM   35  C   UNL     1      -8.801   6.378  67.901  1.00  0.00    -0.113 C  
HETATM   36  C   UNL     1     -10.309   6.490  68.201  1.00  0.00    -0.223 C  
HETATM   37  C   UNL     1     -11.139   6.523  66.927  1.00  0.00    -0.272 C  
HETATM   38  N   UNL     1     -10.961   5.278  66.193  1.00  0.00    -0.756 NA 
HETATM   39  H   UNL     1     -11.592   5.223  65.394  1.00  0.00     0.000 HD 
HETATM   40  C   UNL     1      -9.569   5.087  65.790  1.00  0.00    -0.148 C  
HETATM   41  C   UNL     1      -8.589   5.171  66.957  1.00  0.00    -0.105 C  
ENDBRANCH  11  35
ENDBRANCH   4   5
ENDBRANCH   2   4
TORSDOF 9
ENDMDL
MODEL       58
REMARK 921   NORMALIZED FREE ENERGY PREDICTED BY IDOCK:   -6.28 KCAL/MOL
REMARK 922        TOTAL FREE ENERGY PREDICTED BY IDOCK:  -11.76 KCAL/MOL
REMARK 923 INTER-LIGAND FREE ENERGY PREDICTED BY IDOCK:   -9.65 KCAL/MOL
REMARK 924 INTRA-LIGAND FREE ENERGY PREDICTED BY IDOCK:   -2.10 KCAL/MOL
REMARK 927      BINDING AFFINITY PREDICTED BY RF-SCORE:    0.00 PKD
ROOT
HETATM    1  C   UNL     1      -8.174   9.359  68.419  1.00  0.00    -0.117 C  
HETATM    2  C   UNL     1      -7.763   8.811  69.785  1.00  0.00    -0.084 C  
HETATM    3  C   UNL     1      -6.254   9.001  69.971  1.00  0.00    -0.037 C  
ENDROOT
BRANCH   2   4
HETATM    4  O   UNL     1      -8.553   9.488  70.791  1.00  0.00    -0.220 OA 
BRANCH   4   5
HETATM    5  C   UNL     1      -9.753   8.901  71.135  1.00  0.00    -0.274 A  
HETATM    6  C   UNL     1     -11.000   9.291  70.617  1.00  0.00    -0.276 A  
HETATM    7  C   UNL     1     -13.295   6.618  71.985  1.00  0.00    -0.003 C  
HETATM    8  C   UNL     1     -12.060   8.406  70.798  1.00  0.00    -0.064 A  
HETATM    9  C   UNL     1      -9.659   7.807  72.039  1.00  0.00    -0.217 A  
HETATM   10  C   UNL     1     -11.991   7.320  71.692  1.00  0.00    -0.341 A  
HETATM   11  C   UNL     1     -10.775   7.004  72.353  1.00  0.00    -0.262 A  
BRANCH   6  12
HETATM   12  N   UNL     1     -11.228  10.445  69.844  1.00  0.00    -0.285 NA 
HETATM   13  H   UNL     1     -10.796  10.416  68.920  1.00  0.00     0.000 HD 
BRANCH  12  14
HETATM   14  C   UNL     1     -11.920  11.596  70.095  1.00  0.00    -0.359 A  
HETATM   15  N   UNL     1     -11.970  12.607  69.172  1.00  0.00    -0.276 NA 
HETATM   16  C   UNL     1     -12.955  12.974  71.623  1.00  0.00    -0.321 A  
HETATM   17  N   UNL     1     -12.362  11.764  71.323  1.00  0.00    -0.225 NA 
HETATM   18  C   UNL     1     -12.359  13.916  69.487  1.00  0.00    -0.227 A  
HETATM   19  C   UNL     1     -13.001  14.056  70.840  1.00  0.00    -0.277 A  
HETATM   20 CL   UNL     1     -13.657  15.556  71.351  1.00  0.00    -0.580 Cl 
BRANCH  18  21
HETATM   21  N   UNL     1     -12.189  15.017  68.793  1.00  0.00    -0.597 NA 
HETATM   22  H   UNL     1     -12.983  15.630  68.606  1.00  0.00     0.000 HD 
BRANCH  21  23
HETATM   23  C   UNL     1     -10.919  15.349  68.307  1.00  0.00    -0.288 A  
HETATM   24  C   UNL     1      -9.919  15.727  69.216  1.00  0.00    -0.262 A  
HETATM   25  C   UNL     1      -8.796  16.429  68.792  1.00  0.00    -0.246 A  
HETATM   26  C   UNL     1      -8.625  16.690  67.438  1.00  0.00    -0.203 A  
HETATM   27  C   UNL     1      -9.515  16.154  66.507  1.00  0.00    -0.289 A  
HETATM   28  C   UNL     1     -10.642  15.439  66.938  1.00  0.00    -0.309 A  
BRANCH  28  29
HETATM   29  S   UNL     1     -11.402  14.331  65.739  1.00  0.00    -0.332 S  
HETATM   30  O   UNL     1     -12.748  14.071  66.224  1.00  0.00    -0.414 OA 
HETATM   31  O   UNL     1     -11.245  14.998  64.458  1.00  0.00    -0.343 OA 
BRANCH  29  32
HETATM   32  C   UNL     1     -10.578  12.747  65.662  1.00  0.00    -0.275 C  
HETATM   33  C   UNL     1     -10.325  12.281  64.226  1.00  0.00    -0.375 C  
HETATM   34  C   UNL     1      -9.236  12.841  66.406  1.00  0.00    -0.149 C  
ENDBRANCH  29  32
ENDBRANCH  28  29
ENDBRANCH  21  23
ENDBRANCH  18  21
ENDBRANCH  12  14
ENDBRANCH   6  12
BRANCH  11  35
HETATM   35  C   UNL     1     -10.739   5.805  73.323  1.00  0.00    -0.297 C  
HETATM   36  C   UNL     1     -10.522   4.470  72.583  1.00  0.00    -0.258 C  
HETATM   37  C   UNL     1      -9.052   4.219  72.286  1.00  0.00    -0.116 C  
HETATM   38  N   UNL     1      -8.310   4.118  73.535  1.00  0.00    -0.089 NA 
HETATM   39  H   UNL     1      -7.343   3.837  73.372  1.00  0.00     0.000 HD 
HETATM   40  C   UNL     1      -8.383   5.359  74.305  1.00  0.00    -0.107 C  
HETATM   41  C   UNL     1      -9.815   5.820  74.563  1.00  0.00    -0.256 C  
ENDBRANCH  11  35
ENDBRANCH   4   5
ENDBRANCH   2   4
TORSDOF 9
ENDMDL
MODEL       59
REMARK 921   NORMALIZED FREE ENERGY PREDICTED BY IDOCK:   -6.28 KCAL/MOL
REMARK 922        TOTAL FREE ENERGY PREDICTED BY IDOCK:  -11.75 KCAL/MOL
REMARK 923 INTER-LIGAND FREE ENERGY PREDICTED BY IDOCK:  -10.16 KCAL/MOL
REMARK 924 INTRA-LIGAND FREE ENERGY PREDICTED BY IDOCK:   -1.60 KCAL/MOL
REMARK 927      BINDING AFFINITY PREDICTED BY RF-SCORE:    0.00 PKD
ROOT
HETATM    1  C   UNL     1     -12.287  11.686  70.924  1.00  0.00    -0.436 C  
HETATM    2  C   UNL     1     -12.382  12.209  69.491  1.00  0.00     0.030 C  
HETATM    3  C   UNL     1     -11.168  13.096  69.195  1.00  0.00    -0.303 C  
ENDROOT
BRANCH   2   4
HETATM    4  O   UNL     1     -12.485  11.066  68.608  1.00  0.00    -0.462 OA 
BRANCH   4   5
HETATM    5  C   UNL     1     -11.369  10.262  68.503  1.00  0.00    -0.168 A  
HETATM    6  C   UNL     1     -10.566  10.173  67.354  1.00  0.00    -0.272 A  
HETATM    7  C   UNL     1      -7.680   8.057  68.570  1.00  0.00    -0.106 C  
HETATM    8  C   UNL     1      -9.312   9.587  67.508  1.00  0.00    -0.146 A  
HETATM    9  C   UNL     1     -11.032   9.532  69.676  1.00  0.00    -0.233 A  
HETATM   10  C   UNL     1      -8.958   8.856  68.659  1.00  0.00    -0.137 A  
HETATM   11  C   UNL     1      -9.831   8.799  69.776  1.00  0.00    -0.189 A  
BRANCH   6  12
HETATM   12  N   UNL     1     -10.887  10.725  66.099  1.00  0.00    -0.119 NA 
HETATM   13  H   UNL     1     -11.105  10.029  65.385  1.00  0.00     0.000 HD 
BRANCH  12  14
HETATM   14  C   UNL     1     -10.961  12.015  65.656  1.00  0.00    -0.297 A  
HETATM   15  N   UNL     1      -9.854  12.822  65.639  1.00  0.00    -0.222 NA 
HETATM   16  C   UNL     1     -12.263  13.834  65.109  1.00  0.00    -0.431 A  
HETATM   17  N   UNL     1     -12.165  12.497  65.438  1.00  0.00    -0.578 NA 
HETATM   18  C   UNL     1      -9.921  14.217  65.529  1.00  0.00    -0.295 A  
HETATM   19  C   UNL     1     -11.276  14.735  65.129  1.00  0.00    -0.382 A  
HETATM   20 CL   UNL     1     -11.522  16.404  64.819  1.00  0.00    -0.184 Cl 
BRANCH  18  21
HETATM   21  N   UNL     1      -8.992  15.110  65.775  1.00  0.00    -0.347 NA 
HETATM   22  H   UNL     1      -8.791  15.839  65.091  1.00  0.00     0.000 HD 
BRANCH  21  23
HETATM   23  C   UNL     1      -8.277  15.062  66.977  1.00  0.00    -0.213 A  
HETATM   24  C   UNL     1      -7.695  13.849  67.377  1.00  0.00    -0.165 A  
HETATM   25  C   UNL     1      -7.327  13.635  68.700  1.00  0.00    -0.113 A  
HETATM   26  C   UNL     1      -7.465  14.664  69.623  1.00  0.00    -0.029 A  
HETATM   27  C   UNL     1      -7.864  15.932  69.199  1.00  0.00    -0.227 A  
HETATM   28  C   UNL     1      -8.226  16.147  67.860  1.00  0.00    -0.153 A  
BRANCH  28  29
HETATM   29  S   UNL     1      -8.176  17.849  67.274  1.00  0.00    -0.220 S  
HETATM   30  O   UNL     1      -7.141  18.514  68.049  1.00  0.00    -0.227 OA 
HETATM   31  O   UNL     1      -8.004  17.746  65.835  1.00  0.00    -0.523 OA 
BRANCH  29  32
HETATM   32  C   UNL     1      -9.697  18.725  67.606  1.00  0.00    -0.310 C  
HETATM   33  C   UNL     1     -10.203  19.512  66.394  1.00  0.00    -0.576 C  
HETATM   34  C   UNL     1     -10.775  17.717  68.039  1.00  0.00    -0.317 C  
ENDBRANCH  29  32
ENDBRANCH  28  29
ENDBRANCH  21  23
ENDBRANCH  18  21
ENDBRANCH  12  14
ENDBRANCH   6  12
BRANCH  11  35
HETATM   35  C   UNL     1      -9.407   7.989  71.019  1.00  0.00    -0.170 C  
HETATM   36  C   UNL     1      -9.916   8.630  72.325  1.00  0.00    -0.361 C  
HETATM   37  C   UNL     1     -11.357   8.248  72.621  1.00  0.00    -0.350 C  
HETATM   38  N   UNL     1     -11.453   6.808  72.809  1.00  0.00    -0.460 NA 
HETATM   39  H   UNL     1     -12.385   6.534  73.121  1.00  0.00     0.000 HD 
HETATM   40  C   UNL     1     -11.058   6.080  71.604  1.00  0.00    -0.275 C  
HETATM   41  C   UNL     1      -9.672   6.468  71.098  1.00  0.00    -0.188 C  
ENDBRANCH  11  35
ENDBRANCH   4   5
ENDBRANCH   2   4
TORSDOF 9
ENDMDL
MODEL       60
REMARK 921   NORMALIZED FREE ENERGY PREDICTED BY IDOCK:   -6.26 KCAL/MOL
REMARK 922        TOTAL FREE ENERGY PREDICTED BY IDOCK:  -11.72 KCAL/MOL
REMARK 923 INTER-LIGAND FREE ENERGY PREDICTED BY IDOCK:   -9.96 KCAL/MOL
REMARK 924 INTRA-LIGAND FREE ENERGY PREDICTED BY IDOCK:   -1.76 KCAL/MOL
REMARK 927      BINDING AFFINITY PREDICTED BY RF-SCORE:    0.00 PKD
ROOT
HETATM    1  C   UNL     1     -11.400  10.182  68.399  1.00  0.00    -0.179 C  
HETATM    2  C   UNL     1     -10.684  10.627  69.673  1.00  0.00    -0.244 C  
HETATM    3  C   UNL     1     -11.249   9.851  70.868  1.00  0.00    -0.433 C  
ENDROOT
BRANCH   2   4
HETATM    4  O   UNL     1      -9.264  10.425  69.478  1.00  0.00    -0.194 OA 
BRANCH   4   5
HETATM    5  C   UNL     1      -8.893   9.356  68.690  1.00  0.00    -0.132 A  
HETATM    6  C   UNL     1      -8.326   9.477  67.411  1.00  0.00    -0.125 A  
HETATM    7  C   UNL     1      -7.380   5.904  66.624  1.00  0.00    -0.079 C  
HETATM    8  C   UNL     1      -7.708   8.344  66.887  1.00  0.00    -0.092 A  
HETATM    9  C   UNL     1      -9.078   8.073  69.278  1.00  0.00    -0.148 A  
HETATM   10  C   UNL     1      -7.881   7.064  67.449  1.00  0.00    -0.111 A  
HETATM   11  C   UNL     1      -8.593   6.898  68.665  1.00  0.00    -0.123 A  
BRANCH   6  12
HETATM   12  N   UNL     1      -8.240  10.675  66.676  1.00  0.00    -0.129 NA 
HETATM   13  H   UNL     1      -7.350  11.163  66.782  1.00  0.00     0.000 HD 
BRANCH  12  14
HETATM   14  C   UNL     1      -9.123  11.307  65.845  1.00  0.00    -0.204 A  
HETATM   15  N   UNL     1      -9.694  12.501  66.199  1.00  0.00    -0.257 NA 
HETATM   16  C   UNL     1     -10.522  11.206  64.020  1.00  0.00    -0.383 A  
HETATM   17  N   UNL     1      -9.539  10.628  64.799  1.00  0.00    -0.253 NA 
HETATM   18  C   UNL     1     -10.835  13.021  65.573  1.00  0.00    -0.278 A  
HETATM   19  C   UNL     1     -11.205  12.321  64.294  1.00  0.00    -0.350 A  
HETATM   20 CL   UNL     1     -12.495  12.895  63.319  1.00  0.00    -0.445 Cl 
BRANCH  18  21
HETATM   21  N   UNL     1     -11.633  13.981  65.978  1.00  0.00    -0.345 NA 
HETATM   22  H   UNL     1     -12.378  14.317  65.368  1.00  0.00     0.000 HD 
BRANCH  21  23
HETATM   23  C   UNL     1     -11.461  14.543  67.248  1.00  0.00    -0.365 A  
HETATM   24  C   UNL     1     -11.852  13.809  68.379  1.00  0.00    -0.411 A  
HETATM   25  C   UNL     1     -12.075  14.438  69.598  1.00  0.00    -0.381 A  
HETATM   26  C   UNL     1     -11.830  15.801  69.718  1.00  0.00    -0.352 A  
HETATM   27  C   UNL     1     -11.261  16.503  68.655  1.00  0.00    -0.297 A  
HETATM   28  C   UNL     1     -11.029  15.863  67.429  1.00  0.00    -0.257 A  
BRANCH  28  29
HETATM   29  S   UNL     1      -9.819  16.625  66.336  1.00  0.00    -0.308 S  
HETATM   30  O   UNL     1      -8.577  15.894  66.533  1.00  0.00    -0.256 OA 
HETATM   31  O   UNL     1     -10.434  16.602  65.019  1.00  0.00    -0.664 OA 
BRANCH  29  32
HETATM   32  C   UNL     1      -9.481  18.323  66.778  1.00  0.00    -0.300 C  
HETATM   33  C   UNL     1      -8.061  18.760  66.404  1.00  0.00    -0.296 C  
HETATM   34  C   UNL     1     -10.493  19.239  66.070  1.00  0.00    -0.573 C  
ENDBRANCH  29  32
ENDBRANCH  28  29
ENDBRANCH  21  23
ENDBRANCH  18  21
ENDBRANCH  12  14
ENDBRANCH   6  12
BRANCH  11  35
HETATM   35  C   UNL     1      -8.760   5.481  69.251  1.00  0.00    -0.107 C  
HETATM   36  C   UNL     1      -7.690   5.168  70.315  1.00  0.00    -0.071 C  
HETATM   37  C   UNL     1      -8.065   5.727  71.678  1.00  0.00    -0.118 C  
HETATM   38  N   UNL     1      -9.296   5.104  72.142  1.00  0.00    -0.139 NA 
HETATM   39  H   UNL     1      -9.513   5.374  73.101  1.00  0.00     0.000 HD 
HETATM   40  C   UNL     1     -10.414   5.387  71.242  1.00  0.00    -0.226 C  
HETATM   41  C   UNL     1     -10.128   5.006  69.793  1.00  0.00    -0.337 C  
ENDBRANCH  11  35
ENDBRANCH   4   5
ENDBRANCH   2   4
TORSDOF 9
ENDMDL
MODEL       61
REMARK 921   NORMALIZED FREE ENERGY PREDICTED BY IDOCK:   -6.25 KCAL/MOL
REMARK 922        TOTAL FREE ENERGY PREDICTED BY IDOCK:  -11.70 KCAL/MOL
REMARK 923 INTER-LIGAND FREE ENERGY PREDICTED BY IDOCK:   -9.45 KCAL/MOL
REMARK 924 INTRA-LIGAND FREE ENERGY PREDICTED BY IDOCK:   -2.26 KCAL/MOL
REMARK 927      BINDING AFFINITY PREDICTED BY RF-SCORE:    0.00 PKD
ROOT
HETATM    1  C   UNL     1      -7.296   9.105  67.031  1.00  0.00    -0.090 C  
HETATM    2  C   UNL     1      -8.799   8.997  66.779  1.00  0.00    -0.127 C  
HETATM    3  C   UNL     1      -9.133   7.576  66.311  1.00  0.00    -0.198 C  
ENDROOT
BRANCH   2   4
HETATM    4  O   UNL     1      -9.482   9.374  67.998  1.00  0.00    -0.133 OA 
BRANCH   4   5
HETATM    5  C   UNL     1     -10.191  10.557  67.971  1.00  0.00    -0.166 A  
HETATM    6  C   UNL     1     -10.694  11.202  69.113  1.00  0.00    -0.221 A  
HETATM    7  C   UNL     1     -11.952  14.468  67.686  1.00  0.00    -0.355 C  
HETATM    8  C   UNL     1     -11.089  12.530  68.962  1.00  0.00    -0.287 A  
HETATM    9  C   UNL     1     -10.357  11.138  66.684  1.00  0.00    -0.286 A  
HETATM   10  C   UNL     1     -11.264  13.124  67.697  1.00  0.00    -0.313 A  
HETATM   11  C   UNL     1     -10.911  12.424  66.514  1.00  0.00    -0.312 A  
BRANCH   6  12
HETATM   12  N   UNL     1     -10.723  10.648  70.407  1.00  0.00    -0.416 NA 
HETATM   13  H   UNL     1     -10.042  11.057  71.048  1.00  0.00     0.000 HD 
BRANCH  12  14
HETATM   14  C   UNL     1     -11.492   9.667  70.968  1.00  0.00    -0.371 A  
HETATM   15  N   UNL     1     -11.028   8.383  71.080  1.00  0.00    -0.239 NA 
HETATM   16  C   UNL     1     -13.567   8.951  71.661  1.00  0.00    -0.383 A  
HETATM   17  N   UNL     1     -12.749   9.968  71.209  1.00  0.00    -0.367 NA 
HETATM   18  C   UNL     1     -11.862   7.284  71.320  1.00  0.00    -0.307 A  
HETATM   19  C   UNL     1     -13.257   7.654  71.743  1.00  0.00    -0.318 A  
HETATM   20 CL   UNL     1     -14.385   6.447  72.205  1.00  0.00    -0.096 Cl 
BRANCH  18  21
HETATM   21  N   UNL     1     -11.604   6.005  71.175  1.00  0.00    -0.191 NA 
HETATM   22  H   UNL     1     -12.003   5.490  70.389  1.00  0.00     0.000 HD 
BRANCH  21  23
HETATM   23  C   UNL     1     -10.782   5.348  72.098  1.00  0.00    -0.227 A  
HETATM   24  C   UNL     1     -11.335   4.906  73.310  1.00  0.00    -0.408 A  
HETATM   25  C   UNL     1     -10.524   4.615  74.401  1.00  0.00    -0.330 A  
HETATM   26  C   UNL     1      -9.143   4.688  74.264  1.00  0.00    -0.112 A  
HETATM   27  C   UNL     1      -8.579   4.940  73.014  1.00  0.00    -0.110 A  
HETATM   28  C   UNL     1      -9.400   5.224  71.913  1.00  0.00    -0.141 A  
BRANCH  28  29
HETATM   29  S   UNL     1      -8.677   4.981  70.282  1.00  0.00    -0.108 S  
HETATM   30  O   UNL     1      -8.759   6.266  69.606  1.00  0.00    -0.134 OA 
HETATM   31  O   UNL     1      -7.362   4.415  70.534  1.00  0.00    -0.047 OA 
BRANCH  29  32
HETATM   32  C   UNL     1      -9.614   3.828  69.290  1.00  0.00    -0.138 C  
HETATM   33  C   UNL     1      -9.336   3.975  67.791  1.00  0.00    -0.221 C  
HETATM   34  C   UNL     1      -9.272   2.394  69.727  1.00  0.00    -0.188 C  
ENDBRANCH  29  32
ENDBRANCH  28  29
ENDBRANCH  21  23
ENDBRANCH  18  21
ENDBRANCH  12  14
ENDBRANCH   6  12
BRANCH  11  35
HETATM   35  C   UNL     1     -11.116  13.110  65.147  1.00  0.00    -0.308 C  
HETATM   36  C   UNL     1     -10.028  12.707  64.132  1.00  0.00    -0.196 C  
HETATM   37  C   UNL     1     -10.341  11.378  63.464  1.00  0.00    -0.423 C  
HETATM   38  N   UNL     1     -11.581  11.488  62.710  1.00  0.00    -0.467 NA 
HETATM   39  H   UNL     1     -11.758  10.649  62.158  1.00  0.00     0.000 HD 
HETATM   40  C   UNL     1     -12.713  11.804  63.580  1.00  0.00    -0.306 C  
HETATM   41  C   UNL     1     -12.485  13.050  64.431  1.00  0.00    -0.406 C  
ENDBRANCH  11  35
ENDBRANCH   4   5
ENDBRANCH   2   4
TORSDOF 9
ENDMDL
MODEL       62
REMARK 921   NORMALIZED FREE ENERGY PREDICTED BY IDOCK:   -6.23 KCAL/MOL
REMARK 922        TOTAL FREE ENERGY PREDICTED BY IDOCK:  -11.68 KCAL/MOL
REMARK 923 INTER-LIGAND FREE ENERGY PREDICTED BY IDOCK:  -10.34 KCAL/MOL
REMARK 924 INTRA-LIGAND FREE ENERGY PREDICTED BY IDOCK:   -1.34 KCAL/MOL
REMARK 927      BINDING AFFINITY PREDICTED BY RF-SCORE:    0.00 PKD
ROOT
HETATM    1  C   UNL     1     -10.168   9.192  70.959  1.00  0.00    -0.372 C  
HETATM    2  C   UNL     1     -10.381   7.987  70.043  1.00  0.00    -0.218 C  
HETATM    3  C   UNL     1     -11.094   6.879  70.825  1.00  0.00    -0.317 C  
ENDROOT
BRANCH   2   4
HETATM    4  O   UNL     1     -11.120   8.436  68.883  1.00  0.00     0.073 OA 
BRANCH   4   5
HETATM    5  C   UNL     1     -10.442   8.445  67.681  1.00  0.00    -0.239 A  
HETATM    6  C   UNL     1     -10.286   9.582  66.871  1.00  0.00    -0.249 A  
HETATM    7  C   UNL     1      -7.889   8.342  64.225  1.00  0.00    -0.144 C  
HETATM    8  C   UNL     1      -9.313   9.515  65.876  1.00  0.00    -0.285 A  
HETATM    9  C   UNL     1      -9.847   7.208  67.310  1.00  0.00    -0.217 A  
HETATM   10  C   UNL     1      -8.714   8.301  65.488  1.00  0.00    -0.173 A  
HETATM   11  C   UNL     1      -8.985   7.102  66.197  1.00  0.00    -0.168 A  
BRANCH   6  12
HETATM   12  N   UNL     1     -10.953  10.807  67.060  1.00  0.00    -0.259 NA 
HETATM   13  H   UNL     1     -11.465  10.868  67.941  1.00  0.00     0.000 HD 
BRANCH  12  14
HETATM   14  C   UNL     1     -11.045  11.930  66.287  1.00  0.00    -0.314 A  
HETATM   15  N   UNL     1      -9.974  12.770  66.131  1.00  0.00    -0.263 NA 
HETATM   16  C   UNL     1     -12.372  13.459  65.192  1.00  0.00    -0.456 A  
HETATM   17  N   UNL     1     -12.247  12.263  65.870  1.00  0.00    -0.600 NA 
HETATM   18  C   UNL     1     -10.090  14.081  65.651  1.00  0.00    -0.322 A  
HETATM   19  C   UNL     1     -11.428  14.393  65.039  1.00  0.00    -0.372 A  
HETATM   20 CL   UNL     1     -11.718  15.905  64.281  1.00  0.00    -0.295 Cl 
BRANCH  18  21
HETATM   21  N   UNL     1      -9.221  15.063  65.713  1.00  0.00    -0.468 NA 
HETATM   22  H   UNL     1      -9.059  15.653  64.897  1.00  0.00     0.000 HD 
BRANCH  21  23
HETATM   23  C   UNL     1      -8.518  15.299  66.899  1.00  0.00    -0.252 A  
HETATM   24  C   UNL     1      -7.667  14.301  67.399  1.00  0.00    -0.194 A  
HETATM   25  C   UNL     1      -7.262  14.307  68.728  1.00  0.00    -0.129 A  
HETATM   26  C   UNL     1      -7.640  15.359  69.553  1.00  0.00    -0.212 A  
HETATM   27  C   UNL     1      -8.324  16.452  69.020  1.00  0.00    -0.225 A  
HETATM   28  C   UNL     1      -8.725  16.446  67.675  1.00  0.00    -0.182 A  
BRANCH  28  29
HETATM   29  S   UNL     1      -9.075  18.048  66.930  1.00  0.00    -0.276 S  
HETATM   30  O   UNL     1      -8.125  18.204  65.840  1.00  0.00    -0.514 OA 
HETATM   31  O   UNL     1     -10.493  18.013  66.613  1.00  0.00    -0.357 OA 
BRANCH  29  32
HETATM   32  C   UNL     1      -8.775  19.400  68.059  1.00  0.00    -0.320 C  
HETATM   33  C   UNL     1      -8.082  20.589  67.387  1.00  0.00    -0.345 C  
HETATM   34  C   UNL     1     -10.115  19.867  68.652  1.00  0.00    -0.518 C  
ENDBRANCH  29  32
ENDBRANCH  28  29
ENDBRANCH  21  23
ENDBRANCH  18  21
ENDBRANCH  12  14
ENDBRANCH   6  12
BRANCH  11  35
HETATM   35  C   UNL     1      -8.308   5.792  65.744  1.00  0.00    -0.134 C  
HETATM   36  C   UNL     1      -8.056   4.834  66.925  1.00  0.00    -0.107 C  
HETATM   37  C   UNL     1      -9.294   4.023  67.271  1.00  0.00    -0.184 C  
HETATM   38  N   UNL     1      -9.665   3.186  66.140  1.00  0.00    -0.402 NA 
HETATM   39  H   UNL     1     -10.422   2.547  66.380  1.00  0.00     0.000 HD 
HETATM   40  C   UNL     1      -9.996   3.988  64.963  1.00  0.00    -0.201 C  
HETATM   41  C   UNL     1      -8.891   4.966  64.574  1.00  0.00    -0.129 C  
ENDBRANCH  11  35
ENDBRANCH   4   5
ENDBRANCH   2   4
TORSDOF 9
ENDMDL
MODEL       63
REMARK 921   NORMALIZED FREE ENERGY PREDICTED BY IDOCK:   -6.21 KCAL/MOL
REMARK 922        TOTAL FREE ENERGY PREDICTED BY IDOCK:  -11.64 KCAL/MOL
REMARK 923 INTER-LIGAND FREE ENERGY PREDICTED BY IDOCK:   -9.82 KCAL/MOL
REMARK 924 INTRA-LIGAND FREE ENERGY PREDICTED BY IDOCK:   -1.82 KCAL/MOL
REMARK 927      BINDING AFFINITY PREDICTED BY RF-SCORE:    0.00 PKD
ROOT
HETATM    1  C   UNL     1      -8.648   9.477  62.385  1.00  0.00    -0.216 C  
HETATM    2  C   UNL     1      -7.758   8.654  63.315  1.00  0.00    -0.134 C  
HETATM    3  C   UNL     1      -6.335   8.612  62.748  1.00  0.00    -0.091 C  
ENDROOT
BRANCH   2   4
HETATM    4  O   UNL     1      -7.831   9.244  64.635  1.00  0.00    -0.110 OA 
BRANCH   4   5
HETATM    5  C   UNL     1      -8.560   8.555  65.582  1.00  0.00    -0.177 A  
HETATM    6  C   UNL     1      -9.327   9.168  66.587  1.00  0.00    -0.177 A  
HETATM    7  C   UNL     1     -11.123   6.217  68.120  1.00  0.00    -0.364 C  
HETATM    8  C   UNL     1     -10.254   8.365  67.248  1.00  0.00    -0.349 A  
HETATM    9  C   UNL     1      -8.533   7.139  65.460  1.00  0.00    -0.114 A  
HETATM   10  C   UNL     1     -10.243   6.960  67.145  1.00  0.00    -0.308 A  
HETATM   11  C   UNL     1      -9.358   6.308  66.247  1.00  0.00    -0.155 A  
BRANCH   6  12
HETATM   12  N   UNL     1      -9.305  10.542  66.896  1.00  0.00    -0.158 NA 
HETATM   13  H   UNL     1      -8.710  10.778  67.690  1.00  0.00     0.000 HD 
BRANCH  12  14
HETATM   14  C   UNL     1      -9.930  11.618  66.332  1.00  0.00    -0.206 A  
HETATM   15  N   UNL     1     -10.445  12.623  67.108  1.00  0.00    -0.234 NA 
HETATM   16  C   UNL     1     -10.922  12.571  64.486  1.00  0.00    -0.323 A  
HETATM   17  N   UNL     1     -10.184  11.546  65.044  1.00  0.00    -0.265 NA 
HETATM   18  C   UNL     1     -11.375  13.559  66.636  1.00  0.00    -0.322 A  
HETATM   19  C   UNL     1     -11.536  13.561  65.141  1.00  0.00    -0.316 A  
HETATM   20 CL   UNL     1     -12.533  14.722  64.366  1.00  0.00    -0.411 Cl 
BRANCH  18  21
HETATM   21  N   UNL     1     -12.143  14.375  67.318  1.00  0.00    -0.573 NA 
HETATM   22  H   UNL     1     -13.011  14.721  66.909  1.00  0.00     0.000 HD 
BRANCH  21  23
HETATM   23  C   UNL     1     -11.771  14.771  68.608  1.00  0.00    -0.325 A  
HETATM   24  C   UNL     1     -12.100  13.947  69.696  1.00  0.00    -0.404 A  
HETATM   25  C   UNL     1     -12.117  14.449  70.992  1.00  0.00    -0.417 A  
HETATM   26  C   UNL     1     -11.727  15.763  71.222  1.00  0.00    -0.496 A  
HETATM   27  C   UNL     1     -11.217  16.532  70.175  1.00  0.00    -0.151 A  
HETATM   28  C   UNL     1     -11.193  16.019  68.869  1.00  0.00    -0.353 A  
BRANCH  28  29
HETATM   29  S   UNL     1     -10.048  16.796  67.718  1.00  0.00    -0.291 S  
HETATM   30  O   UNL     1      -8.790  16.077  67.850  1.00  0.00    -0.179 OA 
HETATM   31  O   UNL     1     -10.728  16.770  66.434  1.00  0.00    -0.234 OA 
BRANCH  29  32
HETATM   32  C   UNL     1      -9.705  18.496  68.147  1.00  0.00    -0.339 C  
HETATM   33  C   UNL     1      -8.205  18.802  68.201  1.00  0.00    -0.332 C  
HETATM   34  C   UNL     1     -10.370  19.420  67.114  1.00  0.00    -0.548 C  
ENDBRANCH  29  32
ENDBRANCH  28  29
ENDBRANCH  21  23
ENDBRANCH  18  21
ENDBRANCH  12  14
ENDBRANCH   6  12
BRANCH  11  35
HETATM   35  C   UNL     1      -9.376   4.768  66.162  1.00  0.00    -0.152 C  
HETATM   36  C   UNL     1     -10.207   4.268  64.964  1.00  0.00    -0.213 C  
HETATM   37  C   UNL     1      -9.407   4.286  63.672  1.00  0.00    -0.131 C  
HETATM   38  N   UNL     1      -8.271   3.383  63.785  1.00  0.00    -0.089 NA 
HETATM   39  H   UNL     1      -7.780   3.287  62.896  1.00  0.00     0.000 HD 
HETATM   40  C   UNL     1      -7.363   3.794  64.855  1.00  0.00    -0.068 C  
HETATM   41  C   UNL     1      -8.059   3.959  66.202  1.00  0.00    -0.101 C  
ENDBRANCH  11  35
ENDBRANCH   4   5
ENDBRANCH   2   4
TORSDOF 9
ENDMDL
MODEL       64
REMARK 921   NORMALIZED FREE ENERGY PREDICTED BY IDOCK:   -6.21 KCAL/MOL
REMARK 922        TOTAL FREE ENERGY PREDICTED BY IDOCK:  -11.64 KCAL/MOL
REMARK 923 INTER-LIGAND FREE ENERGY PREDICTED BY IDOCK:  -10.05 KCAL/MOL
REMARK 924 INTRA-LIGAND FREE ENERGY PREDICTED BY IDOCK:   -1.60 KCAL/MOL
REMARK 927      BINDING AFFINITY PREDICTED BY RF-SCORE:    0.00 PKD
ROOT
HETATM    1  C   UNL     1     -13.241  15.456  70.844  1.00  0.00    -0.512 C  
HETATM    2  C   UNL     1     -12.059  15.013  69.983  1.00  0.00    -0.337 C  
HETATM    3  C   UNL     1     -10.798  15.758  70.433  1.00  0.00    -0.345 C  
ENDROOT
BRANCH   2   4
HETATM    4  O   UNL     1     -11.944  13.574  70.095  1.00  0.00    -0.319 OA 
BRANCH   4   5
HETATM    5  C   UNL     1     -11.580  12.891  68.953  1.00  0.00    -0.315 A  
HETATM    6  C   UNL     1     -11.851  11.531  68.727  1.00  0.00    -0.330 A  
HETATM    7  C   UNL     1     -10.774  11.101  65.129  1.00  0.00    -0.279 C  
HETATM    8  C   UNL     1     -11.722  11.075  67.417  1.00  0.00     0.065 A  
HETATM    9  C   UNL     1     -10.931  13.672  67.957  1.00  0.00    -0.270 A  
HETATM   10  C   UNL     1     -11.079  11.829  66.416  1.00  0.00    -0.360 A  
HETATM   11  C   UNL     1     -10.650  13.157  66.675  1.00  0.00    -0.284 A  
BRANCH   6  12
HETATM   12  N   UNL     1     -12.344  10.634  69.692  1.00  0.00    -0.531 NA 
HETATM   13  H   UNL     1     -13.359  10.530  69.681  1.00  0.00     0.000 HD 
BRANCH  12  14
HETATM   14  C   UNL     1     -11.720   9.874  70.642  1.00  0.00    -0.323 A  
HETATM   15  N   UNL     1     -10.449   9.402  70.446  1.00  0.00    -0.235 NA 
HETATM   16  C   UNL     1     -11.875   8.593  72.548  1.00  0.00    -0.272 A  
HETATM   17  N   UNL     1     -12.460   9.461  71.647  1.00  0.00    -0.352 NA 
HETATM   18  C   UNL     1      -9.891   8.362  71.201  1.00  0.00    -0.192 A  
HETATM   19  C   UNL     1     -10.679   8.008  72.432  1.00  0.00    -0.320 A  
HETATM   20 CL   UNL     1     -10.090   6.847  73.550  1.00  0.00    -0.284 Cl 
BRANCH  18  21
HETATM   21  N   UNL     1      -8.826   7.638  70.949  1.00  0.00    -0.145 NA 
HETATM   22  H   UNL     1      -7.944   7.848  71.417  1.00  0.00     0.000 HD 
BRANCH  21  23
HETATM   23  C   UNL     1      -8.899   6.579  70.037  1.00  0.00    -0.144 A  
HETATM   24  C   UNL     1      -9.852   5.569  70.240  1.00  0.00    -0.260 A  
HETATM   25  C   UNL     1      -9.721   4.329  69.625  1.00  0.00    -0.284 A  
HETATM   26  C   UNL     1      -8.676   4.115  68.735  1.00  0.00    -0.128 A  
HETATM   27  C   UNL     1      -7.835   5.170  68.380  1.00  0.00    -0.087 A  
HETATM   28  C   UNL     1      -7.976   6.423  68.997  1.00  0.00    -0.111 A  
BRANCH  28  29
HETATM   29  S   UNL     1      -7.277   7.834  68.124  1.00  0.00    -0.092 S  
HETATM   30  O   UNL     1      -7.442   8.979  69.007  1.00  0.00    -0.072 OA 
HETATM   31  O   UNL     1      -5.929   7.426  67.765  1.00  0.00    -0.032 OA 
BRANCH  29  32
HETATM   32  C   UNL     1      -8.175   8.218  66.628  1.00  0.00    -0.106 C  
HETATM   33  C   UNL     1      -7.786   7.312  65.456  1.00  0.00    -0.115 C  
HETATM   34  C   UNL     1      -9.683   8.078  66.895  1.00  0.00    -0.291 C  
ENDBRANCH  29  32
ENDBRANCH  28  29
ENDBRANCH  21  23
ENDBRANCH  18  21
ENDBRANCH  12  14
ENDBRANCH   6  12
BRANCH  11  35
HETATM   35  C   UNL     1      -9.950  13.952  65.552  1.00  0.00    -0.275 C  
HETATM   36  C   UNL     1     -10.715  13.857  64.217  1.00  0.00    -0.146 C  
HETATM   37  C   UNL     1     -11.862  14.853  64.149  1.00  0.00    -0.184 C  
HETATM   38  N   UNL     1     -11.338  16.209  64.223  1.00  0.00    -1.084 NA 
HETATM   39  H   UNL     1     -12.071  16.901  64.065  1.00  0.00     0.000 HD 
HETATM   40  C   UNL     1     -10.642  16.448  65.486  1.00  0.00    -0.330 C  
HETATM   41  C   UNL     1      -9.542  15.427  65.766  1.00  0.00    -0.368 C  
ENDBRANCH  11  35
ENDBRANCH   4   5
ENDBRANCH   2   4
TORSDOF 9
ENDMDL
MODEL       65
REMARK 921   NORMALIZED FREE ENERGY PREDICTED BY IDOCK:   -6.18 KCAL/MOL
REMARK 922        TOTAL FREE ENERGY PREDICTED BY IDOCK:  -11.60 KCAL/MOL
REMARK 923 INTER-LIGAND FREE ENERGY PREDICTED BY IDOCK:   -8.99 KCAL/MOL
REMARK 924 INTRA-LIGAND FREE ENERGY PREDICTED BY IDOCK:   -2.60 KCAL/MOL
REMARK 927      BINDING AFFINITY PREDICTED BY RF-SCORE:    0.00 PKD
ROOT
HETATM    1  C   UNL     1     -10.299  14.915  66.558  1.00  0.00    -0.295 C  
HETATM    2  C   UNL     1     -11.303  13.829  66.942  1.00  0.00    -0.328 C  
HETATM    3  C   UNL     1     -11.944  13.261  65.672  1.00  0.00    -0.455 C  
ENDROOT
BRANCH   2   4
HETATM    4  O   UNL     1     -10.601  12.833  67.724  1.00  0.00    -0.215 OA 
BRANCH   4   5
HETATM    5  C   UNL     1     -11.335  12.172  68.687  1.00  0.00    -0.280 A  
HETATM    6  C   UNL     1     -11.547  10.783  68.703  1.00  0.00    -0.272 A  
HETATM    7  C   UNL     1     -13.248  10.282  72.041  1.00  0.00    -0.516 C  
HETATM    8  C   UNL     1     -12.015  10.233  69.895  1.00  0.00    -0.222 A  
HETATM    9  C   UNL     1     -11.850  12.991  69.730  1.00  0.00    -0.381 A  
HETATM   10  C   UNL     1     -12.533  11.024  70.938  1.00  0.00    -0.509 A  
HETATM   11  C   UNL     1     -12.475  12.441  70.868  1.00  0.00    -0.367 A  
BRANCH   6  12
HETATM   12  N   UNL     1     -11.219   9.904  67.654  1.00  0.00    -0.441 NA 
HETATM   13  H   UNL     1     -11.895   9.903  66.889  1.00  0.00     0.000 HD 
BRANCH  12  14
HETATM   14  C   UNL     1     -10.168   9.051  67.466  1.00  0.00    -0.241 A  
HETATM   15  N   UNL     1      -9.922   8.027  68.342  1.00  0.00    -0.179 NA 
HETATM   16  C   UNL     1      -8.174   8.592  66.410  1.00  0.00    -0.111 A  
HETATM   17  N   UNL     1      -9.304   9.377  66.529  1.00  0.00    -0.160 NA 
HETATM   18  C   UNL     1      -8.700   7.346  68.404  1.00  0.00    -0.123 A  
HETATM   19  C   UNL     1      -7.787   7.619  67.241  1.00  0.00    -0.117 A  
HETATM   20 CL   UNL     1      -6.300   6.780  67.073  1.00  0.00    -0.040 Cl 
BRANCH  18  21
HETATM   21  N   UNL     1      -8.239   6.562  69.350  1.00  0.00    -0.118 NA 
HETATM   22  H   UNL     1      -8.173   5.556  69.192  1.00  0.00     0.000 HD 
BRANCH  21  23
HETATM   23  C   UNL     1      -7.839   7.106  70.576  1.00  0.00    -0.100 A  
HETATM   24  C   UNL     1      -7.136   8.321  70.586  1.00  0.00    -0.042 A  
HETATM   25  C   UNL     1      -6.386   8.703  71.693  1.00  0.00    -0.069 A  
HETATM   26  C   UNL     1      -6.398   7.909  72.833  1.00  0.00    -0.070 A  
HETATM   27  C   UNL     1      -7.243   6.800  72.903  1.00  0.00    -0.079 A  
HETATM   28  C   UNL     1      -8.004   6.423  71.786  1.00  0.00    -0.105 A  
BRANCH  28  29
HETATM   29  S   UNL     1      -9.440   5.383  72.104  1.00  0.00    -0.143 S  
HETATM   30  O   UNL     1      -9.588   4.529  70.936  1.00  0.00    -0.153 OA 
HETATM   31  O   UNL     1      -9.175   4.758  73.389  1.00  0.00    -0.114 OA 
BRANCH  29  32
HETATM   32  C   UNL     1     -10.949   6.331  72.230  1.00  0.00    -0.259 C  
HETATM   33  C   UNL     1     -10.727   7.717  72.844  1.00  0.00    -0.428 C  
HETATM   34  C   UNL     1     -11.561   6.493  70.829  1.00  0.00    -0.437 C  
ENDBRANCH  29  32
ENDBRANCH  28  29
ENDBRANCH  21  23
ENDBRANCH  18  21
ENDBRANCH  12  14
ENDBRANCH   6  12
BRANCH  11  35
HETATM   35  C   UNL     1     -13.052  13.273  72.032  1.00  0.00    -0.475 C  
HETATM   36  C   UNL     1     -11.961  14.094  72.749  1.00  0.00     0.464 C  
HETATM   37  C   UNL     1     -11.662  15.395  72.023  1.00  0.00    -0.455 C  
HETATM   38  N   UNL     1     -12.854  16.231  72.003  1.00  0.00    -0.372 NA 
HETATM   39  H   UNL     1     -12.654  17.157  71.625  1.00  0.00     0.000 HD 
HETATM   40  C   UNL     1     -13.951  15.585  71.285  1.00  0.00    -0.292 C  
HETATM   41  C   UNL     1     -14.277  14.192  71.815  1.00  0.00    -0.493 C  
ENDBRANCH  11  35
ENDBRANCH   4   5
ENDBRANCH   2   4
TORSDOF 9
ENDMDL
MODEL       66
REMARK 921   NORMALIZED FREE ENERGY PREDICTED BY IDOCK:   -6.17 KCAL/MOL
REMARK 922        TOTAL FREE ENERGY PREDICTED BY IDOCK:  -11.59 KCAL/MOL
REMARK 923 INTER-LIGAND FREE ENERGY PREDICTED BY IDOCK:   -9.74 KCAL/MOL
REMARK 924 INTRA-LIGAND FREE ENERGY PREDICTED BY IDOCK:   -1.85 KCAL/MOL
REMARK 927      BINDING AFFINITY PREDICTED BY RF-SCORE:    0.00 PKD
ROOT
HETATM    1  C   UNL     1     -12.137  14.179  63.969  1.00  0.00    -0.382 C  
HETATM    2  C   UNL     1     -12.256  12.666  64.145  1.00  0.00    -0.450 C  
HETATM    3  C   UNL     1     -11.074  11.982  63.449  1.00  0.00    -0.476 C  
ENDROOT
BRANCH   2   4
HETATM    4  O   UNL     1     -12.324  12.389  65.564  1.00  0.00    -0.621 OA 
BRANCH   4   5
HETATM    5  C   UNL     1     -11.137  12.441  66.263  1.00  0.00    -0.303 A  
HETATM    6  C   UNL     1     -10.383  11.313  66.625  1.00  0.00    -0.237 A  
HETATM    7  C   UNL     1      -7.237  12.877  68.019  1.00  0.00    -0.115 C  
HETATM    8  C   UNL     1      -9.068  11.538  67.027  1.00  0.00    -0.175 A  
HETATM    9  C   UNL     1     -10.670  13.749  66.574  1.00  0.00    -0.284 A  
HETATM   10  C   UNL     1      -8.586  12.823  67.343  1.00  0.00    -0.194 A  
HETATM   11  C   UNL     1      -9.396  13.970  67.136  1.00  0.00    -0.244 A  
BRANCH   6  12
HETATM   12  N   UNL     1     -10.818   9.979  66.508  1.00  0.00    -0.024 NA 
HETATM   13  H   UNL     1     -11.778   9.884  66.175  1.00  0.00     0.000 HD 
BRANCH  12  14
HETATM   14  C   UNL     1     -10.197   8.787  66.754  1.00  0.00    -0.284 A  
HETATM   15  N   UNL     1     -10.468   8.070  67.890  1.00  0.00    -0.216 NA 
HETATM   16  C   UNL     1      -8.485   7.325  66.271  1.00  0.00    -0.134 A  
HETATM   17  N   UNL     1      -9.199   8.465  65.960  1.00  0.00    -0.200 NA 
HETATM   18  C   UNL     1      -9.643   7.042  68.365  1.00  0.00    -0.135 A  
HETATM   19  C   UNL     1      -8.604   6.586  67.379  1.00  0.00    -0.118 A  
HETATM   20 CL   UNL     1      -7.584   5.252  67.730  1.00  0.00    -0.087 Cl 
BRANCH  18  21
HETATM   21  N   UNL     1      -9.627   6.478  69.550  1.00  0.00    -0.146 NA 
HETATM   22  H   UNL     1      -9.018   5.678  69.726  1.00  0.00     0.000 HD 
BRANCH  21  23
HETATM   23  C   UNL     1     -10.444   6.975  70.572  1.00  0.00    -0.208 A  
HETATM   24  C   UNL     1     -11.782   6.557  70.639  1.00  0.00    -0.436 A  
HETATM   25  C   UNL     1     -12.723   7.287  71.356  1.00  0.00    -0.427 A  
HETATM   26  C   UNL     1     -12.316   8.400  72.081  1.00  0.00    -0.426 A  
HETATM   27  C   UNL     1     -10.960   8.713  72.176  1.00  0.00    -0.434 A  
HETATM   28  C   UNL     1     -10.012   7.969  71.457  1.00  0.00    -0.177 A  
BRANCH  28  29
HETATM   29  S   UNL     1      -8.312   8.047  72.044  1.00  0.00    -0.152 S  
HETATM   30  O   UNL     1      -8.340   8.837  73.266  1.00  0.00    -0.389 OA 
HETATM   31  O   UNL     1      -7.878   6.663  72.126  1.00  0.00    -0.096 OA 
BRANCH  29  32
HETATM   32  C   UNL     1      -7.241   8.915  70.907  1.00  0.00    -0.092 C  
HETATM   33  C   UNL     1      -6.412   7.967  70.035  1.00  0.00    -0.033 C  
HETATM   34  C   UNL     1      -8.094   9.817  70.001  1.00  0.00    -0.203 C  
ENDBRANCH  29  32
ENDBRANCH  28  29
ENDBRANCH  21  23
ENDBRANCH  18  21
ENDBRANCH  12  14
ENDBRANCH   6  12
BRANCH  11  35
HETATM   35  C   UNL     1      -8.832  15.361  67.494  1.00  0.00    -0.190 C  
HETATM   36  C   UNL     1      -8.868  16.324  66.291  1.00  0.00    -0.367 C  
HETATM   37  C   UNL     1     -10.234  16.969  66.122  1.00  0.00    -0.337 C  
HETATM   38  N   UNL     1     -10.546  17.771  67.296  1.00  0.00    -0.349 NA 
HETATM   39  H   UNL     1     -11.404  18.307  67.164  1.00  0.00     0.000 HD 
HETATM   40  C   UNL     1     -10.608  16.952  68.505  1.00  0.00    -0.367 C  
HETATM   41  C   UNL     1      -9.346  16.126  68.735  1.00  0.00    -0.229 C  
ENDBRANCH  11  35
ENDBRANCH   4   5
ENDBRANCH   2   4
TORSDOF 9
ENDMDL
MODEL       67
REMARK 921   NORMALIZED FREE ENERGY PREDICTED BY IDOCK:   -6.13 KCAL/MOL
REMARK 922        TOTAL FREE ENERGY PREDICTED BY IDOCK:  -11.52 KCAL/MOL
REMARK 923 INTER-LIGAND FREE ENERGY PREDICTED BY IDOCK:   -9.54 KCAL/MOL
REMARK 924 INTRA-LIGAND FREE ENERGY PREDICTED BY IDOCK:   -1.98 KCAL/MOL
REMARK 927      BINDING AFFINITY PREDICTED BY RF-SCORE:    0.00 PKD
ROOT
HETATM    1  C   UNL     1     -13.496   6.898  71.810  1.00  0.00    -0.250 C  
HETATM    2  C   UNL     1     -12.390   7.841  71.336  1.00  0.00    -0.323 C  
HETATM    3  C   UNL     1     -11.375   8.038  72.467  1.00  0.00    -0.469 C  
ENDROOT
BRANCH   2   4
HETATM    4  O   UNL     1     -11.810   7.276  70.137  1.00  0.00    -0.131 OA 
BRANCH   4   5
HETATM    5  C   UNL     1     -10.623   7.830  69.702  1.00  0.00    -0.242 A  
HETATM    6  C   UNL     1     -10.510   9.112  69.139  1.00  0.00    -0.217 A  
HETATM    7  C   UNL     1      -6.764   9.526  68.864  1.00  0.00    -0.051 C  
HETATM    8  C   UNL     1      -9.229   9.652  69.059  1.00  0.00    -0.156 A  
HETATM    9  C   UNL     1      -9.467   7.026  69.902  1.00  0.00    -0.157 A  
HETATM   10  C   UNL     1      -8.070   8.874  69.248  1.00  0.00    -0.109 A  
HETATM   11  C   UNL     1      -8.167   7.521  69.663  1.00  0.00    -0.129 A  
BRANCH   6  12
HETATM   12  N   UNL     1     -11.594   9.925  68.757  1.00  0.00    -0.487 NA 
HETATM   13  H   UNL     1     -12.357   9.415  68.310  1.00  0.00     0.000 HD 
BRANCH  12  14
HETATM   14  C   UNL     1     -11.818  11.268  68.872  1.00  0.00    -0.345 A  
HETATM   15  N   UNL     1     -11.508  12.127  67.850  1.00  0.00    -0.305 NA 
HETATM   16  C   UNL     1     -12.266  13.078  70.223  1.00  0.00    -0.296 A  
HETATM   17  N   UNL     1     -12.155  11.711  70.063  1.00  0.00    -0.324 NA 
HETATM   18  C   UNL     1     -11.391  13.512  68.020  1.00  0.00    -0.285 A  
HETATM   19  C   UNL     1     -11.924  14.015  69.333  1.00  0.00    -0.343 A  
HETATM   20 CL   UNL     1     -11.986  15.696  69.671  1.00  0.00    -0.379 Cl 
BRANCH  18  21
HETATM   21  N   UNL     1     -10.841  14.398  67.223  1.00  0.00    -0.286 NA 
HETATM   22  H   UNL     1     -11.428  14.985  66.630  1.00  0.00     0.000 HD 
BRANCH  21  23
HETATM   23  C   UNL     1      -9.449  14.535  67.185  1.00  0.00    -0.231 A  
HETATM   24  C   UNL     1      -8.647  13.389  67.300  1.00  0.00    -0.216 A  
HETATM   25  C   UNL     1      -7.308  13.488  67.660  1.00  0.00    -0.180 A  
HETATM   26  C   UNL     1      -6.737  14.743  67.832  1.00  0.00    -0.177 A  
HETATM   27  C   UNL     1      -7.473  15.890  67.534  1.00  0.00    -0.194 A  
HETATM   28  C   UNL     1      -8.822  15.787  67.163  1.00  0.00    -0.203 A  
BRANCH  28  29
HETATM   29  S   UNL     1      -9.523  17.186  66.273  1.00  0.00    -0.212 S  
HETATM   30  O   UNL     1      -8.397  18.003  65.849  1.00  0.00    -0.516 OA 
HETATM   31  O   UNL     1     -10.374  16.596  65.253  1.00  0.00    -0.609 OA 
BRANCH  29  32
HETATM   32  C   UNL     1     -10.530  18.222  67.325  1.00  0.00    -0.398 C  
HETATM   33  C   UNL     1      -9.960  18.359  68.740  1.00  0.00    -0.404 C  
HETATM   34  C   UNL     1     -10.648  19.618  66.692  1.00  0.00    -0.599 C  
ENDBRANCH  29  32
ENDBRANCH  28  29
ENDBRANCH  21  23
ENDBRANCH  18  21
ENDBRANCH  12  14
ENDBRANCH   6  12
BRANCH  11  35
HETATM   35  C   UNL     1      -6.875   6.701  69.861  1.00  0.00    -0.055 C  
HETATM   36  C   UNL     1      -6.351   6.792  71.308  1.00  0.00    -0.041 C  
HETATM   37  C   UNL     1      -7.061   5.813  72.230  1.00  0.00    -0.084 C  
HETATM   38  N   UNL     1      -6.806   4.450  71.789  1.00  0.00    -0.033 NA 
HETATM   39  H   UNL     1      -7.173   3.768  72.452  1.00  0.00     0.000 HD 
HETATM   40  C   UNL     1      -7.321   4.216  70.441  1.00  0.00    -0.045 C  
HETATM   41  C   UNL     1      -6.802   5.222  69.417  1.00  0.00    -0.054 C  
ENDBRANCH  11  35
ENDBRANCH   4   5
ENDBRANCH   2   4
TORSDOF 9
ENDMDL
MODEL       68
REMARK 921   NORMALIZED FREE ENERGY PREDICTED BY IDOCK:   -6.11 KCAL/MOL
REMARK 922        TOTAL FREE ENERGY PREDICTED BY IDOCK:  -11.50 KCAL/MOL
REMARK 923 INTER-LIGAND FREE ENERGY PREDICTED BY IDOCK:   -9.74 KCAL/MOL
REMARK 924 INTRA-LIGAND FREE ENERGY PREDICTED BY IDOCK:   -1.76 KCAL/MOL
REMARK 927      BINDING AFFINITY PREDICTED BY RF-SCORE:    0.00 PKD
ROOT
HETATM    1  C   UNL     1     -12.780  13.188  65.069  1.00  0.00    -0.456 C  
HETATM    2  C   UNL     1     -11.364  13.025  65.619  1.00  0.00    -0.301 C  
HETATM    3  C   UNL     1     -10.356  13.516  64.574  1.00  0.00    -0.381 C  
ENDROOT
BRANCH   2   4
HETATM    4  O   UNL     1     -11.289  13.747  66.871  1.00  0.00    -0.308 OA 
BRANCH   4   5
HETATM    5  C   UNL     1     -10.062  13.769  67.501  1.00  0.00    -0.241 A  
HETATM    6  C   UNL     1      -9.470  12.652  68.115  1.00  0.00    -0.218 A  
HETATM    7  C   UNL     1      -6.030  13.958  68.980  1.00  0.00    -0.086 C  
HETATM    8  C   UNL     1      -8.111  12.744  68.410  1.00  0.00    -0.129 A  
HETATM    9  C   UNL     1      -9.377  15.015  67.458  1.00  0.00    -0.195 A  
HETATM   10  C   UNL     1      -7.414  13.968  68.378  1.00  0.00    -0.119 A  
HETATM   11  C   UNL     1      -8.047  15.148  67.910  1.00  0.00    -0.144 A  
BRANCH   6  12
HETATM   12  N   UNL     1     -10.115  11.423  68.351  1.00  0.00    -0.195 NA 
HETATM   13  H   UNL     1     -10.013  10.750  67.590  1.00  0.00     0.000 HD 
BRANCH  12  14
HETATM   14  C   UNL     1     -10.850  10.960  69.406  1.00  0.00    -0.240 A  
HETATM   15  N   UNL     1     -10.863   9.629  69.729  1.00  0.00    -0.240 NA 
HETATM   16  C   UNL     1     -12.521  11.324  70.947  1.00  0.00    -0.394 A  
HETATM   17  N   UNL     1     -11.684  11.811  69.962  1.00  0.00    -0.323 NA 
HETATM   18  C   UNL     1     -11.833   9.049  70.556  1.00  0.00    -0.073 A  
HETATM   19  C   UNL     1     -12.679  10.045  71.300  1.00  0.00    -0.399 A  
HETATM   20 CL   UNL     1     -13.835   9.527  72.457  1.00  0.00    -0.403 Cl 
BRANCH  18  21
HETATM   21  N   UNL     1     -12.127   7.780  70.718  1.00  0.00    -0.485 NA 
HETATM   22  H   UNL     1     -13.049   7.510  71.060  1.00  0.00     0.000 HD 
BRANCH  21  23
HETATM   23  C   UNL     1     -11.174   6.798  70.423  1.00  0.00    -0.328 A  
HETATM   24  C   UNL     1     -10.962   6.434  69.084  1.00  0.00    -0.416 A  
HETATM   25  C   UNL     1     -10.346   5.231  68.760  1.00  0.00    -0.206 A  
HETATM   26  C   UNL     1      -9.862   4.416  69.776  1.00  0.00    -0.284 A  
HETATM   27  C   UNL     1      -9.896   4.857  71.099  1.00  0.00    -0.261 A  
HETATM   28  C   UNL     1     -10.512   6.075  71.422  1.00  0.00    -0.231 A  
BRANCH  28  29
HETATM   29  S   UNL     1     -10.037   6.830  72.986  1.00  0.00    -0.209 S  
HETATM   30  O   UNL     1     -11.233   7.476  73.504  1.00  0.00    -0.271 OA 
HETATM   31  O   UNL     1      -9.443   5.752  73.759  1.00  0.00    -0.137 OA 
BRANCH  29  32
HETATM   32  C   UNL     1      -8.818   8.119  72.775  1.00  0.00    -0.231 C  
HETATM   33  C   UNL     1      -7.885   8.254  73.982  1.00  0.00    -0.263 C  
HETATM   34  C   UNL     1      -7.980   7.819  71.521  1.00  0.00    -0.097 C  
ENDBRANCH  29  32
ENDBRANCH  28  29
ENDBRANCH  21  23
ENDBRANCH  18  21
ENDBRANCH  12  14
ENDBRANCH   6  12
BRANCH  11  35
HETATM   35  C   UNL     1      -7.250  16.469  67.888  1.00  0.00    -0.153 C  
HETATM   36  C   UNL     1      -7.228  17.106  66.485  1.00  0.00    -0.308 C  
HETATM   37  C   UNL     1      -8.487  17.912  66.209  1.00  0.00    -0.185 C  
HETATM   38  N   UNL     1      -8.582  19.014  67.155  1.00  0.00    -0.276 NA 
HETATM   39  H   UNL     1      -9.354  19.639  66.924  1.00  0.00     0.000 HD 
HETATM   40  C   UNL     1      -8.677  18.533  68.532  1.00  0.00    -0.326 C  
HETATM   41  C   UNL     1      -7.544  17.586  68.916  1.00  0.00    -0.225 C  
ENDBRANCH  11  35
ENDBRANCH   4   5
ENDBRANCH   2   4
TORSDOF 9
ENDMDL
MODEL       69
REMARK 921   NORMALIZED FREE ENERGY PREDICTED BY IDOCK:   -6.10 KCAL/MOL
REMARK 922        TOTAL FREE ENERGY PREDICTED BY IDOCK:  -11.48 KCAL/MOL
REMARK 923 INTER-LIGAND FREE ENERGY PREDICTED BY IDOCK:  -10.15 KCAL/MOL
REMARK 924 INTRA-LIGAND FREE ENERGY PREDICTED BY IDOCK:   -1.33 KCAL/MOL
REMARK 927      BINDING AFFINITY PREDICTED BY RF-SCORE:    0.00 PKD
ROOT
HETATM    1  C   UNL     1     -10.648  13.964  64.649  1.00  0.00    -0.432 C  
HETATM    2  C   UNL     1     -12.170  13.834  64.615  1.00  0.00    -0.406 C  
HETATM    3  C   UNL     1     -12.547  12.455  64.064  1.00  0.00    -0.510 C  
ENDROOT
BRANCH   2   4
HETATM    4  O   UNL     1     -12.666  14.072  65.954  1.00  0.00    -0.495 OA 
BRANCH   4   5
HETATM    5  C   UNL     1     -11.721  14.297  66.934  1.00  0.00    -0.408 A  
HETATM    6  C   UNL     1     -11.159  13.288  67.733  1.00  0.00    -0.265 A  
HETATM    7  C   UNL     1      -8.455  15.167  69.588  1.00  0.00    -0.064 C  
HETATM    8  C   UNL     1      -9.999  13.615  68.433  1.00  0.00    -0.235 A  
HETATM    9  C   UNL     1     -11.294  15.647  67.070  1.00  0.00    -0.051 A  
HETATM   10  C   UNL     1      -9.560  14.945  68.585  1.00  0.00    -0.222 A  
HETATM   11  C   UNL     1     -10.219  16.005  67.910  1.00  0.00    -0.258 A  
BRANCH   6  12
HETATM   12  N   UNL     1     -11.611  11.956  67.791  1.00  0.00    -0.433 NA 
HETATM   13  H   UNL     1     -12.507  11.844  68.265  1.00  0.00     0.000 HD 
BRANCH  12  14
HETATM   14  C   UNL     1     -11.076  10.785  67.331  1.00  0.00    -0.296 A  
HETATM   15  N   UNL     1     -11.161   9.633  68.067  1.00  0.00    -0.133 NA 
HETATM   16  C   UNL     1      -9.675   9.710  65.855  1.00  0.00    -0.275 A  
HETATM   17  N   UNL     1     -10.319  10.862  66.259  1.00  0.00    -0.246 NA 
HETATM   18  C   UNL     1     -10.361   8.508  67.827  1.00  0.00    -0.237 A  
HETATM   19  C   UNL     1      -9.619   8.552  66.520  1.00  0.00    -0.236 A  
HETATM   20 CL   UNL     1      -8.689   7.211  65.991  1.00  0.00    -0.158 Cl 
BRANCH  18  21
HETATM   21  N   UNL     1     -10.139   7.472  68.602  1.00  0.00    -0.179 NA 
HETATM   22  H   UNL     1      -9.669   6.647  68.229  1.00  0.00     0.000 HD 
BRANCH  21  23
HETATM   23  C   UNL     1     -10.548   7.500  69.940  1.00  0.00    -0.237 A  
HETATM   24  C   UNL     1     -11.690   6.779  70.320  1.00  0.00    -0.397 A  
HETATM   25  C   UNL     1     -12.359   7.072  71.503  1.00  0.00    -0.420 A  
HETATM   26  C   UNL     1     -11.845   8.039  72.358  1.00  0.00    -0.429 A  
HETATM   27  C   UNL     1     -10.610   8.626  72.083  1.00  0.00    -0.411 A  
HETATM   28  C   UNL     1      -9.933   8.322  70.892  1.00  0.00    -0.190 A  
BRANCH  28  29
HETATM   29  S   UNL     1      -8.163   8.650  70.865  1.00  0.00    -0.159 S  
HETATM   30  O   UNL     1      -7.937   9.564  69.757  1.00  0.00    -0.101 OA 
HETATM   31  O   UNL     1      -7.842   9.100  72.210  1.00  0.00    -0.298 OA 
BRANCH  29  32
HETATM   32  C   UNL     1      -7.207   7.182  70.512  1.00  0.00    -0.067 C  
HETATM   33  C   UNL     1      -5.698   7.415  70.633  1.00  0.00    -0.027 C  
HETATM   34  C   UNL     1      -7.624   6.064  71.481  1.00  0.00    -0.099 C  
ENDBRANCH  29  32
ENDBRANCH  28  29
ENDBRANCH  21  23
ENDBRANCH  18  21
ENDBRANCH  12  14
ENDBRANCH   6  12
BRANCH  11  35
HETATM   35  C   UNL     1      -9.708  17.448  68.101  1.00  0.00    -0.291 C  
HETATM   36  C   UNL     1      -8.307  17.648  67.489  1.00  0.00    -0.221 C  
HETATM   37  C   UNL     1      -8.374  17.916  65.995  1.00  0.00    -0.040 C  
HETATM   38  N   UNL     1      -9.106  19.150  65.749  1.00  0.00    -0.315 NA 
HETATM   39  H   UNL     1      -9.069  19.416  64.766  1.00  0.00     0.000 HD 
HETATM   40  C   UNL     1     -10.484  19.061  66.228  1.00  0.00    -0.457 C  
HETATM   41  C   UNL     1     -10.584  18.656  67.696  1.00  0.00    -0.458 C  
ENDBRANCH  11  35
ENDBRANCH   4   5
ENDBRANCH   2   4
TORSDOF 9
ENDMDL
MODEL       70
REMARK 921   NORMALIZED FREE ENERGY PREDICTED BY IDOCK:   -6.06 KCAL/MOL
REMARK 922        TOTAL FREE ENERGY PREDICTED BY IDOCK:  -11.41 KCAL/MOL
REMARK 923 INTER-LIGAND FREE ENERGY PREDICTED BY IDOCK:   -9.37 KCAL/MOL
REMARK 924 INTRA-LIGAND FREE ENERGY PREDICTED BY IDOCK:   -2.04 KCAL/MOL
REMARK 927      BINDING AFFINITY PREDICTED BY RF-SCORE:    0.00 PKD
ROOT
HETATM    1  C   UNL     1     -13.274   9.937  71.410  1.00  0.00    -0.487 C  
HETATM    2  C   UNL     1     -13.022   8.460  71.711  1.00  0.00    -0.344 C  
HETATM    3  C   UNL     1     -14.355   7.704  71.682  1.00  0.00    -0.613 C  
ENDROOT
BRANCH   2   4
HETATM    4  O   UNL     1     -12.064   7.968  70.744  1.00  0.00    -0.217 OA 
BRANCH   4   5
HETATM    5  C   UNL     1     -10.765   7.813  71.183  1.00  0.00    -0.227 A  
HETATM    6  C   UNL     1      -9.770   8.798  71.067  1.00  0.00    -0.230 A  
HETATM    7  C   UNL     1      -6.928   7.287  73.047  1.00  0.00    -0.068 C  
HETATM    8  C   UNL     1      -8.623   8.627  71.839  1.00  0.00    -0.231 A  
HETATM    9  C   UNL     1     -10.482   6.576  71.826  1.00  0.00    -0.239 A  
HETATM   10  C   UNL     1      -8.321   7.410  72.480  1.00  0.00    -0.128 A  
HETATM   11  C   UNL     1      -9.251   6.338  72.472  1.00  0.00    -0.140 A  
BRANCH   6  12
HETATM   12  N   UNL     1      -9.892   9.986  70.321  1.00  0.00    -0.395 NA 
HETATM   13  H   UNL     1     -10.132  10.804  70.883  1.00  0.00     0.000 HD 
BRANCH  12  14
HETATM   14  C   UNL     1      -9.751  10.251  68.988  1.00  0.00    -0.205 A  
HETATM   15  N   UNL     1      -9.360  11.490  68.551  1.00  0.00    -0.185 NA 
HETATM   16  C   UNL     1     -10.166   9.641  66.808  1.00  0.00    -0.239 A  
HETATM   17  N   UNL     1     -10.191   9.335  68.154  1.00  0.00    -0.195 NA 
HETATM   18  C   UNL     1      -9.522  11.924  67.229  1.00  0.00    -0.175 A  
HETATM   19  C   UNL     1      -9.879  10.828  66.264  1.00  0.00    -0.215 A  
HETATM   20 CL   UNL     1      -9.993  11.140  64.581  1.00  0.00    -0.318 Cl 
BRANCH  18  21
HETATM   21  N   UNL     1      -9.458  13.143  66.747  1.00  0.00    -0.246 NA 
HETATM   22  H   UNL     1      -9.865  13.353  65.836  1.00  0.00     0.000 HD 
BRANCH  21  23
HETATM   23  C   UNL     1      -8.830  14.154  67.484  1.00  0.00    -0.201 A  
HETATM   24  C   UNL     1      -7.446  14.342  67.344  1.00  0.00    -0.172 A  
HETATM   25  C   UNL     1      -6.718  15.033  68.305  1.00  0.00    -0.116 A  
HETATM   26  C   UNL     1      -7.381  15.613  69.379  1.00  0.00    -0.216 A  
HETATM   27  C   UNL     1      -8.776  15.596  69.428  1.00  0.00    -0.249 A  
HETATM   28  C   UNL     1      -9.508  14.905  68.452  1.00  0.00    -0.209 A  
BRANCH  28  29
HETATM   29  S   UNL     1     -11.233  15.380  68.250  1.00  0.00    -0.335 S  
HETATM   30  O   UNL     1     -11.272  16.828  68.382  1.00  0.00    -0.332 OA 
HETATM   31  O   UNL     1     -11.641  14.789  66.985  1.00  0.00    -0.362 OA 
BRANCH  29  32
HETATM   32  C   UNL     1     -12.273  14.726  69.546  1.00  0.00    -0.243 C  
HETATM   33  C   UNL     1     -11.921  13.282  69.915  1.00  0.00    -0.400 C  
HETATM   34  C   UNL     1     -12.138  15.612  70.796  1.00  0.00    -0.454 C  
ENDBRANCH  29  32
ENDBRANCH  28  29
ENDBRANCH  21  23
ENDBRANCH  18  21
ENDBRANCH  12  14
ENDBRANCH   6  12
BRANCH  11  35
HETATM   35  C   UNL     1      -8.885   5.021  73.186  1.00  0.00    -0.111 C  
HETATM   36  C   UNL     1      -9.921   4.641  74.262  1.00  0.00    -0.216 C  
HETATM   37  C   UNL     1     -11.125   3.930  73.664  1.00  0.00    -0.240 C  
HETATM   38  N   UNL     1     -10.700   2.682  73.047  1.00  0.00    -0.155 NA 
HETATM   39  H   UNL     1     -11.499   2.128  72.737  1.00  0.00     0.000 HD 
HETATM   40  C   UNL     1      -9.757   2.915  71.955  1.00  0.00    -0.160 C  
HETATM   41  C   UNL     1      -8.549   3.748  72.374  1.00  0.00    -0.097 C  
ENDBRANCH  11  35
ENDBRANCH   4   5
ENDBRANCH   2   4
TORSDOF 9
ENDMDL
MODEL       71
REMARK 921   NORMALIZED FREE ENERGY PREDICTED BY IDOCK:   -6.06 KCAL/MOL
REMARK 922        TOTAL FREE ENERGY PREDICTED BY IDOCK:  -11.41 KCAL/MOL
REMARK 923 INTER-LIGAND FREE ENERGY PREDICTED BY IDOCK:   -9.75 KCAL/MOL
REMARK 924 INTRA-LIGAND FREE ENERGY PREDICTED BY IDOCK:   -1.66 KCAL/MOL
REMARK 927      BINDING AFFINITY PREDICTED BY RF-SCORE:    0.00 PKD
ROOT
HETATM    1  C   UNL     1     -12.495  12.209  63.917  1.00  0.00    -0.581 C  
HETATM    2  C   UNL     1     -11.213  11.419  64.178  1.00  0.00    -0.250 C  
HETATM    3  C   UNL     1     -10.156  11.814  63.141  1.00  0.00    -0.386 C  
ENDROOT
BRANCH   2   4
HETATM    4  O   UNL     1     -10.803  11.678  65.542  1.00  0.00    -0.282 OA 
BRANCH   4   5
HETATM    5  C   UNL     1     -10.089  10.681  66.174  1.00  0.00    -0.249 A  
HETATM    6  C   UNL     1     -10.555   9.961  67.287  1.00  0.00    -0.252 A  
HETATM    7  C   UNL     1      -7.897   7.302  67.677  1.00  0.00    -0.113 C  
HETATM    8  C   UNL     1      -9.880   8.784  67.601  1.00  0.00    -0.228 A  
HETATM    9  C   UNL     1      -8.828  10.373  65.593  1.00  0.00    -0.190 A  
HETATM   10  C   UNL     1      -8.628   8.461  67.043  1.00  0.00    -0.124 A  
HETATM   11  C   UNL     1      -8.060   9.270  66.024  1.00  0.00    -0.110 A  
BRANCH   6  12
HETATM   12  N   UNL     1     -11.707  10.279  68.030  1.00  0.00    -0.680 NA 
HETATM   13  H   UNL     1     -12.445   9.576  67.972  1.00  0.00     0.000 HD 
BRANCH  12  14
HETATM   14  C   UNL     1     -12.025  11.351  68.816  1.00  0.00    -0.287 A  
HETATM   15  N   UNL     1     -12.262  12.584  68.267  1.00  0.00    -0.174 NA 
HETATM   16  C   UNL     1     -12.098  12.299  70.913  1.00  0.00    -0.062 A  
HETATM   17  N   UNL     1     -11.900  11.190  70.115  1.00  0.00    -0.336 NA 
HETATM   18  C   UNL     1     -12.254  13.771  69.012  1.00  0.00    -0.224 A  
HETATM   19  C   UNL     1     -12.263  13.559  70.501  1.00  0.00    -0.361 A  
HETATM   20 CL   UNL     1     -12.383  14.890  71.577  1.00  0.00    -0.373 Cl 
BRANCH  18  21
HETATM   21  N   UNL     1     -12.185  15.011  68.588  1.00  0.00    -0.593 NA 
HETATM   22  H   UNL     1     -12.649  15.755  69.109  1.00  0.00     0.000 HD 
BRANCH  21  23
HETATM   23  C   UNL     1     -11.477  15.312  67.419  1.00  0.00    -0.241 A  
HETATM   24  C   UNL     1     -12.060  15.029  66.175  1.00  0.00     0.149 A  
HETATM   25  C   UNL     1     -11.283  14.933  65.026  1.00  0.00    -0.408 A  
HETATM   26  C   UNL     1      -9.921  15.200  65.099  1.00  0.00    -0.267 A  
HETATM   27  C   UNL     1      -9.365  15.668  66.289  1.00  0.00    -0.358 A  
HETATM   28  C   UNL     1     -10.154  15.771  67.445  1.00  0.00    -0.246 A  
BRANCH  28  29
HETATM   29  S   UNL     1      -9.555  16.874  68.735  1.00  0.00    -0.259 S  
HETATM   30  O   UNL     1     -10.688  17.128  69.610  1.00  0.00    -0.226 OA 
HETATM   31  O   UNL     1      -8.389  16.205  69.290  1.00  0.00    -0.238 OA 
BRANCH  29  32
HETATM   32  C   UNL     1      -9.048  18.461  68.090  1.00  0.00    -0.309 C  
HETATM   33  C   UNL     1      -9.999  19.593  68.491  1.00  0.00    -0.542 C  
HETATM   34  C   UNL     1      -7.635  18.784  68.601  1.00  0.00    -0.357 C  
ENDBRANCH  29  32
ENDBRANCH  28  29
ENDBRANCH  21  23
ENDBRANCH  18  21
ENDBRANCH  12  14
ENDBRANCH   6  12
BRANCH  11  35
HETATM   35  C   UNL     1      -6.688   8.883  65.436  1.00  0.00    -0.072 C  
HETATM   36  C   UNL     1      -6.749   8.689  63.908  1.00  0.00    -0.083 C  
HETATM   37  C   UNL     1      -6.647  10.011  63.164  1.00  0.00    -0.132 C  
HETATM   38  N   UNL     1      -5.361  10.633  63.444  1.00  0.00    -0.217 NA 
HETATM   39  H   UNL     1      -5.216  11.464  62.871  1.00  0.00     0.000 HD 
HETATM   40  C   UNL     1      -5.207  10.932  64.867  1.00  0.00    -0.051 C  
HETATM   41  C   UNL     1      -5.425   9.715  65.762  1.00  0.00    -0.044 C  
ENDBRANCH  11  35
ENDBRANCH   4   5
ENDBRANCH   2   4
TORSDOF 9
ENDMDL
MODEL       72
REMARK 921   NORMALIZED FREE ENERGY PREDICTED BY IDOCK:   -6.04 KCAL/MOL
REMARK 922        TOTAL FREE ENERGY PREDICTED BY IDOCK:  -11.39 KCAL/MOL
REMARK 923 INTER-LIGAND FREE ENERGY PREDICTED BY IDOCK:   -9.66 KCAL/MOL
REMARK 924 INTRA-LIGAND FREE ENERGY PREDICTED BY IDOCK:   -1.73 KCAL/MOL
REMARK 927      BINDING AFFINITY PREDICTED BY RF-SCORE:    0.00 PKD
ROOT
HETATM    1  C   UNL     1     -12.651  13.756  65.130  1.00  0.00    -0.471 C  
HETATM    2  C   UNL     1     -11.379  14.490  65.555  1.00  0.00    -0.335 C  
HETATM    3  C   UNL     1     -11.149  15.683  64.622  1.00  0.00    -0.387 C  
ENDROOT
BRANCH   2   4
HETATM    4  O   UNL     1     -11.529  14.869  66.944  1.00  0.00    -0.351 OA 
BRANCH   4   5
HETATM    5  C   UNL     1     -10.369  15.126  67.644  1.00  0.00    -0.248 A  
HETATM    6  C   UNL     1      -9.522  14.132  68.161  1.00  0.00    -0.213 A  
HETATM    7  C   UNL     1      -6.571  16.158  69.373  1.00  0.00    -0.197 C  
HETATM    8  C   UNL     1      -8.244  14.532  68.545  1.00  0.00    -0.154 A  
HETATM    9  C   UNL     1     -10.034  16.502  67.784  1.00  0.00    -0.253 A  
HETATM   10  C   UNL     1      -7.891  15.887  68.694  1.00  0.00    -0.164 A  
HETATM   11  C   UNL     1      -8.799  16.914  68.327  1.00  0.00    -0.228 A  
BRANCH   6  12
HETATM   12  N   UNL     1      -9.828  12.758  68.217  1.00  0.00    -0.225 NA 
HETATM   13  H   UNL     1      -9.501  12.229  67.408  1.00  0.00     0.000 HD 
BRANCH  12  14
HETATM   14  C   UNL     1     -10.480  12.001  69.148  1.00  0.00     0.033 A  
HETATM   15  N   UNL     1     -10.081  10.719  69.423  1.00  0.00    -0.185 NA 
HETATM   16  C   UNL     1     -12.341  11.676  70.465  1.00  0.00    -0.321 A  
HETATM   17  N   UNL     1     -11.610  12.483  69.617  1.00  0.00    -0.277 NA 
HETATM   18  C   UNL     1     -10.887   9.791  70.094  1.00  0.00    -0.291 A  
HETATM   19  C   UNL     1     -12.098  10.393  70.751  1.00  0.00    -0.364 A  
HETATM   20 CL   UNL     1     -13.136   9.437  71.727  1.00  0.00    -0.448 Cl 
BRANCH  18  21
HETATM   21  N   UNL     1     -10.753   8.487  70.174  1.00  0.00    -0.234 NA 
HETATM   22  H   UNL     1     -11.344   7.878  69.609  1.00  0.00     0.000 HD 
BRANCH  21  23
HETATM   23  C   UNL     1      -9.798   7.935  71.036  1.00  0.00    -0.170 A  
HETATM   24  C   UNL     1      -9.589   8.526  72.292  1.00  0.00    -0.377 A  
HETATM   25  C   UNL     1      -8.424   8.284  73.010  1.00  0.00    -0.262 A  
HETATM   26  C   UNL     1      -7.489   7.384  72.513  1.00  0.00    -0.082 A  
HETATM   27  C   UNL     1      -7.773   6.648  71.362  1.00  0.00    -0.094 A  
HETATM   28  C   UNL     1      -8.955   6.888  70.645  1.00  0.00    -0.151 A  
BRANCH  28  29
HETATM   29  S   UNL     1      -9.516   5.573  69.550  1.00  0.00    -0.149 S  
HETATM   30  O   UNL     1     -10.864   5.237  69.978  1.00  0.00    -0.245 OA 
HETATM   31  O   UNL     1      -9.326   6.095  68.207  1.00  0.00    -0.118 OA 
BRANCH  29  32
HETATM   32  C   UNL     1      -8.544   4.084  69.726  1.00  0.00    -0.061 C  
HETATM   33  C   UNL     1      -8.942   3.260  70.954  1.00  0.00    -0.166 C  
HETATM   34  C   UNL     1      -8.711   3.222  68.465  1.00  0.00    -0.141 C  
ENDBRANCH  29  32
ENDBRANCH  28  29
ENDBRANCH  21  23
ENDBRANCH  18  21
ENDBRANCH  12  14
ENDBRANCH   6  12
BRANCH  11  35
HETATM   35  C   UNL     1      -8.376  18.388  68.504  1.00  0.00    -0.344 C  
HETATM   36  C   UNL     1      -7.432  18.855  67.378  1.00  0.00    -0.244 C  
HETATM   37  C   UNL     1      -8.198  19.270  66.132  1.00  0.00    -0.282 C  
HETATM   38  N   UNL     1      -9.058  20.403  66.440  1.00  0.00    -0.593 NA 
HETATM   39  H   UNL     1      -9.499  20.777  65.599  1.00  0.00     0.000 HD 
HETATM   40  C   UNL     1     -10.052  20.063  67.457  1.00  0.00    -0.425 C  
HETATM   41  C   UNL     1      -9.434  19.492  68.730  1.00  0.00    -0.447 C  
ENDBRANCH  11  35
ENDBRANCH   4   5
ENDBRANCH   2   4
TORSDOF 9
ENDMDL
MODEL       73
REMARK 921   NORMALIZED FREE ENERGY PREDICTED BY IDOCK:   -6.04 KCAL/MOL
REMARK 922        TOTAL FREE ENERGY PREDICTED BY IDOCK:  -11.39 KCAL/MOL
REMARK 923 INTER-LIGAND FREE ENERGY PREDICTED BY IDOCK:   -9.68 KCAL/MOL
REMARK 924 INTRA-LIGAND FREE ENERGY PREDICTED BY IDOCK:   -1.70 KCAL/MOL
REMARK 927      BINDING AFFINITY PREDICTED BY RF-SCORE:    0.00 PKD
ROOT
HETATM    1  C   UNL     1     -10.063   6.360  66.586  1.00  0.00    -0.206 C  
HETATM    2  C   UNL     1      -9.545   5.833  67.924  1.00  0.00    -0.115 C  
HETATM    3  C   UNL     1      -8.546   4.700  67.668  1.00  0.00    -0.104 C  
ENDROOT
BRANCH   2   4
HETATM    4  O   UNL     1      -8.972   6.949  68.648  1.00  0.00    -0.131 OA 
BRANCH   4   5
HETATM    5  C   UNL     1      -9.780   7.561  69.583  1.00  0.00    -0.167 A  
HETATM    6  C   UNL     1     -10.432   8.789  69.380  1.00  0.00    -0.222 A  
HETATM    7  C   UNL     1     -12.622   9.037  72.450  1.00  0.00    -0.403 C  
HETATM    8  C   UNL     1     -11.458   9.110  70.266  1.00  0.00    -0.174 A  
HETATM    9  C   UNL     1      -9.966   6.838  70.794  1.00  0.00    -0.201 A  
HETATM   10  C   UNL     1     -11.657   8.411  71.473  1.00  0.00    -0.338 A  
HETATM   11  C   UNL     1     -10.893   7.254  71.773  1.00  0.00    -0.251 A  
BRANCH   6  12
HETATM   12  N   UNL     1     -10.202   9.656  68.295  1.00  0.00    -0.178 NA 
HETATM   13  H   UNL     1     -10.637   9.353  67.423  1.00  0.00     0.000 HD 
BRANCH  12  14
HETATM   14  C   UNL     1      -9.507  10.828  68.189  1.00  0.00    -0.158 A  
HETATM   15  N   UNL     1     -10.088  12.026  68.510  1.00  0.00    -0.211 NA 
HETATM   16  C   UNL     1      -7.682  11.963  67.364  1.00  0.00    -0.158 A  
HETATM   17  N   UNL     1      -8.339  10.770  67.587  1.00  0.00    -0.118 NA 
HETATM   18  C   UNL     1      -9.568  13.264  68.110  1.00  0.00    -0.227 A  
HETATM   19  C   UNL     1      -8.169  13.192  67.562  1.00  0.00    -0.183 A  
HETATM   20 CL   UNL     1      -7.315  14.619  67.140  1.00  0.00    -0.107 Cl 
BRANCH  18  21
HETATM   21  N   UNL     1     -10.150  14.440  68.101  1.00  0.00    -0.221 NA 
HETATM   22  H   UNL     1     -10.064  15.058  68.909  1.00  0.00     0.000 HD 
BRANCH  21  23
HETATM   23  C   UNL     1     -10.888  14.847  66.984  1.00  0.00    -0.315 A  
HETATM   24  C   UNL     1     -12.028  14.115  66.616  1.00  0.00    -0.470 A  
HETATM   25  C   UNL     1     -12.559  14.216  65.336  1.00  0.00    -0.485 A  
HETATM   26  C   UNL     1     -12.002  15.114  64.434  1.00  0.00    -0.321 A  
HETATM   27  C   UNL     1     -10.992  15.983  64.849  1.00  0.00    -0.399 A  
HETATM   28  C   UNL     1     -10.464  15.883  66.145  1.00  0.00    -0.326 A  
BRANCH  28  29
HETATM   29  S   UNL     1      -9.612  17.336  66.782  1.00  0.00    -0.284 S  
HETATM   30  O   UNL     1      -9.252  17.024  68.157  1.00  0.00    -0.232 OA 
HETATM   31  O   UNL     1      -8.545  17.595  65.830  1.00  0.00    -0.526 OA 
BRANCH  29  32
HETATM   32  C   UNL     1     -10.675  18.769  66.852  1.00  0.00    -0.337 C  
HETATM   33  C   UNL     1     -10.518  19.561  68.153  1.00  0.00    -0.497 C  
HETATM   34  C   UNL     1     -10.359  19.690  65.661  1.00  0.00    -0.393 C  
ENDBRANCH  29  32
ENDBRANCH  28  29
ENDBRANCH  21  23
ENDBRANCH  18  21
ENDBRANCH  12  14
ENDBRANCH   6  12
BRANCH  11  35
HETATM   35  C   UNL     1     -11.141   6.515  73.104  1.00  0.00    -0.197 C  
HETATM   36  C   UNL     1     -11.573   5.052  72.879  1.00  0.00    -0.261 C  
HETATM   37  C   UNL     1     -10.380   4.139  72.645  1.00  0.00    -0.165 C  
HETATM   38  N   UNL     1      -9.526   4.135  73.824  1.00  0.00    -0.105 NA 
HETATM   39  H   UNL     1      -8.780   3.446  73.742  1.00  0.00     0.000 HD 
HETATM   40  C   UNL     1      -8.994   5.468  74.107  1.00  0.00    -0.118 C  
HETATM   41  C   UNL     1     -10.080   6.533  74.228  1.00  0.00    -0.379 C  
ENDBRANCH  11  35
ENDBRANCH   4   5
ENDBRANCH   2   4
TORSDOF 9
ENDMDL
MODEL       74
REMARK 921   NORMALIZED FREE ENERGY PREDICTED BY IDOCK:   -6.04 KCAL/MOL
REMARK 922        TOTAL FREE ENERGY PREDICTED BY IDOCK:  -11.38 KCAL/MOL
REMARK 923 INTER-LIGAND FREE ENERGY PREDICTED BY IDOCK:   -9.92 KCAL/MOL
REMARK 924 INTRA-LIGAND FREE ENERGY PREDICTED BY IDOCK:   -1.47 KCAL/MOL
REMARK 927      BINDING AFFINITY PREDICTED BY RF-SCORE:    0.00 PKD
ROOT
HETATM    1  C   UNL     1     -10.530  12.970  64.479  1.00  0.00    -0.413 C  
HETATM    2  C   UNL     1     -10.666  14.399  65.002  1.00  0.00    -0.423 C  
HETATM    3  C   UNL     1     -11.956  15.018  64.455  1.00  0.00    -0.379 C  
ENDROOT
BRANCH   2   4
HETATM    4  O   UNL     1     -10.623  14.349  66.448  1.00  0.00    -0.289 OA 
BRANCH   4   5
HETATM    5  C   UNL     1      -9.519  14.911  67.056  1.00  0.00    -0.229 A  
HETATM    6  C   UNL     1      -8.322  14.221  67.310  1.00  0.00    -0.204 A  
HETATM    7  C   UNL     1      -6.057  16.994  68.521  1.00  0.00    -0.147 C  
HETATM    8  C   UNL     1      -7.205  14.995  67.618  1.00  0.00    -0.208 A  
HETATM    9  C   UNL     1      -9.641  16.289  67.384  1.00  0.00    -0.230 A  
HETATM   10  C   UNL     1      -7.302  16.360  67.950  1.00  0.00    -0.146 A  
HETATM   11  C   UNL     1      -8.544  17.041  67.854  1.00  0.00    -0.207 A  
BRANCH   6  12
HETATM   12  N   UNL     1      -8.144  12.832  67.170  1.00  0.00    -0.306 NA 
HETATM   13  H   UNL     1      -8.280  12.491  66.218  1.00  0.00     0.000 HD 
BRANCH  12  14
HETATM   14  C   UNL     1      -7.822  11.853  68.068  1.00  0.00    -0.140 A  
HETATM   15  N   UNL     1      -8.714  10.862  68.383  1.00  0.00    -0.140 NA 
HETATM   16  C   UNL     1      -6.435  11.104  69.746  1.00  0.00    -0.137 A  
HETATM   17  N   UNL     1      -6.710  12.020  68.751  1.00  0.00    -0.080 NA 
HETATM   18  C   UNL     1      -8.589  10.048  69.516  1.00  0.00    -0.186 A  
HETATM   19  C   UNL     1      -7.250  10.144  70.194  1.00  0.00    -0.154 A  
HETATM   20 CL   UNL     1      -6.862   9.129  71.522  1.00  0.00    -0.049 Cl 
BRANCH  18  21
HETATM   21  N   UNL     1      -9.486   9.274  70.079  1.00  0.00    -0.195 NA 
HETATM   22  H   UNL     1     -10.010   9.605  70.890  1.00  0.00     0.000 HD 
BRANCH  21  23
HETATM   23  C   UNL     1      -9.725   7.993  69.567  1.00  0.00    -0.170 A  
HETATM   24  C   UNL     1      -8.822   7.450  68.640  1.00  0.00    -0.126 A  
HETATM   25  C   UNL     1      -9.192   6.392  67.818  1.00  0.00    -0.112 A  
HETATM   26  C   UNL     1     -10.446   5.813  67.973  1.00  0.00    -0.286 A  
HETATM   27  C   UNL     1     -11.277   6.218  69.018  1.00  0.00    -0.415 A  
HETATM   28  C   UNL     1     -10.896   7.281  69.850  1.00  0.00    -0.247 A  
BRANCH  28  29
HETATM   29  S   UNL     1     -11.701   7.375  71.458  1.00  0.00    -0.299 S  
HETATM   30  O   UNL     1     -11.620   8.767  71.872  1.00  0.00    -0.315 OA 
HETATM   31  O   UNL     1     -13.016   6.789  71.256  1.00  0.00    -0.301 OA 
BRANCH  29  32
HETATM   32  C   UNL     1     -10.840   6.427  72.703  1.00  0.00    -0.240 C  
HETATM   33  C   UNL     1      -9.979   5.310  72.107  1.00  0.00    -0.232 C  
HETATM   34  C   UNL     1      -9.945   7.369  73.525  1.00  0.00    -0.377 C  
ENDBRANCH  29  32
ENDBRANCH  28  29
ENDBRANCH  21  23
ENDBRANCH  18  21
ENDBRANCH  12  14
ENDBRANCH   6  12
BRANCH  11  35
HETATM   35  C   UNL     1      -8.610  18.537  68.226  1.00  0.00    -0.341 C  
HETATM   36  C   UNL     1      -7.674  19.391  67.348  1.00  0.00    -0.282 C  
HETATM   37  C   UNL     1      -8.311  19.739  66.012  1.00  0.00    -0.295 C  
HETATM   38  N   UNL     1      -9.506  20.540  66.233  1.00  0.00    -0.649 NA 
HETATM   39  H   UNL     1      -9.891  20.885  65.354  1.00  0.00     0.000 HD 
HETATM   40  C   UNL     1     -10.508  19.809  67.005  1.00  0.00    -0.469 C  
HETATM   41  C   UNL     1      -9.969  19.267  68.326  1.00  0.00    -0.497 C  
ENDBRANCH  11  35
ENDBRANCH   4   5
ENDBRANCH   2   4
TORSDOF 9
ENDMDL
MODEL       75
REMARK 921   NORMALIZED FREE ENERGY PREDICTED BY IDOCK:   -6.02 KCAL/MOL
REMARK 922        TOTAL FREE ENERGY PREDICTED BY IDOCK:  -11.36 KCAL/MOL
REMARK 923 INTER-LIGAND FREE ENERGY PREDICTED BY IDOCK:   -9.81 KCAL/MOL
REMARK 924 INTRA-LIGAND FREE ENERGY PREDICTED BY IDOCK:   -1.55 KCAL/MOL
REMARK 927      BINDING AFFINITY PREDICTED BY RF-SCORE:    0.00 PKD
ROOT
HETATM    1  C   UNL     1      -8.743   8.420  65.501  1.00  0.00    -0.196 C  
HETATM    2  C   UNL     1      -9.210   9.502  66.473  1.00  0.00    -0.160 C  
HETATM    3  C   UNL     1      -9.356  10.829  65.721  1.00  0.00    -0.235 C  
ENDROOT
BRANCH   2   4
HETATM    4  O   UNL     1     -10.444   9.050  67.081  1.00  0.00    -0.266 OA 
BRANCH   4   5
HETATM    5  C   UNL     1     -10.451   8.931  68.455  1.00  0.00    -0.182 A  
HETATM    6  C   UNL     1     -11.303   9.655  69.305  1.00  0.00     0.038 A  
HETATM    7  C   UNL     1     -10.623   8.048  72.658  1.00  0.00    -0.419 C  
HETATM    8  C   UNL     1     -11.424   9.194  70.615  1.00  0.00    -0.310 A  
HETATM    9  C   UNL     1      -9.549   7.969  68.988  1.00  0.00    -0.156 A  
HETATM   10  C   UNL     1     -10.539   8.245  71.164  1.00  0.00    -0.258 A  
HETATM   11  C   UNL     1      -9.559   7.617  70.354  1.00  0.00    -0.168 A  
BRANCH   6  12
HETATM   12  N   UNL     1     -12.118  10.732  68.907  1.00  0.00    -0.749 NA 
HETATM   13  H   UNL     1     -12.826  10.481  68.216  1.00  0.00     0.000 HD 
BRANCH  12  14
HETATM   14  C   UNL     1     -12.142  12.048  69.272  1.00  0.00    -0.190 A  
HETATM   15  N   UNL     1     -11.830  13.036  68.375  1.00  0.00    -0.340 NA 
HETATM   16  C   UNL     1     -12.185  13.622  70.952  1.00  0.00    -0.328 A  
HETATM   17  N   UNL     1     -12.282  12.304  70.554  1.00  0.00    -0.350 NA 
HETATM   18  C   UNL     1     -11.506  14.345  68.756  1.00  0.00    -0.289 A  
HETATM   19  C   UNL     1     -11.817  14.659  70.193  1.00  0.00    -0.307 A  
HETATM   20 CL   UNL     1     -11.609  16.246  70.811  1.00  0.00    -0.359 Cl 
BRANCH  18  21
HETATM   21  N   UNL     1     -10.929  15.290  68.052  1.00  0.00    -0.288 NA 
HETATM   22  H   UNL     1     -11.459  15.789  67.336  1.00  0.00     0.000 HD 
BRANCH  21  23
HETATM   23  C   UNL     1      -9.587  15.614  68.282  1.00  0.00    -0.200 A  
HETATM   24  C   UNL     1      -8.791  14.734  69.031  1.00  0.00    -0.136 A  
HETATM   25  C   UNL     1      -7.607  15.164  69.616  1.00  0.00    -0.163 A  
HETATM   26  C   UNL     1      -7.165  16.462  69.391  1.00  0.00    -0.172 A  
HETATM   27  C   UNL     1      -7.849  17.285  68.495  1.00  0.00    -0.266 A  
HETATM   28  C   UNL     1      -9.040  16.844  67.899  1.00  0.00    -0.233 A  
BRANCH  28  29
HETATM   29  S   UNL     1      -9.541  17.680  66.385  1.00  0.00    -0.250 S  
HETATM   30  O   UNL     1      -8.348  18.328  65.865  1.00  0.00    -0.506 OA 
HETATM   31  O   UNL     1     -10.175  16.649  65.579  1.00  0.00    -0.550 OA 
BRANCH  29  32
HETATM   32  C   UNL     1     -10.730  18.978  66.689  1.00  0.00    -0.342 C  
HETATM   33  C   UNL     1     -10.454  19.741  67.988  1.00  0.00    -0.523 C  
HETATM   34  C   UNL     1     -10.710  19.965  65.510  1.00  0.00    -0.305 C  
ENDBRANCH  29  32
ENDBRANCH  28  29
ENDBRANCH  21  23
ENDBRANCH  18  21
ENDBRANCH  12  14
ENDBRANCH   6  12
BRANCH  11  35
HETATM   35  C   UNL     1      -8.609   6.582  70.992  1.00  0.00    -0.134 C  
HETATM   36  C   UNL     1      -9.272   5.197  71.125  1.00  0.00    -0.183 C  
HETATM   37  C   UNL     1      -9.194   4.404  69.830  1.00  0.00    -0.133 C  
HETATM   38  N   UNL     1      -7.801   4.158  69.488  1.00  0.00    -0.053 NA 
HETATM   39  H   UNL     1      -7.718   3.533  68.687  1.00  0.00     0.000 HD 
HETATM   40  C   UNL     1      -7.073   5.407  69.268  1.00  0.00    -0.060 C  
HETATM   41  C   UNL     1      -7.179   6.377  70.441  1.00  0.00    -0.083 C  
ENDBRANCH  11  35
ENDBRANCH   4   5
ENDBRANCH   2   4
TORSDOF 9
ENDMDL
MODEL       76
REMARK 921   NORMALIZED FREE ENERGY PREDICTED BY IDOCK:   -6.02 KCAL/MOL
REMARK 922        TOTAL FREE ENERGY PREDICTED BY IDOCK:  -11.36 KCAL/MOL
REMARK 923 INTER-LIGAND FREE ENERGY PREDICTED BY IDOCK:  -10.27 KCAL/MOL
REMARK 924 INTRA-LIGAND FREE ENERGY PREDICTED BY IDOCK:   -1.08 KCAL/MOL
REMARK 927      BINDING AFFINITY PREDICTED BY RF-SCORE:    0.00 PKD
ROOT
HETATM    1  C   UNL     1     -13.161  14.545  70.628  1.00  0.00    -0.304 C  
HETATM    2  C   UNL     1     -12.198  14.000  69.574  1.00  0.00    -0.308 C  
HETATM    3  C   UNL     1     -10.793  14.550  69.839  1.00  0.00    -0.083 C  
ENDROOT
BRANCH   2   4
HETATM    4  O   UNL     1     -12.265  12.554  69.617  1.00  0.00    -0.216 OA 
BRANCH   4   5
HETATM    5  C   UNL     1     -11.583  11.872  68.631  1.00  0.00    -0.310 A  
HETATM    6  C   UNL     1     -11.270  10.504  68.690  1.00  0.00    -0.270 A  
HETATM    7  C   UNL     1      -9.874   9.864  65.237  1.00  0.00    -0.373 C  
HETATM    8  C   UNL     1     -10.881   9.897  67.498  1.00  0.00    -0.307 A  
HETATM    9  C   UNL     1     -11.237  12.642  67.486  1.00  0.00    -0.335 A  
HETATM   10  C   UNL     1     -10.530  10.639  66.354  1.00  0.00    -0.276 A  
HETATM   11  C   UNL     1     -10.688  12.049  66.330  1.00  0.00    -0.294 A  
BRANCH   6  12
HETATM   12  N   UNL     1     -11.424   9.688  69.827  1.00  0.00    -0.430 NA 
HETATM   13  H   UNL     1     -12.394   9.560  70.116  1.00  0.00     0.000 HD 
BRANCH  12  14
HETATM   14  C   UNL     1     -10.520   9.033  70.616  1.00  0.00    -0.230 A  
HETATM   15  N   UNL     1      -9.586   8.192  70.072  1.00  0.00    -0.171 NA 
HETATM   16  C   UNL     1      -9.884   8.340  72.717  1.00  0.00    -0.263 A  
HETATM   17  N   UNL     1     -10.715   9.096  71.915  1.00  0.00    -0.338 NA 
HETATM   18  C   UNL     1      -8.872   7.248  70.822  1.00  0.00    -0.150 A  
HETATM   19  C   UNL     1      -8.990   7.434  72.310  1.00  0.00    -0.128 A  
HETATM   20 CL   UNL     1      -8.086   6.456  73.392  1.00  0.00    -0.109 Cl 
BRANCH  18  21
HETATM   21  N   UNL     1      -8.176   6.217  70.405  1.00  0.00    -0.119 NA 
HETATM   22  H   UNL     1      -7.162   6.286  70.323  1.00  0.00     0.000 HD 
BRANCH  21  23
HETATM   23  C   UNL     1      -8.826   5.023  70.071  1.00  0.00    -0.102 A  
HETATM   24  C   UNL     1      -9.316   4.203  71.099  1.00  0.00    -0.219 A  
HETATM   25  C   UNL     1      -9.604   2.863  70.868  1.00  0.00    -0.208 A  
HETATM   26  C   UNL     1      -9.481   2.350  69.582  1.00  0.00    -0.115 A  
HETATM   27  C   UNL     1      -9.180   3.200  68.518  1.00  0.00    -0.230 A  
HETATM   28  C   UNL     1      -8.898   4.554  68.754  1.00  0.00    -0.101 A  
BRANCH  28  29
HETATM   29  S   UNL     1      -9.077   5.672  67.354  1.00  0.00    -0.109 S  
HETATM   30  O   UNL     1     -10.420   6.223  67.445  1.00  0.00    -0.180 OA 
HETATM   31  O   UNL     1      -7.948   6.582  67.452  1.00  0.00    -0.110 OA 
BRANCH  29  32
HETATM   32  C   UNL     1      -8.986   4.817  65.788  1.00  0.00    -0.138 C  
HETATM   33  C   UNL     1     -10.359   4.367  65.280  1.00  0.00    -0.220 C  
HETATM   34  C   UNL     1      -8.341   5.744  64.745  1.00  0.00    -0.116 C  
ENDBRANCH  29  32
ENDBRANCH  28  29
ENDBRANCH  21  23
ENDBRANCH  18  21
ENDBRANCH  12  14
ENDBRANCH   6  12
BRANCH  11  35
HETATM   35  C   UNL     1     -10.294  12.827  65.058  1.00  0.00    -0.323 C  
HETATM   36  C   UNL     1     -10.811  12.139  63.778  1.00  0.00    -0.490 C  
HETATM   37  C   UNL     1     -12.261  12.492  63.492  1.00  0.00    -0.558 C  
HETATM   38  N   UNL     1     -12.382  13.924  63.262  1.00  0.00    -1.148 NA 
HETATM   39  H   UNL     1     -13.321  14.175  62.955  1.00  0.00     0.000 HD 
HETATM   40  C   UNL     1     -11.980  14.693  64.439  1.00  0.00    -0.437 C  
HETATM   41  C   UNL     1     -10.581  14.341  64.936  1.00  0.00    -0.452 C  
ENDBRANCH  11  35
ENDBRANCH   4   5
ENDBRANCH   2   4
TORSDOF 9
ENDMDL
MODEL       77
REMARK 921   NORMALIZED FREE ENERGY PREDICTED BY IDOCK:   -6.02 KCAL/MOL
REMARK 922        TOTAL FREE ENERGY PREDICTED BY IDOCK:  -11.35 KCAL/MOL
REMARK 923 INTER-LIGAND FREE ENERGY PREDICTED BY IDOCK:   -9.07 KCAL/MOL
REMARK 924 INTRA-LIGAND FREE ENERGY PREDICTED BY IDOCK:   -2.28 KCAL/MOL
REMARK 927      BINDING AFFINITY PREDICTED BY RF-SCORE:    0.00 PKD
ROOT
HETATM    1  C   UNL     1     -12.204  13.175  63.419  1.00  0.00    -0.521 C  
HETATM    2  C   UNL     1     -11.569  11.855  63.854  1.00  0.00    -0.425 C  
HETATM    3  C   UNL     1     -10.086  11.856  63.469  1.00  0.00    -0.464 C  
ENDROOT
BRANCH   2   4
HETATM    4  O   UNL     1     -11.791  11.703  65.277  1.00  0.00    -0.168 OA 
BRANCH   4   5
HETATM    5  C   UNL     1     -10.674  11.734  66.085  1.00  0.00    -0.277 A  
HETATM    6  C   UNL     1      -9.843  10.627  66.325  1.00  0.00    -0.214 A  
HETATM    7  C   UNL     1      -6.988  12.186  68.250  1.00  0.00    -0.080 C  
HETATM    8  C   UNL     1      -8.592  10.890  66.881  1.00  0.00    -0.136 A  
HETATM    9  C   UNL     1     -10.365  13.003  66.650  1.00  0.00    -0.263 A  
HETATM   10  C   UNL     1      -8.267  12.136  67.450  1.00  0.00    -0.175 A  
HETATM   11  C   UNL     1      -9.167  13.230  67.359  1.00  0.00    -0.216 A  
BRANCH   6  12
HETATM   12  N   UNL     1     -10.133   9.302  65.949  1.00  0.00    -0.367 NA 
HETATM   13  H   UNL     1     -10.729   9.228  65.124  1.00  0.00     0.000 HD 
BRANCH  12  14
HETATM   14  C   UNL     1      -9.766   8.097  66.478  1.00  0.00    -0.239 A  
HETATM   15  N   UNL     1     -10.174   7.721  67.731  1.00  0.00    -0.199 NA 
HETATM   16  C   UNL     1      -8.387   6.255  66.403  1.00  0.00    -0.118 A  
HETATM   17  N   UNL     1      -8.856   7.414  65.818  1.00  0.00    -0.121 NA 
HETATM   18  C   UNL     1      -9.574   6.684  68.455  1.00  0.00    -0.125 A  
HETATM   19  C   UNL     1      -8.650   5.822  67.640  1.00  0.00    -0.101 A  
HETATM   20 CL   UNL     1      -7.921   4.425  68.319  1.00  0.00    -0.079 Cl 
BRANCH  18  21
HETATM   21  N   UNL     1      -9.669   6.408  69.735  1.00  0.00    -0.154 NA 
HETATM   22  H   UNL     1     -10.215   5.604  70.044  1.00  0.00     0.000 HD 
BRANCH  21  23
HETATM   23  C   UNL     1      -9.022   7.218  70.675  1.00  0.00    -0.156 A  
HETATM   24  C   UNL     1      -7.634   7.402  70.577  1.00  0.00    -0.087 A  
HETATM   25  C   UNL     1      -6.894   7.849  71.666  1.00  0.00    -0.057 A  
HETATM   26  C   UNL     1      -7.549   8.194  72.842  1.00  0.00    -0.181 A  
HETATM   27  C   UNL     1      -8.943   8.197  72.888  1.00  0.00    -0.328 A  
HETATM   28  C   UNL     1      -9.687   7.753  71.785  1.00  0.00    -0.164 A  
BRANCH  28  29
HETATM   29  S   UNL     1     -11.401   8.299  71.694  1.00  0.00    -0.292 S  
HETATM   30  O   UNL     1     -12.021   7.514  70.639  1.00  0.00    -0.241 OA 
HETATM   31  O   UNL     1     -11.911   8.163  73.049  1.00  0.00    -0.283 OA 
BRANCH  29  32
HETATM   32  C   UNL     1     -11.542  10.010  71.200  1.00  0.00    -0.378 C  
HETATM   33  C   UNL     1     -10.861  10.297  69.858  1.00  0.00    -0.355 C  
HETATM   34  C   UNL     1     -13.030  10.384  71.101  1.00  0.00    -0.506 C  
ENDBRANCH  29  32
ENDBRANCH  28  29
ENDBRANCH  21  23
ENDBRANCH  18  21
ENDBRANCH  12  14
ENDBRANCH   6  12
BRANCH  11  35
HETATM   35  C   UNL     1      -8.774  14.580  67.993  1.00  0.00    -0.167 C  
HETATM   36  C   UNL     1      -8.147  15.540  66.962  1.00  0.00    -0.272 C  
HETATM   37  C   UNL     1      -9.204  16.276  66.156  1.00  0.00    -0.341 C  
HETATM   38  N   UNL     1     -10.011  17.101  67.043  1.00  0.00    -0.277 NA 
HETATM   39  H   UNL     1     -10.655  17.694  66.519  1.00  0.00     0.000 HD 
HETATM   40  C   UNL     1     -10.718  16.292  68.035  1.00  0.00    -0.331 C  
HETATM   41  C   UNL     1      -9.791  15.382  68.837  1.00  0.00    -0.216 C  
ENDBRANCH  11  35
ENDBRANCH   4   5
ENDBRANCH   2   4
TORSDOF 9
ENDMDL
MODEL       78
REMARK 921   NORMALIZED FREE ENERGY PREDICTED BY IDOCK:   -6.01 KCAL/MOL
REMARK 922        TOTAL FREE ENERGY PREDICTED BY IDOCK:  -11.35 KCAL/MOL
REMARK 923 INTER-LIGAND FREE ENERGY PREDICTED BY IDOCK:   -9.81 KCAL/MOL
REMARK 924 INTRA-LIGAND FREE ENERGY PREDICTED BY IDOCK:   -1.54 KCAL/MOL
REMARK 927      BINDING AFFINITY PREDICTED BY RF-SCORE:    0.00 PKD
ROOT
HETATM    1  C   UNL     1      -9.124   6.161  67.141  1.00  0.00    -0.114 C  
HETATM    2  C   UNL     1      -8.495   7.322  67.912  1.00  0.00    -0.118 C  
HETATM    3  C   UNL     1      -6.989   7.358  67.631  1.00  0.00    -0.079 C  
ENDROOT
BRANCH   2   4
HETATM    4  O   UNL     1      -9.180   8.536  67.522  1.00  0.00    -0.132 OA 
BRANCH   4   5
HETATM    5  C   UNL     1      -9.961   9.143  68.483  1.00  0.00    -0.174 A  
HETATM    6  C   UNL     1     -10.966  10.084  68.205  1.00  0.00    -0.235 A  
HETATM    7  C   UNL     1     -12.582  10.539  71.591  1.00  0.00    -0.498 C  
HETATM    8  C   UNL     1     -11.876  10.352  69.226  1.00  0.00    -0.165 A  
HETATM    9  C   UNL     1      -9.721   8.719  69.819  1.00  0.00    -0.179 A  
HETATM   10  C   UNL     1     -11.656   9.947  70.556  1.00  0.00    -0.386 A  
HETATM   11  C   UNL     1     -10.549   9.123  70.888  1.00  0.00    -0.341 A  
BRANCH   6  12
HETATM   12  N   UNL     1     -11.185  10.686  66.951  1.00  0.00    -0.225 NA 
HETATM   13  H   UNL     1     -11.626  10.069  66.267  1.00  0.00     0.000 HD 
BRANCH  12  14
HETATM   14  C   UNL     1     -10.920  11.939  66.476  1.00  0.00    -0.292 A  
HETATM   15  N   UNL     1     -10.341  12.890  67.275  1.00  0.00    -0.233 NA 
HETATM   16  C   UNL     1     -11.266  13.543  64.861  1.00  0.00    -0.342 A  
HETATM   17  N   UNL     1     -11.421  12.243  65.299  1.00  0.00    -0.342 NA 
HETATM   18  C   UNL     1     -10.354  14.258  66.974  1.00  0.00    -0.267 A  
HETATM   19  C   UNL     1     -10.787  14.572  65.569  1.00  0.00    -0.336 A  
HETATM   20 CL   UNL     1     -10.746  16.181  64.974  1.00  0.00    -0.416 Cl 
BRANCH  18  21
HETATM   21  N   UNL     1     -10.096  15.278  67.759  1.00  0.00    -0.229 NA 
HETATM   22  H   UNL     1     -10.835  15.675  68.339  1.00  0.00     0.000 HD 
BRANCH  21  23
HETATM   23  C   UNL     1      -8.807  15.821  67.798  1.00  0.00    -0.171 A  
HETATM   24  C   UNL     1      -7.715  15.014  67.442  1.00  0.00    -0.227 A  
HETATM   25  C   UNL     1      -6.423  15.350  67.827  1.00  0.00    -0.183 A  
HETATM   26  C   UNL     1      -6.200  16.543  68.506  1.00  0.00    -0.130 A  
HETATM   27  C   UNL     1      -7.249  17.442  68.696  1.00  0.00    -0.237 A  
HETATM   28  C   UNL     1      -8.551  17.103  68.299  1.00  0.00    -0.241 A  
BRANCH  28  29
HETATM   29  S   UNL     1      -9.701  18.467  68.054  1.00  0.00    -0.333 S  
HETATM   30  O   UNL     1     -10.970  17.864  67.676  1.00  0.00    -0.310 OA 
HETATM   31  O   UNL     1      -9.640  19.237  69.285  1.00  0.00    -0.317 OA 
BRANCH  29  32
HETATM   32  C   UNL     1      -9.220  19.524  66.696  1.00  0.00    -0.354 C  
HETATM   33  C   UNL     1     -10.374  20.391  66.184  1.00  0.00    -0.232 C  
HETATM   34  C   UNL     1      -8.068  20.435  67.150  1.00  0.00    -0.378 C  
ENDBRANCH  29  32
ENDBRANCH  28  29
ENDBRANCH  21  23
ENDBRANCH  18  21
ENDBRANCH  12  14
ENDBRANCH   6  12
BRANCH  11  35
HETATM   35  C   UNL     1     -10.343   8.698  72.356  1.00  0.00    -0.317 C  
HETATM   36  C   UNL     1     -11.375   7.642  72.801  1.00  0.00    -0.419 C  
HETATM   37  C   UNL     1     -10.966   6.239  72.383  1.00  0.00    -0.254 C  
HETATM   38  N   UNL     1      -9.712   5.881  73.029  1.00  0.00    -0.154 NA 
HETATM   39  H   UNL     1      -9.470   4.905  72.859  1.00  0.00     0.000 HD 
HETATM   40  C   UNL     1      -8.627   6.777  72.632  1.00  0.00    -0.122 C  
HETATM   41  C   UNL     1      -8.952   8.250  72.862  1.00  0.00    -0.324 C  
ENDBRANCH  11  35
ENDBRANCH   4   5
ENDBRANCH   2   4
TORSDOF 9
ENDMDL
MODEL       79
REMARK 921   NORMALIZED FREE ENERGY PREDICTED BY IDOCK:   -5.97 KCAL/MOL
REMARK 922        TOTAL FREE ENERGY PREDICTED BY IDOCK:  -11.28 KCAL/MOL
REMARK 923 INTER-LIGAND FREE ENERGY PREDICTED BY IDOCK:   -8.90 KCAL/MOL
REMARK 924 INTRA-LIGAND FREE ENERGY PREDICTED BY IDOCK:   -2.38 KCAL/MOL
REMARK 927      BINDING AFFINITY PREDICTED BY RF-SCORE:    0.00 PKD
ROOT
HETATM    1  C   UNL     1     -12.196  10.357  70.885  1.00  0.00    -0.484 C  
HETATM    2  C   UNL     1     -12.394  11.776  70.353  1.00  0.00    -0.277 C  
HETATM    3  C   UNL     1     -12.929  12.668  71.479  1.00  0.00    -0.380 C  
ENDROOT
BRANCH   2   4
HETATM    4  O   UNL     1     -11.129  12.230  69.816  1.00  0.00    -0.049 OA 
BRANCH   4   5
HETATM    5  C   UNL     1     -11.113  12.583  68.482  1.00  0.00    -0.262 A  
HETATM    6  C   UNL     1     -11.377  11.694  67.427  1.00  0.00    -0.300 A  
HETATM    7  C   UNL     1     -11.474  14.014  64.446  1.00  0.00    -0.357 C  
HETATM    8  C   UNL     1     -11.648  12.259  66.183  1.00  0.00    -0.450 A  
HETATM    9  C   UNL     1     -10.850  13.956  68.219  1.00  0.00    -0.263 A  
HETATM   10  C   UNL     1     -11.391  13.614  65.898  1.00  0.00    -0.317 A  
HETATM   11  C   UNL     1     -10.964  14.499  66.923  1.00  0.00    -0.316 A  
BRANCH   6  12
HETATM   12  N   UNL     1     -11.497  10.297  67.558  1.00  0.00    -0.515 NA 
HETATM   13  H   UNL     1     -12.427   9.986  67.841  1.00  0.00     0.000 HD 
BRANCH  12  14
HETATM   14  C   UNL     1     -10.603   9.279  67.377  1.00  0.00    -0.255 A  
HETATM   15  N   UNL     1     -10.522   8.242  68.269  1.00  0.00    -0.191 NA 
HETATM   16  C   UNL     1      -8.724   8.479  66.315  1.00  0.00    -0.142 A  
HETATM   17  N   UNL     1      -9.707   9.442  66.429  1.00  0.00    -0.229 NA 
HETATM   18  C   UNL     1      -9.429   7.369  68.333  1.00  0.00    -0.143 A  
HETATM   19  C   UNL     1      -8.495   7.468  67.159  1.00  0.00    -0.121 A  
HETATM   20 CL   UNL     1      -7.170   6.391  66.995  1.00  0.00    -0.073 Cl 
BRANCH  18  21
HETATM   21  N   UNL     1      -9.095   6.534  69.290  1.00  0.00    -0.137 NA 
HETATM   22  H   UNL     1      -8.559   5.695  69.070  1.00  0.00     0.000 HD 
BRANCH  21  23
HETATM   23  C   UNL     1      -9.476   6.796  70.611  1.00  0.00    -0.169 A  
HETATM   24  C   UNL     1     -10.625   6.175  71.125  1.00  0.00    -0.300 A  
HETATM   25  C   UNL     1     -11.264   6.678  72.253  1.00  0.00    -0.303 A  
HETATM   26  C   UNL     1     -10.712   7.762  72.924  1.00  0.00    -0.446 A  
HETATM   27  C   UNL     1      -9.471   8.266  72.534  1.00  0.00    -0.356 A  
HETATM   28  C   UNL     1      -8.825   7.750  71.401  1.00  0.00    -0.132 A  
BRANCH  28  29
HETATM   29  S   UNL     1      -7.049   8.026  71.289  1.00  0.00    -0.062 S  
HETATM   30  O   UNL     1      -6.551   8.020  72.656  1.00  0.00    -0.067 OA 
HETATM   31  O   UNL     1      -6.566   7.007  70.373  1.00  0.00    -0.049 OA 
BRANCH  29  32
HETATM   32  C   UNL     1      -6.653   9.633  70.616  1.00  0.00    -0.114 C  
HETATM   33  C   UNL     1      -5.412   9.609  69.719  1.00  0.00    -0.033 C  
HETATM   34  C   UNL     1      -7.852  10.147  69.802  1.00  0.00    -0.175 C  
ENDBRANCH  29  32
ENDBRANCH  28  29
ENDBRANCH  21  23
ENDBRANCH  18  21
ENDBRANCH  12  14
ENDBRANCH   6  12
BRANCH  11  35
HETATM   35  C   UNL     1     -10.694  15.977  66.572  1.00  0.00    -0.238 C  
HETATM   36  C   UNL     1     -11.065  16.921  67.733  1.00  0.00    -0.116 C  
HETATM   37  C   UNL     1      -9.955  17.009  68.769  1.00  0.00    -0.293 C  
HETATM   38  N   UNL     1      -8.757  17.566  68.158  1.00  0.00    -0.254 NA 
HETATM   39  H   UNL     1      -8.032  17.743  68.852  1.00  0.00     0.000 HD 
HETATM   40  C   UNL     1      -8.263  16.717  67.074  1.00  0.00    -0.194 C  
HETATM   41  C   UNL     1      -9.321  16.419  66.016  1.00  0.00    -0.335 C  
ENDBRANCH  11  35
ENDBRANCH   4   5
ENDBRANCH   2   4
TORSDOF 9
ENDMDL
MODEL       80
REMARK 921   NORMALIZED FREE ENERGY PREDICTED BY IDOCK:   -5.96 KCAL/MOL
REMARK 922        TOTAL FREE ENERGY PREDICTED BY IDOCK:  -11.27 KCAL/MOL
REMARK 923 INTER-LIGAND FREE ENERGY PREDICTED BY IDOCK:   -9.29 KCAL/MOL
REMARK 924 INTRA-LIGAND FREE ENERGY PREDICTED BY IDOCK:   -1.98 KCAL/MOL
REMARK 927      BINDING AFFINITY PREDICTED BY RF-SCORE:    0.00 PKD
ROOT
HETATM    1  C   UNL     1     -12.585   8.585  72.668  1.00  0.00    -0.257 C  
HETATM    2  C   UNL     1     -11.164   8.136  72.330  1.00  0.00    -0.386 C  
HETATM    3  C   UNL     1     -10.668   7.173  73.414  1.00  0.00    -0.410 C  
ENDROOT
BRANCH   2   4
HETATM    4  O   UNL     1     -11.187   7.548  71.008  1.00  0.00    -0.253 OA 
BRANCH   4   5
HETATM    5  C   UNL     1     -10.294   8.057  70.088  1.00  0.00    -0.215 A  
HETATM    6  C   UNL     1     -10.521   9.213  69.324  1.00  0.00    -0.221 A  
HETATM    7  C   UNL     1      -7.175   9.716  67.639  1.00  0.00    -0.089 C  
HETATM    8  C   UNL     1      -9.413   9.779  68.696  1.00  0.00    -0.151 A  
HETATM    9  C   UNL     1      -9.064   7.351  69.979  1.00  0.00    -0.148 A  
HETATM   10  C   UNL     1      -8.187   9.097  68.572  1.00  0.00    -0.115 A  
HETATM   11  C   UNL     1      -7.990   7.843  69.207  1.00  0.00    -0.117 A  
BRANCH   6  12
HETATM   12  N   UNL     1     -11.749   9.897  69.237  1.00  0.00    -0.460 NA 
HETATM   13  H   UNL     1     -12.503   9.342  68.832  1.00  0.00     0.000 HD 
BRANCH  12  14
HETATM   14  C   UNL     1     -12.121  11.162  69.593  1.00  0.00    -0.336 A  
HETATM   15  N   UNL     1     -12.204  12.163  68.662  1.00  0.00    -0.210 NA 
HETATM   16  C   UNL     1     -12.457  12.717  71.257  1.00  0.00    -0.185 A  
HETATM   17  N   UNL     1     -12.202  11.414  70.882  1.00  0.00    -0.368 NA 
HETATM   18  C   UNL     1     -12.242  13.523  68.997  1.00  0.00    -0.186 A  
HETATM   19  C   UNL     1     -12.488  13.787  70.457  1.00  0.00    -0.339 A  
HETATM   20 CL   UNL     1     -12.695  15.388  71.038  1.00  0.00    -0.467 Cl 
BRANCH  18  21
HETATM   21  N   UNL     1     -12.042  14.568  68.229  1.00  0.00    -0.571 NA 
HETATM   22  H   UNL     1     -12.211  15.507  68.590  1.00  0.00     0.000 HD 
BRANCH  21  23
HETATM   23  C   UNL     1     -11.597  14.394  66.913  1.00  0.00    -0.388 A  
HETATM   24  C   UNL     1     -12.525  14.042  65.920  1.00  0.00    -0.513 A  
HETATM   25  C   UNL     1     -12.107  13.482  64.719  1.00  0.00    -0.442 A  
HETATM   26  C   UNL     1     -10.748  13.343  64.466  1.00  0.00    -0.434 A  
HETATM   27  C   UNL     1      -9.815  13.864  65.363  1.00  0.00    -0.193 A  
HETATM   28  C   UNL     1     -10.240  14.436  66.571  1.00  0.00    -0.274 A  
BRANCH  28  29
HETATM   29  S   UNL     1      -9.089  15.557  67.383  1.00  0.00    -0.204 S  
HETATM   30  O   UNL     1      -9.869  16.306  68.355  1.00  0.00    -0.220 OA 
HETATM   31  O   UNL     1      -8.013  14.707  67.866  1.00  0.00    -0.123 OA 
BRANCH  29  32
HETATM   32  C   UNL     1      -8.403  16.759  66.253  1.00  0.00    -0.318 C  
HETATM   33  C   UNL     1      -9.022  18.149  66.419  1.00  0.00    -0.256 C  
HETATM   34  C   UNL     1      -6.885  16.853  66.479  1.00  0.00    -0.249 C  
ENDBRANCH  29  32
ENDBRANCH  28  29
ENDBRANCH  21  23
ENDBRANCH  18  21
ENDBRANCH  12  14
ENDBRANCH   6  12
BRANCH  11  35
HETATM   35  C   UNL     1      -6.633   7.127  69.049  1.00  0.00    -0.044 C  
HETATM   36  C   UNL     1      -5.556   7.724  69.977  1.00  0.00    -0.023 C  
HETATM   37  C   UNL     1      -5.642   7.156  71.384  1.00  0.00    -0.035 C  
HETATM   38  N   UNL     1      -5.401   5.721  71.350  1.00  0.00    -0.016 NA 
HETATM   39  H   UNL     1      -5.340   5.330  72.290  1.00  0.00     0.000 HD 
HETATM   40  C   UNL     1      -6.407   5.026  70.547  1.00  0.00    -0.026 C  
HETATM   41  C   UNL     1      -6.537   5.586  69.134  1.00  0.00    -0.047 C  
ENDBRANCH  11  35
ENDBRANCH   4   5
ENDBRANCH   2   4
TORSDOF 9
ENDMDL
MODEL       81
REMARK 921   NORMALIZED FREE ENERGY PREDICTED BY IDOCK:   -5.96 KCAL/MOL
REMARK 922        TOTAL FREE ENERGY PREDICTED BY IDOCK:  -11.26 KCAL/MOL
REMARK 923 INTER-LIGAND FREE ENERGY PREDICTED BY IDOCK:   -9.53 KCAL/MOL
REMARK 924 INTRA-LIGAND FREE ENERGY PREDICTED BY IDOCK:   -1.73 KCAL/MOL
REMARK 927      BINDING AFFINITY PREDICTED BY RF-SCORE:    0.00 PKD
ROOT
HETATM    1  C   UNL     1     -10.900   9.863  69.980  1.00  0.00    -0.339 C  
HETATM    2  C   UNL     1     -10.765  10.830  68.804  1.00  0.00    -0.208 C  
HETATM    3  C   UNL     1      -9.283  11.139  68.572  1.00  0.00    -0.183 C  
ENDROOT
BRANCH   2   4
HETATM    4  O   UNL     1     -11.411  10.227  67.657  1.00  0.00    -0.345 OA 
BRANCH   4   5
HETATM    5  C   UNL     1     -10.600   9.896  66.592  1.00  0.00    -0.115 A  
HETATM    6  C   UNL     1     -10.395  10.717  65.471  1.00  0.00    -0.241 A  
HETATM    7  C   UNL     1      -7.662   8.869  63.627  1.00  0.00    -0.129 C  
HETATM    8  C   UNL     1      -9.312  10.404  64.652  1.00  0.00    -0.304 A  
HETATM    9  C   UNL     1      -9.918   8.653  66.709  1.00  0.00    -0.343 A  
HETATM   10  C   UNL     1      -8.625   9.178  64.747  1.00  0.00    -0.209 A  
HETATM   11  C   UNL     1      -8.930   8.257  65.783  1.00  0.00    -0.185 A  
BRANCH   6  12
HETATM   12  N   UNL     1     -11.126  11.884  65.180  1.00  0.00    -0.311 NA 
HETATM   13  H   UNL     1     -11.739  11.797  64.368  1.00  0.00     0.000 HD 
BRANCH  12  14
HETATM   14  C   UNL     1     -11.172  13.112  65.778  1.00  0.00    -0.286 A  
HETATM   15  N   UNL     1     -10.297  14.104  65.424  1.00  0.00    -0.344 NA 
HETATM   16  C   UNL     1     -11.917  14.424  67.517  1.00  0.00    -0.354 A  
HETATM   17  N   UNL     1     -11.953  13.227  66.830  1.00  0.00    -0.390 NA 
HETATM   18  C   UNL     1     -10.065  15.240  66.210  1.00  0.00    -0.281 A  
HETATM   19  C   UNL     1     -11.064  15.433  67.318  1.00  0.00    -0.302 A  
HETATM   20 CL   UNL     1     -11.021  16.835  68.307  1.00  0.00    -0.362 Cl 
BRANCH  18  21
HETATM   21  N   UNL     1      -9.080  16.105  66.140  1.00  0.00    -0.332 NA 
HETATM   22  H   UNL     1      -9.094  16.836  65.429  1.00  0.00     0.000 HD 
BRANCH  21  23
HETATM   23  C   UNL     1      -8.012  16.024  67.041  1.00  0.00    -0.227 A  
HETATM   24  C   UNL     1      -7.541  14.760  67.429  1.00  0.00    -0.228 A  
HETATM   25  C   UNL     1      -6.780  14.604  68.581  1.00  0.00    -0.086 A  
HETATM   26  C   UNL     1      -6.413  15.726  69.315  1.00  0.00    -0.154 A  
HETATM   27  C   UNL     1      -6.713  17.001  68.835  1.00  0.00    -0.203 A  
HETATM   28  C   UNL     1      -7.475  17.155  67.667  1.00  0.00    -0.169 A  
BRANCH  28  29
HETATM   29  S   UNL     1      -7.345  18.739  66.821  1.00  0.00    -0.223 S  
HETATM   30  O   UNL     1      -6.105  19.344  67.283  1.00  0.00    -0.185 OA 
HETATM   31  O   UNL     1      -7.475  18.423  65.408  1.00  0.00    -0.494 OA 
BRANCH  29  32
HETATM   32  C   UNL     1      -8.656  19.862  67.278  1.00  0.00    -0.325 C  
HETATM   33  C   UNL     1      -9.886  19.734  66.374  1.00  0.00    -0.556 C  
HETATM   34  C   UNL     1      -9.070  19.588  68.733  1.00  0.00    -0.381 C  
ENDBRANCH  29  32
ENDBRANCH  28  29
ENDBRANCH  21  23
ENDBRANCH  18  21
ENDBRANCH  12  14
ENDBRANCH   6  12
BRANCH  11  35
HETATM   35  C   UNL     1      -8.155   6.925  65.855  1.00  0.00    -0.119 C  
HETATM   36  C   UNL     1      -7.366   6.787  67.172  1.00  0.00    -0.086 C  
HETATM   37  C   UNL     1      -8.243   6.288  68.309  1.00  0.00    -0.115 C  
HETATM   38  N   UNL     1      -8.745   4.959  67.994  1.00  0.00    -0.102 NA 
HETATM   39  H   UNL     1      -9.242   4.550  68.785  1.00  0.00     0.000 HD 
HETATM   40  C   UNL     1      -9.573   4.968  66.789  1.00  0.00    -0.155 C  
HETATM   41  C   UNL     1      -8.869   5.580  65.582  1.00  0.00    -0.154 C  
ENDBRANCH  11  35
ENDBRANCH   4   5
ENDBRANCH   2   4
TORSDOF 9
ENDMDL
MODEL       82
REMARK 921   NORMALIZED FREE ENERGY PREDICTED BY IDOCK:   -5.91 KCAL/MOL
REMARK 922        TOTAL FREE ENERGY PREDICTED BY IDOCK:  -11.19 KCAL/MOL
REMARK 923 INTER-LIGAND FREE ENERGY PREDICTED BY IDOCK:   -9.68 KCAL/MOL
REMARK 924 INTRA-LIGAND FREE ENERGY PREDICTED BY IDOCK:   -1.52 KCAL/MOL
REMARK 927      BINDING AFFINITY PREDICTED BY RF-SCORE:    0.00 PKD
ROOT
HETATM    1  C   UNL     1     -13.463   7.166  71.560  1.00  0.00    -0.411 C  
HETATM    2  C   UNL     1     -11.966   6.969  71.325  1.00  0.00    -0.346 C  
HETATM    3  C   UNL     1     -11.452   5.858  72.246  1.00  0.00    -0.351 C  
ENDROOT
BRANCH   2   4
HETATM    4  O   UNL     1     -11.773   6.683  69.919  1.00  0.00    -0.361 OA 
BRANCH   4   5
HETATM    5  C   UNL     1     -10.579   7.094  69.362  1.00  0.00    -0.233 A  
HETATM    6  C   UNL     1     -10.283   8.425  69.024  1.00  0.00    -0.207 A  
HETATM    7  C   UNL     1      -6.628   8.206  68.085  1.00  0.00    -0.057 C  
HETATM    8  C   UNL     1      -8.944   8.730  68.787  1.00  0.00    -0.138 A  
HETATM    9  C   UNL     1      -9.608   6.071  69.181  1.00  0.00    -0.156 A  
HETATM   10  C   UNL     1      -7.966   7.734  68.600  1.00  0.00    -0.122 A  
HETATM   11  C   UNL     1      -8.287   6.363  68.780  1.00  0.00    -0.121 A  
BRANCH   6  12
HETATM   12  N   UNL     1     -11.212   9.483  69.016  1.00  0.00    -0.446 NA 
HETATM   13  H   UNL     1     -11.976   9.368  69.683  1.00  0.00     0.000 HD 
BRANCH  12  14
HETATM   14  C   UNL     1     -11.284  10.635  68.283  1.00  0.00    -0.301 A  
HETATM   15  N   UNL     1     -11.512  11.843  68.887  1.00  0.00    -0.274 NA 
HETATM   16  C   UNL     1     -11.517  11.646  66.228  1.00  0.00    -0.145 A  
HETATM   17  N   UNL     1     -11.321  10.502  66.976  1.00  0.00    -0.226 NA 
HETATM   18  C   UNL     1     -11.931  12.983  68.189  1.00  0.00    -0.280 A  
HETATM   19  C   UNL     1     -11.820  12.861  66.695  1.00  0.00    -0.395 A  
HETATM   20 CL   UNL     1     -12.164  14.198  65.675  1.00  0.00    -0.429 Cl 
BRANCH  18  21
HETATM   21  N   UNL     1     -12.444  14.096  68.659  1.00  0.00    -0.470 NA 
HETATM   22  H   UNL     1     -13.061  14.660  68.074  1.00  0.00     0.000 HD 
BRANCH  21  23
HETATM   23  C   UNL     1     -12.145  14.509  69.962  1.00  0.00    -0.339 A  
HETATM   24  C   UNL     1     -12.559  13.714  71.042  1.00  0.00    -0.441 A  
HETATM   25  C   UNL     1     -12.645  14.241  72.325  1.00  0.00    -0.333 A  
HETATM   26  C   UNL     1     -12.241  15.551  72.555  1.00  0.00    -0.512 A  
HETATM   27  C   UNL     1     -11.649  16.288  71.528  1.00  0.00    -0.435 A  
HETATM   28  C   UNL     1     -11.556  15.749  70.236  1.00  0.00    -0.365 A  
BRANCH  28  29
HETATM   29  S   UNL     1     -10.323  16.479  69.146  1.00  0.00    -0.331 S  
HETATM   30  O   UNL     1     -10.769  16.204  67.789  1.00  0.00    -0.311 OA 
HETATM   31  O   UNL     1     -10.217  17.865  69.571  1.00  0.00    -0.147 OA 
BRANCH  29  32
HETATM   32  C   UNL     1      -8.723  15.705  69.317  1.00  0.00    -0.267 C  
HETATM   33  C   UNL     1      -8.583  14.439  68.467  1.00  0.00    -0.175 C  
HETATM   34  C   UNL     1      -7.631  16.708  68.910  1.00  0.00    -0.240 C  
ENDBRANCH  29  32
ENDBRANCH  28  29
ENDBRANCH  21  23
ENDBRANCH  18  21
ENDBRANCH  12  14
ENDBRANCH   6  12
BRANCH  11  35
HETATM   35  C   UNL     1      -7.188   5.301  68.567  1.00  0.00    -0.063 C  
HETATM   36  C   UNL     1      -6.628   4.776  69.904  1.00  0.00    -0.036 C  
HETATM   37  C   UNL     1      -7.506   3.686  70.497  1.00  0.00    -0.041 C  
HETATM   38  N   UNL     1      -7.546   2.544  69.596  1.00  0.00    -0.043 NA 
HETATM   39  H   UNL     1      -8.033   1.753  70.017  1.00  0.00     0.000 HD 
HETATM   40  C   UNL     1      -8.126   2.901  68.302  1.00  0.00    -0.061 C  
HETATM   41  C   UNL     1      -7.431   4.088  67.641  1.00  0.00    -0.068 C  
ENDBRANCH  11  35
ENDBRANCH   4   5
ENDBRANCH   2   4
TORSDOF 9
ENDMDL
MODEL       83
REMARK 921   NORMALIZED FREE ENERGY PREDICTED BY IDOCK:   -5.87 KCAL/MOL
REMARK 922        TOTAL FREE ENERGY PREDICTED BY IDOCK:  -11.12 KCAL/MOL
REMARK 923 INTER-LIGAND FREE ENERGY PREDICTED BY IDOCK:   -9.04 KCAL/MOL
REMARK 924 INTRA-LIGAND FREE ENERGY PREDICTED BY IDOCK:   -2.09 KCAL/MOL
REMARK 927      BINDING AFFINITY PREDICTED BY RF-SCORE:    0.00 PKD
ROOT
HETATM    1  C   UNL     1     -10.490  10.934  64.177  1.00  0.00    -0.397 C  
HETATM    2  C   UNL     1      -9.389   9.891  63.988  1.00  0.00    -0.223 C  
HETATM    3  C   UNL     1      -9.200   9.621  62.492  1.00  0.00    -0.226 C  
ENDROOT
BRANCH   2   4
HETATM    4  O   UNL     1      -8.193  10.386  64.637  1.00  0.00    -0.166 OA 
BRANCH   4   5
HETATM    5  C   UNL     1      -7.852   9.800  65.838  1.00  0.00    -0.108 A  
HETATM    6  C   UNL     1      -7.144  10.451  66.862  1.00  0.00    -0.094 A  
HETATM    7  C   UNL     1      -7.319   7.929  69.671  1.00  0.00    -0.090 C  
HETATM    8  C   UNL     1      -7.165   9.852  68.119  1.00  0.00    -0.078 A  
HETATM    9  C   UNL     1      -8.308   8.464  66.015  1.00  0.00    -0.128 A  
HETATM   10  C   UNL     1      -7.608   8.530  68.317  1.00  0.00    -0.097 A  
HETATM   11  C   UNL     1      -8.182   7.793  67.249  1.00  0.00    -0.119 A  
BRANCH   6  12
HETATM   12  N   UNL     1      -6.517  11.705  66.739  1.00  0.00    -0.267 NA 
HETATM   13  H   UNL     1      -5.854  11.762  65.964  1.00  0.00     0.000 HD 
BRANCH  12  14
HETATM   14  C   UNL     1      -6.628  12.861  67.459  1.00  0.00    -0.157 A  
HETATM   15  N   UNL     1      -7.854  13.359  67.813  1.00  0.00    -0.143 NA 
HETATM   16  C   UNL     1      -5.646  14.791  68.242  1.00  0.00    -0.117 A  
HETATM   17  N   UNL     1      -5.528  13.563  67.623  1.00  0.00    -0.310 NA 
HETATM   18  C   UNL     1      -8.053  14.678  68.240  1.00  0.00    -0.143 A  
HETATM   19  C   UNL     1      -6.783  15.415  68.566  1.00  0.00    -0.113 A  
HETATM   20 CL   UNL     1      -6.830  16.998  69.227  1.00  0.00    -0.236 Cl 
BRANCH  18  21
HETATM   21  N   UNL     1      -9.174  15.354  68.337  1.00  0.00    -0.187 NA 
HETATM   22  H   UNL     1      -9.350  15.936  69.156  1.00  0.00     0.000 HD 
BRANCH  21  23
HETATM   23  C   UNL     1     -10.128  15.275  67.316  1.00  0.00    -0.236 A  
HETATM   24  C   UNL     1     -10.912  14.117  67.202  1.00  0.00    -0.304 A  
HETATM   25  C   UNL     1     -11.574  13.815  66.018  1.00  0.00    -0.361 A  
HETATM   26  C   UNL     1     -11.521  14.712  64.958  1.00  0.00    -0.386 A  
HETATM   27  C   UNL     1     -10.905  15.953  65.125  1.00  0.00    -0.438 A  
HETATM   28  C   UNL     1     -10.246  16.258  66.325  1.00  0.00    -0.327 A  
BRANCH  28  29
HETATM   29  S   UNL     1      -9.983  18.003  66.681  1.00  0.00    -0.381 S  
HETATM   30  O   UNL     1     -10.570  18.736  65.570  1.00  0.00    -0.596 OA 
HETATM   31  O   UNL     1     -10.535  18.204  68.011  1.00  0.00    -0.377 OA 
BRANCH  29  32
HETATM   32  C   UNL     1      -8.250  18.435  66.712  1.00  0.00    -0.253 C  
HETATM   33  C   UNL     1      -7.395  17.513  65.838  1.00  0.00    -0.180 C  
HETATM   34  C   UNL     1      -8.084  19.885  66.229  1.00  0.00    -0.352 C  
ENDBRANCH  29  32
ENDBRANCH  28  29
ENDBRANCH  21  23
ENDBRANCH  18  21
ENDBRANCH  12  14
ENDBRANCH   6  12
BRANCH  11  35
HETATM   35  C   UNL     1      -8.657   6.347  67.505  1.00  0.00    -0.115 C  
HETATM   36  C   UNL     1     -10.116   6.299  68.000  1.00  0.00    -0.174 C  
HETATM   37  C   UNL     1     -11.108   6.375  66.851  1.00  0.00    -0.272 C  
HETATM   38  N   UNL     1     -10.936   5.223  65.978  1.00  0.00    -0.775 NA 
HETATM   39  H   UNL     1     -11.661   5.186  65.262  1.00  0.00     0.000 HD 
HETATM   40  C   UNL     1      -9.599   5.192  65.386  1.00  0.00     0.004 C  
HETATM   41  C   UNL     1      -8.483   5.255  66.424  1.00  0.00    -0.113 C  
ENDBRANCH  11  35
ENDBRANCH   4   5
ENDBRANCH   2   4
TORSDOF 9
ENDMDL
MODEL       84
REMARK 921   NORMALIZED FREE ENERGY PREDICTED BY IDOCK:   -5.82 KCAL/MOL
REMARK 922        TOTAL FREE ENERGY PREDICTED BY IDOCK:  -11.05 KCAL/MOL
REMARK 923 INTER-LIGAND FREE ENERGY PREDICTED BY IDOCK:   -9.77 KCAL/MOL
REMARK 924 INTRA-LIGAND FREE ENERGY PREDICTED BY IDOCK:   -1.28 KCAL/MOL
REMARK 927      BINDING AFFINITY PREDICTED BY RF-SCORE:    0.00 PKD
ROOT
HETATM    1  C   UNL     1     -11.946  14.701  66.577  1.00  0.00    -0.284 C  
HETATM    2  C   UNL     1     -11.140  14.018  65.472  1.00  0.00    -0.309 C  
HETATM    3  C   UNL     1     -11.995  13.930  64.204  1.00  0.00    -0.464 C  
ENDROOT
BRANCH   2   4
HETATM    4  O   UNL     1      -9.916  14.769  65.288  1.00  0.00    -0.361 OA 
BRANCH   4   5
HETATM    5  C   UNL     1      -9.220  15.109  66.429  1.00  0.00    -0.300 A  
HETATM    6  C   UNL     1      -8.779  14.183  67.389  1.00  0.00    -0.210 A  
HETATM    7  C   UNL     1      -6.660  16.344  69.654  1.00  0.00    -0.180 C  
HETATM    8  C   UNL     1      -7.819  14.628  68.297  1.00  0.00    -0.128 A  
HETATM    9  C   UNL     1      -8.918  16.492  66.569  1.00  0.00    -0.312 A  
HETATM   10  C   UNL     1      -7.508  15.993  68.456  1.00  0.00    -0.156 A  
HETATM   11  C   UNL     1      -8.073  16.968  67.593  1.00  0.00    -0.190 A  
BRANCH   6  12
HETATM   12  N   UNL     1      -9.148  12.825  67.432  1.00  0.00    -0.184 NA 
HETATM   13  H   UNL     1      -8.943  12.314  66.573  1.00  0.00     0.000 HD 
BRANCH  12  14
HETATM   14  C   UNL     1      -9.727  12.063  68.407  1.00  0.00    -0.199 A  
HETATM   15  N   UNL     1      -9.093  10.958  68.911  1.00  0.00    -0.167 NA 
HETATM   16  C   UNL     1     -11.619  11.482  69.583  1.00  0.00    -0.333 A  
HETATM   17  N   UNL     1     -10.985  12.322  68.690  1.00  0.00    -0.228 NA 
HETATM   18  C   UNL     1      -9.752   9.961  69.642  1.00  0.00    -0.229 A  
HETATM   19  C   UNL     1     -11.137  10.341  70.085  1.00  0.00    -0.319 A  
HETATM   20 CL   UNL     1     -12.052   9.302  71.099  1.00  0.00    -0.370 Cl 
BRANCH  18  21
HETATM   21  N   UNL     1      -9.345   8.748  69.935  1.00  0.00    -0.158 NA 
HETATM   22  H   UNL     1      -8.787   8.585  70.773  1.00  0.00     0.000 HD 
BRANCH  21  23
HETATM   23  C   UNL     1      -9.677   7.678  69.096  1.00  0.00    -0.164 A  
HETATM   24  C   UNL     1      -9.573   7.843  67.706  1.00  0.00    -0.174 A  
HETATM   25  C   UNL     1     -10.242   6.992  66.834  1.00  0.00    -0.318 A  
HETATM   26  C   UNL     1     -10.958   5.916  67.344  1.00  0.00    -0.258 A  
HETATM   27  C   UNL     1     -10.911   5.631  68.709  1.00  0.00    -0.210 A  
HETATM   28  C   UNL     1     -10.228   6.488  69.585  1.00  0.00    -0.187 A  
BRANCH  28  29
HETATM   29  S   UNL     1      -9.735   5.793  71.172  1.00  0.00    -0.173 S  
HETATM   30  O   UNL     1      -9.595   4.361  70.962  1.00  0.00    -0.152 OA 
HETATM   31  O   UNL     1      -8.560   6.553  71.567  1.00  0.00    -0.128 OA 
BRANCH  29  32
HETATM   32  C   UNL     1     -10.994   5.999  72.422  1.00  0.00    -0.260 C  
HETATM   33  C   UNL     1     -11.195   4.742  73.273  1.00  0.00    -0.421 C  
HETATM   34  C   UNL     1     -10.607   7.172  73.339  1.00  0.00    -0.424 C  
ENDBRANCH  29  32
ENDBRANCH  28  29
ENDBRANCH  21  23
ENDBRANCH  18  21
ENDBRANCH  12  14
ENDBRANCH   6  12
BRANCH  11  35
HETATM   35  C   UNL     1      -7.706  18.453  67.798  1.00  0.00    -0.240 C  
HETATM   36  C   UNL     1      -6.515  18.879  66.917  1.00  0.00    -0.198 C  
HETATM   37  C   UNL     1      -6.952  19.227  65.504  1.00  0.00    -0.232 C  
HETATM   38  N   UNL     1      -7.861  20.363  65.537  1.00  0.00    -0.467 NA 
HETATM   39  H   UNL     1      -8.082  20.692  64.597  1.00  0.00     0.000 HD 
HETATM   40  C   UNL     1      -9.074  20.059  66.294  1.00  0.00    -0.317 C  
HETATM   41  C   UNL     1      -8.788  19.554  67.705  1.00  0.00    -0.370 C  
ENDBRANCH  11  35
ENDBRANCH   4   5
ENDBRANCH   2   4
TORSDOF 9
ENDMDL
MODEL       85
REMARK 921   NORMALIZED FREE ENERGY PREDICTED BY IDOCK:   -5.81 KCAL/MOL
REMARK 922        TOTAL FREE ENERGY PREDICTED BY IDOCK:  -11.04 KCAL/MOL
REMARK 923 INTER-LIGAND FREE ENERGY PREDICTED BY IDOCK:   -9.13 KCAL/MOL
REMARK 924 INTRA-LIGAND FREE ENERGY PREDICTED BY IDOCK:   -1.91 KCAL/MOL
REMARK 927      BINDING AFFINITY PREDICTED BY RF-SCORE:    0.00 PKD
ROOT
HETATM    1  C   UNL     1     -12.790  10.565  70.849  1.00  0.00    -0.485 C  
HETATM    2  C   UNL     1     -12.519   9.325  71.700  1.00  0.00    -0.368 C  
HETATM    3  C   UNL     1     -13.850   8.765  72.215  1.00  0.00    -0.505 C  
ENDROOT
BRANCH   2   4
HETATM    4  O   UNL     1     -11.778   8.383  70.888  1.00  0.00    -0.284 OA 
BRANCH   4   5
HETATM    5  C   UNL     1     -10.514   8.048  71.327  1.00  0.00    -0.200 A  
HETATM    6  C   UNL     1      -9.370   8.836  71.115  1.00  0.00    -0.233 A  
HETATM    7  C   UNL     1      -6.776   7.038  73.196  1.00  0.00    -0.065 C  
HETATM    8  C   UNL     1      -8.251   8.539  71.890  1.00  0.00    -0.201 A  
HETATM    9  C   UNL     1     -10.428   6.840  72.074  1.00  0.00    -0.226 A  
HETATM   10  C   UNL     1      -8.142   7.347  72.633  1.00  0.00    -0.122 A  
HETATM   11  C   UNL     1      -9.240   6.452  72.728  1.00  0.00    -0.139 A  
BRANCH   6  12
HETATM   12  N   UNL     1      -9.308   9.959  70.269  1.00  0.00    -0.380 NA 
HETATM   13  H   UNL     1      -9.660  10.817  70.694  1.00  0.00     0.000 HD 
BRANCH  12  14
HETATM   14  C   UNL     1      -8.866  10.117  68.986  1.00  0.00    -0.166 A  
HETATM   15  N   UNL     1      -8.703  11.364  68.443  1.00  0.00    -0.153 NA 
HETATM   16  C   UNL     1      -8.467   9.192  66.916  1.00  0.00    -0.123 A  
HETATM   17  N   UNL     1      -8.795   9.031  68.247  1.00  0.00    -0.133 NA 
HETATM   18  C   UNL     1      -8.588  11.593  67.066  1.00  0.00    -0.169 A  
HETATM   19  C   UNL     1      -8.355  10.348  66.255  1.00  0.00    -0.146 A  
HETATM   20 CL   UNL     1      -8.062  10.440  64.567  1.00  0.00    -0.148 Cl 
BRANCH  18  21
HETATM   21  N   UNL     1      -8.708  12.720  66.404  1.00  0.00    -0.426 NA 
HETATM   22  H   UNL     1      -8.379  12.783  65.440  1.00  0.00     0.000 HD 
BRANCH  21  23
HETATM   23  C   UNL     1      -9.286  13.835  67.021  1.00  0.00    -0.248 A  
HETATM   24  C   UNL     1      -8.452  14.825  67.562  1.00  0.00    -0.204 A  
HETATM   25  C   UNL     1      -8.931  15.726  68.505  1.00  0.00    -0.194 A  
HETATM   26  C   UNL     1     -10.274  15.696  68.858  1.00  0.00    -0.214 A  
HETATM   27  C   UNL     1     -11.152  14.844  68.188  1.00  0.00    -0.290 A  
HETATM   28  C   UNL     1     -10.666  13.942  67.230  1.00  0.00    -0.284 A  
BRANCH  28  29
HETATM   29  S   UNL     1     -11.860  13.306  66.041  1.00  0.00    -0.417 S  
HETATM   30  O   UNL     1     -11.797  11.857  66.139  1.00  0.00    -0.528 OA 
HETATM   31  O   UNL     1     -13.111  13.969  66.373  1.00  0.00    -0.011 OA 
BRANCH  29  32
HETATM   32  C   UNL     1     -11.426  13.719  64.358  1.00  0.00    -0.372 C  
HETATM   33  C   UNL     1     -12.088  12.793  63.333  1.00  0.00    -0.619 C  
HETATM   34  C   UNL     1     -11.845  15.170  64.071  1.00  0.00    -0.012 C  
ENDBRANCH  29  32
ENDBRANCH  28  29
ENDBRANCH  21  23
ENDBRANCH  18  21
ENDBRANCH  12  14
ENDBRANCH   6  12
BRANCH  11  35
HETATM   35  C   UNL     1      -9.084   5.158  73.552  1.00  0.00    -0.124 C  
HETATM   36  C   UNL     1     -10.342   4.851  74.387  1.00  0.00    -0.325 C  
HETATM   37  C   UNL     1     -11.410   4.147  73.566  1.00  0.00    -0.205 C  
HETATM   38  N   UNL     1     -10.905   2.863  73.103  1.00  0.00    -0.156 NA 
HETATM   39  H   UNL     1     -11.635   2.317  72.646  1.00  0.00     0.000 HD 
HETATM   40  C   UNL     1      -9.738   3.024  72.237  1.00  0.00    -0.154 C  
HETATM   41  C   UNL     1      -8.623   3.844  72.880  1.00  0.00    -0.099 C  
ENDBRANCH  11  35
ENDBRANCH   4   5
ENDBRANCH   2   4
TORSDOF 9
ENDMDL
MODEL       86
REMARK 921   NORMALIZED FREE ENERGY PREDICTED BY IDOCK:   -5.81 KCAL/MOL
REMARK 922        TOTAL FREE ENERGY PREDICTED BY IDOCK:  -11.03 KCAL/MOL
REMARK 923 INTER-LIGAND FREE ENERGY PREDICTED BY IDOCK:   -9.61 KCAL/MOL
REMARK 924 INTRA-LIGAND FREE ENERGY PREDICTED BY IDOCK:   -1.42 KCAL/MOL
REMARK 927      BINDING AFFINITY PREDICTED BY RF-SCORE:    0.00 PKD
ROOT
HETATM    1  C   UNL     1     -11.836  14.383  65.285  1.00  0.00    -0.373 C  
HETATM    2  C   UNL     1     -12.467  12.991  65.305  1.00  0.00    -0.499 C  
HETATM    3  C   UNL     1     -12.103  12.252  64.013  1.00  0.00    -0.563 C  
ENDROOT
BRANCH   2   4
HETATM    4  O   UNL     1     -12.010  12.315  66.500  1.00  0.00    -0.596 OA 
BRANCH   4   5
HETATM    5  C   UNL     1     -11.269  13.063  67.391  1.00  0.00    -0.288 A  
HETATM    6  C   UNL     1      -9.866  13.126  67.392  1.00  0.00    -0.226 A  
HETATM    7  C   UNL     1      -9.199  15.828  69.950  1.00  0.00     0.140 C  
HETATM    8  C   UNL     1      -9.284  14.162  68.120  1.00  0.00    -0.194 A  
HETATM    9  C   UNL     1     -12.026  13.833  68.317  1.00  0.00    -0.392 A  
HETATM   10  C   UNL     1     -10.013  14.935  69.045  1.00  0.00    -0.235 A  
HETATM   11  C   UNL     1     -11.416  14.772  69.176  1.00  0.00    -0.323 A  
BRANCH   6  12
HETATM   12  N   UNL     1      -9.018  12.298  66.632  1.00  0.00    -0.245 NA 
HETATM   13  H   UNL     1      -8.430  12.804  65.970  1.00  0.00     0.000 HD 
BRANCH  12  14
HETATM   14  C   UNL     1      -8.835  10.944  66.613  1.00  0.00    -0.159 A  
HETATM   15  N   UNL     1      -9.375  10.144  67.585  1.00  0.00    -0.147 NA 
HETATM   16  C   UNL     1      -7.679   9.128  65.796  1.00  0.00    -0.094 A  
HETATM   17  N   UNL     1      -7.965  10.477  65.744  1.00  0.00    -0.156 NA 
HETATM   18  C   UNL     1      -8.955   8.828  67.818  1.00  0.00    -0.135 A  
HETATM   19  C   UNL     1      -8.081   8.263  66.733  1.00  0.00    -0.103 A  
HETATM   20 CL   UNL     1      -7.572   6.625  66.776  1.00  0.00    -0.089 Cl 
BRANCH  18  21
HETATM   21  N   UNL     1      -9.176   8.064  68.862  1.00  0.00    -0.147 NA 
HETATM   22  H   UNL     1      -9.700   7.195  68.757  1.00  0.00     0.000 HD 
BRANCH  21  23
HETATM   23  C   UNL     1      -8.692   8.442  70.120  1.00  0.00    -0.136 A  
HETATM   24  C   UNL     1      -7.404   8.991  70.219  1.00  0.00    -0.076 A  
HETATM   25  C   UNL     1      -6.730   9.016  71.435  1.00  0.00    -0.076 A  
HETATM   26  C   UNL     1      -7.372   8.564  72.581  1.00  0.00    -0.065 A  
HETATM   27  C   UNL     1      -8.716   8.195  72.528  1.00  0.00    -0.266 A  
HETATM   28  C   UNL     1      -9.396   8.179  71.301  1.00  0.00    -0.156 A  
BRANCH  28  29
HETATM   29  S   UNL     1     -11.193   8.250  71.373  1.00  0.00    -0.268 S  
HETATM   30  O   UNL     1     -11.671   7.743  70.097  1.00  0.00    -0.056 OA 
HETATM   31  O   UNL     1     -11.551   7.527  72.583  1.00  0.00    -0.317 OA 
BRANCH  29  32
HETATM   32  C   UNL     1     -11.800   9.925  71.510  1.00  0.00    -0.365 C  
HETATM   33  C   UNL     1     -11.705  10.698  70.191  1.00  0.00    -0.417 C  
HETATM   34  C   UNL     1     -13.267   9.893  71.971  1.00  0.00    -0.555 C  
ENDBRANCH  29  32
ENDBRANCH  28  29
ENDBRANCH  21  23
ENDBRANCH  18  21
ENDBRANCH  12  14
ENDBRANCH   6  12
BRANCH  11  35
HETATM   35  C   UNL     1     -12.180  15.638  70.199  1.00  0.00    -0.387 C  
HETATM   36  C   UNL     1     -13.531  15.008  70.592  1.00  0.00    -0.210 C  
HETATM   37  C   UNL     1     -13.371  13.950  71.672  1.00  0.00    -0.362 C  
HETATM   38  N   UNL     1     -12.839  14.561  72.881  1.00  0.00    -0.444 NA 
HETATM   39  H   UNL     1     -12.828  13.901  73.658  1.00  0.00     0.000 HD 
HETATM   40  C   UNL     1     -11.516  15.141  72.654  1.00  0.00    -0.219 C  
HETATM   41  C   UNL     1     -11.488  16.129  71.491  1.00  0.00    -0.412 C  
ENDBRANCH  11  35
ENDBRANCH   4   5
ENDBRANCH   2   4
TORSDOF 9
ENDMDL
MODEL       87
REMARK 921   NORMALIZED FREE ENERGY PREDICTED BY IDOCK:   -5.80 KCAL/MOL
REMARK 922        TOTAL FREE ENERGY PREDICTED BY IDOCK:  -11.02 KCAL/MOL
REMARK 923 INTER-LIGAND FREE ENERGY PREDICTED BY IDOCK:   -8.75 KCAL/MOL
REMARK 924 INTRA-LIGAND FREE ENERGY PREDICTED BY IDOCK:   -2.27 KCAL/MOL
REMARK 927      BINDING AFFINITY PREDICTED BY RF-SCORE:    0.00 PKD
ROOT
HETATM    1  C   UNL     1      -5.667  14.678  69.734  1.00  0.00    -0.104 C  
HETATM    2  C   UNL     1      -6.690  13.794  69.022  1.00  0.00    -0.111 C  
HETATM    3  C   UNL     1      -6.533  12.348  69.507  1.00  0.00    -0.090 C  
ENDROOT
BRANCH   2   4
HETATM    4  O   UNL     1      -8.005  14.344  69.277  1.00  0.00    -0.063 OA 
BRANCH   4   5
HETATM    5  C   UNL     1      -8.713  14.791  68.181  1.00  0.00    -0.168 A  
HETATM    6  C   UNL     1      -9.767  14.084  67.580  1.00  0.00    -0.228 A  
HETATM    7  C   UNL     1     -11.078  16.595  65.078  1.00  0.00    -0.121 C  
HETATM    8  C   UNL     1     -10.587  14.798  66.709  1.00  0.00    -0.302 A  
HETATM    9  C   UNL     1      -8.338  16.075  67.696  1.00  0.00    -0.164 A  
HETATM   10  C   UNL     1     -10.234  16.068  66.213  1.00  0.00    -0.329 A  
HETATM   11  C   UNL     1      -9.076  16.735  66.692  1.00  0.00    -0.275 A  
BRANCH   6  12
HETATM   12  N   UNL     1     -10.119  12.753  67.875  1.00  0.00    -0.224 NA 
HETATM   13  H   UNL     1      -9.854  12.085  67.150  1.00  0.00     0.000 HD 
BRANCH  12  14
HETATM   14  C   UNL     1     -10.747  12.186  68.948  1.00  0.00    -0.175 A  
HETATM   15  N   UNL     1     -10.550  10.868  69.267  1.00  0.00    -0.222 NA 
HETATM   16  C   UNL     1     -12.411  12.296  70.535  1.00  0.00    -0.264 A  
HETATM   17  N   UNL     1     -11.685  12.902  69.529  1.00  0.00    -0.319 NA 
HETATM   18  C   UNL     1     -11.400  10.150  70.119  1.00  0.00    -0.303 A  
HETATM   19  C   UNL     1     -12.365  11.008  70.889  1.00  0.00    -0.402 A  
HETATM   20 CL   UNL     1     -13.398  10.324  72.076  1.00  0.00    -0.525 Cl 
BRANCH  18  21
HETATM   21  N   UNL     1     -11.495   8.851  70.286  1.00  0.00    -0.438 NA 
HETATM   22  H   UNL     1     -12.270   8.338  69.866  1.00  0.00     0.000 HD 
BRANCH  21  23
HETATM   23  C   UNL     1     -10.532   8.171  71.041  1.00  0.00    -0.201 A  
HETATM   24  C   UNL     1     -10.627   8.186  72.441  1.00  0.00    -0.393 A  
HETATM   25  C   UNL     1      -9.528   7.883  73.235  1.00  0.00    -0.350 A  
HETATM   26  C   UNL     1      -8.340   7.483  72.634  1.00  0.00    -0.146 A  
HETATM   27  C   UNL     1      -8.291   7.281  71.255  1.00  0.00    -0.111 A  
HETATM   28  C   UNL     1      -9.406   7.580  70.457  1.00  0.00    -0.160 A  
BRANCH  28  29
HETATM   29  S   UNL     1      -9.476   6.790  68.841  1.00  0.00    -0.126 S  
HETATM   30  O   UNL     1      -8.301   5.938  68.754  1.00  0.00    -0.105 OA 
HETATM   31  O   UNL     1     -10.788   6.167  68.783  1.00  0.00    -0.276 OA 
BRANCH  29  32
HETATM   32  C   UNL     1      -9.345   7.968  67.504  1.00  0.00    -0.147 C  
HETATM   33  C   UNL     1      -8.347   7.533  66.427  1.00  0.00    -0.126 C  
HETATM   34  C   UNL     1     -10.729   8.157  66.862  1.00  0.00    -0.186 C  
ENDBRANCH  29  32
ENDBRANCH  28  29
ENDBRANCH  21  23
ENDBRANCH  18  21
ENDBRANCH  12  14
ENDBRANCH   6  12
BRANCH  11  35
HETATM   35  C   UNL     1      -8.723  18.126  66.125  1.00  0.00    -0.116 C  
HETATM   36  C   UNL     1      -9.493  19.252  66.842  1.00  0.00    -0.386 C  
HETATM   37  C   UNL     1      -8.821  19.660  68.143  1.00  0.00    -0.320 C  
HETATM   38  N   UNL     1      -7.493  20.187  67.865  1.00  0.00    -0.293 NA 
HETATM   39  H   UNL     1      -7.062  20.574  68.704  1.00  0.00     0.000 HD 
HETATM   40  C   UNL     1      -6.636  19.182  67.239  1.00  0.00    -0.193 C  
HETATM   41  C   UNL     1      -7.249  18.570  65.983  1.00  0.00    -0.290 C  
ENDBRANCH  11  35
ENDBRANCH   4   5
ENDBRANCH   2   4
TORSDOF 9
ENDMDL
MODEL       88
REMARK 921   NORMALIZED FREE ENERGY PREDICTED BY IDOCK:   -5.80 KCAL/MOL
REMARK 922        TOTAL FREE ENERGY PREDICTED BY IDOCK:  -11.02 KCAL/MOL
REMARK 923 INTER-LIGAND FREE ENERGY PREDICTED BY IDOCK:   -9.17 KCAL/MOL
REMARK 924 INTRA-LIGAND FREE ENERGY PREDICTED BY IDOCK:   -1.85 KCAL/MOL
REMARK 927      BINDING AFFINITY PREDICTED BY RF-SCORE:    0.00 PKD
ROOT
HETATM    1  C   UNL     1     -12.376   9.002  71.318  1.00  0.00    -0.361 C  
HETATM    2  C   UNL     1     -12.734   7.522  71.441  1.00  0.00    -0.348 C  
HETATM    3  C   UNL     1     -14.255   7.378  71.561  1.00  0.00    -0.571 C  
ENDROOT
BRANCH   2   4
HETATM    4  O   UNL     1     -12.182   6.835  70.292  1.00  0.00    -0.281 OA 
BRANCH   4   5
HETATM    5  C   UNL     1     -10.869   6.425  70.387  1.00  0.00    -0.286 A  
HETATM    6  C   UNL     1      -9.797   7.051  69.728  1.00  0.00    -0.169 A  
HETATM    7  C   UNL     1      -6.811   5.268  71.208  1.00  0.00    -0.052 C  
HETATM    8  C   UNL     1      -8.515   6.737  70.175  1.00  0.00    -0.139 A  
HETATM    9  C   UNL     1     -10.636   5.322  71.254  1.00  0.00    -0.242 A  
HETATM   10  C   UNL     1      -8.261   5.647  71.030  1.00  0.00    -0.121 A  
HETATM   11  C   UNL     1      -9.332   4.896  71.582  1.00  0.00    -0.192 A  
BRANCH   6  12
HETATM   12  N   UNL     1      -9.926   8.042  68.736  1.00  0.00    -0.183 NA 
HETATM   13  H   UNL     1     -10.607   7.815  68.011  1.00  0.00     0.000 HD 
BRANCH  12  14
HETATM   14  C   UNL     1      -9.311   9.250  68.561  1.00  0.00    -0.142 A  
HETATM   15  N   UNL     1      -9.927  10.416  68.931  1.00  0.00    -0.189 NA 
HETATM   16  C   UNL     1      -7.638  10.478  67.565  1.00  0.00    -0.093 A  
HETATM   17  N   UNL     1      -8.204   9.252  67.852  1.00  0.00    -0.115 NA 
HETATM   18  C   UNL     1      -9.517  11.677  68.480  1.00  0.00    -0.173 A  
HETATM   19  C   UNL     1      -8.173  11.679  67.804  1.00  0.00    -0.141 A  
HETATM   20 CL   UNL     1      -7.445  13.148  67.299  1.00  0.00    -0.123 Cl 
BRANCH  18  21
HETATM   21  N   UNL     1     -10.162  12.819  68.522  1.00  0.00    -0.299 NA 
HETATM   22  H   UNL     1     -10.150  13.381  69.374  1.00  0.00     0.000 HD 
BRANCH  21  23
HETATM   23  C   UNL     1     -10.869  13.265  67.400  1.00  0.00    -0.267 A  
HETATM   24  C   UNL     1     -11.645  12.349  66.674  1.00  0.00    -0.447 A  
HETATM   25  C   UNL     1     -12.037  12.621  65.368  1.00  0.00    -0.516 A  
HETATM   26  C   UNL     1     -11.722  13.850  64.802  1.00  0.00    -0.399 A  
HETATM   27  C   UNL     1     -11.118  14.840  65.578  1.00  0.00    -0.346 A  
HETATM   28  C   UNL     1     -10.732  14.565  66.898  1.00  0.00    -0.288 A  
BRANCH  28  29
HETATM   29  S   UNL     1     -10.498  15.983  67.983  1.00  0.00    -0.284 S  
HETATM   30  O   UNL     1     -11.762  16.177  68.675  1.00  0.00    -0.362 OA 
HETATM   31  O   UNL     1      -9.319  15.663  68.771  1.00  0.00    -0.190 OA 
BRANCH  29  32
HETATM   32  C   UNL     1     -10.184  17.488  67.073  1.00  0.00    -0.327 C  
HETATM   33  C   UNL     1     -10.600  18.744  67.845  1.00  0.00    -0.406 C  
HETATM   34  C   UNL     1      -8.685  17.573  66.741  1.00  0.00    -0.278 C  
ENDBRANCH  29  32
ENDBRANCH  28  29
ENDBRANCH  21  23
ENDBRANCH  18  21
ENDBRANCH  12  14
ENDBRANCH   6  12
BRANCH  11  35
HETATM   35  C   UNL     1      -9.013   3.710  72.516  1.00  0.00    -0.127 C  
HETATM   36  C   UNL     1      -9.911   3.707  73.769  1.00  0.00    -0.152 C  
HETATM   37  C   UNL     1     -11.264   3.071  73.495  1.00  0.00    -0.191 C  
HETATM   38  N   UNL     1     -11.084   1.677  73.119  1.00  0.00    -0.153 NA 
HETATM   39  H   UNL     1     -11.979   1.193  73.040  1.00  0.00     0.000 HD 
HETATM   40  C   UNL     1     -10.297   1.548  71.893  1.00  0.00    -0.096 C  
HETATM   41  C   UNL     1      -8.953   2.266  71.966  1.00  0.00    -0.122 C  
ENDBRANCH  11  35
ENDBRANCH   4   5
ENDBRANCH   2   4
TORSDOF 9
ENDMDL
MODEL       89
REMARK 921   NORMALIZED FREE ENERGY PREDICTED BY IDOCK:   -5.78 KCAL/MOL
REMARK 922        TOTAL FREE ENERGY PREDICTED BY IDOCK:  -10.99 KCAL/MOL
REMARK 923 INTER-LIGAND FREE ENERGY PREDICTED BY IDOCK:   -9.59 KCAL/MOL
REMARK 924 INTRA-LIGAND FREE ENERGY PREDICTED BY IDOCK:   -1.40 KCAL/MOL
REMARK 927      BINDING AFFINITY PREDICTED BY RF-SCORE:    0.00 PKD
ROOT
HETATM    1  C   UNL     1      -9.259   8.557  65.789  1.00  0.00    -0.210 C  
HETATM    2  C   UNL     1     -10.230   8.399  66.959  1.00  0.00    -0.307 C  
HETATM    3  C   UNL     1     -10.486   6.908  67.205  1.00  0.00    -0.373 C  
ENDROOT
BRANCH   2   4
HETATM    4  O   UNL     1      -9.661   9.079  68.103  1.00  0.00    -0.146 OA 
BRANCH   4   5
HETATM    5  C   UNL     1     -10.494   9.273  69.185  1.00  0.00    -0.217 A  
HETATM    6  C   UNL     1     -11.667  10.044  69.150  1.00  0.00     0.135 A  
HETATM    7  C   UNL     1     -13.176   9.342  72.544  1.00  0.00    -0.403 C  
HETATM    8  C   UNL     1     -12.561   9.877  70.206  1.00  0.00     0.026 A  
HETATM    9  C   UNL     1     -10.116   8.589  70.374  1.00  0.00    -0.208 A  
HETATM   10  C   UNL     1     -12.207   9.208  71.394  1.00  0.00    -0.407 A  
HETATM   11  C   UNL     1     -10.953   8.555  71.510  1.00  0.00    -0.337 A  
BRANCH   6  12
HETATM   12  N   UNL     1     -12.053  10.880  68.085  1.00  0.00    -0.790 NA 
HETATM   13  H   UNL     1     -13.024  10.759  67.795  1.00  0.00     0.000 HD 
BRANCH  12  14
HETATM   14  C   UNL     1     -11.374  11.825  67.368  1.00  0.00    -0.311 A  
HETATM   15  N   UNL     1     -10.206  12.365  67.838  1.00  0.00    -0.207 NA 
HETATM   16  C   UNL     1     -11.367  13.362  65.655  1.00  0.00    -0.298 A  
HETATM   17  N   UNL     1     -11.988  12.323  66.317  1.00  0.00    -0.626 NA 
HETATM   18  C   UNL     1      -9.653  13.551  67.338  1.00  0.00    -0.227 A  
HETATM   19  C   UNL     1     -10.273  14.020  66.051  1.00  0.00    -0.304 A  
HETATM   20 CL   UNL     1      -9.644  15.382  65.217  1.00  0.00    -0.169 Cl 
BRANCH  18  21
HETATM   21  N   UNL     1      -8.723  14.314  67.863  1.00  0.00    -0.169 NA 
HETATM   22  H   UNL     1      -7.752  14.001  67.872  1.00  0.00     0.000 HD 
BRANCH  21  23
HETATM   23  C   UNL     1      -9.064  15.555  68.411  1.00  0.00    -0.190 A  
HETATM   24  C   UNL     1     -10.257  15.674  69.142  1.00  0.00    -0.233 A  
HETATM   25  C   UNL     1     -10.837  16.917  69.366  1.00  0.00    -0.186 A  
HETATM   26  C   UNL     1     -10.186  18.064  68.927  1.00  0.00    -0.320 A  
HETATM   27  C   UNL     1      -8.910  17.971  68.370  1.00  0.00    -0.300 A  
HETATM   28  C   UNL     1      -8.324  16.715  68.154  1.00  0.00    -0.193 A  
BRANCH  28  29
HETATM   29  S   UNL     1      -6.532  16.680  67.978  1.00  0.00    -0.139 S  
HETATM   30  O   UNL     1      -5.990  16.943  69.301  1.00  0.00    -0.166 OA 
HETATM   31  O   UNL     1      -6.240  15.401  67.352  1.00  0.00    -0.281 OA 
BRANCH  29  32
HETATM   32  C   UNL     1      -5.930  17.985  66.917  1.00  0.00    -0.145 C  
HETATM   33  C   UNL     1      -6.815  18.202  65.685  1.00  0.00    -0.241 C  
HETATM   34  C   UNL     1      -5.855  19.294  67.720  1.00  0.00    -0.205 C  
ENDBRANCH  29  32
ENDBRANCH  28  29
ENDBRANCH  21  23
ENDBRANCH  18  21
ENDBRANCH  12  14
ENDBRANCH   6  12
BRANCH  11  35
HETATM   35  C   UNL     1     -10.602   7.832  72.827  1.00  0.00    -0.401 C  
HETATM   36  C   UNL     1     -10.991   6.341  72.786  1.00  0.00    -0.291 C  
HETATM   37  C   UNL     1      -9.934   5.497  72.092  1.00  0.00    -0.178 C  
HETATM   38  N   UNL     1      -8.683   5.572  72.833  1.00  0.00    -0.119 NA 
HETATM   39  H   UNL     1      -7.988   4.927  72.457  1.00  0.00     0.000 HD 
HETATM   40  C   UNL     1      -8.170   6.940  72.885  1.00  0.00    -0.107 C  
HETATM   41  C   UNL     1      -9.184   7.940  73.434  1.00  0.00    -0.351 C  
ENDBRANCH  11  35
ENDBRANCH   4   5
ENDBRANCH   2   4
TORSDOF 9
ENDMDL
MODEL       90
REMARK 921   NORMALIZED FREE ENERGY PREDICTED BY IDOCK:   -5.76 KCAL/MOL
REMARK 922        TOTAL FREE ENERGY PREDICTED BY IDOCK:  -10.95 KCAL/MOL
REMARK 923 INTER-LIGAND FREE ENERGY PREDICTED BY IDOCK:   -8.30 KCAL/MOL
REMARK 924 INTRA-LIGAND FREE ENERGY PREDICTED BY IDOCK:   -2.65 KCAL/MOL
REMARK 927      BINDING AFFINITY PREDICTED BY RF-SCORE:    0.00 PKD
ROOT
HETATM    1  C   UNL     1     -11.862  14.397  66.022  1.00  0.00    -0.379 C  
HETATM    2  C   UNL     1     -11.065  13.318  66.755  1.00  0.00    -0.292 C  
HETATM    3  C   UNL     1     -10.870  13.738  68.215  1.00  0.00    -0.266 C  
ENDROOT
BRANCH   2   4
HETATM    4  O   UNL     1     -11.776  12.066  66.609  1.00  0.00    -0.522 OA 
BRANCH   4   5
HETATM    5  C   UNL     1     -11.015  10.915  66.632  1.00  0.00    -0.148 A  
HETATM    6  C   UNL     1     -10.954  10.032  67.723  1.00  0.00    -0.249 A  
HETATM    7  C   UNL     1      -8.956   7.157  66.298  1.00  0.00    -0.181 C  
HETATM    8  C   UNL     1     -10.418   8.769  67.479  1.00  0.00    -0.340 A  
HETATM    9  C   UNL     1     -10.303  10.632  65.434  1.00  0.00    -0.303 A  
HETATM   10  C   UNL     1      -9.705   8.467  66.302  1.00  0.00    -0.300 A  
HETATM   11  C   UNL     1      -9.618   9.413  65.247  1.00  0.00    -0.251 A  
BRANCH   6  12
HETATM   12  N   UNL     1     -11.489  10.286  69.000  1.00  0.00    -0.449 NA 
HETATM   13  H   UNL     1     -12.183  11.034  69.017  1.00  0.00     0.000 HD 
BRANCH  12  14
HETATM   14  C   UNL     1     -11.255   9.720  70.222  1.00  0.00    -0.288 A  
HETATM   15  N   UNL     1      -9.977   9.534  70.682  1.00  0.00    -0.279 NA 
HETATM   16  C   UNL     1     -12.048   8.509  72.012  1.00  0.00    -0.364 A  
HETATM   17  N   UNL     1     -12.290   9.191  70.836  1.00  0.00    -0.206 NA 
HETATM   18  C   UNL     1      -9.660   8.673  71.740  1.00  0.00    -0.290 A  
HETATM   19  C   UNL     1     -10.853   8.200  72.523  1.00  0.00    -0.361 A  
HETATM   20 CL   UNL     1     -10.656   7.242  73.933  1.00  0.00    -0.294 Cl 
BRANCH  18  21
HETATM   21  N   UNL     1      -8.489   8.195  72.092  1.00  0.00    -0.146 NA 
HETATM   22  H   UNL     1      -8.293   7.997  73.073  1.00  0.00     0.000 HD 
BRANCH  21  23
HETATM   23  C   UNL     1      -7.511   7.956  71.120  1.00  0.00    -0.078 A  
HETATM   24  C   UNL     1      -6.514   8.920  70.905  1.00  0.00    -0.058 A  
HETATM   25  C   UNL     1      -5.774   8.933  69.728  1.00  0.00    -0.029 A  
HETATM   26  C   UNL     1      -5.971   7.930  68.787  1.00  0.00    -0.035 A  
HETATM   27  C   UNL     1      -6.821   6.862  69.074  1.00  0.00    -0.069 A  
HETATM   28  C   UNL     1      -7.559   6.848  70.266  1.00  0.00    -0.091 A  
BRANCH  28  29
HETATM   29  S   UNL     1      -8.166   5.246  70.821  1.00  0.00    -0.112 S  
HETATM   30  O   UNL     1      -7.162   4.272  70.423  1.00  0.00    -0.040 OA 
HETATM   31  O   UNL     1      -8.441   5.418  72.238  1.00  0.00    -0.121 OA 
BRANCH  29  32
HETATM   32  C   UNL     1      -9.681   4.774  70.000  1.00  0.00    -0.210 C  
HETATM   33  C   UNL     1     -10.649   5.947  69.822  1.00  0.00    -0.374 C  
HETATM   34  C   UNL     1      -9.344   4.185  68.620  1.00  0.00    -0.219 C  
ENDBRANCH  29  32
ENDBRANCH  28  29
ENDBRANCH  21  23
ENDBRANCH  18  21
ENDBRANCH  12  14
ENDBRANCH   6  12
BRANCH  11  35
HETATM   35  C   UNL     1      -8.829   9.046  63.974  1.00  0.00    -0.052 C  
HETATM   36  C   UNL     1      -9.311   9.844  62.746  1.00  0.00    -0.237 C  
HETATM   37  C   UNL     1      -8.681  11.226  62.686  1.00  0.00    -0.162 C  
HETATM   38  N   UNL     1      -7.237  11.101  62.549  1.00  0.00    -0.385 NA 
HETATM   39  H   UNL     1      -6.797  12.007  62.391  1.00  0.00     0.000 HD 
HETATM   40  C   UNL     1      -6.646  10.413  63.695  1.00  0.00    -0.029 C  
HETATM   41  C   UNL     1      -7.282   9.054  63.972  1.00  0.00    -0.095 C  
ENDBRANCH  11  35
ENDBRANCH   4   5
ENDBRANCH   2   4
TORSDOF 9
ENDMDL
MODEL       91
REMARK 921   NORMALIZED FREE ENERGY PREDICTED BY IDOCK:   -5.75 KCAL/MOL
REMARK 922        TOTAL FREE ENERGY PREDICTED BY IDOCK:  -10.95 KCAL/MOL
REMARK 923 INTER-LIGAND FREE ENERGY PREDICTED BY IDOCK:   -9.42 KCAL/MOL
REMARK 924 INTRA-LIGAND FREE ENERGY PREDICTED BY IDOCK:   -1.53 KCAL/MOL
REMARK 927      BINDING AFFINITY PREDICTED BY RF-SCORE:    0.00 PKD
ROOT
HETATM    1  C   UNL     1     -10.844   6.454  66.784  1.00  0.00    -0.361 C  
HETATM    2  C   UNL     1     -10.897   6.220  68.293  1.00  0.00    -0.319 C  
HETATM    3  C   UNL     1     -10.179   4.909  68.627  1.00  0.00    -0.112 C  
ENDROOT
BRANCH   2   4
HETATM    4  O   UNL     1     -10.311   7.375  68.941  1.00  0.00    -0.198 OA 
BRANCH   4   5
HETATM    5  C   UNL     1     -10.235   7.340  70.318  1.00  0.00    -0.199 A  
HETATM    6  C   UNL     1     -11.190   7.911  71.176  1.00  0.00    -0.261 A  
HETATM    7  C   UNL     1     -10.034   6.694  74.563  1.00  0.00    -0.316 C  
HETATM    8  C   UNL     1     -11.152   7.513  72.511  1.00  0.00    -0.371 A  
HETATM    9  C   UNL     1      -9.122   6.632  70.848  1.00  0.00    -0.154 A  
HETATM   10  C   UNL     1     -10.058   6.815  73.059  1.00  0.00    -0.212 A  
HETATM   11  C   UNL     1      -8.997   6.368  72.229  1.00  0.00    -0.139 A  
BRANCH   6  12
HETATM   12  N   UNL     1     -12.238   8.758  70.769  1.00  0.00    -0.483 NA 
HETATM   13  H   UNL     1     -13.113   8.270  70.576  1.00  0.00     0.000 HD 
BRANCH  12  14
HETATM   14  C   UNL     1     -12.306  10.110  70.586  1.00  0.00    -0.293 A  
HETATM   15  N   UNL     1     -11.586  10.726  69.595  1.00  0.00    -0.289 NA 
HETATM   16  C   UNL     1     -12.899  12.178  71.405  1.00  0.00    -0.276 A  
HETATM   17  N   UNL     1     -12.928  10.802  71.514  1.00  0.00    -0.439 NA 
HETATM   18  C   UNL     1     -11.344  12.105  69.567  1.00  0.00    -0.207 A  
HETATM   19  C   UNL     1     -12.180  12.895  70.536  1.00  0.00    -0.314 A  
HETATM   20 CL   UNL     1     -12.118  14.609  70.558  1.00  0.00    -0.359 Cl 
BRANCH  18  21
HETATM   21  N   UNL     1     -10.463  12.774  68.859  1.00  0.00    -0.416 NA 
HETATM   22  H   UNL     1      -9.541  12.972  69.247  1.00  0.00     0.000 HD 
BRANCH  21  23
HETATM   23  C   UNL     1     -10.791  13.215  67.572  1.00  0.00    -0.255 A  
HETATM   24  C   UNL     1     -11.972  12.751  66.971  1.00  0.00    -0.364 A  
HETATM   25  C   UNL     1     -12.151  12.827  65.595  1.00  0.00    -0.514 A  
HETATM   26  C   UNL     1     -11.182  13.443  64.813  1.00  0.00    -0.360 A  
HETATM   27  C   UNL     1     -10.095  14.075  65.418  1.00  0.00    -0.343 A  
HETATM   28  C   UNL     1      -9.922  14.004  66.808  1.00  0.00    -0.268 A  
BRANCH  28  29
HETATM   29  S   UNL     1      -8.876  15.263  67.557  1.00  0.00    -0.187 S  
HETATM   30  O   UNL     1      -9.284  15.355  68.950  1.00  0.00    -0.189 OA 
HETATM   31  O   UNL     1      -7.515  14.846  67.262  1.00  0.00    -0.197 OA 
BRANCH  29  32
HETATM   32  C   UNL     1      -9.145  16.879  66.845  1.00  0.00    -0.230 C  
HETATM   33  C   UNL     1     -10.587  17.366  67.009  1.00  0.00    -0.238 C  
HETATM   34  C   UNL     1      -8.193  17.887  67.509  1.00  0.00    -0.228 C  
ENDBRANCH  29  32
ENDBRANCH  28  29
ENDBRANCH  21  23
ENDBRANCH  18  21
ENDBRANCH  12  14
ENDBRANCH   6  12
BRANCH  11  35
HETATM   35  C   UNL     1      -7.817   5.605  72.865  1.00  0.00    -0.098 C  
HETATM   36  C   UNL     1      -8.075   4.086  72.921  1.00  0.00    -0.088 C  
HETATM   37  C   UNL     1      -7.746   3.407  71.601  1.00  0.00    -0.057 C  
HETATM   38  N   UNL     1      -6.329   3.569  71.306  1.00  0.00    -0.018 NA 
HETATM   39  H   UNL     1      -6.055   3.028  70.486  1.00  0.00     0.000 HD 
HETATM   40  C   UNL     1      -5.969   4.979  71.162  1.00  0.00    -0.017 C  
HETATM   41  C   UNL     1      -6.371   5.827  72.365  1.00  0.00    -0.053 C  
ENDBRANCH  11  35
ENDBRANCH   4   5
ENDBRANCH   2   4
TORSDOF 9
ENDMDL
MODEL       92
REMARK 921   NORMALIZED FREE ENERGY PREDICTED BY IDOCK:   -5.74 KCAL/MOL
REMARK 922        TOTAL FREE ENERGY PREDICTED BY IDOCK:  -10.93 KCAL/MOL
REMARK 923 INTER-LIGAND FREE ENERGY PREDICTED BY IDOCK:   -8.71 KCAL/MOL
REMARK 924 INTRA-LIGAND FREE ENERGY PREDICTED BY IDOCK:   -2.22 KCAL/MOL
REMARK 927      BINDING AFFINITY PREDICTED BY RF-SCORE:    0.00 PKD
ROOT
HETATM    1  C   UNL     1      -7.932  14.696  69.285  1.00  0.00    -0.055 C  
HETATM    2  C   UNL     1      -7.229  15.125  67.998  1.00  0.00    -0.127 C  
HETATM    3  C   UNL     1      -5.992  14.247  67.782  1.00  0.00    -0.112 C  
ENDROOT
BRANCH   2   4
HETATM    4  O   UNL     1      -8.189  15.037  66.918  1.00  0.00    -0.215 OA 
BRANCH   4   5
HETATM    5  C   UNL     1      -8.826  16.207  66.559  1.00  0.00    -0.296 A  
HETATM    6  C   UNL     1     -10.203  16.310  66.305  1.00  0.00    -0.327 A  
HETATM    7  C   UNL     1     -10.660  20.042  65.925  1.00  0.00    -0.459 C  
HETATM    8  C   UNL     1     -10.744  17.594  66.281  1.00  0.00    -0.096 A  
HETATM    9  C   UNL     1      -7.994  17.360  66.500  1.00  0.00    -0.317 A  
HETATM   10  C   UNL     1      -9.940  18.749  66.218  1.00  0.00    -0.418 A  
HETATM   11  C   UNL     1      -8.527  18.652  66.311  1.00  0.00    -0.241 A  
BRANCH   6  12
HETATM   12  N   UNL     1     -11.086  15.220  66.184  1.00  0.00    -0.317 NA 
HETATM   13  H   UNL     1     -12.047  15.434  66.454  1.00  0.00     0.000 HD 
BRANCH  12  14
HETATM   14  C   UNL     1     -10.900  13.930  65.774  1.00  0.00    -0.289 A  
HETATM   15  N   UNL     1     -11.187  12.877  66.602  1.00  0.00    -0.292 NA 
HETATM   16  C   UNL     1      -9.956  12.461  64.275  1.00  0.00    -0.206 A  
HETATM   17  N   UNL     1     -10.258  13.757  64.640  1.00  0.00    -0.378 NA 
HETATM   18  C   UNL     1     -10.712  11.577  66.385  1.00  0.00    -0.273 A  
HETATM   19  C   UNL     1     -10.116  11.363  65.021  1.00  0.00    -0.274 A  
HETATM   20 CL   UNL     1      -9.597   9.806  64.522  1.00  0.00    -0.288 Cl 
BRANCH  18  21
HETATM   21  N   UNL     1     -10.672  10.563  67.217  1.00  0.00    -0.269 NA 
HETATM   22  H   UNL     1     -11.506   9.998  67.374  1.00  0.00     0.000 HD 
BRANCH  21  23
HETATM   23  C   UNL     1      -9.483  10.257  67.889  1.00  0.00    -0.141 A  
HETATM   24  C   UNL     1      -8.626  11.301  68.269  1.00  0.00    -0.153 A  
HETATM   25  C   UNL     1      -7.291  11.057  68.571  1.00  0.00    -0.101 A  
HETATM   26  C   UNL     1      -6.820   9.749  68.572  1.00  0.00    -0.056 A  
HETATM   27  C   UNL     1      -7.706   8.688  68.383  1.00  0.00    -0.100 A  
HETATM   28  C   UNL     1      -9.054   8.939  68.088  1.00  0.00    -0.140 A  
BRANCH  28  29
HETATM   29  S   UNL     1     -10.214   7.601  68.412  1.00  0.00    -0.199 S  
HETATM   30  O   UNL     1     -11.108   7.552  67.266  1.00  0.00    -0.194 OA 
HETATM   31  O   UNL     1      -9.382   6.441  68.690  1.00  0.00    -0.125 OA 
BRANCH  29  32
HETATM   32  C   UNL     1     -11.239   7.923  69.839  1.00  0.00    -0.046 C  
HETATM   33  C   UNL     1     -11.793   6.642  70.471  1.00  0.00    -0.430 C  
HETATM   34  C   UNL     1     -10.417   8.688  70.888  1.00  0.00    -0.265 C  
ENDBRANCH  29  32
ENDBRANCH  28  29
ENDBRANCH  21  23
ENDBRANCH  18  21
ENDBRANCH  12  14
ENDBRANCH   6  12
BRANCH  11  35
HETATM   35  C   UNL     1      -7.681  19.940  66.240  1.00  0.00    -0.332 C  
HETATM   36  C   UNL     1      -7.523  20.603  67.622  1.00  0.00    -0.298 C  
HETATM   37  C   UNL     1      -6.406  19.966  68.433  1.00  0.00    -0.273 C  
HETATM   38  N   UNL     1      -5.136  20.149  67.745  1.00  0.00    -0.179 NA 
HETATM   39  H   UNL     1      -4.353  19.833  68.318  1.00  0.00     0.000 HD 
HETATM   40  C   UNL     1      -5.135  19.500  66.435  1.00  0.00    -0.162 C  
HETATM   41  C   UNL     1      -6.297  19.939  65.549  1.00  0.00    -0.266 C  
ENDBRANCH  11  35
ENDBRANCH   4   5
ENDBRANCH   2   4
TORSDOF 9
ENDMDL
MODEL       93
REMARK 921   NORMALIZED FREE ENERGY PREDICTED BY IDOCK:   -5.71 KCAL/MOL
REMARK 922        TOTAL FREE ENERGY PREDICTED BY IDOCK:  -10.89 KCAL/MOL
REMARK 923 INTER-LIGAND FREE ENERGY PREDICTED BY IDOCK:   -8.71 KCAL/MOL
REMARK 924 INTRA-LIGAND FREE ENERGY PREDICTED BY IDOCK:   -2.18 KCAL/MOL
REMARK 927      BINDING AFFINITY PREDICTED BY RF-SCORE:    0.00 PKD
ROOT
HETATM    1  C   UNL     1     -12.684  10.553  71.355  1.00  0.00    -0.547 C  
HETATM    2  C   UNL     1     -11.568  10.858  70.356  1.00  0.00    -0.323 C  
HETATM    3  C   UNL     1     -10.407   9.885  70.584  1.00  0.00    -0.258 C  
ENDROOT
BRANCH   2   4
HETATM    4  O   UNL     1     -12.130  10.777  69.024  1.00  0.00    -0.380 OA 
BRANCH   4   5
HETATM    5  C   UNL     1     -11.535  11.555  68.053  1.00  0.00    -0.311 A  
HETATM    6  C   UNL     1     -10.836  11.041  66.949  1.00  0.00    -0.269 A  
HETATM    7  C   UNL     1     -10.180  14.155  64.909  1.00  0.00    -0.371 C  
HETATM    8  C   UNL     1     -10.585  11.921  65.899  1.00  0.00    -0.306 A  
HETATM    9  C   UNL     1     -11.710  12.959  68.205  1.00  0.00    -0.390 A  
HETATM   10  C   UNL     1     -10.746  13.315  66.028  1.00  0.00    -0.286 A  
HETATM   11  C   UNL     1     -11.305  13.871  67.208  1.00  0.00    -0.344 A  
BRANCH   6  12
HETATM   12  N   UNL     1     -10.473   9.691  66.779  1.00  0.00    -0.214 NA 
HETATM   13  H   UNL     1     -11.079   9.177  66.140  1.00  0.00     0.000 HD 
BRANCH  12  14
HETATM   14  C   UNL     1      -9.461   8.941  67.308  1.00  0.00    -0.154 A  
HETATM   15  N   UNL     1      -9.713   7.732  67.903  1.00  0.00    -0.149 NA 
HETATM   16  C   UNL     1      -7.280   8.814  68.036  1.00  0.00    -0.083 A  
HETATM   17  N   UNL     1      -8.281   9.515  67.393  1.00  0.00    -0.113 NA 
HETATM   18  C   UNL     1      -8.801   7.087  68.748  1.00  0.00    -0.129 A  
HETATM   19  C   UNL     1      -7.416   7.670  68.714  1.00  0.00    -0.100 A  
HETATM   20 CL   UNL     1      -6.131   6.937  69.583  1.00  0.00    -0.032 Cl 
BRANCH  18  21
HETATM   21  N   UNL     1      -9.010   6.098  69.585  1.00  0.00    -0.133 NA 
HETATM   22  H   UNL     1      -8.441   5.253  69.529  1.00  0.00     0.000 HD 
BRANCH  21  23
HETATM   23  C   UNL     1     -10.013   6.203  70.556  1.00  0.00    -0.181 A  
HETATM   24  C   UNL     1     -11.355   6.239  70.148  1.00  0.00    -0.476 A  
HETATM   25  C   UNL     1     -12.346   6.727  70.992  1.00  0.00    -0.370 A  
HETATM   26  C   UNL     1     -12.013   7.109  72.286  1.00  0.00    -0.256 A  
HETATM   27  C   UNL     1     -10.719   6.898  72.764  1.00  0.00    -0.286 A  
HETATM   28  C   UNL     1      -9.724   6.398  71.911  1.00  0.00    -0.151 A  
BRANCH  28  29
HETATM   29  S   UNL     1      -8.294   5.638  72.698  1.00  0.00    -0.116 S  
HETATM   30  O   UNL     1      -8.753   5.149  73.989  1.00  0.00    -0.117 OA 
HETATM   31  O   UNL     1      -7.800   4.673  71.729  1.00  0.00    -0.092 OA 
BRANCH  29  32
HETATM   32  C   UNL     1      -6.999   6.820  73.037  1.00  0.00    -0.075 C  
HETATM   33  C   UNL     1      -7.353   8.236  72.574  1.00  0.00    -0.142 C  
HETATM   34  C   UNL     1      -6.719   6.840  74.549  1.00  0.00    -0.091 C  
ENDBRANCH  29  32
ENDBRANCH  28  29
ENDBRANCH  21  23
ENDBRANCH  18  21
ENDBRANCH  12  14
ENDBRANCH   6  12
BRANCH  11  35
HETATM   35  C   UNL     1     -11.467  15.401  67.312  1.00  0.00    -0.166 C  
HETATM   36  C   UNL     1     -11.840  15.846  68.740  1.00  0.00    -0.277 C  
HETATM   37  C   UNL     1     -10.617  15.958  69.636  1.00  0.00    -0.301 C  
HETATM   38  N   UNL     1      -9.719  16.977  69.114  1.00  0.00    -0.212 NA 
HETATM   39  H   UNL     1      -8.945  17.156  69.754  1.00  0.00     0.000 HD 
HETATM   40  C   UNL     1      -9.237  16.635  67.777  1.00  0.00    -0.214 C  
HETATM   41  C   UNL     1     -10.364  16.350  66.789  1.00  0.00    -0.293 C  
ENDBRANCH  11  35
ENDBRANCH   4   5
ENDBRANCH   2   4
TORSDOF 9
ENDMDL
MODEL       94
REMARK 921   NORMALIZED FREE ENERGY PREDICTED BY IDOCK:   -5.71 KCAL/MOL
REMARK 922        TOTAL FREE ENERGY PREDICTED BY IDOCK:  -10.88 KCAL/MOL
REMARK 923 INTER-LIGAND FREE ENERGY PREDICTED BY IDOCK:   -8.36 KCAL/MOL
REMARK 924 INTRA-LIGAND FREE ENERGY PREDICTED BY IDOCK:   -2.52 KCAL/MOL
REMARK 927      BINDING AFFINITY PREDICTED BY RF-SCORE:    0.00 PKD
ROOT
HETATM    1  C   UNL     1      -7.331   8.720  71.106  1.00  0.00    -0.106 C  
HETATM    2  C   UNL     1      -6.497   9.799  70.416  1.00  0.00    -0.101 C  
HETATM    3  C   UNL     1      -5.396   9.133  69.586  1.00  0.00    -0.034 C  
ENDROOT
BRANCH   2   4
HETATM    4  O   UNL     1      -7.395  10.617  69.628  1.00  0.00    -0.141 OA 
BRANCH   4   5
HETATM    5  C   UNL     1      -7.523  10.287  68.294  1.00  0.00    -0.086 A  
HETATM    6  C   UNL     1      -6.832  10.928  67.253  1.00  0.00    -0.084 A  
HETATM    7  C   UNL     1      -7.718   8.776  64.275  1.00  0.00    -0.125 C  
HETATM    8  C   UNL     1      -6.810  10.278  66.020  1.00  0.00    -0.119 A  
HETATM    9  C   UNL     1      -8.388   9.192  68.018  1.00  0.00    -0.120 A  
HETATM   10  C   UNL     1      -7.661   9.196  65.723  1.00  0.00    -0.091 A  
HETATM   11  C   UNL     1      -8.492   8.634  66.727  1.00  0.00    -0.117 A  
BRANCH   6  12
HETATM   12  N   UNL     1      -6.076  12.108  67.390  1.00  0.00    -0.128 NA 
HETATM   13  H   UNL     1      -5.067  11.957  67.375  1.00  0.00     0.000 HD 
BRANCH  12  14
HETATM   14  C   UNL     1      -6.439  13.417  67.540  1.00  0.00    -0.118 A  
HETATM   15  N   UNL     1      -7.746  13.808  67.410  1.00  0.00    -0.167 NA 
HETATM   16  C   UNL     1      -5.814  15.630  67.645  1.00  0.00    -0.122 A  
HETATM   17  N   UNL     1      -5.464  14.295  67.617  1.00  0.00    -0.338 NA 
HETATM   18  C   UNL     1      -8.133  15.140  67.213  1.00  0.00    -0.201 A  
HETATM   19  C   UNL     1      -7.036  16.139  67.455  1.00  0.00    -0.168 A  
HETATM   20 CL   UNL     1      -7.350  17.824  67.390  1.00  0.00    -0.196 Cl 
BRANCH  18  21
HETATM   21  N   UNL     1      -9.287  15.611  66.803  1.00  0.00    -0.231 NA 
HETATM   22  H   UNL     1      -9.341  16.143  65.934  1.00  0.00     0.000 HD 
BRANCH  21  23
HETATM   23  C   UNL     1     -10.443  15.386  67.558  1.00  0.00    -0.275 A  
HETATM   24  C   UNL     1     -10.625  16.093  68.756  1.00  0.00    -0.279 A  
HETATM   25  C   UNL     1     -11.519  15.646  69.722  1.00  0.00    -0.346 A  
HETATM   26  C   UNL     1     -12.300  14.526  69.464  1.00  0.00    -0.247 A  
HETATM   27  C   UNL     1     -12.266  13.928  68.203  1.00  0.00    -0.185 A  
HETATM   28  C   UNL     1     -11.369  14.388  67.228  1.00  0.00    -0.342 A  
BRANCH  28  29
HETATM   29  S   UNL     1     -11.756  13.978  65.518  1.00  0.00    -0.365 S  
HETATM   30  O   UNL     1     -13.194  14.148  65.376  1.00  0.00    -0.741 OA 
HETATM   31  O   UNL     1     -10.879  14.820  64.721  1.00  0.00    -0.399 OA 
BRANCH  29  32
HETATM   32  C   UNL     1     -11.408  12.269  65.135  1.00  0.00    -0.329 C  
HETATM   33  C   UNL     1     -10.753  12.091  63.762  1.00  0.00    -0.478 C  
HETATM   34  C   UNL     1     -10.480  11.689  66.215  1.00  0.00    -0.286 C  
ENDBRANCH  29  32
ENDBRANCH  28  29
ENDBRANCH  21  23
ENDBRANCH  18  21
ENDBRANCH  12  14
ENDBRANCH   6  12
BRANCH  11  35
HETATM   35  C   UNL     1      -9.409   7.448  66.363  1.00  0.00    -0.206 C  
HETATM   36  C   UNL     1      -8.664   6.101  66.430  1.00  0.00    -0.138 C  
HETATM   37  C   UNL     1      -8.598   5.559  67.849  1.00  0.00    -0.104 C  
HETATM   38  N   UNL     1      -9.945   5.303  68.339  1.00  0.00    -0.157 NA 
HETATM   39  H   UNL     1      -9.929   4.833  69.244  1.00  0.00     0.000 HD 
HETATM   40  C   UNL     1     -10.740   6.529  68.388  1.00  0.00    -0.279 C  
HETATM   41  C   UNL     1     -10.781   7.270  67.054  1.00  0.00    -0.406 C  
ENDBRANCH  11  35
ENDBRANCH   4   5
ENDBRANCH   2   4
TORSDOF 9
ENDMDL
MODEL       95
REMARK 921   NORMALIZED FREE ENERGY PREDICTED BY IDOCK:   -5.70 KCAL/MOL
REMARK 922        TOTAL FREE ENERGY PREDICTED BY IDOCK:  -10.88 KCAL/MOL
REMARK 923 INTER-LIGAND FREE ENERGY PREDICTED BY IDOCK:   -9.47 KCAL/MOL
REMARK 924 INTRA-LIGAND FREE ENERGY PREDICTED BY IDOCK:   -1.41 KCAL/MOL
REMARK 927      BINDING AFFINITY PREDICTED BY RF-SCORE:    0.00 PKD
ROOT
HETATM    1  C   UNL     1     -10.138   8.871  72.049  1.00  0.00    -0.351 C  
HETATM    2  C   UNL     1     -11.593   8.801  71.586  1.00  0.00    -0.320 C  
HETATM    3  C   UNL     1     -12.029  10.180  71.080  1.00  0.00    -0.474 C  
ENDROOT
BRANCH   2   4
HETATM    4  O   UNL     1     -11.688   7.764  70.580  1.00  0.00    -0.266 OA 
BRANCH   4   5
HETATM    5  C   UNL     1     -10.544   7.492  69.861  1.00  0.00    -0.237 A  
HETATM    6  C   UNL     1     -10.198   8.127  68.657  1.00  0.00    -0.207 A  
HETATM    7  C   UNL     1      -6.703   6.822  68.050  1.00  0.00    -0.068 C  
HETATM    8  C   UNL     1      -8.879   7.990  68.230  1.00  0.00    -0.133 A  
HETATM    9  C   UNL     1      -9.673   6.529  70.443  1.00  0.00    -0.186 A  
HETATM   10  C   UNL     1      -8.001   7.041  68.789  1.00  0.00    -0.120 A  
HETATM   11  C   UNL     1      -8.392   6.269  69.914  1.00  0.00    -0.129 A  
BRANCH   6  12
HETATM   12  N   UNL     1     -11.046   8.973  67.917  1.00  0.00    -0.480 NA 
HETATM   13  H   UNL     1     -12.013   8.650  67.869  1.00  0.00     0.000 HD 
BRANCH  12  14
HETATM   14  C   UNL     1     -10.819  10.145  67.252  1.00  0.00    -0.230 A  
HETATM   15  N   UNL     1     -11.196  11.348  67.790  1.00  0.00    -0.261 NA 
HETATM   16  C   UNL     1     -10.294  11.218  65.284  1.00  0.00    -0.280 A  
HETATM   17  N   UNL     1     -10.410  10.047  66.006  1.00  0.00    -0.199 NA 
HETATM   18  C   UNL     1     -11.306  12.524  67.038  1.00  0.00    -0.328 A  
HETATM   19  C   UNL     1     -10.694  12.435  65.667  1.00  0.00    -0.264 A  
HETATM   20 CL   UNL     1     -10.616  13.812  64.647  1.00  0.00    -0.439 Cl 
BRANCH  18  21
HETATM   21  N   UNL     1     -11.908  13.649  67.348  1.00  0.00    -0.381 NA 
HETATM   22  H   UNL     1     -12.528  14.098  66.674  1.00  0.00     0.000 HD 
BRANCH  21  23
HETATM   23  C   UNL     1     -11.698  14.231  68.603  1.00  0.00    -0.345 A  
HETATM   24  C   UNL     1     -12.228  13.606  69.742  1.00  0.00    -0.350 A  
HETATM   25  C   UNL     1     -12.397  14.308  70.930  1.00  0.00    -0.429 A  
HETATM   26  C   UNL     1     -11.961  15.625  71.012  1.00  0.00    -0.445 A  
HETATM   27  C   UNL     1     -11.260  16.195  69.949  1.00  0.00    -0.349 A  
HETATM   28  C   UNL     1     -11.085  15.480  68.755  1.00  0.00    -0.291 A  
BRANCH  28  29
HETATM   29  S   UNL     1      -9.741  16.016  67.683  1.00  0.00    -0.225 S  
HETATM   30  O   UNL     1      -8.819  14.895  67.597  1.00  0.00    -0.170 OA 
HETATM   31  O   UNL     1     -10.390  16.473  66.465  1.00  0.00    -0.299 OA 
BRANCH  29  32
HETATM   32  C   UNL     1      -8.818  17.376  68.383  1.00  0.00    -0.271 C  
HETATM   33  C   UNL     1      -7.438  16.954  68.896  1.00  0.00    -0.238 C  
HETATM   34  C   UNL     1      -8.645  18.469  67.315  1.00  0.00    -0.268 C  
ENDBRANCH  29  32
ENDBRANCH  28  29
ENDBRANCH  21  23
ENDBRANCH  18  21
ENDBRANCH  12  14
ENDBRANCH   6  12
BRANCH  11  35
HETATM   35  C   UNL     1      -7.402   5.240  70.499  1.00  0.00    -0.070 C  
HETATM   36  C   UNL     1      -6.624   5.809  71.702  1.00  0.00    -0.054 C  
HETATM   37  C   UNL     1      -7.423   5.708  72.992  1.00  0.00    -0.092 C  
HETATM   38  N   UNL     1      -7.684   4.310  73.299  1.00  0.00    -0.081 NA 
HETATM   39  H   UNL     1      -8.118   4.204  74.216  1.00  0.00     0.000 HD 
HETATM   40  C   UNL     1      -8.480   3.669  72.253  1.00  0.00    -0.085 C  
HETATM   41  C   UNL     1      -7.869   3.812  70.863  1.00  0.00    -0.051 C  
ENDBRANCH  11  35
ENDBRANCH   4   5
ENDBRANCH   2   4
TORSDOF 9
ENDMDL
MODEL       96
REMARK 921   NORMALIZED FREE ENERGY PREDICTED BY IDOCK:   -5.70 KCAL/MOL
REMARK 922        TOTAL FREE ENERGY PREDICTED BY IDOCK:  -10.87 KCAL/MOL
REMARK 923 INTER-LIGAND FREE ENERGY PREDICTED BY IDOCK:   -8.95 KCAL/MOL
REMARK 924 INTRA-LIGAND FREE ENERGY PREDICTED BY IDOCK:   -1.92 KCAL/MOL
REMARK 927      BINDING AFFINITY PREDICTED BY RF-SCORE:    0.00 PKD
ROOT
HETATM    1  C   UNL     1      -6.332  10.932  67.809  1.00  0.00    -0.062 C  
HETATM    2  C   UNL     1      -6.788  10.480  69.196  1.00  0.00    -0.074 C  
HETATM    3  C   UNL     1      -6.037  11.284  70.262  1.00  0.00    -0.146 C  
ENDROOT
BRANCH   2   4
HETATM    4  O   UNL     1      -8.225  10.641  69.264  1.00  0.00    -0.154 OA 
BRANCH   4   5
HETATM    5  C   UNL     1      -8.988   9.619  68.739  1.00  0.00    -0.134 A  
HETATM    6  C   UNL     1     -10.213   9.808  68.077  1.00  0.00    -0.190 A  
HETATM    7  C   UNL     1     -10.950   6.339  66.771  1.00  0.00    -0.328 C  
HETATM    8  C   UNL     1     -10.692   8.738  67.324  1.00  0.00    -0.217 A  
HETATM    9  C   UNL     1      -8.432   8.316  68.865  1.00  0.00    -0.128 A  
HETATM   10  C   UNL     1     -10.159   7.439  67.436  1.00  0.00    -0.274 A  
HETATM   11  C   UNL     1      -9.011   7.195  68.234  1.00  0.00    -0.125 A  
BRANCH   6  12
HETATM   12  N   UNL     1     -10.926  11.021  68.028  1.00  0.00    -0.236 NA 
HETATM   13  H   UNL     1     -11.460  11.221  68.875  1.00  0.00     0.000 HD 
BRANCH  12  14
HETATM   14  C   UNL     1     -11.038  11.982  67.063  1.00  0.00    -0.298 A  
HETATM   15  N   UNL     1      -9.966  12.758  66.711  1.00  0.00    -0.232 NA 
HETATM   16  C   UNL     1     -12.394  13.303  65.753  1.00  0.00    -0.447 A  
HETATM   17  N   UNL     1     -12.252  12.252  66.637  1.00  0.00    -0.490 NA 
HETATM   18  C   UNL     1     -10.088  13.958  65.997  1.00  0.00    -0.313 A  
HETATM   19  C   UNL     1     -11.447  14.174  65.390  1.00  0.00    -0.325 A  
HETATM   20 CL   UNL     1     -11.752  15.523  64.374  1.00  0.00    -0.332 Cl 
BRANCH  18  21
HETATM   21  N   UNL     1      -9.207  14.918  65.841  1.00  0.00    -0.502 NA 
HETATM   22  H   UNL     1      -9.110  15.379  64.936  1.00  0.00     0.000 HD 
BRANCH  21  23
HETATM   23  C   UNL     1      -8.401  15.310  66.916  1.00  0.00    -0.243 A  
HETATM   24  C   UNL     1      -7.543  14.367  67.504  1.00  0.00    -0.212 A  
HETATM   25  C   UNL     1      -7.030  14.567  68.780  1.00  0.00    -0.104 A  
HETATM   26  C   UNL     1      -7.306  15.753  69.450  1.00  0.00    -0.217 A  
HETATM   27  C   UNL     1      -7.999  16.775  68.800  1.00  0.00    -0.250 A  
HETATM   28  C   UNL     1      -8.508  16.573  67.509  1.00  0.00    -0.176 A  
BRANCH  28  29
HETATM   29  S   UNL     1      -8.869  18.049  66.544  1.00  0.00    -0.233 S  
HETATM   30  O   UNL     1      -7.673  18.328  65.766  1.00  0.00    -0.517 OA 
HETATM   31  O   UNL     1     -10.101  17.743  65.834  1.00  0.00    -0.526 OA 
BRANCH  29  32
HETATM   32  C   UNL     1      -9.146  19.482  67.574  1.00  0.00    -0.305 C  
HETATM   33  C   UNL     1      -8.363  20.710  67.103  1.00  0.00    -0.292 C  
HETATM   34  C   UNL     1     -10.648  19.814  67.582  1.00  0.00    -0.530 C  
ENDBRANCH  29  32
ENDBRANCH  28  29
ENDBRANCH  21  23
ENDBRANCH  18  21
ENDBRANCH  12  14
ENDBRANCH   6  12
BRANCH  11  35
HETATM   35  C   UNL     1      -8.457   5.759  68.331  1.00  0.00    -0.110 C  
HETATM   36  C   UNL     1      -7.353   5.496  67.288  1.00  0.00    -0.080 C  
HETATM   37  C   UNL     1      -5.998   6.004  67.755  1.00  0.00    -0.017 C  
HETATM   38  N   UNL     1      -5.597   5.294  68.961  1.00  0.00    -0.007 NA 
HETATM   39  H   UNL     1      -4.644   5.531  69.234  1.00  0.00     0.000 HD 
HETATM   40  C   UNL     1      -6.538   5.520  70.056  1.00  0.00    -0.043 C  
HETATM   41  C   UNL     1      -7.980   5.186  69.686  1.00  0.00    -0.079 C  
ENDBRANCH  11  35
ENDBRANCH   4   5
ENDBRANCH   2   4
TORSDOF 9
ENDMDL
MODEL       97
REMARK 921   NORMALIZED FREE ENERGY PREDICTED BY IDOCK:   -5.69 KCAL/MOL
REMARK 922        TOTAL FREE ENERGY PREDICTED BY IDOCK:  -10.85 KCAL/MOL
REMARK 923 INTER-LIGAND FREE ENERGY PREDICTED BY IDOCK:   -9.33 KCAL/MOL
REMARK 924 INTRA-LIGAND FREE ENERGY PREDICTED BY IDOCK:   -1.52 KCAL/MOL
REMARK 927      BINDING AFFINITY PREDICTED BY RF-SCORE:    0.00 PKD
ROOT
HETATM    1  C   UNL     1      -9.960   6.742  67.473  1.00  0.00    -0.180 C  
HETATM    2  C   UNL     1      -8.511   6.347  67.753  1.00  0.00    -0.117 C  
HETATM    3  C   UNL     1      -7.715   6.387  66.444  1.00  0.00    -0.099 C  
ENDROOT
BRANCH   2   4
HETATM    4  O   UNL     1      -7.994   7.244  68.765  1.00  0.00    -0.119 OA 
BRANCH   4   5
HETATM    5  C   UNL     1      -8.917   8.022  69.432  1.00  0.00    -0.148 A  
HETATM    6  C   UNL     1      -9.328   9.297  69.010  1.00  0.00    -0.151 A  
HETATM    7  C   UNL     1     -12.150  10.052  71.408  1.00  0.00    -0.498 C  
HETATM    8  C   UNL     1     -10.488   9.808  69.590  1.00  0.00    -0.263 A  
HETATM    9  C   UNL     1      -9.489   7.428  70.591  1.00  0.00    -0.164 A  
HETATM   10  C   UNL     1     -11.069   9.239  70.740  1.00  0.00    -0.349 A  
HETATM   11  C   UNL     1     -10.563   8.028  71.282  1.00  0.00    -0.245 A  
BRANCH   6  12
HETATM   12  N   UNL     1      -8.726  10.039  67.976  1.00  0.00    -0.125 NA 
HETATM   13  H   UNL     1      -7.706  10.039  68.008  1.00  0.00     0.000 HD 
BRANCH  12  14
HETATM   14  C   UNL     1      -9.248  10.760  66.939  1.00  0.00    -0.156 A  
HETATM   15  N   UNL     1      -9.273  12.129  66.972  1.00  0.00    -0.195 NA 
HETATM   16  C   UNL     1     -10.530  10.806  65.027  1.00  0.00    -0.237 A  
HETATM   17  N   UNL     1      -9.893  10.082  66.015  1.00  0.00    -0.239 NA 
HETATM   18  C   UNL     1     -10.080  12.902  66.127  1.00  0.00    -0.276 A  
HETATM   19  C   UNL     1     -10.687  12.133  64.987  1.00  0.00    -0.297 A  
HETATM   20 CL   UNL     1     -11.602  12.932  63.774  1.00  0.00    -0.506 Cl 
BRANCH  18  21
HETATM   21  N   UNL     1     -10.410  14.168  66.233  1.00  0.00    -0.285 NA 
HETATM   22  H   UNL     1     -11.169  14.547  65.666  1.00  0.00     0.000 HD 
BRANCH  21  23
HETATM   23  C   UNL     1      -9.720  14.999  67.123  1.00  0.00    -0.226 A  
HETATM   24  C   UNL     1      -8.619  15.734  66.657  1.00  0.00    -0.322 A  
HETATM   25  C   UNL     1      -7.677  16.249  67.540  1.00  0.00    -0.169 A  
HETATM   26  C   UNL     1      -7.872  16.101  68.908  1.00  0.00    -0.213 A  
HETATM   27  C   UNL     1      -9.056  15.541  69.387  1.00  0.00    -0.280 A  
HETATM   28  C   UNL     1     -10.008  15.030  68.492  1.00  0.00    -0.219 A  
BRANCH  28  29
HETATM   29  S   UNL     1     -11.689  14.855  69.115  1.00  0.00    -0.313 S  
HETATM   30  O   UNL     1     -12.378  16.090  68.773  1.00  0.00     0.018 OA 
HETATM   31  O   UNL     1     -12.175  13.611  68.542  1.00  0.00    -0.342 OA 
BRANCH  29  32
HETATM   32  C   UNL     1     -11.742  14.723  70.895  1.00  0.00    -0.307 C  
HETATM   33  C   UNL     1     -11.775  16.087  71.590  1.00  0.00    -0.583 C  
HETATM   34  C   UNL     1     -12.988  13.919  71.303  1.00  0.00    -0.414 C  
ENDBRANCH  29  32
ENDBRANCH  28  29
ENDBRANCH  21  23
ENDBRANCH  18  21
ENDBRANCH  12  14
ENDBRANCH   6  12
BRANCH  11  35
HETATM   35  C   UNL     1     -11.227   7.435  72.542  1.00  0.00    -0.363 C  
HETATM   36  C   UNL     1     -12.010   6.145  72.227  1.00  0.00    -0.285 C  
HETATM   37  C   UNL     1     -11.102   4.927  72.186  1.00  0.00     0.074 C  
HETATM   38  N   UNL     1     -10.491   4.725  73.492  1.00  0.00    -0.195 NA 
HETATM   39  H   UNL     1      -9.967   3.852  73.528  1.00  0.00     0.000 HD 
HETATM   40  C   UNL     1      -9.660   5.864  73.878  1.00  0.00    -0.155 C  
HETATM   41  C   UNL     1     -10.405   7.194  73.829  1.00  0.00    -0.390 C  
ENDBRANCH  11  35
ENDBRANCH   4   5
ENDBRANCH   2   4
TORSDOF 9
ENDMDL
MODEL       98
REMARK 921   NORMALIZED FREE ENERGY PREDICTED BY IDOCK:   -5.67 KCAL/MOL
REMARK 922        TOTAL FREE ENERGY PREDICTED BY IDOCK:  -10.82 KCAL/MOL
REMARK 923 INTER-LIGAND FREE ENERGY PREDICTED BY IDOCK:   -8.78 KCAL/MOL
REMARK 924 INTRA-LIGAND FREE ENERGY PREDICTED BY IDOCK:   -2.04 KCAL/MOL
REMARK 927      BINDING AFFINITY PREDICTED BY RF-SCORE:    0.00 PKD
ROOT
HETATM    1  C   UNL     1     -10.622   8.026  66.810  1.00  0.00    -0.225 C  
HETATM    2  C   UNL     1     -10.751   7.027  67.960  1.00  0.00    -0.194 C  
HETATM    3  C   UNL     1     -10.081   5.708  67.562  1.00  0.00    -0.208 C  
ENDROOT
BRANCH   2   4
HETATM    4  O   UNL     1     -10.170   7.632  69.140  1.00  0.00    -0.193 OA 
BRANCH   4   5
HETATM    5  C   UNL     1     -10.434   7.016  70.346  1.00  0.00    -0.206 A  
HETATM    6  C   UNL     1     -11.653   7.119  71.034  1.00  0.00    -0.309 A  
HETATM    7  C   UNL     1     -11.189   4.627  73.839  1.00  0.00    -0.129 C  
HETATM    8  C   UNL     1     -11.882   6.191  72.049  1.00  0.00    -0.336 A  
HETATM    9  C   UNL     1      -9.384   6.202  70.856  1.00  0.00    -0.170 A  
HETATM   10  C   UNL     1     -10.858   5.378  72.572  1.00  0.00    -0.304 A  
HETATM   11  C   UNL     1      -9.565   5.380  71.988  1.00  0.00    -0.186 A  
BRANCH   6  12
HETATM   12  N   UNL     1     -12.694   8.008  70.706  1.00  0.00    -0.483 NA 
HETATM   13  H   UNL     1     -13.545   7.547  70.380  1.00  0.00     0.000 HD 
BRANCH  12  14
HETATM   14  C   UNL     1     -12.782   9.371  70.743  1.00  0.00    -0.010 A  
HETATM   15  N   UNL     1     -12.082  10.148  69.858  1.00  0.00    -0.103 NA 
HETATM   16  C   UNL     1     -13.394  11.271  71.889  1.00  0.00    -0.307 A  
HETATM   17  N   UNL     1     -13.404   9.896  71.776  1.00  0.00    -0.406 NA 
HETATM   18  C   UNL     1     -11.858  11.518  70.049  1.00  0.00    -0.355 A  
HETATM   19  C   UNL     1     -12.694  12.129  71.139  1.00  0.00    -0.253 A  
HETATM   20 CL   UNL     1     -12.655  13.818  71.436  1.00  0.00    -0.439 Cl 
BRANCH  18  21
HETATM   21  N   UNL     1     -10.995  12.304  69.450  1.00  0.00    -0.454 NA 
HETATM   22  H   UNL     1     -11.090  13.317  69.526  1.00  0.00     0.000 HD 
BRANCH  21  23
HETATM   23  C   UNL     1      -9.945  11.753  68.707  1.00  0.00    -0.115 A  
HETATM   24  C   UNL     1      -9.157  10.745  69.284  1.00  0.00    -0.056 A  
HETATM   25  C   UNL     1      -7.898  10.444  68.777  1.00  0.00    -0.108 A  
HETATM   26  C   UNL     1      -7.447  11.097  67.636  1.00  0.00    -0.100 A  
HETATM   27  C   UNL     1      -8.297  11.961  66.945  1.00  0.00    -0.169 A  
HETATM   28  C   UNL     1      -9.571  12.255  67.455  1.00  0.00    -0.184 A  
BRANCH  28  29
HETATM   29  S   UNL     1     -10.782  12.888  66.284  1.00  0.00    -0.278 S  
HETATM   30  O   UNL     1     -12.055  12.289  66.653  1.00  0.00    -0.612 OA 
HETATM   31  O   UNL     1     -10.653  14.334  66.353  1.00  0.00    -0.280 OA 
BRANCH  29  32
HETATM   32  C   UNL     1     -10.445  12.365  64.609  1.00  0.00    -0.309 C  
HETATM   33  C   UNL     1     -10.377  10.841  64.468  1.00  0.00    -0.401 C  
HETATM   34  C   UNL     1     -11.542  12.908  63.680  1.00  0.00    -0.547 C  
ENDBRANCH  29  32
ENDBRANCH  28  29
ENDBRANCH  21  23
ENDBRANCH  18  21
ENDBRANCH  12  14
ENDBRANCH   6  12
BRANCH  11  35
HETATM   35  C   UNL     1      -8.469   4.475  72.589  1.00  0.00    -0.114 C  
HETATM   36  C   UNL     1      -8.501   3.055  71.989  1.00  0.00    -0.083 C  
HETATM   37  C   UNL     1      -7.769   2.985  70.659  1.00  0.00    -0.043 C  
HETATM   38  N   UNL     1      -6.364   3.313  70.855  1.00  0.00    -0.019 NA 
HETATM   39  H   UNL     1      -5.824   3.164  70.003  1.00  0.00     0.000 HD 
HETATM   40  C   UNL     1      -6.196   4.673  71.363  1.00  0.00    -0.018 C  
HETATM   41  C   UNL     1      -6.996   4.942  72.634  1.00  0.00    -0.076 C  
ENDBRANCH  11  35
ENDBRANCH   4   5
ENDBRANCH   2   4
TORSDOF 9
ENDMDL
MODEL       99
REMARK 921   NORMALIZED FREE ENERGY PREDICTED BY IDOCK:   -5.67 KCAL/MOL
REMARK 922        TOTAL FREE ENERGY PREDICTED BY IDOCK:  -10.82 KCAL/MOL
REMARK 923 INTER-LIGAND FREE ENERGY PREDICTED BY IDOCK:   -8.83 KCAL/MOL
REMARK 924 INTRA-LIGAND FREE ENERGY PREDICTED BY IDOCK:   -1.99 KCAL/MOL
REMARK 927      BINDING AFFINITY PREDICTED BY RF-SCORE:    0.00 PKD
ROOT
HETATM    1  C   UNL     1     -11.662   9.176  70.968  1.00  0.00    -0.363 C  
HETATM    2  C   UNL     1     -10.948   7.907  70.502  1.00  0.00    -0.248 C  
HETATM    3  C   UNL     1     -11.869   6.701  70.719  1.00  0.00    -0.441 C  
ENDROOT
BRANCH   2   4
HETATM    4  O   UNL     1     -10.567   8.095  69.119  1.00  0.00    -0.219 OA 
BRANCH   4   5
HETATM    5  C   UNL     1      -9.340   7.590  68.740  1.00  0.00    -0.147 A  
HETATM    6  C   UNL     1      -8.107   8.133  69.134  1.00  0.00    -0.121 A  
HETATM    7  C   UNL     1      -5.660   5.565  67.829  1.00  0.00    -0.012 C  
HETATM    8  C   UNL     1      -6.981   7.333  68.951  1.00  0.00    -0.078 A  
HETATM    9  C   UNL     1      -9.388   6.417  67.935  1.00  0.00    -0.114 A  
HETATM   10  C   UNL     1      -7.003   6.171  68.155  1.00  0.00    -0.080 A  
HETATM   11  C   UNL     1      -8.222   5.692  67.610  1.00  0.00    -0.101 A  
BRANCH   6  12
HETATM   12  N   UNL     1      -7.940   9.365  69.794  1.00  0.00    -0.104 NA 
HETATM   13  H   UNL     1      -7.934   9.292  70.812  1.00  0.00     0.000 HD 
BRANCH  12  14
HETATM   14  C   UNL     1      -7.784  10.641  69.329  1.00  0.00    -0.142 A  
HETATM   15  N   UNL     1      -8.678  11.186  68.446  1.00  0.00    -0.151 NA 
HETATM   16  C   UNL     1      -6.425  12.478  69.048  1.00  0.00    -0.097 A  
HETATM   17  N   UNL     1      -6.647  11.238  69.613  1.00  0.00    -0.130 NA 
HETATM   18  C   UNL     1      -8.404  12.328  67.682  1.00  0.00    -0.166 A  
HETATM   19  C   UNL     1      -7.179  13.080  68.123  1.00  0.00    -0.116 A  
HETATM   20 CL   UNL     1      -6.754  14.573  67.393  1.00  0.00    -0.130 Cl 
BRANCH  18  21
HETATM   21  N   UNL     1      -9.033  12.783  66.624  1.00  0.00    -0.359 NA 
HETATM   22  H   UNL     1      -9.270  13.773  66.558  1.00  0.00     0.000 HD 
BRANCH  21  23
HETATM   23  C   UNL     1      -9.380  11.910  65.586  1.00  0.00    -0.115 A  
HETATM   24  C   UNL     1      -8.458  10.931  65.182  1.00  0.00    -0.038 A  
HETATM   25  C   UNL     1      -8.569  10.315  63.941  1.00  0.00    -0.191 A  
HETATM   26  C   UNL     1      -9.652  10.615  63.124  1.00  0.00    -0.382 A  
HETATM   27  C   UNL     1     -10.673  11.441  63.594  1.00  0.00    -0.470 A  
HETATM   28  C   UNL     1     -10.562  12.055  64.851  1.00  0.00    -0.291 A  
BRANCH  28  29
HETATM   29  S   UNL     1     -12.093  12.617  65.613  1.00  0.00    -0.399 S  
HETATM   30  O   UNL     1     -13.147  12.360  64.644  1.00  0.00    -0.825 OA 
HETATM   31  O   UNL     1     -12.150  11.933  66.894  1.00  0.00    -0.599 OA 
BRANCH  29  32
HETATM   32  C   UNL     1     -12.097  14.379  65.907  1.00  0.00    -0.348 C  
HETATM   33  C   UNL     1     -11.735  14.739  67.351  1.00  0.00    -0.371 C  
HETATM   34  C   UNL     1     -11.096  15.052  64.953  1.00  0.00    -0.425 C  
ENDBRANCH  29  32
ENDBRANCH  28  29
ENDBRANCH  21  23
ENDBRANCH  18  21
ENDBRANCH  12  14
ENDBRANCH   6  12
BRANCH  11  35
HETATM   35  C   UNL     1      -8.206   4.415  66.744  1.00  0.00    -0.102 C  
HETATM   36  C   UNL     1      -9.590   3.737  66.692  1.00  0.00    -0.197 C  
HETATM   37  C   UNL     1     -10.497   4.377  65.654  1.00  0.00    -0.193 C  
HETATM   38  N   UNL     1      -9.915   4.217  64.329  1.00  0.00    -0.340 NA 
HETATM   39  H   UNL     1     -10.553   4.535  63.600  1.00  0.00     0.000 HD 
HETATM   40  C   UNL     1      -8.616   4.882  64.229  1.00  0.00    -0.141 C  
HETATM   41  C   UNL     1      -7.632   4.441  65.309  1.00  0.00    -0.085 C  
ENDBRANCH  11  35
ENDBRANCH   4   5
ENDBRANCH   2   4
TORSDOF 9
ENDMDL
MODEL      100
REMARK 921   NORMALIZED FREE ENERGY PREDICTED BY IDOCK:   -5.66 KCAL/MOL
REMARK 922        TOTAL FREE ENERGY PREDICTED BY IDOCK:  -10.81 KCAL/MOL
REMARK 923 INTER-LIGAND FREE ENERGY PREDICTED BY IDOCK:   -8.64 KCAL/MOL
REMARK 924 INTRA-LIGAND FREE ENERGY PREDICTED BY IDOCK:   -2.17 KCAL/MOL
REMARK 927      BINDING AFFINITY PREDICTED BY RF-SCORE:    0.00 PKD
ROOT
HETATM    1  C   UNL     1      -9.444   3.677  67.814  1.00  0.00    -0.231 C  
HETATM    2  C   UNL     1      -8.841   4.331  69.056  1.00  0.00    -0.096 C  
HETATM    3  C   UNL     1      -7.810   3.384  69.677  1.00  0.00    -0.053 C  
ENDROOT
BRANCH   2   4
HETATM    4  O   UNL     1      -8.282   5.606  68.659  1.00  0.00    -0.102 OA 
BRANCH   4   5
HETATM    5  C   UNL     1      -8.963   6.735  69.066  1.00  0.00    -0.131 A  
HETATM    6  C   UNL     1      -9.644   7.602  68.196  1.00  0.00    -0.149 A  
HETATM    7  C   UNL     1     -11.408   9.916  70.609  1.00  0.00    -0.413 C  
HETATM    8  C   UNL     1     -10.545   8.493  68.775  1.00  0.00    -0.162 A  
HETATM    9  C   UNL     1      -8.981   6.962  70.470  1.00  0.00    -0.155 A  
HETATM   10  C   UNL     1     -10.577   8.738  70.162  1.00  0.00    -0.237 A  
HETATM   11  C   UNL     1      -9.772   7.977  71.049  1.00  0.00    -0.185 A  
BRANCH   6  12
HETATM   12  N   UNL     1      -9.567   7.562  66.791  1.00  0.00    -0.193 NA 
HETATM   13  H   UNL     1     -10.145   6.837  66.365  1.00  0.00     0.000 HD 
BRANCH  12  14
HETATM   14  C   UNL     1      -8.864   8.312  65.889  1.00  0.00    -0.160 A  
HETATM   15  N   UNL     1      -9.043   9.668  65.806  1.00  0.00    -0.171 NA 
HETATM   16  C   UNL     1      -7.553   8.393  63.999  1.00  0.00    -0.126 A  
HETATM   17  N   UNL     1      -8.168   7.653  64.989  1.00  0.00    -0.134 NA 
HETATM   18  C   UNL     1      -8.627  10.430  64.707  1.00  0.00    -0.182 A  
HETATM   19  C   UNL     1      -7.707   9.700  63.768  1.00  0.00    -0.130 A  
HETATM   20 CL   UNL     1      -6.990  10.508  62.434  1.00  0.00    -0.154 Cl 
BRANCH  18  21
HETATM   21  N   UNL     1      -8.971  11.652  64.372  1.00  0.00    -0.308 NA 
HETATM   22  H   UNL     1      -8.273  12.295  64.000  1.00  0.00     0.000 HD 
BRANCH  21  23
HETATM   23  C   UNL     1     -10.298  12.071  64.527  1.00  0.00    -0.296 A  
HETATM   24  C   UNL     1     -11.283  11.545  63.676  1.00  0.00    -0.451 A  
HETATM   25  C   UNL     1     -12.504  12.189  63.513  1.00  0.00    -0.666 A  
HETATM   26  C   UNL     1     -12.782  13.326  64.262  1.00  0.00    -0.146 A  
HETATM   27  C   UNL     1     -11.889  13.747  65.248  1.00  0.00    -0.365 A  
HETATM   28  C   UNL     1     -10.661  13.090  65.415  1.00  0.00    -0.292 A  
BRANCH  28  29
HETATM   29  S   UNL     1      -9.843  13.301  67.005  1.00  0.00    -0.248 S  
HETATM   30  O   UNL     1     -10.586  12.487  67.955  1.00  0.00    -0.209 OA 
HETATM   31  O   UNL     1      -8.448  12.975  66.758  1.00  0.00    -0.129 OA 
BRANCH  29  32
HETATM   32  C   UNL     1      -9.939  14.983  67.599  1.00  0.00    -0.225 C  
HETATM   33  C   UNL     1      -9.439  15.132  69.039  1.00  0.00    -0.221 C  
HETATM   34  C   UNL     1      -9.104  15.890  66.680  1.00  0.00    -0.290 C  
ENDBRANCH  29  32
ENDBRANCH  28  29
ENDBRANCH  21  23
ENDBRANCH  18  21
ENDBRANCH  12  14
ENDBRANCH   6  12
BRANCH  11  35
HETATM   35  C   UNL     1      -9.836   8.273  72.562  1.00  0.00    -0.368 C  
HETATM   36  C   UNL     1     -11.006   7.537  73.244  1.00  0.00    -0.362 C  
HETATM   37  C   UNL     1     -10.649   6.099  73.585  1.00  0.00    -0.263 C  
HETATM   38  N   UNL     1      -9.546   6.079  74.534  1.00  0.00    -0.199 NA 
HETATM   39  H   UNL     1      -9.359   5.134  74.869  1.00  0.00     0.000 HD 
HETATM   40  C   UNL     1      -8.344   6.695  73.975  1.00  0.00    -0.128 C  
HETATM   41  C   UNL     1      -8.583   8.109  73.453  1.00  0.00    -0.313 C  
ENDBRANCH  11  35
ENDBRANCH   4   5
ENDBRANCH   2   4
TORSDOF 9
ENDMDL
MODEL      101
REMARK 921   NORMALIZED FREE ENERGY PREDICTED BY IDOCK:   -5.65 KCAL/MOL
REMARK 922        TOTAL FREE ENERGY PREDICTED BY IDOCK:  -10.79 KCAL/MOL
REMARK 923 INTER-LIGAND FREE ENERGY PREDICTED BY IDOCK:   -9.81 KCAL/MOL
REMARK 924 INTRA-LIGAND FREE ENERGY PREDICTED BY IDOCK:   -0.97 KCAL/MOL
REMARK 927      BINDING AFFINITY PREDICTED BY RF-SCORE:    0.00 PKD
ROOT
HETATM    1  C   UNL     1     -11.680  13.715  67.537  1.00  0.00    -0.406 C  
HETATM    2  C   UNL     1     -11.605  13.492  66.028  1.00  0.00    -0.338 C  
HETATM    3  C   UNL     1     -12.902  13.985  65.379  1.00  0.00    -0.442 C  
ENDROOT
BRANCH   2   4
HETATM    4  O   UNL     1     -10.425  14.171  65.537  1.00  0.00    -0.305 OA 
BRANCH   4   5
HETATM    5  C   UNL     1      -9.596  14.736  66.484  1.00  0.00    -0.284 A  
HETATM    6  C   UNL     1      -8.488  14.086  67.052  1.00  0.00    -0.147 A  
HETATM    7  C   UNL     1      -6.886  16.862  69.055  1.00  0.00    -0.224 C  
HETATM    8  C   UNL     1      -7.571  14.885  67.730  1.00  0.00    -0.171 A  
HETATM    9  C   UNL     1      -9.903  16.079  66.838  1.00  0.00    -0.252 A  
HETATM   10  C   UNL     1      -7.855  16.216  68.095  1.00  0.00    -0.147 A  
HETATM   11  C   UNL     1      -9.053  16.843  67.664  1.00  0.00    -0.223 A  
BRANCH   6  12
HETATM   12  N   UNL     1      -8.183  12.721  66.893  1.00  0.00    -0.386 NA 
HETATM   13  H   UNL     1      -7.264  12.547  66.485  1.00  0.00     0.000 HD 
BRANCH  12  14
HETATM   14  C   UNL     1      -8.885  11.584  67.182  1.00  0.00    -0.168 A  
HETATM   15  N   UNL     1      -9.308  11.320  68.458  1.00  0.00    -0.181 NA 
HETATM   16  C   UNL     1      -9.560   9.477  66.549  1.00  0.00    -0.201 A  
HETATM   17  N   UNL     1      -8.960  10.679  66.232  1.00  0.00    -0.160 NA 
HETATM   18  C   UNL     1      -9.719  10.050  68.883  1.00  0.00    -0.181 A  
HETATM   19  C   UNL     1      -9.946   9.073  67.763  1.00  0.00    -0.187 A  
HETATM   20 CL   UNL     1     -10.574   7.507  68.076  1.00  0.00    -0.240 Cl 
BRANCH  18  21
HETATM   21  N   UNL     1      -9.875   9.600  70.106  1.00  0.00    -0.249 NA 
HETATM   22  H   UNL     1     -10.781   9.684  70.569  1.00  0.00     0.000 HD 
BRANCH  21  23
HETATM   23  C   UNL     1      -8.799   9.006  70.776  1.00  0.00    -0.234 A  
HETATM   24  C   UNL     1      -7.500   9.482  70.537  1.00  0.00    -0.159 A  
HETATM   25  C   UNL     1      -6.388   8.709  70.847  1.00  0.00    -0.044 A  
HETATM   26  C   UNL     1      -6.563   7.481  71.474  1.00  0.00    -0.045 A  
HETATM   27  C   UNL     1      -7.835   7.085  71.888  1.00  0.00    -0.094 A  
HETATM   28  C   UNL     1      -8.954   7.872  71.581  1.00  0.00    -0.138 A  
BRANCH  28  29
HETATM   29  S   UNL     1     -10.422   7.617  72.593  1.00  0.00    -0.317 S  
HETATM   30  O   UNL     1      -9.945   7.192  73.899  1.00  0.00    -0.301 OA 
HETATM   31  O   UNL     1     -11.164   8.864  72.500  1.00  0.00    -0.200 OA 
BRANCH  29  32
HETATM   32  C   UNL     1     -11.450   6.294  71.975  1.00  0.00    -0.310 C  
HETATM   33  C   UNL     1     -11.594   5.141  72.973  1.00  0.00    -0.301 C  
HETATM   34  C   UNL     1     -12.844   6.851  71.643  1.00  0.00    -0.383 C  
ENDBRANCH  29  32
ENDBRANCH  28  29
ENDBRANCH  21  23
ENDBRANCH  18  21
ENDBRANCH  12  14
ENDBRANCH   6  12
BRANCH  11  35
HETATM   35  C   UNL     1      -9.328  18.302  68.083  1.00  0.00    -0.307 C  
HETATM   36  C   UNL     1      -8.244  19.266  67.563  1.00  0.00    -0.320 C  
HETATM   37  C   UNL     1      -8.496  19.678  66.121  1.00  0.00    -0.334 C  
HETATM   38  N   UNL     1      -9.758  20.398  66.031  1.00  0.00    -0.666 NA 
HETATM   39  H   UNL     1      -9.900  20.786  65.099  1.00  0.00     0.000 HD 
HETATM   40  C   UNL     1     -10.885  19.560  66.438  1.00  0.00    -0.340 C  
HETATM   41  C   UNL     1     -10.708  18.951  67.826  1.00  0.00    -0.426 C  
ENDBRANCH  11  35
ENDBRANCH   4   5
ENDBRANCH   2   4
TORSDOF 9
ENDMDL
MODEL      102
REMARK 921   NORMALIZED FREE ENERGY PREDICTED BY IDOCK:   -5.64 KCAL/MOL
REMARK 922        TOTAL FREE ENERGY PREDICTED BY IDOCK:  -10.78 KCAL/MOL
REMARK 923 INTER-LIGAND FREE ENERGY PREDICTED BY IDOCK:   -9.08 KCAL/MOL
REMARK 924 INTRA-LIGAND FREE ENERGY PREDICTED BY IDOCK:   -1.69 KCAL/MOL
REMARK 927      BINDING AFFINITY PREDICTED BY RF-SCORE:    0.00 PKD
ROOT
HETATM    1  C   UNL     1      -8.537   8.362  67.783  1.00  0.00    -0.130 C  
HETATM    2  C   UNL     1      -7.726   9.238  68.737  1.00  0.00    -0.083 C  
HETATM    3  C   UNL     1      -6.594   9.919  67.960  1.00  0.00    -0.060 C  
ENDROOT
BRANCH   2   4
HETATM    4  O   UNL     1      -8.636  10.175  69.362  1.00  0.00    -0.154 OA 
BRANCH   4   5
HETATM    5  C   UNL     1      -9.558   9.648  70.243  1.00  0.00    -0.254 A  
HETATM    6  C   UNL     1     -10.949   9.717  70.064  1.00  0.00    -0.260 A  
HETATM    7  C   UNL     1     -12.215   7.526  72.873  1.00  0.00     0.277 C  
HETATM    8  C   UNL     1     -11.726   8.868  70.850  1.00  0.00    -0.312 A  
HETATM    9  C   UNL     1      -9.008   8.966  71.364  1.00  0.00    -0.300 A  
HETATM   10  C   UNL     1     -11.204   8.186  71.966  1.00  0.00    -0.372 A  
HETATM   11  C   UNL     1      -9.816   8.236  72.260  1.00  0.00    -0.364 A  
BRANCH   6  12
HETATM   12  N   UNL     1     -11.601  10.490  69.085  1.00  0.00    -0.423 NA 
HETATM   13  H   UNL     1     -12.021   9.940  68.336  1.00  0.00     0.000 HD 
BRANCH  12  14
HETATM   14  C   UNL     1     -11.778  11.838  68.949  1.00  0.00    -0.323 A  
HETATM   15  N   UNL     1     -11.319  12.504  67.843  1.00  0.00    -0.270 NA 
HETATM   16  C   UNL     1     -12.295  13.861  69.920  1.00  0.00    -0.300 A  
HETATM   17  N   UNL     1     -12.227  12.485  70.003  1.00  0.00    -0.240 NA 
HETATM   18  C   UNL     1     -11.162  13.895  67.794  1.00  0.00    -0.293 A  
HETATM   19  C   UNL     1     -11.816  14.626  68.934  1.00  0.00    -0.309 A  
HETATM   20 CL   UNL     1     -11.842  16.341  68.980  1.00  0.00    -0.194 Cl 
BRANCH  18  21
HETATM   21  N   UNL     1     -10.489  14.620  66.932  1.00  0.00    -0.267 NA 
HETATM   22  H   UNL     1     -10.982  15.134  66.202  1.00  0.00     0.000 HD 
BRANCH  21  23
HETATM   23  C   UNL     1      -9.093  14.685  67.013  1.00  0.00    -0.238 A  
HETATM   24  C   UNL     1      -8.358  13.494  67.117  1.00  0.00    -0.151 A  
HETATM   25  C   UNL     1      -7.050  13.500  67.588  1.00  0.00    -0.176 A  
HETATM   26  C   UNL     1      -6.436  14.711  67.883  1.00  0.00    -0.177 A  
HETATM   27  C   UNL     1      -7.090  15.911  67.603  1.00  0.00    -0.185 A  
HETATM   28  C   UNL     1      -8.407  15.901  67.120  1.00  0.00    -0.202 A  
BRANCH  28  29
HETATM   29  S   UNL     1      -8.966  17.386  66.270  1.00  0.00    -0.161 S  
HETATM   30  O   UNL     1      -7.818  17.886  65.530  1.00  0.00    -0.459 OA 
HETATM   31  O   UNL     1     -10.143  16.973  65.523  1.00  0.00    -0.577 OA 
BRANCH  29  32
HETATM   32  C   UNL     1      -9.437  18.682  67.406  1.00  0.00    -0.297 C  
HETATM   33  C   UNL     1     -10.780  19.325  67.046  1.00  0.00    -0.565 C  
HETATM   34  C   UNL     1      -9.522  18.099  68.826  1.00  0.00    -0.285 C  
ENDBRANCH  29  32
ENDBRANCH  28  29
ENDBRANCH  21  23
ENDBRANCH  18  21
ENDBRANCH  12  14
ENDBRANCH   6  12
BRANCH  11  35
HETATM   35  C   UNL     1      -9.282   7.475  73.491  1.00  0.00    -0.301 C  
HETATM   36  C   UNL     1      -9.086   5.974  73.200  1.00  0.00    -0.130 C  
HETATM   37  C   UNL     1      -7.761   5.699  72.509  1.00  0.00    -0.102 C  
HETATM   38  N   UNL     1      -6.663   6.092  73.380  1.00  0.00    -0.074 NA 
HETATM   39  H   UNL     1      -5.761   5.814  72.992  1.00  0.00     0.000 HD 
HETATM   40  C   UNL     1      -6.699   7.523  73.678  1.00  0.00    -0.075 C  
HETATM   41  C   UNL     1      -8.035   7.981  74.253  1.00  0.00    -0.297 C  
ENDBRANCH  11  35
ENDBRANCH   4   5
ENDBRANCH   2   4
TORSDOF 9
ENDMDL
MODEL      103
REMARK 921   NORMALIZED FREE ENERGY PREDICTED BY IDOCK:   -5.63 KCAL/MOL
REMARK 922        TOTAL FREE ENERGY PREDICTED BY IDOCK:  -10.76 KCAL/MOL
REMARK 923 INTER-LIGAND FREE ENERGY PREDICTED BY IDOCK:   -9.24 KCAL/MOL
REMARK 924 INTRA-LIGAND FREE ENERGY PREDICTED BY IDOCK:   -1.53 KCAL/MOL
REMARK 927      BINDING AFFINITY PREDICTED BY RF-SCORE:    0.00 PKD
ROOT
HETATM    1  C   UNL     1     -12.109   9.242  71.372  1.00  0.00    -0.424 C  
HETATM    2  C   UNL     1     -11.899   7.728  71.367  1.00  0.00    -0.297 C  
HETATM    3  C   UNL     1     -13.258   7.028  71.474  1.00  0.00    -0.382 C  
ENDROOT
BRANCH   2   4
HETATM    4  O   UNL     1     -11.171   7.386  70.163  1.00  0.00    -0.266 OA 
BRANCH   4   5
HETATM    5  C   UNL     1      -9.837   7.070  70.315  1.00  0.00    -0.175 A  
HETATM    6  C   UNL     1      -8.788   7.996  70.192  1.00  0.00    -0.143 A  
HETATM    7  C   UNL     1      -5.803   5.958  71.297  1.00  0.00    -0.025 C  
HETATM    8  C   UNL     1      -7.546   7.608  70.691  1.00  0.00    -0.080 A  
HETATM    9  C   UNL     1      -9.567   5.716  70.659  1.00  0.00    -0.213 A  
HETATM   10  C   UNL     1      -7.255   6.273  71.034  1.00  0.00    -0.075 A  
HETATM   11  C   UNL     1      -8.271   5.282  71.008  1.00  0.00    -0.116 A  
BRANCH   6  12
HETATM   12  N   UNL     1      -8.924   9.311  69.710  1.00  0.00    -0.158 NA 
HETATM   13  H   UNL     1      -8.765  10.030  70.417  1.00  0.00     0.000 HD 
BRANCH  12  14
HETATM   14  C   UNL     1      -9.226   9.808  68.473  1.00  0.00    -0.134 A  
HETATM   15  N   UNL     1     -10.235  10.720  68.305  1.00  0.00    -0.161 NA 
HETATM   16  C   UNL     1      -9.033   9.638  66.185  1.00  0.00    -0.154 A  
HETATM   17  N   UNL     1      -8.645   9.229  67.445  1.00  0.00    -0.122 NA 
HETATM   18  C   UNL     1     -10.814  11.005  67.062  1.00  0.00    -0.279 A  
HETATM   19  C   UNL     1     -10.046  10.459  65.889  1.00  0.00    -0.261 A  
HETATM   20 CL   UNL     1     -10.527  10.813  64.281  1.00  0.00    -0.411 Cl 
BRANCH  18  21
HETATM   21  N   UNL     1     -11.940  11.625  66.798  1.00  0.00    -0.457 NA 
HETATM   22  H   UNL     1     -12.831  11.158  66.969  1.00  0.00     0.000 HD 
BRANCH  21  23
HETATM   23  C   UNL     1     -11.919  12.925  66.283  1.00  0.00    -0.408 A  
HETATM   24  C   UNL     1     -12.473  13.167  65.016  1.00  0.00    -0.516 A  
HETATM   25  C   UNL     1     -12.142  14.309  64.297  1.00  0.00    -0.467 A  
HETATM   26  C   UNL     1     -11.312  15.263  64.874  1.00  0.00    -0.387 A  
HETATM   27  C   UNL     1     -10.909  15.125  66.202  1.00  0.00    -0.330 A  
HETATM   28  C   UNL     1     -11.253  13.974  66.928  1.00  0.00    -0.313 A  
BRANCH  28  29
HETATM   29  S   UNL     1     -11.203  14.107  68.723  1.00  0.00    -0.285 S  
HETATM   30  O   UNL     1     -12.113  13.093  69.230  1.00  0.00    -0.289 OA 
HETATM   31  O   UNL     1      -9.794  14.008  69.069  1.00  0.00    -0.128 OA 
BRANCH  29  32
HETATM   32  C   UNL     1     -11.823  15.679  69.303  1.00  0.00    -0.363 C  
HETATM   33  C   UNL     1     -12.584  15.562  70.628  1.00  0.00    -0.493 C  
HETATM   34  C   UNL     1     -10.645  16.650  69.484  1.00  0.00    -0.308 C  
ENDBRANCH  29  32
ENDBRANCH  28  29
ENDBRANCH  21  23
ENDBRANCH  18  21
ENDBRANCH  12  14
ENDBRANCH   6  12
BRANCH  11  35
HETATM   35  C   UNL     1      -7.914   3.831  71.392  1.00  0.00    -0.064 C  
HETATM   36  C   UNL     1      -8.645   3.376  72.670  1.00  0.00    -0.090 C  
HETATM   37  C   UNL     1     -10.060   2.904  72.377  1.00  0.00    -0.161 C  
HETATM   38  N   UNL     1     -10.017   1.745  71.497  1.00  0.00    -0.139 NA 
HETATM   39  H   UNL     1     -10.943   1.336  71.374  1.00  0.00     0.000 HD 
HETATM   40  C   UNL     1      -9.401   2.068  70.212  1.00  0.00    -0.109 C  
HETATM   41  C   UNL     1      -8.015   2.692  70.352  1.00  0.00    -0.051 C  
ENDBRANCH  11  35
ENDBRANCH   4   5
ENDBRANCH   2   4
TORSDOF 9
ENDMDL
MODEL      104
REMARK 921   NORMALIZED FREE ENERGY PREDICTED BY IDOCK:   -5.61 KCAL/MOL
REMARK 922        TOTAL FREE ENERGY PREDICTED BY IDOCK:  -10.73 KCAL/MOL
REMARK 923 INTER-LIGAND FREE ENERGY PREDICTED BY IDOCK:   -9.12 KCAL/MOL
REMARK 924 INTRA-LIGAND FREE ENERGY PREDICTED BY IDOCK:   -1.61 KCAL/MOL
REMARK 927      BINDING AFFINITY PREDICTED BY RF-SCORE:    0.00 PKD
ROOT
HETATM    1  C   UNL     1     -12.437  13.440  64.562  1.00  0.00    -0.359 C  
HETATM    2  C   UNL     1     -11.158  12.736  65.015  1.00  0.00    -0.285 C  
HETATM    3  C   UNL     1     -10.250  12.507  63.803  1.00  0.00    -0.360 C  
ENDROOT
BRANCH   2   4
HETATM    4  O   UNL     1     -10.546  13.548  66.045  1.00  0.00    -0.278 OA 
BRANCH   4   5
HETATM    5  C   UNL     1     -10.919  13.283  67.347  1.00  0.00    -0.271 A  
HETATM    6  C   UNL     1     -11.454  14.240  68.225  1.00  0.00    -0.304 A  
HETATM    7  C   UNL     1     -12.448  12.121  71.192  1.00  0.00    -0.337 C  
HETATM    8  C   UNL     1     -12.080  13.759  69.373  1.00  0.00    -0.377 A  
HETATM    9  C   UNL     1     -10.771  11.930  67.759  1.00  0.00    -0.243 A  
HETATM   10  C   UNL     1     -11.944  12.424  69.802  1.00  0.00    -0.359 A  
HETATM   11  C   UNL     1     -11.263  11.473  69.000  1.00  0.00    -0.324 A  
BRANCH   6  12
HETATM   12  N   UNL     1     -11.501  15.625  67.979  1.00  0.00    -0.328 NA 
HETATM   13  H   UNL     1     -12.367  16.071  68.286  1.00  0.00     0.000 HD 
BRANCH  12  14
HETATM   14  C   UNL     1     -10.608  16.487  67.407  1.00  0.00    -0.300 A  
HETATM   15  N   UNL     1      -9.257  16.281  67.518  1.00  0.00    -0.204 NA 
HETATM   16  C   UNL     1     -10.191  18.541  66.455  1.00  0.00    -0.420 A  
HETATM   17  N   UNL     1     -11.094  17.609  66.924  1.00  0.00     0.156 NA 
HETATM   18  C   UNL     1      -8.305  17.276  67.262  1.00  0.00    -0.201 A  
HETATM   19  C   UNL     1      -8.860  18.491  66.570  1.00  0.00    -0.293 A  
HETATM   20 CL   UNL     1      -7.826  19.761  66.059  1.00  0.00    -0.340 Cl 
BRANCH  18  21
HETATM   21  N   UNL     1      -7.035  17.306  67.588  1.00  0.00    -0.151 NA 
HETATM   22  H   UNL     1      -6.324  17.067  66.897  1.00  0.00     0.000 HD 
BRANCH  21  23
HETATM   23  C   UNL     1      -6.655  17.666  68.886  1.00  0.00    -0.228 A  
HETATM   24  C   UNL     1      -6.708  19.017  69.263  1.00  0.00    -0.330 A  
HETATM   25  C   UNL     1      -5.993  19.480  70.362  1.00  0.00    -0.262 A  
HETATM   26  C   UNL     1      -5.281  18.579  71.143  1.00  0.00    -0.277 A  
HETATM   27  C   UNL     1      -5.376  17.210  70.891  1.00  0.00    -0.138 A  
HETATM   28  C   UNL     1      -6.105  16.745  69.786  1.00  0.00    -0.224 A  
BRANCH  28  29
HETATM   29  S   UNL     1      -6.646  15.029  69.842  1.00  0.00    -0.154 S  
HETATM   30  O   UNL     1      -6.072  14.462  71.052  1.00  0.00    -0.195 OA 
HETATM   31  O   UNL     1      -8.094  15.087  69.725  1.00  0.00    -0.140 OA 
BRANCH  29  32
HETATM   32  C   UNL     1      -6.002  14.070  68.479  1.00  0.00    -0.092 C  
HETATM   33  C   UNL     1      -5.187  12.858  68.941  1.00  0.00    -0.067 C  
HETATM   34  C   UNL     1      -7.172  13.588  67.606  1.00  0.00    -0.175 C  
ENDBRANCH  29  32
ENDBRANCH  28  29
ENDBRANCH  21  23
ENDBRANCH  18  21
ENDBRANCH  12  14
ENDBRANCH   6  12
BRANCH  11  35
HETATM   35  C   UNL     1     -11.135  10.020  69.504  1.00  0.00    -0.279 C  
HETATM   36  C   UNL     1     -10.760   9.047  68.368  1.00  0.00    -0.145 C  
HETATM   37  C   UNL     1      -9.264   9.039  68.100  1.00  0.00    -0.136 C  
HETATM   38  N   UNL     1      -8.556   8.576  69.285  1.00  0.00    -0.128 NA 
HETATM   39  H   UNL     1      -7.561   8.451  69.100  1.00  0.00     0.000 HD 
HETATM   40  C   UNL     1      -8.780   9.462  70.426  1.00  0.00    -0.240 C  
HETATM   41  C   UNL     1     -10.258   9.684  70.732  1.00  0.00    -0.330 C  
ENDBRANCH  11  35
ENDBRANCH   4   5
ENDBRANCH   2   4
TORSDOF 9
ENDMDL
MODEL      105
REMARK 921   NORMALIZED FREE ENERGY PREDICTED BY IDOCK:   -5.61 KCAL/MOL
REMARK 922        TOTAL FREE ENERGY PREDICTED BY IDOCK:  -10.73 KCAL/MOL
REMARK 923 INTER-LIGAND FREE ENERGY PREDICTED BY IDOCK:   -8.96 KCAL/MOL
REMARK 924 INTRA-LIGAND FREE ENERGY PREDICTED BY IDOCK:   -1.76 KCAL/MOL
REMARK 927      BINDING AFFINITY PREDICTED BY RF-SCORE:    0.00 PKD
ROOT
HETATM    1  C   UNL     1      -5.929   7.775  72.905  1.00  0.00    -0.049 C  
HETATM    2  C   UNL     1      -5.561   8.719  71.761  1.00  0.00    -0.051 C  
HETATM    3  C   UNL     1      -5.317   7.900  70.489  1.00  0.00    -0.023 C  
ENDROOT
BRANCH   2   4
HETATM    4  O   UNL     1      -6.630   9.687  71.622  1.00  0.00    -0.307 OA 
BRANCH   4   5
HETATM    5  C   UNL     1      -7.523   9.480  70.592  1.00  0.00    -0.118 A  
HETATM    6  C   UNL     1      -7.376  10.013  69.301  1.00  0.00    -0.091 A  
HETATM    7  C   UNL     1     -10.178   8.312  67.420  1.00  0.00    -0.326 C  
HETATM    8  C   UNL     1      -8.166   9.456  68.297  1.00  0.00    -0.118 A  
HETATM    9  C   UNL     1      -8.621   8.629  70.900  1.00  0.00    -0.204 A  
HETATM   10  C   UNL     1      -9.260   8.615  68.579  1.00  0.00    -0.138 A  
HETATM   11  C   UNL     1      -9.523   8.192  69.907  1.00  0.00    -0.160 A  
BRANCH   6  12
HETATM   12  N   UNL     1      -6.424  10.981  68.930  1.00  0.00    -0.051 NA 
HETATM   13  H   UNL     1      -5.466  10.631  68.905  1.00  0.00     0.000 HD 
BRANCH  12  14
HETATM   14  C   UNL     1      -6.539  12.302  68.597  1.00  0.00    -0.078 A  
HETATM   15  N   UNL     1      -7.744  12.832  68.216  1.00  0.00    -0.129 NA 
HETATM   16  C   UNL     1      -5.514  14.280  68.017  1.00  0.00    -0.117 A  
HETATM   17  N   UNL     1      -5.420  12.979  68.471  1.00  0.00    -0.063 NA 
HETATM   18  C   UNL     1      -7.867  14.057  67.549  1.00  0.00    -0.184 A  
HETATM   19  C   UNL     1      -6.611  14.884  67.549  1.00  0.00    -0.112 A  
HETATM   20 CL   UNL     1      -6.601  16.469  66.893  1.00  0.00    -0.230 Cl 
BRANCH  18  21
HETATM   21  N   UNL     1      -8.896  14.540  66.893  1.00  0.00    -0.261 NA 
HETATM   22  H   UNL     1      -8.819  14.737  65.895  1.00  0.00     0.000 HD 
BRANCH  21  23
HETATM   23  C   UNL     1     -10.100  14.785  67.564  1.00  0.00    -0.224 A  
HETATM   24  C   UNL     1     -10.318  16.049  68.134  1.00  0.00    -0.260 A  
HETATM   25  C   UNL     1     -11.280  16.232  69.121  1.00  0.00    -0.309 A  
HETATM   26  C   UNL     1     -12.090  15.165  69.491  1.00  0.00    -0.316 A  
HETATM   27  C   UNL     1     -12.011  13.956  68.798  1.00  0.00    -0.393 A  
HETATM   28  C   UNL     1     -11.045  13.779  67.796  1.00  0.00    -0.268 A  
BRANCH  28  29
HETATM   29  S   UNL     1     -11.355  12.470  66.599  1.00  0.00    -0.355 S  
HETATM   30  O   UNL     1     -10.070  12.165  65.990  1.00  0.00    -0.225 OA 
HETATM   31  O   UNL     1     -12.029  11.425  67.351  1.00  0.00    -0.606 OA 
BRANCH  29  32
HETATM   32  C   UNL     1     -12.427  13.004  65.274  1.00  0.00    -0.499 C  
HETATM   33  C   UNL     1     -12.199  14.466  64.880  1.00  0.00    -0.440 C  
HETATM   34  C   UNL     1     -12.195  12.108  64.046  1.00  0.00    -0.544 C  
ENDBRANCH  29  32
ENDBRANCH  28  29
ENDBRANCH  21  23
ENDBRANCH  18  21
ENDBRANCH  12  14
ENDBRANCH   6  12
BRANCH  11  35
HETATM   35  C   UNL     1     -10.731   7.269  70.176  1.00  0.00    -0.260 C  
HETATM   36  C   UNL     1     -10.307   5.942  70.836  1.00  0.00    -0.288 C  
HETATM   37  C   UNL     1     -10.137   6.086  72.339  1.00  0.00    -0.175 C  
HETATM   38  N   UNL     1     -11.410   6.453  72.943  1.00  0.00    -0.440 NA 
HETATM   39  H   UNL     1     -11.356   6.445  73.962  1.00  0.00     0.000 HD 
HETATM   40  C   UNL     1     -11.890   7.740  72.444  1.00  0.00    -0.321 C  
HETATM   41  C   UNL     1     -11.978   7.798  70.922  1.00  0.00    -0.229 C  
ENDBRANCH  11  35
ENDBRANCH   4   5
ENDBRANCH   2   4
TORSDOF 9
ENDMDL
MODEL      106
REMARK 921   NORMALIZED FREE ENERGY PREDICTED BY IDOCK:   -5.59 KCAL/MOL
REMARK 922        TOTAL FREE ENERGY PREDICTED BY IDOCK:  -10.69 KCAL/MOL
REMARK 923 INTER-LIGAND FREE ENERGY PREDICTED BY IDOCK:   -9.17 KCAL/MOL
REMARK 924 INTRA-LIGAND FREE ENERGY PREDICTED BY IDOCK:   -1.52 KCAL/MOL
REMARK 927      BINDING AFFINITY PREDICTED BY RF-SCORE:    0.00 PKD
ROOT
HETATM    1  C   UNL     1      -8.392  15.451  66.614  1.00  0.00    -0.255 C  
HETATM    2  C   UNL     1      -9.873  15.403  66.985  1.00  0.00    -0.232 C  
HETATM    3  C   UNL     1     -10.556  16.690  66.507  1.00  0.00    -0.203 C  
ENDROOT
BRANCH   2   4
HETATM    4  O   UNL     1     -10.438  14.205  66.402  1.00  0.00    -0.276 OA 
BRANCH   4   5
HETATM    5  C   UNL     1     -11.058  13.328  67.267  1.00  0.00    -0.279 A  
HETATM    6  C   UNL     1     -11.444  12.021  66.924  1.00  0.00    -0.337 A  
HETATM    7  C   UNL     1     -12.539  10.620  70.259  1.00  0.00    -0.333 C  
HETATM    8  C   UNL     1     -11.749  11.160  67.975  1.00  0.00    -0.288 A  
HETATM    9  C   UNL     1     -11.255  13.813  68.589  1.00  0.00    -0.308 A  
HETATM   10  C   UNL     1     -11.952  11.619  69.291  1.00  0.00    -0.382 A  
HETATM   11  C   UNL     1     -11.722  12.978  69.626  1.00  0.00    -0.364 A  
BRANCH   6  12
HETATM   12  N   UNL     1     -11.440  11.493  65.619  1.00  0.00    -0.157 NA 
HETATM   13  H   UNL     1     -12.237  11.784  65.052  1.00  0.00     0.000 HD 
BRANCH  12  14
HETATM   14  C   UNL     1     -10.569  10.666  64.967  1.00  0.00    -0.117 A  
HETATM   15  N   UNL     1     -10.034   9.570  65.591  1.00  0.00    -0.280 NA 
HETATM   16  C   UNL     1      -9.152  10.312  63.187  1.00  0.00    -0.271 A  
HETATM   17  N   UNL     1     -10.124  11.078  63.800  1.00  0.00    -0.332 NA 
HETATM   18  C   UNL     1      -8.904   8.891  65.117  1.00  0.00    -0.166 A  
HETATM   19  C   UNL     1      -8.504   9.271  63.718  1.00  0.00    -0.191 A  
HETATM   20 CL   UNL     1      -7.223   8.457  62.918  1.00  0.00    -0.094 Cl 
BRANCH  18  21
HETATM   21  N   UNL     1      -8.137   8.028  65.741  1.00  0.00    -0.114 NA 
HETATM   22  H   UNL     1      -7.298   8.348  66.224  1.00  0.00     0.000 HD 
BRANCH  21  23
HETATM   23  C   UNL     1      -8.472   6.669  65.744  1.00  0.00    -0.148 A  
HETATM   24  C   UNL     1      -7.862   5.815  64.812  1.00  0.00    -0.114 A  
HETATM   25  C   UNL     1      -8.420   4.580  64.503  1.00  0.00    -0.128 A  
HETATM   26  C   UNL     1      -9.554   4.153  65.184  1.00  0.00    -0.185 A  
HETATM   27  C   UNL     1     -10.057   4.909  66.244  1.00  0.00    -0.285 A  
HETATM   28  C   UNL     1      -9.485   6.151  66.558  1.00  0.00    -0.153 A  
BRANCH  28  29
HETATM   29  S   UNL     1      -9.788   6.781  68.217  1.00  0.00    -0.146 S  
HETATM   30  O   UNL     1      -8.490   7.166  68.748  1.00  0.00    -0.125 OA 
HETATM   31  O   UNL     1     -10.800   7.811  68.050  1.00  0.00    -0.115 OA 
BRANCH  29  32
HETATM   32  C   UNL     1     -10.429   5.524  69.313  1.00  0.00    -0.266 C  
HETATM   33  C   UNL     1      -9.326   4.667  69.940  1.00  0.00    -0.214 C  
HETATM   34  C   UNL     1     -11.241   6.198  70.432  1.00  0.00    -0.423 C  
ENDBRANCH  29  32
ENDBRANCH  28  29
ENDBRANCH  21  23
ENDBRANCH  18  21
ENDBRANCH  12  14
ENDBRANCH   6  12
BRANCH  11  35
HETATM   35  C   UNL     1     -11.954  13.443  71.079  1.00  0.00    -0.025 C  
HETATM   36  C   UNL     1     -11.554  14.918  71.283  1.00  0.00    -0.359 C  
HETATM   37  C   UNL     1     -12.656  15.870  70.848  1.00  0.00    -0.260 C  
HETATM   38  N   UNL     1     -13.842  15.653  71.664  1.00  0.00    -0.487 NA 
HETATM   39  H   UNL     1     -14.559  16.353  71.473  1.00  0.00     0.000 HD 
HETATM   40  C   UNL     1     -14.363  14.297  71.504  1.00  0.00    -0.286 C  
HETATM   41  C   UNL     1     -13.318  13.218  71.772  1.00  0.00    -0.479 C  
ENDBRANCH  11  35
ENDBRANCH   4   5
ENDBRANCH   2   4
TORSDOF 9
ENDMDL
MODEL      107
REMARK 921   NORMALIZED FREE ENERGY PREDICTED BY IDOCK:   -5.59 KCAL/MOL
REMARK 922        TOTAL FREE ENERGY PREDICTED BY IDOCK:  -10.69 KCAL/MOL
REMARK 923 INTER-LIGAND FREE ENERGY PREDICTED BY IDOCK:   -9.59 KCAL/MOL
REMARK 924 INTRA-LIGAND FREE ENERGY PREDICTED BY IDOCK:   -1.10 KCAL/MOL
REMARK 927      BINDING AFFINITY PREDICTED BY RF-SCORE:    0.00 PKD
ROOT
HETATM    1  C   UNL     1      -6.143  10.847  70.040  1.00  0.00    -0.121 C  
HETATM    2  C   UNL     1      -6.808  10.042  68.924  1.00  0.00    -0.054 C  
HETATM    3  C   UNL     1      -6.363   8.579  69.024  1.00  0.00    -0.044 C  
ENDROOT
BRANCH   2   4
HETATM    4  O   UNL     1      -8.240  10.214  69.044  1.00  0.00    -0.112 OA 
BRANCH   4   5
HETATM    5  C   UNL     1      -9.032   9.253  68.451  1.00  0.00    -0.129 A  
HETATM    6  C   UNL     1      -9.225   9.136  67.065  1.00  0.00    -0.135 A  
HETATM    7  C   UNL     1     -11.155   5.896  66.809  1.00  0.00    -0.157 C  
HETATM    8  C   UNL     1      -9.770   7.938  66.606  1.00  0.00    -0.305 A  
HETATM    9  C   UNL     1      -9.631   8.322  69.344  1.00  0.00    -0.171 A  
HETATM   10  C   UNL     1     -10.373   7.004  67.471  1.00  0.00    -0.288 A  
HETATM   11  C   UNL     1     -10.328   7.188  68.877  1.00  0.00    -0.202 A  
BRANCH   6  12
HETATM   12  N   UNL     1      -8.812  10.082  66.108  1.00  0.00    -0.145 NA 
HETATM   13  H   UNL     1      -7.928   9.851  65.653  1.00  0.00     0.000 HD 
BRANCH  12  14
HETATM   14  C   UNL     1      -9.371  11.251  65.673  1.00  0.00    -0.224 A  
HETATM   15  N   UNL     1      -9.126  12.434  66.319  1.00  0.00    -0.154 NA 
HETATM   16  C   UNL     1     -10.953  12.312  64.381  1.00  0.00    -0.329 A  
HETATM   17  N   UNL     1     -10.294  11.154  64.742  1.00  0.00    -0.306 NA 
HETATM   18  C   UNL     1      -9.913  13.580  66.145  1.00  0.00    -0.304 A  
HETATM   19  C   UNL     1     -10.858  13.504  64.978  1.00  0.00    -0.340 A  
HETATM   20 CL   UNL     1     -11.812  14.857  64.529  1.00  0.00    -0.431 Cl 
BRANCH  18  21
HETATM   21  N   UNL     1      -9.968  14.663  66.885  1.00  0.00    -0.249 NA 
HETATM   22  H   UNL     1     -10.837  15.193  66.951  1.00  0.00     0.000 HD 
BRANCH  21  23
HETATM   23  C   UNL     1      -8.833  15.091  67.583  1.00  0.00    -0.179 A  
HETATM   24  C   UNL     1      -8.041  14.141  68.246  1.00  0.00    -0.146 A  
HETATM   25  C   UNL     1      -7.161  14.521  69.252  1.00  0.00    -0.140 A  
HETATM   26  C   UNL     1      -7.007  15.869  69.552  1.00  0.00    -0.189 A  
HETATM   27  C   UNL     1      -7.645  16.834  68.772  1.00  0.00    -0.240 A  
HETATM   28  C   UNL     1      -8.526  16.447  67.751  1.00  0.00    -0.167 A  
BRANCH  28  29
HETATM   29  S   UNL     1      -8.856  17.663  66.465  1.00  0.00    -0.246 S  
HETATM   30  O   UNL     1      -7.570  17.972  65.860  1.00  0.00    -0.480 OA 
HETATM   31  O   UNL     1      -9.885  17.062  65.634  1.00  0.00    -0.547 OA 
BRANCH  29  32
HETATM   32  C   UNL     1      -9.483  19.198  67.129  1.00  0.00    -0.314 C  
HETATM   33  C   UNL     1      -8.383  20.242  67.348  1.00  0.00    -0.396 C  
HETATM   34  C   UNL     1     -10.535  19.771  66.166  1.00  0.00    -0.613 C  
ENDBRANCH  29  32
ENDBRANCH  28  29
ENDBRANCH  21  23
ENDBRANCH  18  21
ENDBRANCH  12  14
ENDBRANCH   6  12
BRANCH  11  35
HETATM   35  C   UNL     1     -10.998   6.142  69.792  1.00  0.00    -0.459 C  
HETATM   36  C   UNL     1     -10.027   5.008  70.178  1.00  0.00    -0.328 C  
HETATM   37  C   UNL     1      -9.138   5.398  71.348  1.00  0.00    -0.145 C  
HETATM   38  N   UNL     1      -9.957   5.651  72.524  1.00  0.00    -0.167 NA 
HETATM   39  H   UNL     1      -9.383   5.803  73.353  1.00  0.00     0.000 HD 
HETATM   40  C   UNL     1     -10.884   6.761  72.305  1.00  0.00    -0.231 C  
HETATM   41  C   UNL     1     -11.757   6.577  71.067  1.00  0.00    -0.402 C  
ENDBRANCH  11  35
ENDBRANCH   4   5
ENDBRANCH   2   4
TORSDOF 9
ENDMDL
MODEL      108
REMARK 921   NORMALIZED FREE ENERGY PREDICTED BY IDOCK:   -5.58 KCAL/MOL
REMARK 922        TOTAL FREE ENERGY PREDICTED BY IDOCK:  -10.69 KCAL/MOL
REMARK 923 INTER-LIGAND FREE ENERGY PREDICTED BY IDOCK:   -8.19 KCAL/MOL
REMARK 924 INTRA-LIGAND FREE ENERGY PREDICTED BY IDOCK:   -2.49 KCAL/MOL
REMARK 927      BINDING AFFINITY PREDICTED BY RF-SCORE:    0.00 PKD
ROOT
HETATM    1  C   UNL     1     -11.876  10.749  69.280  1.00  0.00    -0.359 C  
HETATM    2  C   UNL     1     -11.025  10.821  68.013  1.00  0.00    -0.283 C  
HETATM    3  C   UNL     1      -9.620  11.315  68.375  1.00  0.00    -0.195 C  
ENDROOT
BRANCH   2   4
HETATM    4  O   UNL     1     -11.030   9.510  67.400  1.00  0.00    -0.232 OA 
BRANCH   4   5
HETATM    5  C   UNL     1      -9.885   9.136  66.727  1.00  0.00    -0.226 A  
HETATM    6  C   UNL     1      -9.574   9.534  65.417  1.00  0.00    -0.272 A  
HETATM    7  C   UNL     1      -6.046   8.239  65.015  1.00  0.00    -0.045 C  
HETATM    8  C   UNL     1      -8.255   9.356  65.002  1.00  0.00    -0.139 A  
HETATM    9  C   UNL     1      -8.977   8.331  67.471  1.00  0.00    -0.141 A  
HETATM   10  C   UNL     1      -7.341   8.560  65.720  1.00  0.00    -0.080 A  
HETATM   11  C   UNL     1      -7.695   8.010  66.979  1.00  0.00    -0.100 A  
BRANCH   6  12
HETATM   12  N   UNL     1     -10.457  10.195  64.541  1.00  0.00    -0.228 NA 
HETATM   13  H   UNL     1     -10.984   9.566  63.934  1.00  0.00     0.000 HD 
BRANCH  12  14
HETATM   14  C   UNL     1     -10.742  11.518  64.352  1.00  0.00    -0.344 A  
HETATM   15  N   UNL     1     -10.048  12.493  65.018  1.00  0.00    -0.265 NA 
HETATM   16  C   UNL     1     -12.194  13.122  63.566  1.00  0.00    -0.476 A  
HETATM   17  N   UNL     1     -11.827  11.795  63.662  1.00  0.00    -0.444 NA 
HETATM   18  C   UNL     1     -10.500  13.814  65.133  1.00  0.00    -0.384 A  
HETATM   19  C   UNL     1     -11.647  14.151  64.222  1.00  0.00    -0.309 A  
HETATM   20 CL   UNL     1     -12.254  15.753  64.127  1.00  0.00    -0.095 Cl 
BRANCH  18  21
HETATM   21  N   UNL     1     -10.095  14.756  65.953  1.00  0.00    -0.303 NA 
HETATM   22  H   UNL     1      -9.485  15.500  65.614  1.00  0.00     0.000 HD 
BRANCH  21  23
HETATM   23  C   UNL     1     -10.501  14.738  67.293  1.00  0.00    -0.264 A  
HETATM   24  C   UNL     1     -11.763  14.216  67.617  1.00  0.00    -0.421 A  
HETATM   25  C   UNL     1     -12.373  14.521  68.828  1.00  0.00    -0.064 A  
HETATM   26  C   UNL     1     -11.690  15.290  69.762  1.00  0.00    -0.347 A  
HETATM   27  C   UNL     1     -10.363  15.654  69.529  1.00  0.00    -0.277 A  
HETATM   28  C   UNL     1      -9.748  15.337  68.309  1.00  0.00    -0.210 A  
BRANCH  28  29
HETATM   29  S   UNL     1      -7.947  15.322  68.294  1.00  0.00    -0.137 S  
HETATM   30  O   UNL     1      -7.531  15.107  69.671  1.00  0.00    -0.203 OA 
HETATM   31  O   UNL     1      -7.588  14.325  67.299  1.00  0.00    -0.183 OA 
BRANCH  29  32
HETATM   32  C   UNL     1      -7.261  16.895  67.799  1.00  0.00    -0.145 C  
HETATM   33  C   UNL     1      -7.458  17.184  66.308  1.00  0.00    -0.344 C  
HETATM   34  C   UNL     1      -7.921  18.014  68.621  1.00  0.00    -0.303 C  
ENDBRANCH  29  32
ENDBRANCH  28  29
ENDBRANCH  21  23
ENDBRANCH  18  21
ENDBRANCH  12  14
ENDBRANCH   6  12
BRANCH  11  35
HETATM   35  C   UNL     1      -6.665   7.145  67.736  1.00  0.00    -0.064 C  
HETATM   36  C   UNL     1      -6.067   7.888  68.947  1.00  0.00    -0.039 C  
HETATM   37  C   UNL     1      -6.970   7.804  70.167  1.00  0.00    -0.050 C  
HETATM   38  N   UNL     1      -7.116   6.413  70.573  1.00  0.00    -0.064 NA 
HETATM   39  H   UNL     1      -7.622   6.334  71.455  1.00  0.00     0.000 HD 
HETATM   40  C   UNL     1      -7.740   5.609  69.524  1.00  0.00    -0.091 C  
HETATM   41  C   UNL     1      -7.018   5.708  68.184  1.00  0.00    -0.065 C  
ENDBRANCH  11  35
ENDBRANCH   4   5
ENDBRANCH   2   4
TORSDOF 9
ENDMDL
MODEL      109
REMARK 921   NORMALIZED FREE ENERGY PREDICTED BY IDOCK:   -5.56 KCAL/MOL
REMARK 922        TOTAL FREE ENERGY PREDICTED BY IDOCK:  -10.65 KCAL/MOL
REMARK 923 INTER-LIGAND FREE ENERGY PREDICTED BY IDOCK:   -8.67 KCAL/MOL
REMARK 924 INTRA-LIGAND FREE ENERGY PREDICTED BY IDOCK:   -1.98 KCAL/MOL
REMARK 927      BINDING AFFINITY PREDICTED BY RF-SCORE:    0.00 PKD
ROOT
HETATM    1  C   UNL     1     -11.671   9.208  71.407  1.00  0.00    -0.413 C  
HETATM    2  C   UNL     1     -10.990   8.020  70.729  1.00  0.00    -0.248 C  
HETATM    3  C   UNL     1     -11.986   6.860  70.622  1.00  0.00    -0.400 C  
ENDROOT
BRANCH   2   4
HETATM    4  O   UNL     1     -10.491   8.467  69.446  1.00  0.00    -0.217 OA 
BRANCH   4   5
HETATM    5  C   UNL     1      -9.273   7.960  69.044  1.00  0.00    -0.147 A  
HETATM    6  C   UNL     1      -8.031   8.499  69.420  1.00  0.00    -0.107 A  
HETATM    7  C   UNL     1      -5.612   5.933  68.061  1.00  0.00    -0.008 C  
HETATM    8  C   UNL     1      -6.910   7.698  69.214  1.00  0.00    -0.052 A  
HETATM    9  C   UNL     1      -9.336   6.792  68.235  1.00  0.00    -0.124 A  
HETATM   10  C   UNL     1      -6.949   6.540  68.413  1.00  0.00    -0.080 A  
HETATM   11  C   UNL     1      -8.178   6.066  67.886  1.00  0.00    -0.112 A  
BRANCH   6  12
HETATM   12  N   UNL     1      -7.851   9.728  70.083  1.00  0.00    -0.174 NA 
HETATM   13  H   UNL     1      -8.062   9.695  71.080  1.00  0.00     0.000 HD 
BRANCH  12  14
HETATM   14  C   UNL     1      -7.447  10.957  69.642  1.00  0.00    -0.022 A  
HETATM   15  N   UNL     1      -8.244  11.712  68.821  1.00  0.00    -0.103 NA 
HETATM   16  C   UNL     1      -5.740  12.472  69.335  1.00  0.00    -0.086 A  
HETATM   17  N   UNL     1      -6.196  11.288  69.879  1.00  0.00    -0.123 NA 
HETATM   18  C   UNL     1      -7.767  12.796  68.073  1.00  0.00    -0.137 A  
HETATM   19  C   UNL     1      -6.390  13.253  68.466  1.00  0.00    -0.083 A  
HETATM   20 CL   UNL     1      -5.688  14.647  67.752  1.00  0.00    -0.118 Cl 
BRANCH  18  21
HETATM   21  N   UNL     1      -8.333  13.412  67.062  1.00  0.00    -0.370 NA 
HETATM   22  H   UNL     1      -7.949  13.310  66.122  1.00  0.00     0.000 HD 
BRANCH  21  23
HETATM   23  C   UNL     1      -9.462  14.212  67.274  1.00  0.00    -0.229 A  
HETATM   24  C   UNL     1      -9.289  15.540  67.694  1.00  0.00    -0.203 A  
HETATM   25  C   UNL     1     -10.331  16.243  68.287  1.00  0.00    -0.272 A  
HETATM   26  C   UNL     1     -11.583  15.648  68.393  1.00  0.00    -0.358 A  
HETATM   27  C   UNL     1     -11.815  14.403  67.808  1.00  0.00    -0.402 A  
HETATM   28  C   UNL     1     -10.763  13.700  67.203  1.00  0.00    -0.277 A  
BRANCH  28  29
HETATM   29  S   UNL     1     -11.222  12.427  66.015  1.00  0.00    -0.352 S  
HETATM   30  O   UNL     1     -10.027  12.155  65.231  1.00  0.00    -0.254 OA 
HETATM   31  O   UNL     1     -11.784  11.351  66.815  1.00  0.00    -0.474 OA 
BRANCH  29  32
HETATM   32  C   UNL     1     -12.465  12.991  64.863  1.00  0.00    -0.455 C  
HETATM   33  C   UNL     1     -12.264  14.450  64.442  1.00  0.00    -0.481 C  
HETATM   34  C   UNL     1     -12.435  12.097  63.612  1.00  0.00    -0.658 C  
ENDBRANCH  29  32
ENDBRANCH  28  29
ENDBRANCH  21  23
ENDBRANCH  18  21
ENDBRANCH  12  14
ENDBRANCH   6  12
BRANCH  11  35
HETATM   35  C   UNL     1      -8.179   4.793  67.015  1.00  0.00    -0.106 C  
HETATM   36  C   UNL     1      -9.548   4.084  67.032  1.00  0.00    -0.231 C  
HETATM   37  C   UNL     1     -10.522   4.708  66.046  1.00  0.00    -0.264 C  
HETATM   38  N   UNL     1     -10.007   4.566  64.692  1.00  0.00    -0.373 NA 
HETATM   39  H   UNL     1     -10.690   4.873  63.999  1.00  0.00     0.000 HD 
HETATM   40  C   UNL     1      -8.731   5.260  64.527  1.00  0.00    -0.072 C  
HETATM   41  C   UNL     1      -7.682   4.837  65.551  1.00  0.00    -0.086 C  
ENDBRANCH  11  35
ENDBRANCH   4   5
ENDBRANCH   2   4
TORSDOF 9
ENDMDL
MODEL      110
REMARK 921   NORMALIZED FREE ENERGY PREDICTED BY IDOCK:   -5.51 KCAL/MOL
REMARK 922        TOTAL FREE ENERGY PREDICTED BY IDOCK:  -10.58 KCAL/MOL
REMARK 923 INTER-LIGAND FREE ENERGY PREDICTED BY IDOCK:   -8.66 KCAL/MOL
REMARK 924 INTRA-LIGAND FREE ENERGY PREDICTED BY IDOCK:   -1.91 KCAL/MOL
REMARK 927      BINDING AFFINITY PREDICTED BY RF-SCORE:    0.00 PKD
ROOT
HETATM    1  C   UNL     1     -10.090   7.210  73.694  1.00  0.00    -0.389 C  
HETATM    2  C   UNL     1     -10.664   7.166  72.278  1.00  0.00    -0.221 C  
HETATM    3  C   UNL     1     -11.868   8.110  72.192  1.00  0.00    -0.417 C  
ENDROOT
BRANCH   2   4
HETATM    4  O   UNL     1      -9.601   7.509  71.358  1.00  0.00    -0.156 OA 
BRANCH   4   5
HETATM    5  C   UNL     1      -9.671   6.955  70.096  1.00  0.00    -0.171 A  
HETATM    6  C   UNL     1      -9.875   7.696  68.920  1.00  0.00    -0.164 A  
HETATM    7  C   UNL     1      -9.378   5.075  66.242  1.00  0.00    -0.151 C  
HETATM    8  C   UNL     1      -9.595   7.052  67.716  1.00  0.00    -0.138 A  
HETATM    9  C   UNL     1      -9.474   5.548  70.037  1.00  0.00    -0.205 A  
HETATM   10  C   UNL     1      -9.401   5.660  67.633  1.00  0.00    -0.111 A  
HETATM   11  C   UNL     1      -9.352   4.865  68.808  1.00  0.00    -0.184 A  
BRANCH   6  12
HETATM   12  N   UNL     1     -10.232   9.057  68.873  1.00  0.00    -0.203 NA 
HETATM   13  H   UNL     1     -11.216   9.234  69.078  1.00  0.00     0.000 HD 
BRANCH  12  14
HETATM   14  C   UNL     1      -9.510  10.185  68.606  1.00  0.00    -0.164 A  
HETATM   15  N   UNL     1      -9.816  10.984  67.536  1.00  0.00    -0.168 NA 
HETATM   16  C   UNL     1      -7.603  11.427  68.954  1.00  0.00    -0.114 A  
HETATM   17  N   UNL     1      -8.404  10.357  69.297  1.00  0.00    -0.158 NA 
HETATM   18  C   UNL     1      -8.935  11.939  67.013  1.00  0.00    -0.190 A  
HETATM   19  C   UNL     1      -7.752  12.229  67.896  1.00  0.00    -0.133 A  
HETATM   20 CL   UNL     1      -6.630  13.461  67.487  1.00  0.00    -0.174 Cl 
BRANCH  18  21
HETATM   21  N   UNL     1      -8.979  12.557  65.856  1.00  0.00    -0.411 NA 
HETATM   22  H   UNL     1      -8.117  12.884  65.419  1.00  0.00     0.000 HD 
BRANCH  21  23
HETATM   23  C   UNL     1     -10.209  12.769  65.224  1.00  0.00    -0.279 A  
HETATM   24  C   UNL     1     -10.990  11.660  64.860  1.00  0.00    -0.345 A  
HETATM   25  C   UNL     1     -11.995  11.776  63.907  1.00  0.00    -0.427 A  
HETATM   26  C   UNL     1     -12.283  13.023  63.365  1.00  0.00    -0.552 A  
HETATM   27  C   UNL     1     -11.645  14.161  63.858  1.00  0.00    -0.018 A  
HETATM   28  C   UNL     1     -10.636  14.042  64.826  1.00  0.00    -0.421 A  
BRANCH  28  29
HETATM   29  S   UNL     1     -10.272  15.513  65.798  1.00  0.00    -0.396 S  
HETATM   30  O   UNL     1      -8.827  15.542  65.964  1.00  0.00    -0.308 OA 
HETATM   31  O   UNL     1     -10.908  16.606  65.079  1.00  0.00    -0.641 OA 
BRANCH  29  32
HETATM   32  C   UNL     1     -10.968  15.430  67.441  1.00  0.00    -0.312 C  
HETATM   33  C   UNL     1     -12.005  14.313  67.589  1.00  0.00    -0.400 C  
HETATM   34  C   UNL     1      -9.836  15.205  68.457  1.00  0.00    -0.220 C  
ENDBRANCH  29  32
ENDBRANCH  28  29
ENDBRANCH  21  23
ENDBRANCH  18  21
ENDBRANCH  12  14
ENDBRANCH   6  12
BRANCH  11  35
HETATM   35  C   UNL     1      -9.136   3.344  68.676  1.00  0.00    -0.207 C  
HETATM   36  C   UNL     1      -7.644   2.983  68.537  1.00  0.00    -0.048 C  
HETATM   37  C   UNL     1      -6.947   2.921  69.887  1.00  0.00    -0.034 C  
HETATM   38  N   UNL     1      -7.545   1.872  70.700  1.00  0.00    -0.036 NA 
HETATM   39  H   UNL     1      -7.026   1.730  71.566  1.00  0.00     0.000 HD 
HETATM   40  C   UNL     1      -8.959   2.136  70.962  1.00  0.00    -0.076 C  
HETATM   41  C   UNL     1      -9.772   2.365  69.690  1.00  0.00     0.081 C  
ENDBRANCH  11  35
ENDBRANCH   4   5
ENDBRANCH   2   4
TORSDOF 9
ENDMDL
MODEL      111
REMARK 921   NORMALIZED FREE ENERGY PREDICTED BY IDOCK:   -5.50 KCAL/MOL
REMARK 922        TOTAL FREE ENERGY PREDICTED BY IDOCK:  -10.56 KCAL/MOL
REMARK 923 INTER-LIGAND FREE ENERGY PREDICTED BY IDOCK:   -8.97 KCAL/MOL
REMARK 924 INTRA-LIGAND FREE ENERGY PREDICTED BY IDOCK:   -1.59 KCAL/MOL
REMARK 927      BINDING AFFINITY PREDICTED BY RF-SCORE:    0.00 PKD
ROOT
HETATM    1  C   UNL     1      -8.175   7.082  65.404  1.00  0.00    -0.133 C  
HETATM    2  C   UNL     1      -9.280   6.956  66.452  1.00  0.00    -0.152 C  
HETATM    3  C   UNL     1      -9.882   5.549  66.385  1.00  0.00    -0.192 C  
ENDROOT
BRANCH   2   4
HETATM    4  O   UNL     1      -8.705   7.273  67.743  1.00  0.00    -0.126 OA 
BRANCH   4   5
HETATM    5  C   UNL     1      -9.530   7.132  68.839  1.00  0.00    -0.142 A  
HETATM    6  C   UNL     1     -10.627   7.965  69.114  1.00  0.00    -0.173 A  
HETATM    7  C   UNL     1     -12.235   6.212  72.051  1.00  0.00    -0.192 C  
HETATM    8  C   UNL     1     -11.545   7.505  70.056  1.00  0.00     0.029 A  
HETATM    9  C   UNL     1      -9.231   6.031  69.688  1.00  0.00    -0.148 A  
HETATM   10  C   UNL     1     -11.269   6.420  70.910  1.00  0.00    -0.384 A  
HETATM   11  C   UNL     1     -10.081   5.660  70.752  1.00  0.00    -0.270 A  
BRANCH   6  12
HETATM   12  N   UNL     1     -10.921   9.164  68.437  1.00  0.00    -0.466 NA 
HETATM   13  H   UNL     1     -10.656   9.158  67.451  1.00  0.00     0.000 HD 
BRANCH  12  14
HETATM   14  C   UNL     1     -11.495  10.334  68.849  1.00  0.00    -0.127 A  
HETATM   15  N   UNL     1     -11.979  11.241  67.944  1.00  0.00    -0.640 NA 
HETATM   16  C   UNL     1     -11.850  11.862  70.533  1.00  0.00    -0.159 A  
HETATM   17  N   UNL     1     -11.383  10.629  70.125  1.00  0.00    -0.308 NA 
HETATM   18  C   UNL     1     -12.258  12.575  68.268  1.00  0.00     0.144 A  
HETATM   19  C   UNL     1     -12.274  12.856  69.746  1.00  0.00    -0.162 A  
HETATM   20 CL   UNL     1     -12.722  14.400  70.343  1.00  0.00    -0.396 Cl 
BRANCH  18  21
HETATM   21  N   UNL     1     -12.451  13.596  67.467  1.00  0.00    -0.292 NA 
HETATM   22  H   UNL     1     -12.967  14.413  67.796  1.00  0.00     0.000 HD 
BRANCH  21  23
HETATM   23  C   UNL     1     -11.948  13.565  66.162  1.00  0.00    -0.412 A  
HETATM   24  C   UNL     1     -12.655  12.863  65.174  1.00  0.00    -0.536 A  
HETATM   25  C   UNL     1     -12.034  12.467  63.995  1.00  0.00    -0.536 A  
HETATM   26  C   UNL     1     -10.717  12.842  63.757  1.00  0.00    -0.397 A  
HETATM   27  C   UNL     1     -10.066  13.700  64.644  1.00  0.00    -0.228 A  
HETATM   28  C   UNL     1     -10.699  14.104  65.829  1.00  0.00    -0.299 A  
BRANCH  28  29
HETATM   29  S   UNL     1     -10.069  15.598  66.611  1.00  0.00    -0.285 S  
HETATM   30  O   UNL     1      -9.490  16.401  65.546  1.00  0.00    -0.467 OA 
HETATM   31  O   UNL     1     -11.196  16.140  67.352  1.00  0.00    -0.200 OA 
BRANCH  29  32
HETATM   32  C   UNL     1      -8.744  15.254  67.760  1.00  0.00    -0.165 C  
HETATM   33  C   UNL     1      -8.728  13.795  68.225  1.00  0.00    -0.179 C  
HETATM   34  C   UNL     1      -7.400  15.586  67.093  1.00  0.00    -0.226 C  
ENDBRANCH  29  32
ENDBRANCH  28  29
ENDBRANCH  21  23
ENDBRANCH  18  21
ENDBRANCH  12  14
ENDBRANCH   6  12
BRANCH  11  35
HETATM   35  C   UNL     1      -9.815   4.477  71.706  1.00  0.00    -0.252 C  
HETATM   36  C   UNL     1      -9.521   3.173  70.939  1.00  0.00    -0.230 C  
HETATM   37  C   UNL     1      -8.068   3.089  70.499  1.00  0.00    -0.045 C  
HETATM   38  N   UNL     1      -7.201   3.078  71.668  1.00  0.00    -0.038 NA 
HETATM   39  H   UNL     1      -6.230   2.907  71.411  1.00  0.00     0.000 HD 
HETATM   40  C   UNL     1      -7.339   4.305  72.451  1.00  0.00    -0.068 C  
HETATM   41  C   UNL     1      -8.782   4.602  72.850  1.00  0.00    -0.116 C  
ENDBRANCH  11  35
ENDBRANCH   4   5
ENDBRANCH   2   4
TORSDOF 9
ENDMDL
MODEL      112
REMARK 921   NORMALIZED FREE ENERGY PREDICTED BY IDOCK:   -5.47 KCAL/MOL
REMARK 922        TOTAL FREE ENERGY PREDICTED BY IDOCK:  -10.51 KCAL/MOL
REMARK 923 INTER-LIGAND FREE ENERGY PREDICTED BY IDOCK:   -9.49 KCAL/MOL
REMARK 924 INTRA-LIGAND FREE ENERGY PREDICTED BY IDOCK:   -1.03 KCAL/MOL
REMARK 927      BINDING AFFINITY PREDICTED BY RF-SCORE:    0.00 PKD
ROOT
HETATM    1  C   UNL     1     -10.557   8.487  72.176  1.00  0.00    -0.419 C  
HETATM    2  C   UNL     1     -11.942   8.719  71.572  1.00  0.00    -0.324 C  
HETATM    3  C   UNL     1     -11.981  10.102  70.913  1.00  0.00    -0.461 C  
ENDROOT
BRANCH   2   4
HETATM    4  O   UNL     1     -12.210   7.636  70.649  1.00  0.00    -0.145 OA 
BRANCH   4   5
HETATM    5  C   UNL     1     -11.128   6.880  70.250  1.00  0.00    -0.297 A  
HETATM    6  C   UNL     1     -10.338   7.165  69.124  1.00  0.00    -0.200 A  
HETATM    7  C   UNL     1      -7.527   4.663  69.477  1.00  0.00    -0.052 C  
HETATM    8  C   UNL     1      -9.106   6.519  69.041  1.00  0.00    -0.132 A  
HETATM    9  C   UNL     1     -10.810   5.780  71.094  1.00  0.00    -0.316 A  
HETATM   10  C   UNL     1      -8.771   5.425  69.862  1.00  0.00    -0.128 A  
HETATM   11  C   UNL     1      -9.637   5.017  70.910  1.00  0.00    -0.242 A  
BRANCH   6  12
HETATM   12  N   UNL     1     -10.647   8.125  68.142  1.00  0.00    -0.390 NA 
HETATM   13  H   UNL     1     -11.612   8.455  68.175  1.00  0.00     0.000 HD 
BRANCH  12  14
HETATM   14  C   UNL     1      -9.899   8.699  67.153  1.00  0.00    -0.207 A  
HETATM   15  N   UNL     1      -9.738  10.058  67.087  1.00  0.00    -0.168 NA 
HETATM   16  C   UNL     1      -8.863   8.503  65.107  1.00  0.00    -0.071 A  
HETATM   17  N   UNL     1      -9.514   7.913  66.172  1.00  0.00    -0.137 NA 
HETATM   18  C   UNL     1      -9.286  10.723  65.940  1.00  0.00    -0.190 A  
HETATM   19  C   UNL     1      -8.709   9.813  64.892  1.00  0.00    -0.183 A  
HETATM   20 CL   UNL     1      -7.987  10.452  63.472  1.00  0.00    -0.137 Cl 
BRANCH  18  21
HETATM   21  N   UNL     1      -9.350  12.001  65.648  1.00  0.00    -0.412 NA 
HETATM   22  H   UNL     1      -8.527  12.593  65.764  1.00  0.00     0.000 HD 
BRANCH  21  23
HETATM   23  C   UNL     1     -10.547  12.552  65.177  1.00  0.00    -0.293 A  
HETATM   24  C   UNL     1     -11.320  11.822  64.260  1.00  0.00    -0.400 A  
HETATM   25  C   UNL     1     -12.279  12.451  63.474  1.00  0.00    -0.661 A  
HETATM   26  C   UNL     1     -12.530  13.805  63.656  1.00  0.00    -0.150 A  
HETATM   27  C   UNL     1     -11.904  14.497  64.693  1.00  0.00    -0.462 A  
HETATM   28  C   UNL     1     -10.943  13.857  65.490  1.00  0.00    -0.302 A  
BRANCH  28  29
HETATM   29  S   UNL     1     -10.611  14.592  67.100  1.00  0.00    -0.287 S  
HETATM   30  O   UNL     1     -11.909  14.860  67.699  1.00  0.00    -0.352 OA 
HETATM   31  O   UNL     1      -9.722  13.654  67.766  1.00  0.00    -0.213 OA 
BRANCH  29  32
HETATM   32  C   UNL     1      -9.781  16.169  66.967  1.00  0.00    -0.230 C  
HETATM   33  C   UNL     1      -9.667  16.892  68.312  1.00  0.00    -0.256 C  
HETATM   34  C   UNL     1      -8.372  15.950  66.392  1.00  0.00    -0.310 C  
ENDBRANCH  29  32
ENDBRANCH  28  29
ENDBRANCH  21  23
ENDBRANCH  18  21
ENDBRANCH  12  14
ENDBRANCH   6  12
BRANCH  11  35
HETATM   35  C   UNL     1      -9.235   3.815  71.790  1.00  0.00    -0.179 C  
HETATM   36  C   UNL     1      -8.470   4.255  73.053  1.00  0.00    -0.094 C  
HETATM   37  C   UNL     1      -9.412   4.696  74.162  1.00  0.00    -0.118 C  
HETATM   38  N   UNL     1     -10.253   3.578  74.564  1.00  0.00    -0.172 NA 
HETATM   39  H   UNL     1     -10.815   3.810  75.382  1.00  0.00     0.000 HD 
HETATM   40  C   UNL     1     -11.086   3.107  73.459  1.00  0.00    -0.216 C  
HETATM   41  C   UNL     1     -10.283   2.758  72.209  1.00  0.00    -0.187 C  
ENDBRANCH  11  35
ENDBRANCH   4   5
ENDBRANCH   2   4
TORSDOF 9
ENDMDL
MODEL      113
REMARK 921   NORMALIZED FREE ENERGY PREDICTED BY IDOCK:   -5.47 KCAL/MOL
REMARK 922        TOTAL FREE ENERGY PREDICTED BY IDOCK:  -10.51 KCAL/MOL
REMARK 923 INTER-LIGAND FREE ENERGY PREDICTED BY IDOCK:   -8.61 KCAL/MOL
REMARK 924 INTRA-LIGAND FREE ENERGY PREDICTED BY IDOCK:   -1.90 KCAL/MOL
REMARK 927      BINDING AFFINITY PREDICTED BY RF-SCORE:    0.00 PKD
ROOT
HETATM    1  C   UNL     1      -9.775  10.764  62.974  1.00  0.00    -0.374 C  
HETATM    2  C   UNL     1      -8.927   9.666  63.615  1.00  0.00    -0.216 C  
HETATM    3  C   UNL     1      -7.464  10.120  63.663  1.00  0.00    -0.129 C  
ENDROOT
BRANCH   2   4
HETATM    4  O   UNL     1      -9.482   9.383  64.922  1.00  0.00    -0.229 OA 
BRANCH   4   5
HETATM    5  C   UNL     1      -9.204  10.291  65.923  1.00  0.00    -0.167 A  
HETATM    6  C   UNL     1      -8.134  10.169  66.825  1.00  0.00    -0.119 A  
HETATM    7  C   UNL     1      -8.255  13.479  68.646  1.00  0.00    -0.040 C  
HETATM    8  C   UNL     1      -7.790  11.309  67.549  1.00  0.00    -0.123 A  
HETATM    9  C   UNL     1     -10.062  11.425  65.971  1.00  0.00    -0.275 A  
HETATM   10  C   UNL     1      -8.625  12.441  67.614  1.00  0.00    -0.172 A  
HETATM   11  C   UNL     1      -9.804  12.516  66.828  1.00  0.00    -0.232 A  
BRANCH   6  12
HETATM   12  N   UNL     1      -7.324   9.027  66.967  1.00  0.00    -0.086 NA 
HETATM   13  H   UNL     1      -6.337   9.192  66.766  1.00  0.00     0.000 HD 
BRANCH  12  14
HETATM   14  C   UNL     1      -7.609   7.739  67.326  1.00  0.00    -0.104 A  
HETATM   15  N   UNL     1      -8.481   7.466  68.346  1.00  0.00    -0.125 NA 
HETATM   16  C   UNL     1      -7.061   5.505  67.229  1.00  0.00    -0.074 A  
HETATM   17  N   UNL     1      -6.867   6.798  66.785  1.00  0.00    -0.060 NA 
HETATM   18  C   UNL     1      -8.556   6.218  68.979  1.00  0.00    -0.123 A  
HETATM   19  C   UNL     1      -7.823   5.121  68.258  1.00  0.00    -0.087 A  
HETATM   20 CL   UNL     1      -7.905   3.498  68.809  1.00  0.00    -0.055 Cl 
BRANCH  18  21
HETATM   21  N   UNL     1      -9.124   5.904  70.120  1.00  0.00    -0.144 NA 
HETATM   22  H   UNL     1      -9.629   5.023  70.213  1.00  0.00     0.000 HD 
BRANCH  21  23
HETATM   23  C   UNL     1      -9.037   6.779  71.208  1.00  0.00    -0.150 A  
HETATM   24  C   UNL     1      -7.784   7.015  71.796  1.00  0.00    -0.093 A  
HETATM   25  C   UNL     1      -7.684   7.538  73.080  1.00  0.00    -0.117 A  
HETATM   26  C   UNL     1      -8.839   7.905  73.760  1.00  0.00    -0.332 A  
HETATM   27  C   UNL     1     -10.075   7.854  73.114  1.00  0.00    -0.362 A  
HETATM   28  C   UNL     1     -10.171   7.333  71.814  1.00  0.00    -0.194 A  
BRANCH  28  29
HETATM   29  S   UNL     1     -11.624   7.804  70.862  1.00  0.00    -0.249 S  
HETATM   30  O   UNL     1     -11.195   8.868  69.967  1.00  0.00    -0.213 OA 
HETATM   31  O   UNL     1     -12.110   6.565  70.279  1.00  0.00    -0.348 OA 
BRANCH  29  32
HETATM   32  C   UNL     1     -12.912   8.496  71.888  1.00  0.00    -0.362 C  
HETATM   33  C   UNL     1     -12.921  10.027  71.875  1.00  0.00    -0.547 C  
HETATM   34  C   UNL     1     -14.276   7.980  71.400  1.00  0.00    -0.449 C  
ENDBRANCH  29  32
ENDBRANCH  28  29
ENDBRANCH  21  23
ENDBRANCH  18  21
ENDBRANCH  12  14
ENDBRANCH   6  12
BRANCH  11  35
HETATM   35  C   UNL     1     -10.692  13.773  66.926  1.00  0.00    -0.280 C  
HETATM   36  C   UNL     1     -10.150  14.931  66.065  1.00  0.00    -0.331 C  
HETATM   37  C   UNL     1     -10.570  14.801  64.610  1.00  0.00    -0.206 C  
HETATM   38  N   UNL     1     -12.021  14.865  64.511  1.00  0.00    -0.535 NA 
HETATM   39  H   UNL     1     -12.328  14.895  63.539  1.00  0.00     0.000 HD 
HETATM   40  C   UNL     1     -12.658  13.768  65.239  1.00  0.00    -0.473 C  
HETATM   41  C   UNL     1     -12.219  13.682  66.697  1.00  0.00    -0.437 C  
ENDBRANCH  11  35
ENDBRANCH   4   5
ENDBRANCH   2   4
TORSDOF 9
ENDMDL
MODEL      114
REMARK 921   NORMALIZED FREE ENERGY PREDICTED BY IDOCK:   -5.44 KCAL/MOL
REMARK 922        TOTAL FREE ENERGY PREDICTED BY IDOCK:  -10.48 KCAL/MOL
REMARK 923 INTER-LIGAND FREE ENERGY PREDICTED BY IDOCK:   -8.77 KCAL/MOL
REMARK 924 INTRA-LIGAND FREE ENERGY PREDICTED BY IDOCK:   -1.71 KCAL/MOL
REMARK 927      BINDING AFFINITY PREDICTED BY RF-SCORE:    0.00 PKD
ROOT
HETATM    1  C   UNL     1     -12.423  11.048  71.294  1.00  0.00    -0.475 C  
HETATM    2  C   UNL     1     -12.569  12.412  70.621  1.00  0.00    -0.153 C  
HETATM    3  C   UNL     1     -13.124  13.419  71.633  1.00  0.00    -0.463 C  
ENDROOT
BRANCH   2   4
HETATM    4  O   UNL     1     -11.274  12.787  70.092  1.00  0.00     0.118 OA 
BRANCH   4   5
HETATM    5  C   UNL     1     -11.222  13.109  68.751  1.00  0.00    -0.281 A  
HETATM    6  C   UNL     1     -11.539  12.218  67.713  1.00  0.00    -0.351 A  
HETATM    7  C   UNL     1     -11.447  14.474  64.682  1.00  0.00    -0.389 C  
HETATM    8  C   UNL     1     -11.759  12.773  66.454  1.00  0.00    -0.464 A  
HETATM    9  C   UNL     1     -10.861  14.454  68.462  1.00  0.00    -0.260 A  
HETATM   10  C   UNL     1     -11.404  14.101  66.144  1.00  0.00    -0.337 A  
HETATM   11  C   UNL     1     -10.926  14.976  67.153  1.00  0.00    -0.329 A  
BRANCH   6  12
HETATM   12  N   UNL     1     -11.758  10.836  67.872  1.00  0.00    -0.716 NA 
HETATM   13  H   UNL     1     -12.719  10.595  68.117  1.00  0.00     0.000 HD 
BRANCH  12  14
HETATM   14  C   UNL     1     -10.927   9.757  67.759  1.00  0.00    -0.180 A  
HETATM   15  N   UNL     1     -10.957   8.743  68.680  1.00  0.00     0.043 NA 
HETATM   16  C   UNL     1      -9.058   8.806  66.810  1.00  0.00    -0.146 A  
HETATM   17  N   UNL     1      -9.978   9.834  66.852  1.00  0.00    -0.199 NA 
HETATM   18  C   UNL     1      -9.929   7.802  68.819  1.00  0.00    -0.176 A  
HETATM   19  C   UNL     1      -8.937   7.807  67.689  1.00  0.00    -0.127 A  
HETATM   20 CL   UNL     1      -7.680   6.641  67.617  1.00  0.00    -0.105 Cl 
BRANCH  18  21
HETATM   21  N   UNL     1      -9.696   6.974  69.811  1.00  0.00    -0.168 NA 
HETATM   22  H   UNL     1     -10.039   6.015  69.766  1.00  0.00     0.000 HD 
BRANCH  21  23
HETATM   23  C   UNL     1      -8.978   7.409  70.931  1.00  0.00    -0.149 A  
HETATM   24  C   UNL     1      -8.025   8.428  70.777  1.00  0.00    -0.106 A  
HETATM   25  C   UNL     1      -7.029   8.625  71.726  1.00  0.00    -0.096 A  
HETATM   26  C   UNL     1      -7.025   7.853  72.882  1.00  0.00    -0.097 A  
HETATM   27  C   UNL     1      -8.076   6.971  73.134  1.00  0.00    -0.115 A  
HETATM   28  C   UNL     1      -9.084   6.781  72.177  1.00  0.00    -0.137 A  
BRANCH  28  29
HETATM   29  S   UNL     1     -10.642   6.101  72.770  1.00  0.00    -0.241 S  
HETATM   30  O   UNL     1     -10.777   6.541  74.150  1.00  0.00    -0.207 OA 
HETATM   31  O   UNL     1     -11.636   6.539  71.804  1.00  0.00    -0.281 OA 
BRANCH  29  32
HETATM   32  C   UNL     1     -10.631   4.315  72.809  1.00  0.00    -0.165 C  
HETATM   33  C   UNL     1      -9.673   3.706  71.780  1.00  0.00    -0.233 C  
HETATM   34  C   UNL     1     -10.227   3.844  74.215  1.00  0.00    -0.236 C  
ENDBRANCH  29  32
ENDBRANCH  28  29
ENDBRANCH  21  23
ENDBRANCH  18  21
ENDBRANCH  12  14
ENDBRANCH   6  12
BRANCH  11  35
HETATM   35  C   UNL     1     -10.549  16.423  66.774  1.00  0.00    -0.238 C  
HETATM   36  C   UNL     1     -10.850  17.414  67.916  1.00  0.00    -0.270 C  
HETATM   37  C   UNL     1      -9.737  17.442  68.951  1.00  0.00    -0.251 C  
HETATM   38  N   UNL     1      -8.501  17.898  68.330  1.00  0.00    -0.291 NA 
HETATM   39  H   UNL     1      -7.765  18.036  69.022  1.00  0.00     0.000 HD 
HETATM   40  C   UNL     1      -8.070  16.995  67.264  1.00  0.00    -0.181 C  
HETATM   41  C   UNL     1      -9.148  16.753  66.211  1.00  0.00    -0.320 C  
ENDBRANCH  11  35
ENDBRANCH   4   5
ENDBRANCH   2   4
TORSDOF 9
ENDMDL
MODEL      115
REMARK 921   NORMALIZED FREE ENERGY PREDICTED BY IDOCK:   -5.43 KCAL/MOL
REMARK 922        TOTAL FREE ENERGY PREDICTED BY IDOCK:  -10.46 KCAL/MOL
REMARK 923 INTER-LIGAND FREE ENERGY PREDICTED BY IDOCK:   -8.86 KCAL/MOL
REMARK 924 INTRA-LIGAND FREE ENERGY PREDICTED BY IDOCK:   -1.61 KCAL/MOL
REMARK 927      BINDING AFFINITY PREDICTED BY RF-SCORE:    0.00 PKD
ROOT
HETATM    1  C   UNL     1     -12.657  12.840  65.071  1.00  0.00    -0.538 C  
HETATM    2  C   UNL     1     -11.923  14.160  65.302  1.00  0.00    -0.381 C  
HETATM    3  C   UNL     1     -12.392  15.187  64.266  1.00  0.00    -0.198 C  
ENDROOT
BRANCH   2   4
HETATM    4  O   UNL     1     -12.169  14.571  66.668  1.00  0.00    -0.379 OA 
BRANCH   4   5
HETATM    5  C   UNL     1     -11.060  14.829  67.447  1.00  0.00    -0.324 A  
HETATM    6  C   UNL     1     -10.253  13.835  68.024  1.00  0.00    -0.248 A  
HETATM    7  C   UNL     1      -7.391  15.863  69.434  1.00  0.00    -0.217 C  
HETATM    8  C   UNL     1      -9.004  14.235  68.495  1.00  0.00    -0.185 A  
HETATM    9  C   UNL     1     -10.735  16.204  67.607  1.00  0.00    -0.318 A  
HETATM   10  C   UNL     1      -8.662  15.591  68.665  1.00  0.00    -0.188 A  
HETATM   11  C   UNL     1      -9.541  16.618  68.234  1.00  0.00    -0.233 A  
BRANCH   6  12
HETATM   12  N   UNL     1     -10.562  12.462  68.060  1.00  0.00    -0.214 NA 
HETATM   13  H   UNL     1     -11.350  12.232  68.666  1.00  0.00     0.000 HD 
BRANCH  12  14
HETATM   14  C   UNL     1     -10.007  11.380  67.437  1.00  0.00    -0.186 A  
HETATM   15  N   UNL     1      -9.909  10.171  68.074  1.00  0.00    -0.146 NA 
HETATM   16  C   UNL     1      -8.734  10.545  65.710  1.00  0.00    -0.177 A  
HETATM   17  N   UNL     1      -9.404  11.604  66.291  1.00  0.00    -0.212 NA 
HETATM   18  C   UNL     1      -9.067   9.140  67.639  1.00  0.00    -0.122 A  
HETATM   19  C   UNL     1      -8.507   9.347  66.259  1.00  0.00    -0.126 A  
HETATM   20 CL   UNL     1      -7.557   8.134  65.503  1.00  0.00    -0.084 Cl 
BRANCH  18  21
HETATM   21  N   UNL     1      -8.670   8.069  68.287  1.00  0.00    -0.130 NA 
HETATM   22  H   UNL     1      -7.684   7.807  68.284  1.00  0.00     0.000 HD 
BRANCH  21  23
HETATM   23  C   UNL     1      -9.600   7.288  68.981  1.00  0.00    -0.147 A  
HETATM   24  C   UNL     1     -10.451   7.905  69.911  1.00  0.00    -0.229 A  
HETATM   25  C   UNL     1     -11.099   7.161  70.891  1.00  0.00    -0.290 A  
HETATM   26  C   UNL     1     -10.964   5.778  70.900  1.00  0.00    -0.305 A  
HETATM   27  C   UNL     1     -10.276   5.138  69.868  1.00  0.00    -0.361 A  
HETATM   28  C   UNL     1      -9.631   5.892  68.876  1.00  0.00    -0.132 A  
BRANCH  28  29
HETATM   29  S   UNL     1      -9.269   5.047  67.328  1.00  0.00    -0.126 S  
HETATM   30  O   UNL     1      -9.778   3.693  67.476  1.00  0.00    -0.184 OA 
HETATM   31  O   UNL     1      -9.843   5.893  66.294  1.00  0.00    -0.148 OA 
BRANCH  29  32
HETATM   32  C   UNL     1      -7.514   4.897  67.031  1.00  0.00    -0.087 C  
HETATM   33  C   UNL     1      -6.766   4.270  68.212  1.00  0.00    -0.047 C  
HETATM   34  C   UNL     1      -7.287   4.037  65.777  1.00  0.00    -0.076 C  
ENDBRANCH  29  32
ENDBRANCH  28  29
ENDBRANCH  21  23
ENDBRANCH  18  21
ENDBRANCH  12  14
ENDBRANCH   6  12
BRANCH  11  35
HETATM   35  C   UNL     1      -9.131  18.091  68.437  1.00  0.00    -0.293 C  
HETATM   36  C   UNL     1      -8.016  18.519  67.461  1.00  0.00    -0.245 C  
HETATM   37  C   UNL     1      -8.572  18.906  66.100  1.00  0.00    -0.172 C  
HETATM   38  N   UNL     1      -9.454  20.056  66.241  1.00  0.00    -0.509 NA 
HETATM   39  H   UNL     1      -9.753  20.410  65.332  1.00  0.00     0.000 HD 
HETATM   40  C   UNL     1     -10.599  19.754  67.098  1.00  0.00    -0.449 C  
HETATM   41  C   UNL     1     -10.196  19.211  68.466  1.00  0.00    -0.448 C  
ENDBRANCH  11  35
ENDBRANCH   4   5
ENDBRANCH   2   4
TORSDOF 9
ENDMDL
MODEL      116
REMARK 921   NORMALIZED FREE ENERGY PREDICTED BY IDOCK:   -5.42 KCAL/MOL
REMARK 922        TOTAL FREE ENERGY PREDICTED BY IDOCK:  -10.44 KCAL/MOL
REMARK 923 INTER-LIGAND FREE ENERGY PREDICTED BY IDOCK:   -8.60 KCAL/MOL
REMARK 924 INTRA-LIGAND FREE ENERGY PREDICTED BY IDOCK:   -1.84 KCAL/MOL
REMARK 927      BINDING AFFINITY PREDICTED BY RF-SCORE:    0.00 PKD
ROOT
HETATM    1  C   UNL     1      -6.102  12.472  68.316  1.00  0.00    -0.065 C  
HETATM    2  C   UNL     1      -6.776  13.835  68.465  1.00  0.00    -0.094 C  
HETATM    3  C   UNL     1      -5.845  14.778  69.236  1.00  0.00    -0.101 C  
ENDROOT
BRANCH   2   4
HETATM    4  O   UNL     1      -7.106  14.315  67.140  1.00  0.00    -0.133 OA 
BRANCH   4   5
HETATM    5  C   UNL     1      -8.084  15.284  67.057  1.00  0.00    -0.218 A  
HETATM    6  C   UNL     1      -9.460  15.030  67.181  1.00  0.00    -0.216 A  
HETATM    7  C   UNL     1     -10.905  18.522  67.243  1.00  0.00    -0.330 C  
HETATM    8  C   UNL     1     -10.284  16.131  67.406  1.00  0.00    -0.272 A  
HETATM    9  C   UNL     1      -7.610  16.614  66.879  1.00  0.00    -0.262 A  
HETATM   10  C   UNL     1      -9.838  17.455  67.231  1.00  0.00    -0.278 A  
HETATM   11  C   UNL     1      -8.474  17.726  66.944  1.00  0.00    -0.260 A  
BRANCH   6  12
HETATM   12  N   UNL     1     -10.047  13.751  67.205  1.00  0.00    -0.239 NA 
HETATM   13  H   UNL     1     -10.161  13.331  66.282  1.00  0.00     0.000 HD 
BRANCH  12  14
HETATM   14  C   UNL     1     -10.491  12.965  68.231  1.00  0.00    -0.242 A  
HETATM   15  N   UNL     1     -10.048  11.677  68.377  1.00  0.00    -0.201 NA 
HETATM   16  C   UNL     1     -12.034  12.597  69.899  1.00  0.00    -0.295 A  
HETATM   17  N   UNL     1     -11.495  13.431  68.940  1.00  0.00    -0.282 NA 
HETATM   18  C   UNL     1     -10.698  10.727  69.175  1.00  0.00    -0.227 A  
HETATM   19  C   UNL     1     -11.742  11.307  70.090  1.00  0.00    -0.343 A  
HETATM   20 CL   UNL     1     -12.555  10.320  71.234  1.00  0.00    -0.481 Cl 
BRANCH  18  21
HETATM   21  N   UNL     1     -10.556   9.422  69.188  1.00  0.00    -0.220 NA 
HETATM   22  H   UNL     1     -11.241   8.830  68.719  1.00  0.00     0.000 HD 
BRANCH  21  23
HETATM   23  C   UNL     1      -9.463   8.845  69.844  1.00  0.00    -0.170 A  
HETATM   24  C   UNL     1      -8.458   9.678  70.359  1.00  0.00    -0.187 A  
HETATM   25  C   UNL     1      -7.196   9.176  70.657  1.00  0.00    -0.106 A  
HETATM   26  C   UNL     1      -6.952   7.815  70.517  1.00  0.00    -0.046 A  
HETATM   27  C   UNL     1      -7.996   6.950  70.190  1.00  0.00    -0.115 A  
HETATM   28  C   UNL     1      -9.270   7.459  69.898  1.00  0.00    -0.144 A  
BRANCH  28  29
HETATM   29  S   UNL     1     -10.650   6.312  70.042  1.00  0.00    -0.277 S  
HETATM   30  O   UNL     1     -11.629   6.728  69.050  1.00  0.00    -0.084 OA 
HETATM   31  O   UNL     1     -10.057   4.991  69.916  1.00  0.00    -0.236 OA 
BRANCH  29  32
HETATM   32  C   UNL     1     -11.462   6.424  71.630  1.00  0.00    -0.303 C  
HETATM   33  C   UNL     1     -10.684   7.281  72.633  1.00  0.00    -0.318 C  
HETATM   34  C   UNL     1     -12.865   7.022  71.438  1.00  0.00    -0.407 C  
ENDBRANCH  29  32
ENDBRANCH  28  29
ENDBRANCH  21  23
ENDBRANCH  18  21
ENDBRANCH  12  14
ENDBRANCH   6  12
BRANCH  11  35
HETATM   35  C   UNL     1      -8.023  19.190  66.761  1.00  0.00    -0.281 C  
HETATM   36  C   UNL     1      -7.471  19.791  68.069  1.00  0.00    -0.329 C  
HETATM   37  C   UNL     1      -6.016  19.416  68.296  1.00  0.00    -0.217 C  
HETATM   38  N   UNL     1      -5.197  19.958  67.221  1.00  0.00    -0.160 NA 
HETATM   39  H   UNL     1      -4.203  19.821  67.404  1.00  0.00     0.000 HD 
HETATM   40  C   UNL     1      -5.581  19.408  65.922  1.00  0.00    -0.155 C  
HETATM   41  C   UNL     1      -7.065  19.584  65.613  1.00  0.00    -0.306 C  
ENDBRANCH  11  35
ENDBRANCH   4   5
ENDBRANCH   2   4
TORSDOF 9
ENDMDL
MODEL      117
REMARK 921   NORMALIZED FREE ENERGY PREDICTED BY IDOCK:   -5.35 KCAL/MOL
REMARK 922        TOTAL FREE ENERGY PREDICTED BY IDOCK:  -10.34 KCAL/MOL
REMARK 923 INTER-LIGAND FREE ENERGY PREDICTED BY IDOCK:   -9.54 KCAL/MOL
REMARK 924 INTRA-LIGAND FREE ENERGY PREDICTED BY IDOCK:   -0.80 KCAL/MOL
REMARK 927      BINDING AFFINITY PREDICTED BY RF-SCORE:    0.00 PKD
ROOT
HETATM    1  C   UNL     1     -12.308  14.239  65.271  1.00  0.00    -0.427 C  
HETATM    2  C   UNL     1     -12.399  12.714  65.233  1.00  0.00    -0.466 C  
HETATM    3  C   UNL     1     -11.584  12.188  64.047  1.00  0.00    -0.504 C  
ENDROOT
BRANCH   2   4
HETATM    4  O   UNL     1     -11.941  12.210  66.510  1.00  0.00    -0.618 OA 
BRANCH   4   5
HETATM    5  C   UNL     1     -11.252  13.094  67.314  1.00  0.00    -0.287 A  
HETATM    6  C   UNL     1      -9.880  13.370  67.188  1.00  0.00    -0.237 A  
HETATM    7  C   UNL     1      -9.425  16.233  69.613  1.00  0.00     0.061 C  
HETATM    8  C   UNL     1      -9.406  14.508  67.837  1.00  0.00    -0.201 A  
HETATM    9  C   UNL     1     -12.038  13.774  68.285  1.00  0.00    -0.314 A  
HETATM   10  C   UNL     1     -10.165  15.194  68.806  1.00  0.00    -0.235 A  
HETATM   11  C   UNL     1     -11.510  14.825  69.065  1.00  0.00    -0.316 A  
BRANCH   6  12
HETATM   12  N   UNL     1      -8.983  12.653  66.374  1.00  0.00    -0.417 NA 
HETATM   13  H   UNL     1      -8.432  13.241  65.748  1.00  0.00     0.000 HD 
BRANCH  12  14
HETATM   14  C   UNL     1      -8.710  11.318  66.265  1.00  0.00    -0.184 A  
HETATM   15  N   UNL     1      -8.740  10.498  67.362  1.00  0.00    -0.126 NA 
HETATM   16  C   UNL     1      -7.838   9.586  65.025  1.00  0.00    -0.117 A  
HETATM   17  N   UNL     1      -8.232  10.906  65.111  1.00  0.00    -0.028 NA 
HETATM   18  C   UNL     1      -8.152   9.227  67.387  1.00  0.00    -0.110 A  
HETATM   19  C   UNL     1      -7.751   8.711  66.032  1.00  0.00    -0.100 A  
HETATM   20 CL   UNL     1      -7.132   7.122  65.844  1.00  0.00    -0.068 Cl 
BRANCH  18  21
HETATM   21  N   UNL     1      -7.865   8.471  68.420  1.00  0.00    -0.104 NA 
HETATM   22  H   UNL     1      -6.961   8.563  68.885  1.00  0.00     0.000 HD 
BRANCH  21  23
HETATM   23  C   UNL     1      -8.798   7.537  68.884  1.00  0.00    -0.135 A  
HETATM   24  C   UNL     1      -8.750   6.223  68.394  1.00  0.00    -0.116 A  
HETATM   25  C   UNL     1      -9.850   5.379  68.502  1.00  0.00    -0.199 A  
HETATM   26  C   UNL     1     -10.984   5.818  69.175  1.00  0.00    -0.308 A  
HETATM   27  C   UNL     1     -10.973   7.050  69.830  1.00  0.00    -0.283 A  
HETATM   28  C   UNL     1      -9.858   7.895  69.726  1.00  0.00    -0.179 A  
BRANCH  28  29
HETATM   29  S   UNL     1      -9.677   9.152  71.002  1.00  0.00    -0.278 S  
HETATM   30  O   UNL     1      -8.411   9.818  70.738  1.00  0.00    -0.207 OA 
HETATM   31  O   UNL     1     -10.898   9.937  70.934  1.00  0.00    -0.319 OA 
BRANCH  29  32
HETATM   32  C   UNL     1      -9.543   8.444  72.637  1.00  0.00    -0.267 C  
HETATM   33  C   UNL     1     -10.858   7.826  73.123  1.00  0.00    -0.401 C  
HETATM   34  C   UNL     1      -8.450   7.363  72.630  1.00  0.00    -0.138 C  
ENDBRANCH  29  32
ENDBRANCH  28  29
ENDBRANCH  21  23
ENDBRANCH  18  21
ENDBRANCH  12  14
ENDBRANCH   6  12
BRANCH  11  35
HETATM   35  C   UNL     1     -12.309  15.602  70.132  1.00  0.00    -0.366 C  
HETATM   36  C   UNL     1     -13.560  14.827  70.592  1.00  0.00    -0.033 C  
HETATM   37  C   UNL     1     -13.227  13.793  71.656  1.00  0.00    -0.371 C  
HETATM   38  N   UNL     1     -12.702  14.459  72.839  1.00  0.00    -0.382 NA 
HETATM   39  H   UNL     1     -12.576  13.804  73.611  1.00  0.00     0.000 HD 
HETATM   40  C   UNL     1     -11.465  15.181  72.545  1.00  0.00    -0.265 C  
HETATM   41  C   UNL     1     -11.607  16.166  71.389  1.00  0.00    -0.495 C  
ENDBRANCH  11  35
ENDBRANCH   4   5
ENDBRANCH   2   4
TORSDOF 9
ENDMDL
MODEL      118
REMARK 921   NORMALIZED FREE ENERGY PREDICTED BY IDOCK:   -5.34 KCAL/MOL
REMARK 922        TOTAL FREE ENERGY PREDICTED BY IDOCK:  -10.32 KCAL/MOL
REMARK 923 INTER-LIGAND FREE ENERGY PREDICTED BY IDOCK:   -8.84 KCAL/MOL
REMARK 924 INTRA-LIGAND FREE ENERGY PREDICTED BY IDOCK:   -1.48 KCAL/MOL
REMARK 927      BINDING AFFINITY PREDICTED BY RF-SCORE:    0.00 PKD
ROOT
HETATM    1  C   UNL     1      -7.521  15.670  69.413  1.00  0.00    -0.221 C  
HETATM    2  C   UNL     1      -6.989  14.674  68.383  1.00  0.00    -0.113 C  
HETATM    3  C   UNL     1      -7.440  13.260  68.767  1.00  0.00    -0.053 C  
ENDROOT
BRANCH   2   4
HETATM    4  O   UNL     1      -7.459  15.090  67.079  1.00  0.00    -0.166 OA 
BRANCH   4   5
HETATM    5  C   UNL     1      -8.358  16.136  67.049  1.00  0.00    -0.215 A  
HETATM    6  C   UNL     1      -9.731  16.004  67.312  1.00  0.00    -0.232 A  
HETATM    7  C   UNL     1     -10.875  19.607  67.367  1.00  0.00    -0.497 C  
HETATM    8  C   UNL     1     -10.438  17.178  67.568  1.00  0.00    -0.348 A  
HETATM    9  C   UNL     1      -7.797  17.414  66.773  1.00  0.00    -0.273 A  
HETATM   10  C   UNL     1      -9.904  18.453  67.298  1.00  0.00    -0.327 A  
HETATM   11  C   UNL     1      -8.558  18.598  66.873  1.00  0.00    -0.284 A  
BRANCH   6  12
HETATM   12  N   UNL     1     -10.415  14.781  67.444  1.00  0.00    -0.254 NA 
HETATM   13  H   UNL     1     -10.396  14.396  68.389  1.00  0.00     0.000 HD 
BRANCH  12  14
HETATM   14  C   UNL     1     -11.100  14.011  66.546  1.00  0.00    -0.314 A  
HETATM   15  N   UNL     1     -10.943  12.651  66.516  1.00  0.00    -0.261 NA 
HETATM   16  C   UNL     1     -12.347  13.884  64.615  1.00  0.00    -0.388 A  
HETATM   17  N   UNL     1     -11.753  14.649  65.599  1.00  0.00    -0.334 NA 
HETATM   18  C   UNL     1     -11.335  11.856  65.432  1.00  0.00    -0.277 A  
HETATM   19  C   UNL     1     -12.209  12.567  64.436  1.00  0.00    -0.449 A  
HETATM   20 CL   UNL     1     -12.895  11.724  63.107  1.00  0.00    -0.414 Cl 
BRANCH  18  21
HETATM   21  N   UNL     1     -11.001  10.617  65.153  1.00  0.00     0.099 NA 
HETATM   22  H   UNL     1     -11.621   9.851  65.414  1.00  0.00     0.000 HD 
BRANCH  21  23
HETATM   23  C   UNL     1      -9.794  10.350  64.497  1.00  0.00    -0.339 A  
HETATM   24  C   UNL     1      -9.415  11.154  63.411  1.00  0.00    -0.321 A  
HETATM   25  C   UNL     1      -8.465  10.716  62.496  1.00  0.00    -0.254 A  
HETATM   26  C   UNL     1      -7.826   9.499  62.703  1.00  0.00    -0.117 A  
HETATM   27  C   UNL     1      -8.056   8.782  63.878  1.00  0.00    -0.165 A  
HETATM   28  C   UNL     1      -9.010   9.232  64.803  1.00  0.00    -0.168 A  
BRANCH  28  29
HETATM   29  S   UNL     1      -8.856   8.610  66.486  1.00  0.00    -0.146 S  
HETATM   30  O   UNL     1      -8.837   9.779  67.350  1.00  0.00    -0.131 OA 
HETATM   31  O   UNL     1      -9.943   7.657  66.636  1.00  0.00    -0.232 OA 
BRANCH  29  32
HETATM   32  C   UNL     1      -7.309   7.758  66.755  1.00  0.00    -0.089 C  
HETATM   33  C   UNL     1      -6.295   8.603  67.532  1.00  0.00    -0.057 C  
HETATM   34  C   UNL     1      -7.578   6.457  67.529  1.00  0.00    -0.100 C  
ENDBRANCH  29  32
ENDBRANCH  28  29
ENDBRANCH  21  23
ENDBRANCH  18  21
ENDBRANCH  12  14
ENDBRANCH   6  12
BRANCH  11  35
HETATM   35  C   UNL     1      -8.008  20.011  66.588  1.00  0.00    -0.346 C  
HETATM   36  C   UNL     1      -7.405  20.660  67.850  1.00  0.00    -0.217 C  
HETATM   37  C   UNL     1      -5.977  20.202  68.095  1.00  0.00    -0.244 C  
HETATM   38  N   UNL     1      -5.132  20.612  66.983  1.00  0.00    -0.163 NA 
HETATM   39  H   UNL     1      -4.149  20.419  67.171  1.00  0.00     0.000 HD 
HETATM   40  C   UNL     1      -5.565  20.002  65.726  1.00  0.00    -0.171 C  
HETATM   41  C   UNL     1      -7.036  20.259  65.412  1.00  0.00    -0.263 C  
ENDBRANCH  11  35
ENDBRANCH   4   5
ENDBRANCH   2   4
TORSDOF 9
ENDMDL
MODEL      119
REMARK 921   NORMALIZED FREE ENERGY PREDICTED BY IDOCK:   -5.34 KCAL/MOL
REMARK 922        TOTAL FREE ENERGY PREDICTED BY IDOCK:  -10.31 KCAL/MOL
REMARK 923 INTER-LIGAND FREE ENERGY PREDICTED BY IDOCK:   -9.64 KCAL/MOL
REMARK 924 INTRA-LIGAND FREE ENERGY PREDICTED BY IDOCK:   -0.67 KCAL/MOL
REMARK 927      BINDING AFFINITY PREDICTED BY RF-SCORE:    0.00 PKD
ROOT
HETATM    1  C   UNL     1      -6.107  14.448  67.839  1.00  0.00    -0.161 C  
HETATM    2  C   UNL     1      -6.761  13.998  69.145  1.00  0.00    -0.112 C  
HETATM    3  C   UNL     1      -5.802  14.267  70.309  1.00  0.00    -0.146 C  
ENDROOT
BRANCH   2   4
HETATM    4  O   UNL     1      -8.024  14.694  69.271  1.00  0.00    -0.135 OA 
BRANCH   4   5
HETATM    5  C   UNL     1      -8.700  14.967  68.100  1.00  0.00    -0.165 A  
HETATM    6  C   UNL     1      -9.546  14.056  67.445  1.00  0.00    -0.227 A  
HETATM    7  C   UNL     1     -11.068  16.202  64.731  1.00  0.00    -0.345 C  
HETATM    8  C   UNL     1     -10.402  14.577  66.477  1.00  0.00    -0.283 A  
HETATM    9  C   UNL     1      -8.529  16.285  67.591  1.00  0.00    -0.178 A  
HETATM   10  C   UNL     1     -10.248  15.877  65.956  1.00  0.00    -0.353 A  
HETATM   11  C   UNL     1      -9.282  16.764  66.499  1.00  0.00    -0.294 A  
BRANCH   6  12
HETATM   12  N   UNL     1      -9.669  12.692  67.769  1.00  0.00    -0.200 NA 
HETATM   13  H   UNL     1      -9.226  12.065  67.096  1.00  0.00     0.000 HD 
BRANCH  12  14
HETATM   14  C   UNL     1     -10.269  12.048  68.815  1.00  0.00    -0.129 A  
HETATM   15  N   UNL     1      -9.813  10.832  69.251  1.00  0.00    -0.181 NA 
HETATM   16  C   UNL     1     -12.083  11.842  70.216  1.00  0.00    -0.325 A  
HETATM   17  N   UNL     1     -11.405  12.550  69.244  1.00  0.00    -0.259 NA 
HETATM   18  C   UNL     1     -10.566   9.977  70.066  1.00  0.00    -0.293 A  
HETATM   19  C   UNL     1     -11.783  10.621  70.669  1.00  0.00    -0.356 A  
HETATM   20 CL   UNL     1     -12.760   9.772  71.796  1.00  0.00    -0.490 Cl 
BRANCH  18  21
HETATM   21  N   UNL     1     -10.379   8.703  70.321  1.00  0.00    -0.193 NA 
HETATM   22  H   UNL     1     -10.253   8.388  71.283  1.00  0.00     0.000 HD 
BRANCH  21  23
HETATM   23  C   UNL     1     -10.352   7.777  69.272  1.00  0.00    -0.219 A  
HETATM   24  C   UNL     1     -10.221   8.242  67.954  1.00  0.00    -0.276 A  
HETATM   25  C   UNL     1     -10.577   7.440  66.876  1.00  0.00    -0.375 A  
HETATM   26  C   UNL     1     -10.991   6.134  67.103  1.00  0.00    -0.420 A  
HETATM   27  C   UNL     1     -10.942   5.600  68.391  1.00  0.00    -0.038 A  
HETATM   28  C   UNL     1     -10.575   6.410  69.476  1.00  0.00    -0.253 A  
BRANCH  28  29
HETATM   29  S   UNL     1      -9.997   5.562  70.956  1.00  0.00    -0.203 S  
HETATM   30  O   UNL     1      -9.974   4.145  70.628  1.00  0.00    -0.197 OA 
HETATM   31  O   UNL     1      -8.744   6.214  71.298  1.00  0.00    -0.131 OA 
BRANCH  29  32
HETATM   32  C   UNL     1     -11.128   5.745  72.327  1.00  0.00    -0.276 C  
HETATM   33  C   UNL     1     -11.326   4.443  73.108  1.00  0.00    -0.282 C  
HETATM   34  C   UNL     1     -10.593   6.827  73.280  1.00  0.00    -0.335 C  
ENDBRANCH  29  32
ENDBRANCH  28  29
ENDBRANCH  21  23
ENDBRANCH  18  21
ENDBRANCH  12  14
ENDBRANCH   6  12
BRANCH  11  35
HETATM   35  C   UNL     1      -9.144  18.180  65.902  1.00  0.00     0.180 C  
HETATM   36  C   UNL     1     -10.463  18.974  65.990  1.00  0.00    -0.530 C  
HETATM   37  C   UNL     1     -10.648  19.615  67.356  1.00  0.00    -0.460 C  
HETATM   38  N   UNL     1      -9.579  20.573  67.597  1.00  0.00    -0.381 NA 
HETATM   39  H   UNL     1      -9.738  21.102  68.454  1.00  0.00     0.000 HD 
HETATM   40  C   UNL     1      -8.268  19.925  67.605  1.00  0.00    -0.313 C  
HETATM   41  C   UNL     1      -7.993  19.114  66.341  1.00  0.00    -0.306 C  
ENDBRANCH  11  35
ENDBRANCH   4   5
ENDBRANCH   2   4
TORSDOF 9
ENDMDL
MODEL      120
REMARK 921   NORMALIZED FREE ENERGY PREDICTED BY IDOCK:   -5.34 KCAL/MOL
REMARK 922        TOTAL FREE ENERGY PREDICTED BY IDOCK:  -10.31 KCAL/MOL
REMARK 923 INTER-LIGAND FREE ENERGY PREDICTED BY IDOCK:   -9.14 KCAL/MOL
REMARK 924 INTRA-LIGAND FREE ENERGY PREDICTED BY IDOCK:   -1.17 KCAL/MOL
REMARK 927      BINDING AFFINITY PREDICTED BY RF-SCORE:    0.00 PKD
ROOT
HETATM    1  C   UNL     1     -11.929   6.890  70.648  1.00  0.00    -0.400 C  
HETATM    2  C   UNL     1     -10.732   6.421  69.821  1.00  0.00    -0.283 C  
HETATM    3  C   UNL     1     -10.364   4.991  70.230  1.00  0.00    -0.299 C  
ENDROOT
BRANCH   2   4
HETATM    4  O   UNL     1     -11.085   6.544  68.422  1.00  0.00    -0.293 OA 
BRANCH   4   5
HETATM    5  C   UNL     1     -10.050   6.784  67.541  1.00  0.00    -0.170 A  
HETATM    6  C   UNL     1      -9.205   7.905  67.604  1.00  0.00    -0.136 A  
HETATM    7  C   UNL     1      -6.606   7.080  64.987  1.00  0.00    -0.046 C  
HETATM    8  C   UNL     1      -8.024   7.842  66.868  1.00  0.00    -0.112 A  
HETATM    9  C   UNL     1      -9.845   5.781  66.555  1.00  0.00    -0.193 A  
HETATM   10  C   UNL     1      -7.800   6.860  65.883  1.00  0.00    -0.106 A  
HETATM   11  C   UNL     1      -8.728   5.803  65.693  1.00  0.00    -0.151 A  
BRANCH   6  12
HETATM   12  N   UNL     1      -9.408   9.025  68.432  1.00  0.00    -0.139 NA 
HETATM   13  H   UNL     1     -10.003   8.840  69.241  1.00  0.00     0.000 HD 
BRANCH  12  14
HETATM   14  C   UNL     1      -8.959  10.314  68.358  1.00  0.00    -0.132 A  
HETATM   15  N   UNL     1      -9.452  11.181  67.419  1.00  0.00    -0.164 NA 
HETATM   16  C   UNL     1      -7.370  11.877  68.932  1.00  0.00    -0.080 A  
HETATM   17  N   UNL     1      -7.909  10.616  69.089  1.00  0.00    -0.136 NA 
HETATM   18  C   UNL     1      -8.814  12.378  67.069  1.00  0.00    -0.210 A  
HETATM   19  C   UNL     1      -7.711  12.782  68.009  1.00  0.00    -0.137 A  
HETATM   20 CL   UNL     1      -6.898  14.280  67.818  1.00  0.00    -0.174 Cl 
BRANCH  18  21
HETATM   21  N   UNL     1      -9.013  13.143  66.022  1.00  0.00    -0.378 NA 
HETATM   22  H   UNL     1      -8.218  13.551  65.529  1.00  0.00     0.000 HD 
BRANCH  21  23
HETATM   23  C   UNL     1     -10.316  13.400  65.581  1.00  0.00    -0.290 A  
HETATM   24  C   UNL     1     -11.210  12.329  65.434  1.00  0.00    -0.372 A  
HETATM   25  C   UNL     1     -12.351  12.453  64.649  1.00  0.00    -0.518 A  
HETATM   26  C   UNL     1     -12.650  13.679  64.068  1.00  0.00    -0.147 A  
HETATM   27  C   UNL     1     -11.872  14.799  64.363  1.00  0.00    -0.393 A  
HETATM   28  C   UNL     1     -10.726  14.671  65.162  1.00  0.00    -0.414 A  
BRANCH  28  29
HETATM   29  S   UNL     1     -10.119  16.174  65.947  1.00  0.00    -0.361 S  
HETATM   30  O   UNL     1      -8.676  16.023  66.049  1.00  0.00    -0.331 OA 
HETATM   31  O   UNL     1     -10.645  17.261  65.138  1.00  0.00    -0.686 OA 
BRANCH  29  32
HETATM   32  C   UNL     1     -10.727  16.360  67.617  1.00  0.00    -0.312 C  
HETATM   33  C   UNL     1     -11.532  15.147  68.092  1.00  0.00    -0.356 C  
HETATM   34  C   UNL     1      -9.536  16.576  68.565  1.00  0.00    -0.235 C  
ENDBRANCH  29  32
ENDBRANCH  28  29
ENDBRANCH  21  23
ENDBRANCH  18  21
ENDBRANCH  12  14
ENDBRANCH   6  12
BRANCH  11  35
HETATM   35  C   UNL     1      -8.448   4.746  64.605  1.00  0.00    -0.139 C  
HETATM   36  C   UNL     1      -7.961   3.414  65.208  1.00  0.00    -0.086 C  
HETATM   37  C   UNL     1      -9.118   2.552  65.686  1.00  0.00    -0.108 C  
HETATM   38  N   UNL     1      -9.968   2.202  64.557  1.00  0.00    -0.343 NA 
HETATM   39  H   UNL     1     -10.688   1.531  64.826  1.00  0.00     0.000 HD 
HETATM   40  C   UNL     1     -10.551   3.389  63.934  1.00  0.00    -0.243 C  
HETATM   41  C   UNL     1      -9.507   4.424  63.525  1.00  0.00    -0.063 C  
ENDBRANCH  11  35
ENDBRANCH   4   5
ENDBRANCH   2   4
TORSDOF 9
ENDMDL
MODEL      121
REMARK 921   NORMALIZED FREE ENERGY PREDICTED BY IDOCK:   -5.33 KCAL/MOL
REMARK 922        TOTAL FREE ENERGY PREDICTED BY IDOCK:  -10.31 KCAL/MOL
REMARK 923 INTER-LIGAND FREE ENERGY PREDICTED BY IDOCK:   -8.93 KCAL/MOL
REMARK 924 INTRA-LIGAND FREE ENERGY PREDICTED BY IDOCK:   -1.38 KCAL/MOL
REMARK 927      BINDING AFFINITY PREDICTED BY RF-SCORE:    0.00 PKD
ROOT
HETATM    1  C   UNL     1     -11.801  10.482  70.263  1.00  0.00    -0.418 C  
HETATM    2  C   UNL     1     -10.774   9.370  70.051  1.00  0.00    -0.239 C  
HETATM    3  C   UNL     1     -11.432   8.015  70.330  1.00  0.00    -0.140 C  
ENDROOT
BRANCH   2   4
HETATM    4  O   UNL     1     -10.261   9.491  68.703  1.00  0.00    -0.181 OA 
BRANCH   4   5
HETATM    5  C   UNL     1      -9.007   8.968  68.468  1.00  0.00    -0.133 A  
HETATM    6  C   UNL     1      -7.818   9.503  68.991  1.00  0.00    -0.077 A  
HETATM    7  C   UNL     1      -5.272   6.894  67.992  1.00  0.00    -0.015 C  
HETATM    8  C   UNL     1      -6.688   8.689  68.942  1.00  0.00    -0.053 A  
HETATM    9  C   UNL     1      -8.978   7.787  67.675  1.00  0.00    -0.128 A  
HETATM   10  C   UNL     1      -6.636   7.518  68.161  1.00  0.00    -0.050 A  
HETATM   11  C   UNL     1      -7.793   7.046  67.489  1.00  0.00    -0.112 A  
BRANCH   6  12
HETATM   12  N   UNL     1      -7.711  10.741  69.653  1.00  0.00    -0.359 NA 
HETATM   13  H   UNL     1      -7.801  10.677  70.667  1.00  0.00     0.000 HD 
BRANCH  12  14
HETATM   14  C   UNL     1      -7.509  12.012  69.193  1.00  0.00     0.096 A  
HETATM   15  N   UNL     1      -8.317  12.551  68.227  1.00  0.00    -0.171 NA 
HETATM   16  C   UNL     1      -6.124  13.843  69.021  1.00  0.00    -0.089 A  
HETATM   17  N   UNL     1      -6.400  12.608  69.574  1.00  0.00    -0.122 NA 
HETATM   18  C   UNL     1      -7.971  13.686  67.482  1.00  0.00    -0.182 A  
HETATM   19  C   UNL     1      -6.788  14.439  68.026  1.00  0.00    -0.143 A  
HETATM   20 CL   UNL     1      -6.293  15.924  67.325  1.00  0.00    -0.195 Cl 
BRANCH  18  21
HETATM   21  N   UNL     1      -8.500  14.134  66.367  1.00  0.00    -0.303 NA 
HETATM   22  H   UNL     1      -7.911  14.593  65.672  1.00  0.00     0.000 HD 
BRANCH  21  23
HETATM   23  C   UNL     1      -9.871  13.981  66.133  1.00  0.00    -0.303 A  
HETATM   24  C   UNL     1     -10.493  12.773  66.487  1.00  0.00    -0.276 A  
HETATM   25  C   UNL     1     -11.719  12.413  65.939  1.00  0.00    -0.476 A  
HETATM   26  C   UNL     1     -12.373  13.297  65.089  1.00  0.00    -0.516 A  
HETATM   27  C   UNL     1     -11.856  14.577  64.882  1.00  0.00    -0.417 A  
HETATM   28  C   UNL     1     -10.623  14.939  65.444  1.00  0.00    -0.373 A  
BRANCH  28  29
HETATM   29  S   UNL     1     -10.301  16.702  65.613  1.00  0.00    -0.221 S  
HETATM   30  O   UNL     1      -8.862  16.867  65.479  1.00  0.00    -0.353 OA 
HETATM   31  O   UNL     1     -11.164  17.339  64.632  1.00  0.00    -1.014 OA 
BRANCH  29  32
HETATM   32  C   UNL     1     -10.731  17.317  67.235  1.00  0.00    -0.215 C  
HETATM   33  C   UNL     1     -10.160  16.455  68.365  1.00  0.00    -0.245 C  
HETATM   34  C   UNL     1     -10.206  18.755  67.384  1.00  0.00    -0.444 C  
ENDBRANCH  29  32
ENDBRANCH  28  29
ENDBRANCH  21  23
ENDBRANCH  18  21
ENDBRANCH  12  14
ENDBRANCH   6  12
BRANCH  11  35
HETATM   35  C   UNL     1      -7.696   5.758  66.644  1.00  0.00    -0.100 C  
HETATM   36  C   UNL     1      -7.671   4.492  67.523  1.00  0.00    -0.085 C  
HETATM   37  C   UNL     1      -9.069   4.063  67.938  1.00  0.00    -0.141 C  
HETATM   38  N   UNL     1      -9.849   3.724  66.756  1.00  0.00    -0.373 NA 
HETATM   39  H   UNL     1     -10.753   3.324  67.008  1.00  0.00     0.000 HD 
HETATM   40  C   UNL     1     -10.003   4.873  65.866  1.00  0.00    -0.203 C  
HETATM   41  C   UNL     1      -8.673   5.508  65.471  1.00  0.00    -0.154 C  
ENDBRANCH  11  35
ENDBRANCH   4   5
ENDBRANCH   2   4
TORSDOF 9
ENDMDL
MODEL      122
REMARK 921   NORMALIZED FREE ENERGY PREDICTED BY IDOCK:   -5.31 KCAL/MOL
REMARK 922        TOTAL FREE ENERGY PREDICTED BY IDOCK:  -10.27 KCAL/MOL
REMARK 923 INTER-LIGAND FREE ENERGY PREDICTED BY IDOCK:   -7.90 KCAL/MOL
REMARK 924 INTRA-LIGAND FREE ENERGY PREDICTED BY IDOCK:   -2.37 KCAL/MOL
REMARK 927      BINDING AFFINITY PREDICTED BY RF-SCORE:    0.00 PKD
ROOT
HETATM    1  C   UNL     1     -12.089  10.616  69.100  1.00  0.00    -0.152 C  
HETATM    2  C   UNL     1     -10.660  10.436  69.609  1.00  0.00    -0.253 C  
HETATM    3  C   UNL     1     -10.685   9.631  70.913  1.00  0.00    -0.402 C  
ENDROOT
BRANCH   2   4
HETATM    4  O   UNL     1      -9.891   9.801  68.559  1.00  0.00    -0.151 OA 
BRANCH   4   5
HETATM    5  C   UNL     1      -9.933  10.395  67.315  1.00  0.00    -0.188 A  
HETATM    6  C   UNL     1     -10.031   9.688  66.105  1.00  0.00    -0.276 A  
HETATM    7  C   UNL     1     -10.528  12.473  63.599  1.00  0.00    -0.418 C  
HETATM    8  C   UNL     1     -10.393  10.420  64.977  1.00  0.00    -0.249 A  
HETATM    9  C   UNL     1      -9.917  11.818  67.318  1.00  0.00    -0.208 A  
HETATM   10  C   UNL     1     -10.380  11.828  64.956  1.00  0.00    -0.325 A  
HETATM   11  C   UNL     1     -10.121  12.566  66.140  1.00  0.00    -0.265 A  
BRANCH   6  12
HETATM   12  N   UNL     1      -9.901   8.292  65.973  1.00  0.00    -0.468 NA 
HETATM   13  H   UNL     1     -10.641   7.859  65.419  1.00  0.00     0.000 HD 
BRANCH  12  14
HETATM   14  C   UNL     1      -8.971   7.409  66.444  1.00  0.00    -0.163 A  
HETATM   15  N   UNL     1      -9.151   6.763  67.639  1.00  0.00    -0.118 NA 
HETATM   16  C   UNL     1      -6.833   6.562  66.338  1.00  0.00    -0.061 A  
HETATM   17  N   UNL     1      -7.825   7.359  65.802  1.00  0.00    -0.101 NA 
HETATM   18  C   UNL     1      -8.114   6.126  68.331  1.00  0.00    -0.108 A  
HETATM   19  C   UNL     1      -6.859   5.945  67.523  1.00  0.00    -0.060 A  
HETATM   20 CL   UNL     1      -5.523   5.072  68.155  1.00  0.00    -0.011 Cl 
BRANCH  18  21
HETATM   21  N   UNL     1      -8.079   5.725  69.581  1.00  0.00    -0.103 NA 
HETATM   22  H   UNL     1      -7.966   4.735  69.796  1.00  0.00     0.000 HD 
BRANCH  21  23
HETATM   23  C   UNL     1      -8.198   6.658  70.618  1.00  0.00    -0.124 A  
HETATM   24  C   UNL     1      -7.428   7.831  70.572  1.00  0.00    -0.074 A  
HETATM   25  C   UNL     1      -7.203   8.583  71.718  1.00  0.00    -0.112 A  
HETATM   26  C   UNL     1      -7.814   8.212  72.910  1.00  0.00    -0.202 A  
HETATM   27  C   UNL     1      -8.732   7.161  72.925  1.00  0.00    -0.144 A  
HETATM   28  C   UNL     1      -8.962   6.409  71.763  1.00  0.00    -0.139 A  
BRANCH  28  29
HETATM   29  S   UNL     1     -10.506   5.485  71.694  1.00  0.00    -0.230 S  
HETATM   30  O   UNL     1     -11.404   6.123  72.644  1.00  0.00    -0.268 OA 
HETATM   31  O   UNL     1     -10.878   5.477  70.288  1.00  0.00    -0.289 OA 
BRANCH  29  32
HETATM   32  C   UNL     1     -10.310   3.796  72.241  1.00  0.00    -0.084 C  
HETATM   33  C   UNL     1      -8.842   3.404  72.438  1.00  0.00    -0.112 C  
HETATM   34  C   UNL     1     -11.065   3.604  73.566  1.00  0.00    -0.320 C  
ENDBRANCH  29  32
ENDBRANCH  28  29
ENDBRANCH  21  23
ENDBRANCH  18  21
ENDBRANCH  12  14
ENDBRANCH   6  12
BRANCH  11  35
HETATM   35  C   UNL     1     -10.117  14.108  66.078  1.00  0.00    -0.330 C  
HETATM   36  C   UNL     1     -11.513  14.700  66.354  1.00  0.00    -0.348 C  
HETATM   37  C   UNL     1     -11.801  14.804  67.843  1.00  0.00    -0.297 C  
HETATM   38  N   UNL     1     -10.845  15.709  68.465  1.00  0.00    -0.268 NA 
HETATM   39  H   UNL     1     -11.081  15.888  69.440  1.00  0.00     0.000 HD 
HETATM   40  C   UNL     1      -9.474  15.218  68.329  1.00  0.00    -0.205 C  
HETATM   41  C   UNL     1      -9.082  14.928  66.883  1.00  0.00    -0.271 C  
ENDBRANCH  11  35
ENDBRANCH   4   5
ENDBRANCH   2   4
TORSDOF 9
ENDMDL
MODEL      123
REMARK 921   NORMALIZED FREE ENERGY PREDICTED BY IDOCK:   -5.30 KCAL/MOL
REMARK 922        TOTAL FREE ENERGY PREDICTED BY IDOCK:  -10.26 KCAL/MOL
REMARK 923 INTER-LIGAND FREE ENERGY PREDICTED BY IDOCK:   -8.75 KCAL/MOL
REMARK 924 INTRA-LIGAND FREE ENERGY PREDICTED BY IDOCK:   -1.52 KCAL/MOL
REMARK 927      BINDING AFFINITY PREDICTED BY RF-SCORE:    0.00 PKD
ROOT
HETATM    1  C   UNL     1     -11.030  15.509  70.566  1.00  0.00    -0.368 C  
HETATM    2  C   UNL     1     -10.304  15.384  69.227  1.00  0.00    -0.253 C  
HETATM    3  C   UNL     1      -9.553  16.687  68.935  1.00  0.00    -0.252 C  
ENDROOT
BRANCH   2   4
HETATM    4  O   UNL     1      -9.436  14.227  69.300  1.00  0.00     0.028 OA 
BRANCH   4   5
HETATM    5  C   UNL     1      -9.599  13.268  68.322  1.00  0.00    -0.221 A  
HETATM    6  C   UNL     1      -8.741  12.171  68.142  1.00  0.00    -0.185 A  
HETATM    7  C   UNL     1     -10.574  10.155  65.522  1.00  0.00     0.057 C  
HETATM    8  C   UNL     1      -9.212  11.128  67.347  1.00  0.00    -0.157 A  
HETATM    9  C   UNL     1     -10.750  13.424  67.502  1.00  0.00    -0.263 A  
HETATM   10  C   UNL     1     -10.346  11.262  66.523  1.00  0.00    -0.284 A  
HETATM   11  C   UNL     1     -11.141  12.437  66.572  1.00  0.00    -0.346 A  
BRANCH   6  12
HETATM   12  N   UNL     1      -7.501  12.000  68.787  1.00  0.00    -0.189 NA 
HETATM   13  H   UNL     1      -6.862  12.787  68.671  1.00  0.00     0.000 HD 
BRANCH  12  14
HETATM   14  C   UNL     1      -6.992  10.979  69.540  1.00  0.00    -0.126 A  
HETATM   15  N   UNL     1      -7.784   9.938  69.948  1.00  0.00    -0.155 NA 
HETATM   16  C   UNL     1      -5.295  10.177  70.873  1.00  0.00    -0.072 A  
HETATM   17  N   UNL     1      -5.776  11.143  70.012  1.00  0.00    -0.084 NA 
HETATM   18  C   UNL     1      -7.427   9.060  70.979  1.00  0.00    -0.114 A  
HETATM   19  C   UNL     1      -5.987   9.161  71.399  1.00  0.00    -0.069 A  
HETATM   20 CL   UNL     1      -5.330   8.080  72.558  1.00  0.00    -0.036 Cl 
BRANCH  18  21
HETATM   21  N   UNL     1      -8.183   8.219  71.646  1.00  0.00    -0.125 NA 
HETATM   22  H   UNL     1      -7.776   7.639  72.379  1.00  0.00     0.000 HD 
BRANCH  21  23
HETATM   23  C   UNL     1      -9.547   8.119  71.349  1.00  0.00    -0.165 A  
HETATM   24  C   UNL     1     -10.377   9.228  71.575  1.00  0.00    -0.364 A  
HETATM   25  C   UNL     1     -11.755   9.080  71.678  1.00  0.00    -0.431 A  
HETATM   26  C   UNL     1     -12.325   7.828  71.477  1.00  0.00    -0.345 A  
HETATM   27  C   UNL     1     -11.529   6.759  71.065  1.00  0.00    -0.372 A  
HETATM   28  C   UNL     1     -10.139   6.915  70.953  1.00  0.00    -0.194 A  
BRANCH  28  29
HETATM   29  S   UNL     1      -9.276   5.727  69.911  1.00  0.00    -0.146 S  
HETATM   30  O   UNL     1      -7.941   5.590  70.473  1.00  0.00    -0.098 OA 
HETATM   31  O   UNL     1     -10.137   4.556  69.881  1.00  0.00    -0.234 OA 
BRANCH  29  32
HETATM   32  C   UNL     1      -9.062   6.321  68.240  1.00  0.00    -0.113 C  
HETATM   33  C   UNL     1     -10.126   7.346  67.836  1.00  0.00    -0.220 C  
HETATM   34  C   UNL     1      -7.670   6.960  68.107  1.00  0.00    -0.113 C  
ENDBRANCH  29  32
ENDBRANCH  28  29
ENDBRANCH  21  23
ENDBRANCH  18  21
ENDBRANCH  12  14
ENDBRANCH   6  12
BRANCH  11  35
HETATM   35  C   UNL     1     -12.377  12.546  65.656  1.00  0.00    -0.296 C  
HETATM   36  C   UNL     1     -12.908  13.991  65.574  1.00  0.00    -0.453 C  
HETATM   37  C   UNL     1     -12.137  14.822  64.561  1.00  0.00    -0.446 C  
HETATM   38  N   UNL     1     -12.302  14.251  63.232  1.00  0.00    -1.092 NA 
HETATM   39  H   UNL     1     -11.891  14.850  62.515  1.00  0.00     0.000 HD 
HETATM   40  C   UNL     1     -11.770  12.891  63.161  1.00  0.00    -0.143 C  
HETATM   41  C   UNL     1     -12.352  11.964  64.223  1.00  0.00    -0.310 C  
ENDBRANCH  11  35
ENDBRANCH   4   5
ENDBRANCH   2   4
TORSDOF 9
ENDMDL
MODEL      124
REMARK 921   NORMALIZED FREE ENERGY PREDICTED BY IDOCK:   -5.30 KCAL/MOL
REMARK 922        TOTAL FREE ENERGY PREDICTED BY IDOCK:  -10.26 KCAL/MOL
REMARK 923 INTER-LIGAND FREE ENERGY PREDICTED BY IDOCK:   -8.66 KCAL/MOL
REMARK 924 INTRA-LIGAND FREE ENERGY PREDICTED BY IDOCK:   -1.59 KCAL/MOL
REMARK 927      BINDING AFFINITY PREDICTED BY RF-SCORE:    0.00 PKD
ROOT
HETATM    1  C   UNL     1      -8.599   9.371  64.464  1.00  0.00    -0.219 C  
HETATM    2  C   UNL     1      -8.638   9.465  65.988  1.00  0.00    -0.142 C  
HETATM    3  C   UNL     1      -8.182  10.863  66.420  1.00  0.00    -0.163 C  
ENDROOT
BRANCH   2   4
HETATM    4  O   UNL     1      -9.982   9.143  66.419  1.00  0.00    -0.259 OA 
BRANCH   4   5
HETATM    5  C   UNL     1     -10.225   9.187  67.776  1.00  0.00    -0.224 A  
HETATM    6  C   UNL     1     -11.192  10.008  68.378  1.00  0.00    -0.127 A  
HETATM    7  C   UNL     1     -11.131   8.804  71.960  1.00  0.00    -0.441 C  
HETATM    8  C   UNL     1     -11.545   9.704  69.691  1.00  0.00     0.030 A  
HETATM    9  C   UNL     1      -9.450   8.291  68.563  1.00  0.00    -0.149 A  
HETATM   10  C   UNL     1     -10.790   8.824  70.490  1.00  0.00    -0.268 A  
HETATM   11  C   UNL     1      -9.700   8.101  69.938  1.00  0.00    -0.176 A  
BRANCH   6  12
HETATM   12  N   UNL     1     -11.902  11.033  67.725  1.00  0.00    -0.668 NA 
HETATM   13  H   UNL     1     -12.917  10.937  67.784  1.00  0.00     0.000 HD 
BRANCH  12  14
HETATM   14  C   UNL     1     -11.490  12.133  67.026  1.00  0.00    -0.350 A  
HETATM   15  N   UNL     1     -10.759  13.121  67.631  1.00  0.00    -0.236 NA 
HETATM   16  C   UNL     1     -11.679  13.455  65.151  1.00  0.00    -0.321 A  
HETATM   17  N   UNL     1     -11.990  12.288  65.820  1.00  0.00    -0.567 NA 
HETATM   18  C   UNL     1     -10.601  14.402  67.086  1.00  0.00    -0.277 A  
HETATM   19  C   UNL     1     -11.041  14.517  65.653  1.00  0.00    -0.327 A  
HETATM   20 CL   UNL     1     -10.807  15.972  64.775  1.00  0.00    -0.417 Cl 
BRANCH  18  21
HETATM   21  N   UNL     1     -10.179  15.500  67.669  1.00  0.00    -0.252 NA 
HETATM   22  H   UNL     1     -10.850  16.202  67.980  1.00  0.00     0.000 HD 
BRANCH  21  23
HETATM   23  C   UNL     1      -8.808  15.707  67.861  1.00  0.00    -0.171 A  
HETATM   24  C   UNL     1      -7.972  14.598  68.062  1.00  0.00    -0.137 A  
HETATM   25  C   UNL     1      -6.715  14.746  68.637  1.00  0.00    -0.088 A  
HETATM   26  C   UNL     1      -6.249  16.018  68.943  1.00  0.00    -0.126 A  
HETATM   27  C   UNL     1      -6.991  17.140  68.573  1.00  0.00    -0.201 A  
HETATM   28  C   UNL     1      -8.256  16.988  67.985  1.00  0.00    -0.206 A  
BRANCH  28  29
HETATM   29  S   UNL     1      -8.884  18.389  67.046  1.00  0.00    -0.278 S  
HETATM   30  O   UNL     1      -9.123  17.900  65.698  1.00  0.00    -0.344 OA 
HETATM   31  O   UNL     1     -10.016  18.881  67.814  1.00  0.00    -0.324 OA 
BRANCH  29  32
HETATM   32  C   UNL     1      -7.681  19.702  66.901  1.00  0.00    -0.262 C  
HETATM   33  C   UNL     1      -7.040  19.766  65.511  1.00  0.00    -0.313 C  
HETATM   34  C   UNL     1      -8.362  21.046  67.205  1.00  0.00     0.012 C  
ENDBRANCH  29  32
ENDBRANCH  28  29
ENDBRANCH  21  23
ENDBRANCH  18  21
ENDBRANCH  12  14
ENDBRANCH   6  12
BRANCH  11  35
HETATM   35  C   UNL     1      -8.897   7.146  70.845  1.00  0.00    -0.150 C  
HETATM   36  C   UNL     1      -9.547   5.750  70.929  1.00  0.00    -0.205 C  
HETATM   37  C   UNL     1      -9.168   4.876  69.745  1.00  0.00    -0.121 C  
HETATM   38  N   UNL     1      -7.729   4.655  69.739  1.00  0.00    -0.058 NA 
HETATM   39  H   UNL     1      -7.458   3.980  69.024  1.00  0.00     0.000 HD 
HETATM   40  C   UNL     1      -6.994   5.911  69.594  1.00  0.00    -0.067 C  
HETATM   41  C   UNL     1      -7.377   6.954  70.640  1.00  0.00    -0.074 C  
ENDBRANCH  11  35
ENDBRANCH   4   5
ENDBRANCH   2   4
TORSDOF 9
ENDMDL
MODEL      125
REMARK 921   NORMALIZED FREE ENERGY PREDICTED BY IDOCK:   -5.28 KCAL/MOL
REMARK 922        TOTAL FREE ENERGY PREDICTED BY IDOCK:  -10.23 KCAL/MOL
REMARK 923 INTER-LIGAND FREE ENERGY PREDICTED BY IDOCK:   -9.99 KCAL/MOL
REMARK 924 INTRA-LIGAND FREE ENERGY PREDICTED BY IDOCK:   -0.24 KCAL/MOL
REMARK 927      BINDING AFFINITY PREDICTED BY RF-SCORE:    0.00 PKD
ROOT
HETATM    1  C   UNL     1     -13.067  13.756  71.663  1.00  0.00    -0.456 C  
HETATM    2  C   UNL     1     -12.228  14.769  70.886  1.00  0.00    -0.318 C  
HETATM    3  C   UNL     1     -11.761  15.876  71.838  1.00  0.00    -0.590 C  
ENDROOT
BRANCH   2   4
HETATM    4  O   UNL     1     -11.137  14.054  70.260  1.00  0.00     0.018 OA 
BRANCH   4   5
HETATM    5  C   UNL     1     -10.963  14.251  68.906  1.00  0.00    -0.257 A  
HETATM    6  C   UNL     1     -11.083  13.239  67.939  1.00  0.00    -0.262 A  
HETATM    7  C   UNL     1     -10.848  15.195  64.714  1.00  0.00    -0.378 C  
HETATM    8  C   UNL     1     -11.207  13.648  66.613  1.00  0.00    -0.324 A  
HETATM    9  C   UNL     1     -10.689  15.591  68.515  1.00  0.00    -0.259 A  
HETATM   10  C   UNL     1     -10.937  14.968  66.203  1.00  0.00    -0.334 A  
HETATM   11  C   UNL     1     -10.652  15.978  67.159  1.00  0.00    -0.305 A  
BRANCH   6  12
HETATM   12  N   UNL     1     -11.198  11.864  68.219  1.00  0.00    -0.239 NA 
HETATM   13  H   UNL     1     -11.007  11.262  67.417  1.00  0.00     0.000 HD 
BRANCH  12  14
HETATM   14  C   UNL     1     -11.515  11.183  69.360  1.00  0.00    -0.298 A  
HETATM   15  N   UNL     1     -10.550  10.548  70.097  1.00  0.00    -0.193 NA 
HETATM   16  C   UNL     1     -13.129  10.215  70.687  1.00  0.00    -0.210 A  
HETATM   17  N   UNL     1     -12.795  11.004  69.604  1.00  0.00    -0.095 NA 
HETATM   18  C   UNL     1     -10.837   9.571  71.059  1.00  0.00    -0.353 A  
HETATM   19  C   UNL     1     -12.291   9.489  71.433  1.00  0.00    -0.364 A  
HETATM   20 CL   UNL     1     -12.818   8.442  72.686  1.00  0.00    -0.258 Cl 
BRANCH  18  21
HETATM   21  N   UNL     1     -10.028   8.704  71.621  1.00  0.00    -0.254 NA 
HETATM   22  H   UNL     1      -9.332   9.020  72.297  1.00  0.00     0.000 HD 
BRANCH  21  23
HETATM   23  C   UNL     1     -10.119   7.347  71.292  1.00  0.00    -0.188 A  
HETATM   24  C   UNL     1     -10.980   6.522  72.033  1.00  0.00    -0.283 A  
HETATM   25  C   UNL     1     -10.828   5.141  72.024  1.00  0.00    -0.194 A  
HETATM   26  C   UNL     1      -9.861   4.565  71.210  1.00  0.00    -0.260 A  
HETATM   27  C   UNL     1      -9.129   5.360  70.327  1.00  0.00    -0.166 A  
HETATM   28  C   UNL     1      -9.291   6.753  70.332  1.00  0.00    -0.163 A  
BRANCH  28  29
HETATM   29  S   UNL     1      -8.774   7.631  68.848  1.00  0.00    -0.135 S  
HETATM   30  O   UNL     1      -8.200   8.889  69.300  1.00  0.00    -0.110 OA 
HETATM   31  O   UNL     1      -7.917   6.697  68.137  1.00  0.00    -0.108 OA 
BRANCH  29  32
HETATM   32  C   UNL     1     -10.153   8.055  67.795  1.00  0.00    -0.195 C  
HETATM   33  C   UNL     1      -9.804   9.135  66.767  1.00  0.00    -0.291 C  
HETATM   34  C   UNL     1     -10.630   6.793  67.058  1.00  0.00    -0.405 C  
ENDBRANCH  29  32
ENDBRANCH  28  29
ENDBRANCH  21  23
ENDBRANCH  18  21
ENDBRANCH  12  14
ENDBRANCH   6  12
BRANCH  11  35
HETATM   35  C   UNL     1     -10.363  17.413  66.672  1.00  0.00    -0.306 C  
HETATM   36  C   UNL     1     -10.875  18.473  67.666  1.00  0.00    -0.319 C  
HETATM   37  C   UNL     1      -9.893  18.708  68.801  1.00  0.00    -0.379 C  
HETATM   38  N   UNL     1      -8.640  19.221  68.268  1.00  0.00    -0.326 NA 
HETATM   39  H   UNL     1      -8.001  19.496  69.014  1.00  0.00     0.000 HD 
HETATM   40  C   UNL     1      -8.014  18.268  67.353  1.00  0.00    -0.231 C  
HETATM   41  C   UNL     1      -8.940  17.823  66.225  1.00  0.00    -0.200 C  
ENDBRANCH  11  35
ENDBRANCH   4   5
ENDBRANCH   2   4
TORSDOF 9
ENDMDL
MODEL      126
REMARK 921   NORMALIZED FREE ENERGY PREDICTED BY IDOCK:   -5.28 KCAL/MOL
REMARK 922        TOTAL FREE ENERGY PREDICTED BY IDOCK:  -10.23 KCAL/MOL
REMARK 923 INTER-LIGAND FREE ENERGY PREDICTED BY IDOCK:   -9.93 KCAL/MOL
REMARK 924 INTRA-LIGAND FREE ENERGY PREDICTED BY IDOCK:   -0.30 KCAL/MOL
REMARK 927      BINDING AFFINITY PREDICTED BY RF-SCORE:    0.00 PKD
ROOT
HETATM    1  C   UNL     1     -12.280  14.294  65.241  1.00  0.00    -0.414 C  
HETATM    2  C   UNL     1     -12.614  12.804  65.181  1.00  0.00    -0.444 C  
HETATM    3  C   UNL     1     -11.923  12.179  63.964  1.00  0.00    -0.533 C  
ENDROOT
BRANCH   2   4
HETATM    4  O   UNL     1     -12.211  12.208  66.437  1.00  0.00    -0.592 OA 
BRANCH   4   5
HETATM    5  C   UNL     1     -11.435  12.985  67.271  1.00  0.00    -0.332 A  
HETATM    6  C   UNL     1     -10.033  13.054  67.207  1.00  0.00    -0.232 A  
HETATM    7  C   UNL     1      -9.267  15.834  69.650  1.00  0.00    -0.144 C  
HETATM    8  C   UNL     1      -9.425  14.113  67.877  1.00  0.00    -0.211 A  
HETATM    9  C   UNL     1     -12.153  13.780  68.206  1.00  0.00    -0.314 A  
HETATM   10  C   UNL     1     -10.115  14.911  68.810  1.00  0.00    -0.241 A  
HETATM   11  C   UNL     1     -11.511  14.747  69.009  1.00  0.00    -0.316 A  
BRANCH   6  12
HETATM   12  N   UNL     1      -9.217  12.206  66.434  1.00  0.00    -0.242 NA 
HETATM   13  H   UNL     1      -8.846  12.645  65.591  1.00  0.00     0.000 HD 
BRANCH  12  14
HETATM   14  C   UNL     1      -8.826  10.907  66.601  1.00  0.00    -0.159 A  
HETATM   15  N   UNL     1      -9.597  10.022  67.307  1.00  0.00    -0.153 NA 
HETATM   16  C   UNL     1      -7.151   9.330  66.502  1.00  0.00    -0.085 A  
HETATM   17  N   UNL     1      -7.601  10.606  66.227  1.00  0.00    -0.132 NA 
HETATM   18  C   UNL     1      -9.112   8.803  67.799  1.00  0.00    -0.135 A  
HETATM   19  C   UNL     1      -7.774   8.406  67.239  1.00  0.00    -0.098 A  
HETATM   20 CL   UNL     1      -7.076   6.886  67.624  1.00  0.00    -0.083 Cl 
BRANCH  18  21
HETATM   21  N   UNL     1      -9.638   8.011  68.704  1.00  0.00    -0.147 NA 
HETATM   22  H   UNL     1      -9.345   7.035  68.759  1.00  0.00     0.000 HD 
BRANCH  21  23
HETATM   23  C   UNL     1     -10.600   8.504  69.591  1.00  0.00    -0.220 A  
HETATM   24  C   UNL     1     -11.245   9.715  69.295  1.00  0.00    -0.083 A  
HETATM   25  C   UNL     1     -11.894  10.441  70.287  1.00  0.00    -0.399 A  
HETATM   26  C   UNL     1     -11.974   9.920  71.573  1.00  0.00    -0.473 A  
HETATM   27  C   UNL     1     -11.504   8.633  71.834  1.00  0.00    -0.419 A  
HETATM   28  C   UNL     1     -10.856   7.900  70.828  1.00  0.00    -0.232 A  
BRANCH  28  29
HETATM   29  S   UNL     1     -10.792   6.114  71.045  1.00  0.00    -0.291 S  
HETATM   30  O   UNL     1     -11.789   5.792  72.054  1.00  0.00    -0.210 OA 
HETATM   31  O   UNL     1     -10.958   5.566  69.709  1.00  0.00    -0.310 OA 
BRANCH  29  32
HETATM   32  C   UNL     1      -9.221   5.566  71.695  1.00  0.00    -0.142 C  
HETATM   33  C   UNL     1      -9.245   5.368  73.214  1.00  0.00    -0.132 C  
HETATM   34  C   UNL     1      -8.831   4.241  71.021  1.00  0.00    -0.148 C  
ENDBRANCH  29  32
ENDBRANCH  28  29
ENDBRANCH  21  23
ENDBRANCH  18  21
ENDBRANCH  12  14
ENDBRANCH   6  12
BRANCH  11  35
HETATM   35  C   UNL     1     -12.232  15.640  70.039  1.00  0.00    -0.351 C  
HETATM   36  C   UNL     1     -13.593  15.050  70.461  1.00  0.00     0.014 C  
HETATM   37  C   UNL     1     -13.442  13.996  71.545  1.00  0.00    -0.328 C  
HETATM   38  N   UNL     1     -12.871  14.600  72.741  1.00  0.00    -0.420 NA 
HETATM   39  H   UNL     1     -12.864  13.945  73.522  1.00  0.00     0.000 HD 
HETATM   40  C   UNL     1     -11.538  15.142  72.485  1.00  0.00    -0.347 C  
HETATM   41  C   UNL     1     -11.504  16.121  71.315  1.00  0.00    -0.433 C  
ENDBRANCH  11  35
ENDBRANCH   4   5
ENDBRANCH   2   4
TORSDOF 9
ENDMDL
MODEL      127
REMARK 921   NORMALIZED FREE ENERGY PREDICTED BY IDOCK:   -5.27 KCAL/MOL
REMARK 922        TOTAL FREE ENERGY PREDICTED BY IDOCK:  -10.21 KCAL/MOL
REMARK 923 INTER-LIGAND FREE ENERGY PREDICTED BY IDOCK:   -7.89 KCAL/MOL
REMARK 924 INTRA-LIGAND FREE ENERGY PREDICTED BY IDOCK:   -2.32 KCAL/MOL
REMARK 927      BINDING AFFINITY PREDICTED BY RF-SCORE:    0.00 PKD
ROOT
HETATM    1  C   UNL     1     -10.405   8.488  72.306  1.00  0.00    -0.402 C  
HETATM    2  C   UNL     1     -10.583   8.888  70.842  1.00  0.00    -0.233 C  
HETATM    3  C   UNL     1     -11.462  10.141  70.763  1.00  0.00    -0.442 C  
ENDROOT
BRANCH   2   4
HETATM    4  O   UNL     1      -9.266   9.076  70.271  1.00  0.00    -0.171 OA 
BRANCH   4   5
HETATM    5  C   UNL     1      -9.097   8.678  68.961  1.00  0.00    -0.145 A  
HETATM    6  C   UNL     1      -9.058   9.558  67.867  1.00  0.00    -0.125 A  
HETATM    7  C   UNL     1      -8.083   7.255  65.033  1.00  0.00    -0.120 C  
HETATM    8  C   UNL     1      -8.557   9.051  66.670  1.00  0.00    -0.134 A  
HETATM    9  C   UNL     1      -8.910   7.281  68.768  1.00  0.00    -0.127 A  
HETATM   10  C   UNL     1      -8.369   7.672  66.456  1.00  0.00    -0.129 A  
HETATM   11  C   UNL     1      -8.561   6.744  67.512  1.00  0.00    -0.120 A  
BRANCH   6  12
HETATM   12  N   UNL     1      -9.381  10.928  67.920  1.00  0.00    -0.153 NA 
HETATM   13  H   UNL     1      -9.168  11.369  68.815  1.00  0.00     0.000 HD 
BRANCH  12  14
HETATM   14  C   UNL     1      -9.924  11.778  66.999  1.00  0.00    -0.204 A  
HETATM   15  N   UNL     1      -9.318  12.968  66.691  1.00  0.00    -0.250 NA 
HETATM   16  C   UNL     1     -11.746  12.409  65.740  1.00  0.00    -0.414 A  
HETATM   17  N   UNL     1     -11.137  11.495  66.576  1.00  0.00    -0.297 NA 
HETATM   18  C   UNL     1      -9.975  14.016  66.033  1.00  0.00    -0.315 A  
HETATM   19  C   UNL     1     -11.294  13.627  65.426  1.00  0.00    -0.301 A  
HETATM   20 CL   UNL     1     -12.185  14.740  64.471  1.00  0.00    -0.481 Cl 
BRANCH  18  21
HETATM   21  N   UNL     1      -9.620  15.275  65.928  1.00  0.00    -0.335 NA 
HETATM   22  H   UNL     1      -9.996  15.850  65.174  1.00  0.00     0.000 HD 
BRANCH  21  23
HETATM   23  C   UNL     1      -8.724  15.829  66.850  1.00  0.00    -0.244 A  
HETATM   24  C   UNL     1      -7.375  15.973  66.489  1.00  0.00     0.057 A  
HETATM   25  C   UNL     1      -6.390  16.136  67.456  1.00  0.00    -0.195 A  
HETATM   26  C   UNL     1      -6.755  16.236  68.793  1.00  0.00    -0.144 A  
HETATM   27  C   UNL     1      -8.105  16.285  69.145  1.00  0.00    -0.215 A  
HETATM   28  C   UNL     1      -9.096  16.129  68.165  1.00  0.00    -0.189 A  
BRANCH  28  29
HETATM   29  S   UNL     1     -10.736  16.751  68.571  1.00  0.00    -0.353 S  
HETATM   30  O   UNL     1     -10.530  17.922  69.408  1.00  0.00    -0.159 OA 
HETATM   31  O   UNL     1     -11.401  16.924  67.290  1.00  0.00     0.128 OA 
BRANCH  29  32
HETATM   32  C   UNL     1     -11.678  15.591  69.550  1.00  0.00    -0.365 C  
HETATM   33  C   UNL     1     -11.130  14.163  69.465  1.00  0.00    -0.222 C  
HETATM   34  C   UNL     1     -11.670  16.047  71.019  1.00  0.00    -0.458 C  
ENDBRANCH  29  32
ENDBRANCH  28  29
ENDBRANCH  21  23
ENDBRANCH  18  21
ENDBRANCH  12  14
ENDBRANCH   6  12
BRANCH  11  35
HETATM   35  C   UNL     1      -8.344   5.241  67.238  1.00  0.00    -0.107 C  
HETATM   36  C   UNL     1      -6.964   4.759  67.730  1.00  0.00    -0.061 C  
HETATM   37  C   UNL     1      -6.972   4.443  69.217  1.00  0.00    -0.050 C  
HETATM   38  N   UNL     1      -7.902   3.355  69.483  1.00  0.00    -0.050 NA 
HETATM   39  H   UNL     1      -7.846   3.044  70.452  1.00  0.00     0.000 HD 
HETATM   40  C   UNL     1      -9.271   3.717  69.117  1.00  0.00    -0.160 C  
HETATM   41  C   UNL     1      -9.398   4.198  67.675  1.00  0.00    -0.208 C  
ENDBRANCH  11  35
ENDBRANCH   4   5
ENDBRANCH   2   4
TORSDOF 9
ENDMDL
MODEL      128
REMARK 921   NORMALIZED FREE ENERGY PREDICTED BY IDOCK:   -5.24 KCAL/MOL
REMARK 922        TOTAL FREE ENERGY PREDICTED BY IDOCK:  -10.16 KCAL/MOL
REMARK 923 INTER-LIGAND FREE ENERGY PREDICTED BY IDOCK:   -8.56 KCAL/MOL
REMARK 924 INTRA-LIGAND FREE ENERGY PREDICTED BY IDOCK:   -1.60 KCAL/MOL
REMARK 927      BINDING AFFINITY PREDICTED BY RF-SCORE:    0.00 PKD
ROOT
HETATM    1  C   UNL     1     -11.071   6.527  69.372  1.00  0.00    -0.407 C  
HETATM    2  C   UNL     1     -10.197   7.658  68.831  1.00  0.00    -0.210 C  
HETATM    3  C   UNL     1      -8.729   7.360  69.150  1.00  0.00    -0.136 C  
ENDROOT
BRANCH   2   4
HETATM    4  O   UNL     1     -10.461   7.783  67.413  1.00  0.00    -0.252 OA 
BRANCH   4   5
HETATM    5  C   UNL     1      -9.388   7.604  66.565  1.00  0.00    -0.189 A  
HETATM    6  C   UNL     1      -8.522   8.634  66.161  1.00  0.00    -0.133 A  
HETATM    7  C   UNL     1      -5.840   6.725  64.304  1.00  0.00    -0.032 C  
HETATM    8  C   UNL     1      -7.314   8.248  65.584  1.00  0.00    -0.072 A  
HETATM    9  C   UNL     1      -9.166   6.266  66.138  1.00  0.00    -0.143 A  
HETATM   10  C   UNL     1      -7.073   6.930  65.150  1.00  0.00    -0.067 A  
HETATM   11  C   UNL     1      -8.016   5.900  65.407  1.00  0.00    -0.120 A  
BRANCH   6  12
HETATM   12  N   UNL     1      -8.733  10.006  66.394  1.00  0.00    -0.128 NA 
HETATM   13  H   UNL     1      -8.294  10.353  67.248  1.00  0.00     0.000 HD 
BRANCH  12  14
HETATM   14  C   UNL     1      -9.414  10.961  65.693  1.00  0.00    -0.215 A  
HETATM   15  N   UNL     1      -9.490  12.252  66.148  1.00  0.00    -0.237 NA 
HETATM   16  C   UNL     1     -10.932  11.480  64.042  1.00  0.00    -0.383 A  
HETATM   17  N   UNL     1     -10.144  10.544  64.683  1.00  0.00    -0.346 NA 
HETATM   18  C   UNL     1     -10.431  13.177  65.677  1.00  0.00    -0.282 A  
HETATM   19  C   UNL     1     -11.148  12.741  64.430  1.00  0.00    -0.349 A  
HETATM   20 CL   UNL     1     -12.243  13.793  63.631  1.00  0.00    -0.423 Cl 
BRANCH  18  21
HETATM   21  N   UNL     1     -10.795  14.323  66.203  1.00  0.00    -0.305 NA 
HETATM   22  H   UNL     1     -11.726  14.697  66.016  1.00  0.00     0.000 HD 
BRANCH  21  23
HETATM   23  C   UNL     1      -9.907  15.032  67.020  1.00  0.00    -0.238 A  
HETATM   24  C   UNL     1      -8.793  15.655  66.437  1.00  0.00    -0.365 A  
HETATM   25  C   UNL     1      -7.695  16.022  67.207  1.00  0.00    -0.215 A  
HETATM   26  C   UNL     1      -7.736  15.841  68.584  1.00  0.00    -0.153 A  
HETATM   27  C   UNL     1      -8.910  15.400  69.195  1.00  0.00    -0.249 A  
HETATM   28  C   UNL     1     -10.019  15.039  68.416  1.00  0.00    -0.225 A  
BRANCH  28  29
HETATM   29  S   UNL     1     -11.618  15.032  69.242  1.00  0.00    -0.336 S  
HETATM   30  O   UNL     1     -12.117  16.396  69.171  1.00  0.00    -0.033 OA 
HETATM   31  O   UNL     1     -12.378  13.983  68.582  1.00  0.00    -0.271 OA 
BRANCH  29  32
HETATM   32  C   UNL     1     -11.483  14.632  70.978  1.00  0.00    -0.161 C  
HETATM   33  C   UNL     1     -11.723  15.843  71.884  1.00  0.00    -0.590 C  
HETATM   34  C   UNL     1     -12.503  13.535  71.323  1.00  0.00    -0.388 C  
ENDBRANCH  29  32
ENDBRANCH  28  29
ENDBRANCH  21  23
ENDBRANCH  18  21
ENDBRANCH  12  14
ENDBRANCH   6  12
BRANCH  11  35
HETATM   35  C   UNL     1      -7.716   4.469  64.917  1.00  0.00    -0.081 C  
HETATM   36  C   UNL     1      -7.696   3.454  66.077  1.00  0.00    -0.081 C  
HETATM   37  C   UNL     1      -9.095   2.988  66.446  1.00  0.00    -0.146 C  
HETATM   38  N   UNL     1      -9.698   2.300  65.314  1.00  0.00    -0.347 NA 
HETATM   39  H   UNL     1     -10.590   1.876  65.566  1.00  0.00     0.000 HD 
HETATM   40  C   UNL     1      -9.834   3.185  64.158  1.00  0.00    -0.163 C  
HETATM   41  C   UNL     1      -8.521   3.848  63.752  1.00  0.00    -0.094 C  
ENDBRANCH  11  35
ENDBRANCH   4   5
ENDBRANCH   2   4
TORSDOF 9
ENDMDL
MODEL      129
REMARK 921   NORMALIZED FREE ENERGY PREDICTED BY IDOCK:   -5.23 KCAL/MOL
REMARK 922        TOTAL FREE ENERGY PREDICTED BY IDOCK:  -10.15 KCAL/MOL
REMARK 923 INTER-LIGAND FREE ENERGY PREDICTED BY IDOCK:   -8.16 KCAL/MOL
REMARK 924 INTRA-LIGAND FREE ENERGY PREDICTED BY IDOCK:   -1.99 KCAL/MOL
REMARK 927      BINDING AFFINITY PREDICTED BY RF-SCORE:    0.00 PKD
ROOT
HETATM    1  C   UNL     1     -12.184  14.518  64.470  1.00  0.00    -0.483 C  
HETATM    2  C   UNL     1     -11.910  13.049  64.787  1.00  0.00    -0.363 C  
HETATM    3  C   UNL     1     -11.912  12.242  63.485  1.00  0.00    -0.625 C  
ENDROOT
BRANCH   2   4
HETATM    4  O   UNL     1     -10.654  12.976  65.504  1.00  0.00    -0.273 OA 
BRANCH   4   5
HETATM    5  C   UNL     1     -10.625  12.170  66.623  1.00  0.00    -0.235 A  
HETATM    6  C   UNL     1     -11.362  12.419  67.794  1.00  0.00    -0.299 A  
HETATM    7  C   UNL     1     -10.745   9.273  69.796  1.00  0.00    -0.245 C  
HETATM    8  C   UNL     1     -11.486  11.362  68.693  1.00  0.00    -0.359 A  
HETATM    9  C   UNL     1      -9.817  11.005  66.514  1.00  0.00    -0.241 A  
HETATM   10  C   UNL     1     -10.693  10.202  68.607  1.00  0.00    -0.253 A  
HETATM   11  C   UNL     1      -9.817  10.004  67.508  1.00  0.00    -0.211 A  
BRANCH   6  12
HETATM   12  N   UNL     1     -12.066  13.606  68.068  1.00  0.00    -0.372 NA 
HETATM   13  H   UNL     1     -13.080  13.510  68.002  1.00  0.00     0.000 HD 
BRANCH  12  14
HETATM   14  C   UNL     1     -11.650  14.862  68.408  1.00  0.00    -0.325 A  
HETATM   15  N   UNL     1     -10.998  15.660  67.504  1.00  0.00    -0.320 NA 
HETATM   16  C   UNL     1     -11.198  16.405  70.056  1.00  0.00    -0.258 A  
HETATM   17  N   UNL     1     -11.728  15.187  69.680  1.00  0.00    -0.306 NA 
HETATM   18  C   UNL     1     -10.258  16.791  67.872  1.00  0.00    -0.300 A  
HETATM   19  C   UNL     1     -10.480  17.233  69.292  1.00  0.00    -0.220 A  
HETATM   20 CL   UNL     1      -9.761  18.673  69.887  1.00  0.00     0.623 Cl 
BRANCH  18  21
HETATM   21  N   UNL     1      -9.377  17.464  67.170  1.00  0.00    -0.240 NA 
HETATM   22  H   UNL     1      -9.650  18.330  66.704  1.00  0.00     0.000 HD 
BRANCH  21  23
HETATM   23  C   UNL     1      -8.063  16.994  67.060  1.00  0.00    -0.205 A  
HETATM   24  C   UNL     1      -7.830  15.610  67.084  1.00  0.00    -0.253 A  
HETATM   25  C   UNL     1      -6.568  15.103  67.372  1.00  0.00    -0.090 A  
HETATM   26  C   UNL     1      -5.507  15.980  67.560  1.00  0.00    -0.136 A  
HETATM   27  C   UNL     1      -5.686  17.347  67.350  1.00  0.00    -0.156 A  
HETATM   28  C   UNL     1      -6.960  17.854  67.051  1.00  0.00    -0.182 A  
BRANCH  28  29
HETATM   29  S   UNL     1      -7.019  19.470  66.258  1.00  0.00    -0.247 S  
HETATM   30  O   UNL     1      -5.673  19.734  65.774  1.00  0.00    -0.166 OA 
HETATM   31  O   UNL     1      -8.097  19.373  65.287  1.00  0.00    -0.107 OA 
BRANCH  29  32
HETATM   32  C   UNL     1      -7.407  20.777  67.412  1.00  0.00    -0.339 C  
HETATM   33  C   UNL     1      -8.911  20.924  67.657  1.00  0.00    -0.090 C  
HETATM   34  C   UNL     1      -6.703  20.494  68.749  1.00  0.00    -0.160 C  
ENDBRANCH  29  32
ENDBRANCH  28  29
ENDBRANCH  21  23
ENDBRANCH  18  21
ENDBRANCH  12  14
ENDBRANCH   6  12
BRANCH  11  35
HETATM   35  C   UNL     1      -8.965   8.720  67.449  1.00  0.00    -0.143 C  
HETATM   36  C   UNL     1      -9.260   7.890  66.183  1.00  0.00    -0.208 C  
HETATM   37  C   UNL     1      -8.491   8.404  64.977  1.00  0.00    -0.141 C  
HETATM   38  N   UNL     1      -7.061   8.283  65.219  1.00  0.00    -0.073 NA 
HETATM   39  H   UNL     1      -6.521   8.512  64.385  1.00  0.00     0.000 HD 
HETATM   40  C   UNL     1      -6.640   9.086  66.366  1.00  0.00    -0.067 C  
HETATM   41  C   UNL     1      -7.431   8.779  67.634  1.00  0.00    -0.093 C  
ENDBRANCH  11  35
ENDBRANCH   4   5
ENDBRANCH   2   4
TORSDOF 9
ENDMDL
MODEL      130
REMARK 921   NORMALIZED FREE ENERGY PREDICTED BY IDOCK:   -5.20 KCAL/MOL
REMARK 922        TOTAL FREE ENERGY PREDICTED BY IDOCK:  -10.10 KCAL/MOL
REMARK 923 INTER-LIGAND FREE ENERGY PREDICTED BY IDOCK:   -8.41 KCAL/MOL
REMARK 924 INTRA-LIGAND FREE ENERGY PREDICTED BY IDOCK:   -1.69 KCAL/MOL
REMARK 927      BINDING AFFINITY PREDICTED BY RF-SCORE:    0.00 PKD
ROOT
HETATM    1  C   UNL     1      -6.346  14.586  70.558  1.00  0.00    -0.125 C  
HETATM    2  C   UNL     1      -6.788  14.496  69.097  1.00  0.00    -0.123 C  
HETATM    3  C   UNL     1      -6.073  13.319  68.425  1.00  0.00    -0.086 C  
ENDROOT
BRANCH   2   4
HETATM    4  O   UNL     1      -8.230  14.377  69.076  1.00  0.00    -0.123 OA 
BRANCH   4   5
HETATM    5  C   UNL     1      -8.862  14.703  67.894  1.00  0.00    -0.170 A  
HETATM    6  C   UNL     1      -9.695  13.828  67.177  1.00  0.00    -0.244 A  
HETATM    7  C   UNL     1     -11.096  16.093  64.495  1.00  0.00    -0.236 C  
HETATM    8  C   UNL     1     -10.510  14.396  66.200  1.00  0.00    -0.295 A  
HETATM    9  C   UNL     1      -8.657  16.036  67.442  1.00  0.00    -0.194 A  
HETATM   10  C   UNL     1     -10.322  15.712  65.734  1.00  0.00    -0.386 A  
HETATM   11  C   UNL     1      -9.367  16.565  66.343  1.00  0.00    -0.316 A  
BRANCH   6  12
HETATM   12  N   UNL     1      -9.845  12.454  67.445  1.00  0.00    -0.197 NA 
HETATM   13  H   UNL     1      -9.569  11.849  66.671  1.00  0.00     0.000 HD 
BRANCH  12  14
HETATM   14  C   UNL     1     -10.291  11.777  68.545  1.00  0.00    -0.217 A  
HETATM   15  N   UNL     1      -9.772  10.555  68.881  1.00  0.00    -0.190 NA 
HETATM   16  C   UNL     1     -11.892  11.518  70.179  1.00  0.00    -0.356 A  
HETATM   17  N   UNL     1     -11.360  12.258  69.141  1.00  0.00    -0.263 NA 
HETATM   18  C   UNL     1     -10.400   9.672  69.769  1.00  0.00    -0.241 A  
HETATM   19  C   UNL     1     -11.526  10.288  70.552  1.00  0.00    -0.343 A  
HETATM   20 CL   UNL     1     -12.332   9.402  71.780  1.00  0.00    -0.448 Cl 
BRANCH  18  21
HETATM   21  N   UNL     1     -10.172   8.394  69.961  1.00  0.00    -0.197 NA 
HETATM   22  H   UNL     1     -10.785   7.697  69.538  1.00  0.00     0.000 HD 
BRANCH  21  23
HETATM   23  C   UNL     1      -9.088   7.987  70.748  1.00  0.00    -0.145 A  
HETATM   24  C   UNL     1      -8.216   8.958  71.263  1.00  0.00    -0.207 A  
HETATM   25  C   UNL     1      -6.942   8.615  71.700  1.00  0.00    -0.093 A  
HETATM   26  C   UNL     1      -6.556   7.280  71.699  1.00  0.00    -0.047 A  
HETATM   27  C   UNL     1      -7.479   6.288  71.370  1.00  0.00    -0.090 A  
HETATM   28  C   UNL     1      -8.767   6.637  70.937  1.00  0.00    -0.138 A  
BRANCH  28  29
HETATM   29  S   UNL     1     -10.037   5.368  71.076  1.00  0.00    -0.227 S  
HETATM   30  O   UNL     1     -11.222   6.035  71.593  1.00  0.00    -0.271 OA 
HETATM   31  O   UNL     1     -10.106   4.759  69.758  1.00  0.00    -0.233 OA 
BRANCH  29  32
HETATM   32  C   UNL     1      -9.608   4.107  72.265  1.00  0.00    -0.143 C  
HETATM   33  C   UNL     1     -10.684   3.914  73.338  1.00  0.00    -0.296 C  
HETATM   34  C   UNL     1      -9.386   2.775  71.529  1.00  0.00    -0.199 C  
ENDBRANCH  29  32
ENDBRANCH  28  29
ENDBRANCH  21  23
ENDBRANCH  18  21
ENDBRANCH  12  14
ENDBRANCH   6  12
BRANCH  11  35
HETATM   35  C   UNL     1      -9.191  18.001  65.805  1.00  0.00     0.358 C  
HETATM   36  C   UNL     1     -10.455  18.856  66.021  1.00  0.00    -0.507 C  
HETATM   37  C   UNL     1     -10.514  19.436  67.425  1.00  0.00    -0.466 C  
HETATM   38  N   UNL     1      -9.380  20.324  67.637  1.00  0.00    -0.366 NA 
HETATM   39  H   UNL     1      -9.453  20.817  68.527  1.00  0.00     0.000 HD 
HETATM   40  C   UNL     1      -8.110  19.610  67.523  1.00  0.00    -0.298 C  
HETATM   41  C   UNL     1      -7.964  18.851  66.208  1.00  0.00    -0.291 C  
ENDBRANCH  11  35
ENDBRANCH   4   5
ENDBRANCH   2   4
TORSDOF 9
ENDMDL
MODEL      131
REMARK 921   NORMALIZED FREE ENERGY PREDICTED BY IDOCK:   -5.12 KCAL/MOL
REMARK 922        TOTAL FREE ENERGY PREDICTED BY IDOCK:   -9.98 KCAL/MOL
REMARK 923 INTER-LIGAND FREE ENERGY PREDICTED BY IDOCK:   -8.33 KCAL/MOL
REMARK 924 INTRA-LIGAND FREE ENERGY PREDICTED BY IDOCK:   -1.65 KCAL/MOL
REMARK 927      BINDING AFFINITY PREDICTED BY RF-SCORE:    0.00 PKD
ROOT
HETATM    1  C   UNL     1     -10.095  10.041  69.691  1.00  0.00    -0.263 C  
HETATM    2  C   UNL     1      -9.905  10.887  68.432  1.00  0.00    -0.177 C  
HETATM    3  C   UNL     1      -8.407  11.052  68.155  1.00  0.00    -0.130 C  
ENDROOT
BRANCH   2   4
HETATM    4  O   UNL     1     -10.620  10.241  67.352  1.00  0.00    -0.233 OA 
BRANCH   4   5
HETATM    5  C   UNL     1      -9.903   9.985  66.201  1.00  0.00    -0.246 A  
HETATM    6  C   UNL     1      -9.785  10.885  65.128  1.00  0.00    -0.262 A  
HETATM    7  C   UNL     1      -7.233   9.165  62.934  1.00  0.00    -0.094 C  
HETATM    8  C   UNL     1      -8.777  10.627  64.201  1.00  0.00    -0.137 A  
HETATM    9  C   UNL     1      -9.225   8.735  66.171  1.00  0.00    -0.273 A  
HETATM   10  C   UNL     1      -8.096   9.396  64.150  1.00  0.00    -0.145 A  
HETATM   11  C   UNL     1      -8.322   8.403  65.139  1.00  0.00    -0.177 A  
BRANCH   6  12
HETATM   12  N   UNL     1     -10.528  12.072  64.983  1.00  0.00    -0.276 NA 
HETATM   13  H   UNL     1     -10.859  12.239  64.033  1.00  0.00     0.000 HD 
BRANCH  12  14
HETATM   14  C   UNL     1     -10.890  13.042  65.875  1.00  0.00    -0.272 A  
HETATM   15  N   UNL     1      -9.984  13.970  66.316  1.00  0.00    -0.297 NA 
HETATM   16  C   UNL     1     -12.406  13.824  67.420  1.00  0.00    -0.120 A  
HETATM   17  N   UNL     1     -12.076  12.922  66.429  1.00  0.00    -0.464 NA 
HETATM   18  C   UNL     1     -10.186  14.758  67.457  1.00  0.00    -0.233 A  
HETATM   19  C   UNL     1     -11.593  14.722  67.985  1.00  0.00    -0.343 A  
HETATM   20 CL   UNL     1     -12.066  15.721  69.298  1.00  0.00    -0.312 Cl 
BRANCH  18  21
HETATM   21  N   UNL     1      -9.313  15.463  68.138  1.00  0.00    -0.195 NA 
HETATM   22  H   UNL     1      -8.854  15.056  68.953  1.00  0.00     0.000 HD 
BRANCH  21  23
HETATM   23  C   UNL     1      -9.012  16.772  67.746  1.00  0.00    -0.216 A  
HETATM   24  C   UNL     1      -9.945  17.790  67.996  1.00  0.00    -0.333 A  
HETATM   25  C   UNL     1      -9.892  18.994  67.303  1.00  0.00    -0.386 A  
HETATM   26  C   UNL     1      -8.854  19.222  66.408  1.00  0.00    -0.365 A  
HETATM   27  C   UNL     1      -7.817  18.296  66.293  1.00  0.00    -0.279 A  
HETATM   28  C   UNL     1      -7.870  17.085  67.000  1.00  0.00    -0.191 A  
BRANCH  28  29
HETATM   29  S   UNL     1      -6.306  16.228  67.251  1.00  0.00    -0.159 S  
HETATM   30  O   UNL     1      -6.603  14.808  67.156  1.00  0.00    -0.253 OA 
HETATM   31  O   UNL     1      -5.397  16.811  66.278  1.00  0.00    -0.328 OA 
BRANCH  29  32
HETATM   32  C   UNL     1      -5.640  16.497  68.886  1.00  0.00    -0.130 C  
HETATM   33  C   UNL     1      -6.153  17.789  69.529  1.00  0.00    -0.248 C  
HETATM   34  C   UNL     1      -6.011  15.305  69.784  1.00  0.00    -0.134 C  
ENDBRANCH  29  32
ENDBRANCH  28  29
ENDBRANCH  21  23
ENDBRANCH  18  21
ENDBRANCH  12  14
ENDBRANCH   6  12
BRANCH  11  35
HETATM   35  C   UNL     1      -7.556   7.067  65.050  1.00  0.00    -0.104 C  
HETATM   36  C   UNL     1      -6.857   6.714  66.378  1.00  0.00    -0.061 C  
HETATM   37  C   UNL     1      -7.809   6.053  67.362  1.00  0.00    -0.102 C  
HETATM   38  N   UNL     1      -8.291   4.796  66.809  1.00  0.00    -0.107 NA 
HETATM   39  H   UNL     1      -8.840   4.275  67.491  1.00  0.00     0.000 HD 
HETATM   40  C   UNL     1      -9.037   5.006  65.569  1.00  0.00    -0.158 C  
HETATM   41  C   UNL     1      -8.252   5.791  64.523  1.00  0.00    -0.122 C  
ENDBRANCH  11  35
ENDBRANCH   4   5
ENDBRANCH   2   4
TORSDOF 9
ENDMDL
MODEL      132
REMARK 921   NORMALIZED FREE ENERGY PREDICTED BY IDOCK:   -5.11 KCAL/MOL
REMARK 922        TOTAL FREE ENERGY PREDICTED BY IDOCK:   -9.97 KCAL/MOL
REMARK 923 INTER-LIGAND FREE ENERGY PREDICTED BY IDOCK:   -8.58 KCAL/MOL
REMARK 924 INTRA-LIGAND FREE ENERGY PREDICTED BY IDOCK:   -1.39 KCAL/MOL
REMARK 927      BINDING AFFINITY PREDICTED BY RF-SCORE:    0.00 PKD
ROOT
HETATM    1  C   UNL     1      -6.476  11.723  66.778  1.00  0.00    -0.069 C  
HETATM    2  C   UNL     1      -6.183  10.763  65.627  1.00  0.00    -0.078 C  
HETATM    3  C   UNL     1      -5.218   9.675  66.109  1.00  0.00    -0.039 C  
ENDROOT
BRANCH   2   4
HETATM    4  O   UNL     1      -7.447  10.239  65.154  1.00  0.00    -0.139 OA 
BRANCH   4   5
HETATM    5  C   UNL     1      -8.515  10.320  66.023  1.00  0.00    -0.140 A  
HETATM    6  C   UNL     1      -8.645   9.548  67.189  1.00  0.00    -0.132 A  
HETATM    7  C   UNL     1     -11.689  11.085  68.819  1.00  0.00    -0.383 C  
HETATM    8  C   UNL     1      -9.591   9.970  68.120  1.00  0.00    -0.152 A  
HETATM    9  C   UNL     1      -9.497  11.295  65.691  1.00  0.00    -0.254 A  
HETATM   10  C   UNL     1     -10.575  10.930  67.812  1.00  0.00    -0.255 A  
HETATM   11  C   UNL     1     -10.557  11.610  66.567  1.00  0.00    -0.292 A  
BRANCH   6  12
HETATM   12  N   UNL     1      -7.822   8.458  67.532  1.00  0.00    -0.098 NA 
HETATM   13  H   UNL     1      -6.873   8.723  67.798  1.00  0.00     0.000 HD 
BRANCH  12  14
HETATM   14  C   UNL     1      -8.055   7.112  67.578  1.00  0.00    -0.113 A  
HETATM   15  N   UNL     1      -9.191   6.610  68.157  1.00  0.00    -0.118 NA 
HETATM   16  C   UNL     1      -7.239   4.969  67.379  1.00  0.00    -0.070 A  
HETATM   17  N   UNL     1      -7.061   6.329  67.222  1.00  0.00    -0.072 NA 
HETATM   18  C   UNL     1      -9.330   5.269  68.537  1.00  0.00    -0.121 A  
HETATM   19  C   UNL     1      -8.261   4.363  67.992  1.00  0.00    -0.094 A  
HETATM   20 CL   UNL     1      -8.333   2.668  68.242  1.00  0.00    -0.083 Cl 
BRANCH  18  21
HETATM   21  N   UNL     1     -10.221   4.726  69.333  1.00  0.00    -0.175 NA 
HETATM   22  H   UNL     1     -11.013   4.217  68.940  1.00  0.00     0.000 HD 
BRANCH  21  23
HETATM   23  C   UNL     1     -10.085   4.846  70.721  1.00  0.00    -0.233 A  
HETATM   24  C   UNL     1      -9.173   4.016  71.391  1.00  0.00    -0.193 A  
HETATM   25  C   UNL     1      -9.270   3.808  72.762  1.00  0.00    -0.135 A  
HETATM   26  C   UNL     1     -10.235   4.493  73.490  1.00  0.00    -0.220 A  
HETATM   27  C   UNL     1     -11.021   5.463  72.866  1.00  0.00    -0.338 A  
HETATM   28  C   UNL     1     -10.914   5.676  71.484  1.00  0.00    -0.200 A  
BRANCH  28  29
HETATM   29  S   UNL     1     -11.505   7.260  70.864  1.00  0.00    -0.301 S  
HETATM   30  O   UNL     1     -10.355   8.151  70.866  1.00  0.00    -0.189 OA 
HETATM   31  O   UNL     1     -12.140   6.953  69.593  1.00  0.00     0.036 OA 
BRANCH  29  32
HETATM   32  C   UNL     1     -12.719   8.001  71.944  1.00  0.00    -0.327 C  
HETATM   33  C   UNL     1     -12.850   9.513  71.739  1.00  0.00    -0.496 C  
HETATM   34  C   UNL     1     -14.085   7.339  71.696  1.00  0.00    -0.522 C  
ENDBRANCH  29  32
ENDBRANCH  28  29
ENDBRANCH  21  23
ENDBRANCH  18  21
ENDBRANCH  12  14
ENDBRANCH   6  12
BRANCH  11  35
HETATM   35  C   UNL     1     -11.651  12.656  66.267  1.00  0.00    -0.440 C  
HETATM   36  C   UNL     1     -11.084  14.089  66.232  1.00  0.00    -0.307 C  
HETATM   37  C   UNL     1     -10.460  14.419  64.886  1.00  0.00    -0.423 C  
HETATM   38  N   UNL     1     -11.476  14.358  63.846  1.00  0.00    -0.489 NA 
HETATM   39  H   UNL     1     -11.114  14.686  62.951  1.00  0.00     0.000 HD 
HETATM   40  C   UNL     1     -12.049  13.018  63.733  1.00  0.00    -0.502 C  
HETATM   41  C   UNL     1     -12.595  12.486  65.054  1.00  0.00    -0.424 C  
ENDBRANCH  11  35
ENDBRANCH   4   5
ENDBRANCH   2   4
TORSDOF 9
ENDMDL
MODEL      133
REMARK 921   NORMALIZED FREE ENERGY PREDICTED BY IDOCK:   -5.08 KCAL/MOL
REMARK 922        TOTAL FREE ENERGY PREDICTED BY IDOCK:   -9.93 KCAL/MOL
REMARK 923 INTER-LIGAND FREE ENERGY PREDICTED BY IDOCK:   -9.40 KCAL/MOL
REMARK 924 INTRA-LIGAND FREE ENERGY PREDICTED BY IDOCK:   -0.53 KCAL/MOL
REMARK 927      BINDING AFFINITY PREDICTED BY RF-SCORE:    0.00 PKD
ROOT
HETATM    1  C   UNL     1     -11.195  11.435  64.517  1.00  0.00    -0.251 C  
HETATM    2  C   UNL     1     -11.149  12.957  64.386  1.00  0.00    -0.361 C  
HETATM    3  C   UNL     1     -12.207  13.409  63.374  1.00  0.00    -0.419 C  
ENDROOT
BRANCH   2   4
HETATM    4  O   UNL     1     -11.340  13.521  65.705  1.00  0.00    -0.302 OA 
BRANCH   4   5
HETATM    5  C   UNL     1     -10.260  14.172  66.263  1.00  0.00    -0.295 A  
HETATM    6  C   UNL     1      -9.256  13.536  67.012  1.00  0.00    -0.246 A  
HETATM    7  C   UNL     1      -6.746  16.320  67.494  1.00  0.00    -0.189 C  
HETATM    8  C   UNL     1      -8.079  14.252  67.222  1.00  0.00    -0.199 A  
HETATM    9  C   UNL     1     -10.183  15.567  65.994  1.00  0.00    -0.349 A  
HETATM   10  C   UNL     1      -7.982  15.634  66.967  1.00  0.00    -0.268 A  
HETATM   11  C   UNL     1      -9.055  16.333  66.354  1.00  0.00    -0.336 A  
BRANCH   6  12
HETATM   12  N   UNL     1      -9.307  12.204  67.466  1.00  0.00    -0.177 NA 
HETATM   13  H   UNL     1     -10.087  11.667  67.086  1.00  0.00     0.000 HD 
BRANCH  12  14
HETATM   14  C   UNL     1      -8.510  11.494  68.319  1.00  0.00    -0.159 A  
HETATM   15  N   UNL     1      -8.953  10.337  68.902  1.00  0.00    -0.154 NA 
HETATM   16  C   UNL     1      -6.636  11.420  69.654  1.00  0.00    -0.128 A  
HETATM   17  N   UNL     1      -7.391  12.072  68.699  1.00  0.00    -0.108 NA 
HETATM   18  C   UNL     1      -8.339   9.757  70.020  1.00  0.00    -0.192 A  
HETATM   19  C   UNL     1      -6.989  10.333  70.346  1.00  0.00    -0.072 A  
HETATM   20 CL   UNL     1      -6.028   9.666  71.601  1.00  0.00    -0.008 Cl 
BRANCH  18  21
HETATM   21  N   UNL     1      -8.804   8.836  70.832  1.00  0.00    -0.180 NA 
HETATM   22  H   UNL     1      -8.716   8.953  71.841  1.00  0.00     0.000 HD 
BRANCH  21  23
HETATM   23  C   UNL     1      -9.422   7.693  70.311  1.00  0.00    -0.161 A  
HETATM   24  C   UNL     1      -8.644   6.753  69.618  1.00  0.00    -0.133 A  
HETATM   25  C   UNL     1      -9.233   5.830  68.761  1.00  0.00    -0.128 A  
HETATM   26  C   UNL     1     -10.617   5.787  68.651  1.00  0.00    -0.305 A  
HETATM   27  C   UNL     1     -11.408   6.586  69.478  1.00  0.00    -0.419 A  
HETATM   28  C   UNL     1     -10.809   7.511  70.348  1.00  0.00    -0.244 A  
BRANCH  28  29
HETATM   29  S   UNL     1     -11.807   8.074  71.737  1.00  0.00    -0.315 S  
HETATM   30  O   UNL     1     -12.970   7.202  71.781  1.00  0.00    -0.352 OA 
HETATM   31  O   UNL     1     -10.901   8.076  72.874  1.00  0.00    -0.366 OA 
BRANCH  29  32
HETATM   32  C   UNL     1     -12.427   9.732  71.498  1.00  0.00    -0.403 C  
HETATM   33  C   UNL     1     -12.381  10.176  70.033  1.00  0.00    -0.076 C  
HETATM   34  C   UNL     1     -13.878   9.804  72.000  1.00  0.00    -0.258 C  
ENDBRANCH  29  32
ENDBRANCH  28  29
ENDBRANCH  21  23
ENDBRANCH  18  21
ENDBRANCH  12  14
ENDBRANCH   6  12
BRANCH  11  35
HETATM   35  C   UNL     1      -8.911  17.846  66.090  1.00  0.00    -0.109 C  
HETATM   36  C   UNL     1     -10.278  18.556  66.047  1.00  0.00    -0.371 C  
HETATM   37  C   UNL     1     -10.787  18.892  67.439  1.00  0.00    -0.374 C  
HETATM   38  N   UNL     1      -9.868  19.816  68.087  1.00  0.00    -0.402 NA 
HETATM   39  H   UNL     1     -10.239  20.149  68.977  1.00  0.00     0.000 HD 
HETATM   40  C   UNL     1      -8.539  19.228  68.249  1.00  0.00    -0.338 C  
HETATM   41  C   UNL     1      -7.950  18.709  66.941  1.00  0.00    -0.250 C  
ENDBRANCH  11  35
ENDBRANCH   4   5
ENDBRANCH   2   4
TORSDOF 9
ENDMDL
MODEL      134
REMARK 921   NORMALIZED FREE ENERGY PREDICTED BY IDOCK:   -5.08 KCAL/MOL
REMARK 922        TOTAL FREE ENERGY PREDICTED BY IDOCK:   -9.93 KCAL/MOL
REMARK 923 INTER-LIGAND FREE ENERGY PREDICTED BY IDOCK:   -8.82 KCAL/MOL
REMARK 924 INTRA-LIGAND FREE ENERGY PREDICTED BY IDOCK:   -1.11 KCAL/MOL
REMARK 927      BINDING AFFINITY PREDICTED BY RF-SCORE:    0.00 PKD
ROOT
HETATM    1  C   UNL     1     -11.600   9.070  71.729  1.00  0.00    -0.444 C  
HETATM    2  C   UNL     1     -11.437   9.792  70.392  1.00  0.00    -0.280 C  
HETATM    3  C   UNL     1     -12.465  10.925  70.301  1.00  0.00    -0.383 C  
ENDROOT
BRANCH   2   4
HETATM    4  O   UNL     1     -10.068  10.252  70.301  1.00  0.00    -0.169 OA 
BRANCH   4   5
HETATM    5  C   UNL     1      -9.393   9.959  69.134  1.00  0.00    -0.193 A  
HETATM    6  C   UNL     1      -8.973  10.923  68.202  1.00  0.00    -0.144 A  
HETATM    7  C   UNL     1      -6.893   8.859  65.815  1.00  0.00    -0.072 C  
HETATM    8  C   UNL     1      -8.030  10.517  67.260  1.00  0.00    -0.114 A  
HETATM    9  C   UNL     1      -9.091   8.584  68.934  1.00  0.00    -0.146 A  
HETATM   10  C   UNL     1      -7.719   9.160  67.042  1.00  0.00    -0.098 A  
HETATM   11  C   UNL     1      -8.264   8.150  67.876  1.00  0.00    -0.129 A  
BRANCH   6  12
HETATM   12  N   UNL     1      -9.345  12.280  68.220  1.00  0.00    -0.212 NA 
HETATM   13  H   UNL     1      -9.352  12.696  69.152  1.00  0.00     0.000 HD 
BRANCH  12  14
HETATM   14  C   UNL     1      -9.699  13.147  67.224  1.00  0.00    -0.230 A  
HETATM   15  N   UNL     1      -8.892  14.200  66.883  1.00  0.00    -0.225 NA 
HETATM   16  C   UNL     1     -11.334  13.984  65.836  1.00  0.00    -0.317 A  
HETATM   17  N   UNL     1     -10.922  13.038  66.754  1.00  0.00    -0.271 NA 
HETATM   18  C   UNL     1      -9.336  15.297  66.133  1.00  0.00    -0.325 A  
HETATM   19  C   UNL     1     -10.674  15.090  65.478  1.00  0.00    -0.359 A  
HETATM   20 CL   UNL     1     -11.325  16.269  64.416  1.00  0.00    -0.343 Cl 
BRANCH  18  21
HETATM   21  N   UNL     1      -8.773  16.472  65.977  1.00  0.00    -0.457 NA 
HETATM   22  H   UNL     1      -8.209  16.661  65.148  1.00  0.00     0.000 HD 
BRANCH  21  23
HETATM   23  C   UNL     1      -8.946  17.465  66.948  1.00  0.00    -0.245 A  
HETATM   24  C   UNL     1     -10.170  17.545  67.631  1.00  0.00    -0.343 A  
HETATM   25  C   UNL     1     -10.542  18.708  68.296  1.00  0.00    -0.212 A  
HETATM   26  C   UNL     1      -9.656  19.777  68.350  1.00  0.00    -0.454 A  
HETATM   27  C   UNL     1      -8.365  19.639  67.839  1.00  0.00    -0.349 A  
HETATM   28  C   UNL     1      -7.990  18.461  67.177  1.00  0.00    -0.231 A  
BRANCH  28  29
HETATM   29  S   UNL     1      -6.224  18.130  67.056  1.00  0.00    -0.168 S  
HETATM   30  O   UNL     1      -5.663  18.445  68.361  1.00  0.00    -0.173 OA 
HETATM   31  O   UNL     1      -6.130  16.762  66.574  1.00  0.00    -0.292 OA 
BRANCH  29  32
HETATM   32  C   UNL     1      -5.411  19.205  65.884  1.00  0.00    -0.149 C  
HETATM   33  C   UNL     1      -6.002  19.099  64.475  1.00  0.00    -0.298 C  
HETATM   34  C   UNL     1      -5.526  20.660  66.371  1.00  0.00    -0.206 C  
ENDBRANCH  29  32
ENDBRANCH  28  29
ENDBRANCH  21  23
ENDBRANCH  18  21
ENDBRANCH  12  14
ENDBRANCH   6  12
BRANCH  11  35
HETATM   35  C   UNL     1      -7.899   6.676  67.606  1.00  0.00    -0.111 C  
HETATM   36  C   UNL     1      -8.547   5.725  68.631  1.00  0.00    -0.109 C  
HETATM   37  C   UNL     1      -9.984   5.390  68.265  1.00  0.00    -0.159 C  
HETATM   38  N   UNL     1     -10.015   4.694  66.987  1.00  0.00    -0.204 NA 
HETATM   39  H   UNL     1     -10.952   4.356  66.768  1.00  0.00     0.000 HD 
HETATM   40  C   UNL     1      -9.482   5.526  65.909  1.00  0.00    -0.096 C  
HETATM   41  C   UNL     1      -8.083   6.061  66.200  1.00  0.00    -0.110 C  
ENDBRANCH  11  35
ENDBRANCH   4   5
ENDBRANCH   2   4
TORSDOF 9
ENDMDL
MODEL      135
REMARK 921   NORMALIZED FREE ENERGY PREDICTED BY IDOCK:   -5.06 KCAL/MOL
REMARK 922        TOTAL FREE ENERGY PREDICTED BY IDOCK:   -9.89 KCAL/MOL
REMARK 923 INTER-LIGAND FREE ENERGY PREDICTED BY IDOCK:   -8.30 KCAL/MOL
REMARK 924 INTRA-LIGAND FREE ENERGY PREDICTED BY IDOCK:   -1.59 KCAL/MOL
REMARK 927      BINDING AFFINITY PREDICTED BY RF-SCORE:    0.00 PKD
ROOT
HETATM    1  C   UNL     1     -11.310  15.434  70.629  1.00  0.00    -0.360 C  
HETATM    2  C   UNL     1     -10.458  15.680  69.385  1.00  0.00    -0.253 C  
HETATM    3  C   UNL     1      -9.925  17.116  69.413  1.00  0.00    -0.061 C  
ENDROOT
BRANCH   2   4
HETATM    4  O   UNL     1      -9.411  14.680  69.359  1.00  0.00    -0.048 OA 
BRANCH   4   5
HETATM    5  C   UNL     1      -9.499  13.716  68.376  1.00  0.00    -0.190 A  
HETATM    6  C   UNL     1      -8.533  12.719  68.160  1.00  0.00    -0.177 A  
HETATM    7  C   UNL     1     -10.214  10.539  65.571  1.00  0.00    -0.325 C  
HETATM    8  C   UNL     1      -8.912  11.638  67.367  1.00  0.00    -0.166 A  
HETATM    9  C   UNL     1     -10.683  13.755  67.589  1.00  0.00    -0.256 A  
HETATM   10  C   UNL     1     -10.078  11.656  66.576  1.00  0.00    -0.239 A  
HETATM   11  C   UNL     1     -10.992  12.738  66.661  1.00  0.00    -0.300 A  
BRANCH   6  12
HETATM   12  N   UNL     1      -7.264  12.678  68.769  1.00  0.00    -0.150 NA 
HETATM   13  H   UNL     1      -6.683  13.492  68.570  1.00  0.00     0.000 HD 
BRANCH  12  14
HETATM   14  C   UNL     1      -6.664  11.753  69.577  1.00  0.00    -0.067 A  
HETATM   15  N   UNL     1      -6.949  10.418  69.456  1.00  0.00    -0.086 NA 
HETATM   16  C   UNL     1      -5.454  11.297  71.481  1.00  0.00     0.178 A  
HETATM   17  N   UNL     1      -5.964  12.217  70.588  1.00  0.00    -0.269 NA 
HETATM   18  C   UNL     1      -6.644   9.475  70.446  1.00  0.00    -0.086 A  
HETATM   19  C   UNL     1      -5.717   9.986  71.514  1.00  0.00     0.041 A  
HETATM   20 CL   UNL     1      -5.128   8.942  72.741  1.00  0.00    -0.052 Cl 
BRANCH  18  21
HETATM   21  N   UNL     1      -7.096   8.251  70.587  1.00  0.00    -0.040 NA 
HETATM   22  H   UNL     1      -6.619   7.600  71.211  1.00  0.00     0.000 HD 
BRANCH  21  23
HETATM   23  C   UNL     1      -8.232   7.839  69.881  1.00  0.00    -0.125 A  
HETATM   24  C   UNL     1      -8.087   7.383  68.562  1.00  0.00    -0.125 A  
HETATM   25  C   UNL     1      -9.174   7.339  67.697  1.00  0.00    -0.130 A  
HETATM   26  C   UNL     1     -10.437   7.677  68.169  1.00  0.00    -0.233 A  
HETATM   27  C   UNL     1     -10.624   7.948  69.525  1.00  0.00    -0.220 A  
HETATM   28  C   UNL     1      -9.525   7.983  70.396  1.00  0.00    -0.166 A  
BRANCH  28  29
HETATM   29  S   UNL     1      -9.879   7.775  72.149  1.00  0.00    -0.202 S  
HETATM   30  O   UNL     1      -8.928   8.616  72.858  1.00  0.00    -0.343 OA 
HETATM   31  O   UNL     1     -11.296   8.068  72.285  1.00  0.00    -0.299 OA 
BRANCH  29  32
HETATM   32  C   UNL     1      -9.586   6.103  72.706  1.00  0.00    -0.155 C  
HETATM   33  C   UNL     1      -9.693   5.075  71.576  1.00  0.00    -0.227 C  
HETATM   34  C   UNL     1      -8.185   6.018  73.333  1.00  0.00    -0.114 C  
ENDBRANCH  29  32
ENDBRANCH  28  29
ENDBRANCH  21  23
ENDBRANCH  18  21
ENDBRANCH  12  14
ENDBRANCH   6  12
BRANCH  11  35
HETATM   35  C   UNL     1     -12.258  12.721  65.780  1.00  0.00    -0.469 C  
HETATM   36  C   UNL     1     -12.829  14.137  65.564  1.00  0.00    -0.404 C  
HETATM   37  C   UNL     1     -12.112  14.872  64.443  1.00  0.00    -0.401 C  
HETATM   38  N   UNL     1     -12.304  14.159  63.188  1.00  0.00    -1.046 NA 
HETATM   39  H   UNL     1     -11.932  14.687  62.398  1.00  0.00     0.000 HD 
HETATM   40  C   UNL     1     -11.739  12.812  63.244  1.00  0.00    -0.375 C  
HETATM   41  C   UNL     1     -12.264  11.990  64.418  1.00  0.00    -0.358 C  
ENDBRANCH  11  35
ENDBRANCH   4   5
ENDBRANCH   2   4
TORSDOF 9
ENDMDL
MODEL      136
REMARK 921   NORMALIZED FREE ENERGY PREDICTED BY IDOCK:   -5.03 KCAL/MOL
REMARK 922        TOTAL FREE ENERGY PREDICTED BY IDOCK:   -9.85 KCAL/MOL
REMARK 923 INTER-LIGAND FREE ENERGY PREDICTED BY IDOCK:   -8.02 KCAL/MOL
REMARK 924 INTRA-LIGAND FREE ENERGY PREDICTED BY IDOCK:   -1.83 KCAL/MOL
REMARK 927      BINDING AFFINITY PREDICTED BY RF-SCORE:    0.00 PKD
ROOT
HETATM    1  C   UNL     1      -6.615  11.072  65.990  1.00  0.00    -0.031 C  
HETATM    2  C   UNL     1      -7.967  11.102  66.702  1.00  0.00    -0.159 C  
HETATM    3  C   UNL     1      -8.340   9.682  67.138  1.00  0.00    -0.121 C  
ENDROOT
BRANCH   2   4
HETATM    4  O   UNL     1      -7.866  12.033  67.806  1.00  0.00    -0.126 OA 
BRANCH   4   5
HETATM    5  C   UNL     1      -8.766  13.078  67.820  1.00  0.00    -0.188 A  
HETATM    6  C   UNL     1     -10.119  12.950  68.175  1.00  0.00    -0.240 A  
HETATM    7  C   UNL     1     -11.261  16.552  68.248  1.00  0.00    -0.265 C  
HETATM    8  C   UNL     1     -10.809  14.127  68.458  1.00  0.00    -0.264 A  
HETATM    9  C   UNL     1      -8.226  14.351  67.487  1.00  0.00    -0.201 A  
HETATM   10  C   UNL     1     -10.295  15.398  68.134  1.00  0.00    -0.239 A  
HETATM   11  C   UNL     1      -8.980  15.536  67.618  1.00  0.00    -0.187 A  
BRANCH   6  12
HETATM   12  N   UNL     1     -10.792  11.729  68.371  1.00  0.00    -0.211 NA 
HETATM   13  H   UNL     1     -10.986  11.220  67.507  1.00  0.00     0.000 HD 
BRANCH  12  14
HETATM   14  C   UNL     1     -11.233  11.095  69.498  1.00  0.00    -0.277 A  
HETATM   15  N   UNL     1     -10.367  10.407  70.307  1.00  0.00    -0.094 NA 
HETATM   16  C   UNL     1     -12.996  10.271  70.727  1.00  0.00    -0.330 A  
HETATM   17  N   UNL     1     -12.535  11.013  69.658  1.00  0.00    -0.247 NA 
HETATM   18  C   UNL     1     -10.787   9.472  71.262  1.00  0.00    -0.343 A  
HETATM   19  C   UNL     1     -12.265   9.501  71.539  1.00  0.00    -0.386 A  
HETATM   20 CL   UNL     1     -12.949   8.519  72.769  1.00  0.00    -0.217 Cl 
BRANCH  18  21
HETATM   21  N   UNL     1     -10.082   8.560  71.890  1.00  0.00    -0.268 NA 
HETATM   22  H   UNL     1      -9.661   8.774  72.794  1.00  0.00     0.000 HD 
BRANCH  21  23
HETATM   23  C   UNL     1      -9.908   7.295  71.319  1.00  0.00    -0.180 A  
HETATM   24  C   UNL     1      -9.614   7.199  69.950  1.00  0.00    -0.163 A  
HETATM   25  C   UNL     1      -9.816   6.011  69.257  1.00  0.00    -0.191 A  
HETATM   26  C   UNL     1     -10.241   4.882  69.946  1.00  0.00    -0.299 A  
HETATM   27  C   UNL     1     -10.353   4.915  71.337  1.00  0.00    -0.221 A  
HETATM   28  C   UNL     1     -10.140   6.114  72.034  1.00  0.00    -0.181 A  
BRANCH  28  29
HETATM   29  S   UNL     1      -9.749   5.970  73.785  1.00  0.00    -0.187 S  
HETATM   30  O   UNL     1      -9.414   7.311  74.237  1.00  0.00    -0.240 OA 
HETATM   31  O   UNL     1     -10.901   5.309  74.375  1.00  0.00    -0.294 OA 
BRANCH  29  32
HETATM   32  C   UNL     1      -8.302   4.963  74.076  1.00  0.00    -0.104 C  
HETATM   33  C   UNL     1      -8.618   3.464  74.096  1.00  0.00    -0.087 C  
HETATM   34  C   UNL     1      -7.263   5.244  72.978  1.00  0.00    -0.090 C  
ENDBRANCH  29  32
ENDBRANCH  28  29
ENDBRANCH  21  23
ENDBRANCH  18  21
ENDBRANCH  12  14
ENDBRANCH   6  12
BRANCH  11  35
HETATM   35  C   UNL     1      -8.453  16.945  67.276  1.00  0.00    -0.213 C  
HETATM   36  C   UNL     1      -8.167  17.777  68.542  1.00  0.00    -0.296 C  
HETATM   37  C   UNL     1      -6.804  17.458  69.134  1.00  0.00    -0.228 C  
HETATM   38  N   UNL     1      -5.761  17.800  68.178  1.00  0.00    -0.155 NA 
HETATM   39  H   UNL     1      -4.832  17.705  68.588  1.00  0.00     0.000 HD 
HETATM   40  C   UNL     1      -5.884  17.021  66.947  1.00  0.00    -0.190 C  
HETATM   41  C   UNL     1      -7.264  17.129  66.304  1.00  0.00    -0.308 C  
ENDBRANCH  11  35
ENDBRANCH   4   5
ENDBRANCH   2   4
TORSDOF 9
ENDMDL
MODEL      137
REMARK 921   NORMALIZED FREE ENERGY PREDICTED BY IDOCK:   -5.03 KCAL/MOL
REMARK 922        TOTAL FREE ENERGY PREDICTED BY IDOCK:   -9.85 KCAL/MOL
REMARK 923 INTER-LIGAND FREE ENERGY PREDICTED BY IDOCK:   -8.06 KCAL/MOL
REMARK 924 INTRA-LIGAND FREE ENERGY PREDICTED BY IDOCK:   -1.79 KCAL/MOL
REMARK 927      BINDING AFFINITY PREDICTED BY RF-SCORE:    0.00 PKD
ROOT
HETATM    1  C   UNL     1      -6.864   7.860  68.623  1.00  0.00    -0.063 C  
HETATM    2  C   UNL     1      -8.058   8.507  69.324  1.00  0.00    -0.113 C  
HETATM    3  C   UNL     1      -8.382   9.840  68.641  1.00  0.00    -0.111 C  
ENDROOT
BRANCH   2   4
HETATM    4  O   UNL     1      -9.156   7.564  69.291  1.00  0.00    -0.139 OA 
BRANCH   4   5
HETATM    5  C   UNL     1      -9.562   7.044  70.503  1.00  0.00    -0.169 A  
HETATM    6  C   UNL     1     -10.875   7.126  70.996  1.00  0.00    -0.240 A  
HETATM    7  C   UNL     1     -10.699   4.940  74.074  1.00  0.00    -0.354 C  
HETATM    8  C   UNL     1     -11.202   6.281  72.055  1.00  0.00    -0.327 A  
HETATM    9  C   UNL     1      -8.558   6.355  71.237  1.00  0.00    -0.127 A  
HETATM   10  C   UNL     1     -10.224   5.593  72.799  1.00  0.00    -0.213 A  
HETATM   11  C   UNL     1      -8.860   5.629  72.409  1.00  0.00    -0.135 A  
BRANCH   6  12
HETATM   12  N   UNL     1     -11.902   7.907  70.434  1.00  0.00    -0.472 NA 
HETATM   13  H   UNL     1     -12.498   7.399  69.779  1.00  0.00     0.000 HD 
BRANCH  12  14
HETATM   14  C   UNL     1     -12.253   9.217  70.600  1.00  0.00    -0.048 A  
HETATM   15  N   UNL     1     -11.765  10.191  69.769  1.00  0.00    -0.184 NA 
HETATM   16  C   UNL     1     -13.167  10.853  71.938  1.00  0.00    -0.403 A  
HETATM   17  N   UNL     1     -12.913   9.518  71.697  1.00  0.00    -0.367 NA 
HETATM   18  C   UNL     1     -11.805  11.556  70.079  1.00  0.00    -0.355 A  
HETATM   19  C   UNL     1     -12.688  11.893  71.249  1.00  0.00    -0.298 A  
HETATM   20 CL   UNL     1     -12.965  13.525  71.701  1.00  0.00    -0.446 Cl 
BRANCH  18  21
HETATM   21  N   UNL     1     -11.144  12.548  69.528  1.00  0.00    -0.470 NA 
HETATM   22  H   UNL     1     -10.825  13.329  70.101  1.00  0.00     0.000 HD 
BRANCH  21  23
HETATM   23  C   UNL     1     -10.877  12.532  68.155  1.00  0.00    -0.222 A  
HETATM   24  C   UNL     1     -11.470  11.542  67.356  1.00  0.00    -0.349 A  
HETATM   25  C   UNL     1     -10.955  11.232  66.103  1.00  0.00    -0.252 A  
HETATM   26  C   UNL     1      -9.887  11.966  65.602  1.00  0.00    -0.266 A  
HETATM   27  C   UNL     1      -9.413  13.075  66.304  1.00  0.00    -0.199 A  
HETATM   28  C   UNL     1      -9.941  13.390  67.565  1.00  0.00    -0.230 A  
BRANCH  28  29
HETATM   29  S   UNL     1      -9.710  15.081  68.137  1.00  0.00    -0.219 S  
HETATM   30  O   UNL     1      -9.378  15.866  66.959  1.00  0.00    -0.207 OA 
HETATM   31  O   UNL     1     -10.927  15.404  68.863  1.00  0.00    -0.237 OA 
BRANCH  29  32
HETATM   32  C   UNL     1      -8.323  15.236  69.253  1.00  0.00    -0.243 C  
HETATM   33  C   UNL     1      -7.273  14.140  69.048  1.00  0.00    -0.110 C  
HETATM   34  C   UNL     1      -7.663  16.610  69.050  1.00  0.00    -0.221 C  
ENDBRANCH  29  32
ENDBRANCH  28  29
ENDBRANCH  21  23
ENDBRANCH  18  21
ENDBRANCH  12  14
ENDBRANCH   6  12
BRANCH  11  35
HETATM   35  C   UNL     1      -7.818   4.861  73.248  1.00  0.00    -0.097 C  
HETATM   36  C   UNL     1      -7.603   3.426  72.727  1.00  0.00    -0.059 C  
HETATM   37  C   UNL     1      -6.628   3.387  71.561  1.00  0.00    -0.022 C  
HETATM   38  N   UNL     1      -5.323   3.862  71.997  1.00  0.00     0.000 NA 
HETATM   39  H   UNL     1      -4.620   3.741  71.269  1.00  0.00     0.000 HD 
HETATM   40  C   UNL     1      -5.382   5.249  72.457  1.00  0.00    -0.016 C  
HETATM   41  C   UNL     1      -6.431   5.476  73.542  1.00  0.00    -0.071 C  
ENDBRANCH  11  35
ENDBRANCH   4   5
ENDBRANCH   2   4
TORSDOF 9
ENDMDL
MODEL      138
REMARK 921   NORMALIZED FREE ENERGY PREDICTED BY IDOCK:   -5.03 KCAL/MOL
REMARK 922        TOTAL FREE ENERGY PREDICTED BY IDOCK:   -9.84 KCAL/MOL
REMARK 923 INTER-LIGAND FREE ENERGY PREDICTED BY IDOCK:   -8.21 KCAL/MOL
REMARK 924 INTRA-LIGAND FREE ENERGY PREDICTED BY IDOCK:   -1.63 KCAL/MOL
REMARK 927      BINDING AFFINITY PREDICTED BY RF-SCORE:    0.00 PKD
ROOT
HETATM    1  C   UNL     1     -10.968  10.358  66.494  1.00  0.00    -0.016 C  
HETATM    2  C   UNL     1      -9.565   9.754  66.519  1.00  0.00    -0.194 C  
HETATM    3  C   UNL     1      -9.054   9.601  65.082  1.00  0.00    -0.279 C  
ENDROOT
BRANCH   2   4
HETATM    4  O   UNL     1      -8.729  10.608  67.336  1.00  0.00    -0.126 OA 
BRANCH   4   5
HETATM    5  C   UNL     1      -8.234  10.060  68.501  1.00  0.00    -0.108 A  
HETATM    6  C   UNL     1      -7.176  10.608  69.244  1.00  0.00    -0.113 A  
HETATM    7  C   UNL     1      -7.183   8.444  72.343  1.00  0.00    -0.113 C  
HETATM    8  C   UNL     1      -7.013  10.139  70.546  1.00  0.00    -0.059 A  
HETATM    9  C   UNL     1      -8.904   8.891  68.956  1.00  0.00    -0.136 A  
HETATM   10  C   UNL     1      -7.662   8.981  71.016  1.00  0.00    -0.153 A  
HETATM   11  C   UNL     1      -8.623   8.314  70.213  1.00  0.00    -0.127 A  
BRANCH   6  12
HETATM   12  N   UNL     1      -6.348  11.662  68.815  1.00  0.00    -0.052 NA 
HETATM   13  H   UNL     1      -5.560  11.362  68.240  1.00  0.00     0.000 HD 
BRANCH  12  14
HETATM   14  C   UNL     1      -6.400  13.012  69.021  1.00  0.00    -0.099 A  
HETATM   15  N   UNL     1      -7.595  13.681  69.026  1.00  0.00    -0.012 NA 
HETATM   16  C   UNL     1      -5.298  15.032  69.103  1.00  0.00    -0.094 A  
HETATM   17  N   UNL     1      -5.253  13.655  69.018  1.00  0.00    -0.073 NA 
HETATM   18  C   UNL     1      -7.698  15.072  68.891  1.00  0.00    -0.152 A  
HETATM   19  C   UNL     1      -6.391  15.800  69.042  1.00  0.00    -0.126 A  
HETATM   20 CL   UNL     1      -6.333  17.515  69.036  1.00  0.00    -0.207 Cl 
BRANCH  18  21
HETATM   21  N   UNL     1      -8.753  15.797  68.603  1.00  0.00    -0.184 NA 
HETATM   22  H   UNL     1      -8.980  16.615  69.169  1.00  0.00     0.000 HD 
BRANCH  21  23
HETATM   23  C   UNL     1      -9.567  15.449  67.519  1.00  0.00    -0.206 A  
HETATM   24  C   UNL     1     -10.031  14.128  67.411  1.00  0.00    -0.240 A  
HETATM   25  C   UNL     1     -10.493  13.630  66.199  1.00  0.00    -0.297 A  
HETATM   26  C   UNL     1     -10.570  14.475  65.098  1.00  0.00    -0.429 A  
HETATM   27  C   UNL     1     -10.293  15.835  65.242  1.00  0.00    -0.387 A  
HETATM   28  C   UNL     1      -9.835  16.336  66.470  1.00  0.00    -0.271 A  
BRANCH  28  29
HETATM   29  S   UNL     1     -10.038  18.103  66.747  1.00  0.00    -0.382 S  
HETATM   30  O   UNL     1     -10.649  18.635  65.539  1.00  0.00    -0.608 OA 
HETATM   31  O   UNL     1     -10.774  18.206  67.996  1.00  0.00    -0.374 OA 
BRANCH  29  32
HETATM   32  C   UNL     1      -8.474  18.944  66.935  1.00  0.00    -0.286 C  
HETATM   33  C   UNL     1      -7.422  18.471  65.927  1.00  0.00    -0.210 C  
HETATM   34  C   UNL     1      -8.691  20.457  66.763  1.00  0.00    -0.296 C  
ENDBRANCH  29  32
ENDBRANCH  28  29
ENDBRANCH  21  23
ENDBRANCH  18  21
ENDBRANCH  12  14
ENDBRANCH   6  12
BRANCH  11  35
HETATM   35  C   UNL     1      -9.315   7.050  70.764  1.00  0.00    -0.161 C  
HETATM   36  C   UNL     1     -10.428   7.395  71.772  1.00  0.00    -0.221 C  
HETATM   37  C   UNL     1     -11.732   7.752  71.077  1.00  0.00    -0.281 C  
HETATM   38  N   UNL     1     -12.212   6.607  70.316  1.00  0.00    -0.534 NA 
HETATM   39  H   UNL     1     -13.141   6.778  69.932  1.00  0.00     0.000 HD 
HETATM   40  C   UNL     1     -11.264   6.221  69.272  1.00  0.00    -0.389 C  
HETATM   41  C   UNL     1      -9.857   5.965  69.805  1.00  0.00    -0.217 C  
ENDBRANCH  11  35
ENDBRANCH   4   5
ENDBRANCH   2   4
TORSDOF 9
ENDMDL
MODEL      139
REMARK 921   NORMALIZED FREE ENERGY PREDICTED BY IDOCK:   -5.03 KCAL/MOL
REMARK 922        TOTAL FREE ENERGY PREDICTED BY IDOCK:   -9.84 KCAL/MOL
REMARK 923 INTER-LIGAND FREE ENERGY PREDICTED BY IDOCK:   -7.70 KCAL/MOL
REMARK 924 INTRA-LIGAND FREE ENERGY PREDICTED BY IDOCK:   -2.14 KCAL/MOL
REMARK 927      BINDING AFFINITY PREDICTED BY RF-SCORE:    0.00 PKD
ROOT
HETATM    1  C   UNL     1      -6.067  10.806  67.668  1.00  0.00    -0.047 C  
HETATM    2  C   UNL     1      -6.560  10.724  69.112  1.00  0.00    -0.065 C  
HETATM    3  C   UNL     1      -5.719  11.659  69.987  1.00  0.00    -0.128 C  
ENDROOT
BRANCH   2   4
HETATM    4  O   UNL     1      -7.971  11.048  69.119  1.00  0.00    -0.138 OA 
BRANCH   4   5
HETATM    5  C   UNL     1      -8.838  10.050  68.725  1.00  0.00    -0.137 A  
HETATM    6  C   UNL     1     -10.094  10.281  68.139  1.00  0.00    -0.150 A  
HETATM    7  C   UNL     1     -11.156   6.793  67.145  1.00  0.00    -0.404 C  
HETATM    8  C   UNL     1     -10.699   9.200  67.502  1.00  0.00    -0.255 A  
HETATM    9  C   UNL     1      -8.361   8.722  68.905  1.00  0.00    -0.127 A  
HETATM   10  C   UNL     1     -10.246   7.877  67.671  1.00  0.00    -0.289 A  
HETATM   11  C   UNL     1      -9.060   7.606  68.400  1.00  0.00    -0.130 A  
BRANCH   6  12
HETATM   12  N   UNL     1     -10.727  11.536  68.054  1.00  0.00    -0.192 NA 
HETATM   13  H   UNL     1     -11.257  11.789  68.889  1.00  0.00     0.000 HD 
BRANCH  12  14
HETATM   14  C   UNL     1     -10.766  12.478  67.065  1.00  0.00    -0.242 A  
HETATM   15  N   UNL     1      -9.766  13.405  66.931  1.00  0.00    -0.246 NA 
HETATM   16  C   UNL     1     -11.985  13.601  65.467  1.00  0.00    -0.384 A  
HETATM   17  N   UNL     1     -11.888  12.574  66.385  1.00  0.00    -0.516 NA 
HETATM   18  C   UNL     1      -9.903  14.580  66.181  1.00  0.00    -0.318 A  
HETATM   19  C   UNL     1     -11.117  14.602  65.295  1.00  0.00    -0.360 A  
HETATM   20 CL   UNL     1     -11.388  15.901  64.206  1.00  0.00    -0.322 Cl 
BRANCH  18  21
HETATM   21  N   UNL     1      -9.156  15.659  66.194  1.00  0.00    -0.337 NA 
HETATM   22  H   UNL     1      -8.460  15.806  65.463  1.00  0.00     0.000 HD 
BRANCH  21  23
HETATM   23  C   UNL     1      -9.313  16.607  67.211  1.00  0.00    -0.230 A  
HETATM   24  C   UNL     1     -10.580  16.781  67.791  1.00  0.00    -0.341 A  
HETATM   25  C   UNL     1     -10.889  17.937  68.498  1.00  0.00     0.048 A  
HETATM   26  C   UNL     1      -9.906  18.898  68.700  1.00  0.00    -0.463 A  
HETATM   27  C   UNL     1      -8.594  18.650  68.293  1.00  0.00    -0.347 A  
HETATM   28  C   UNL     1      -8.284  17.478  67.587  1.00  0.00    -0.215 A  
BRANCH  28  29
HETATM   29  S   UNL     1      -6.559  16.963  67.596  1.00  0.00    -0.154 S  
HETATM   30  O   UNL     1      -6.230  16.621  66.222  1.00  0.00    -0.189 OA 
HETATM   31  O   UNL     1      -5.842  18.060  68.226  1.00  0.00    -0.168 OA 
BRANCH  29  32
HETATM   32  C   UNL     1      -6.298  15.483  68.561  1.00  0.00    -0.100 C  
HETATM   33  C   UNL     1      -7.320  15.324  69.691  1.00  0.00    -0.188 C  
HETATM   34  C   UNL     1      -6.376  14.258  67.635  1.00  0.00    -0.126 C  
ENDBRANCH  29  32
ENDBRANCH  28  29
ENDBRANCH  21  23
ENDBRANCH  18  21
ENDBRANCH  12  14
ENDBRANCH   6  12
BRANCH  11  35
HETATM   35  C   UNL     1      -8.595   6.144  68.562  1.00  0.00    -0.113 C  
HETATM   36  C   UNL     1      -7.279   5.870  67.807  1.00  0.00    -0.076 C  
HETATM   37  C   UNL     1      -6.064   6.299  68.612  1.00  0.00    -0.028 C  
HETATM   38  N   UNL     1      -5.995   5.527  69.844  1.00  0.00    -0.020 NA 
HETATM   39  H   UNL     1      -5.129   5.711  70.352  1.00  0.00     0.000 HD 
HETATM   40  C   UNL     1      -7.167   5.755  70.688  1.00  0.00    -0.082 C  
HETATM   41  C   UNL     1      -8.485   5.499  69.963  1.00  0.00    -0.120 C  
ENDBRANCH  11  35
ENDBRANCH   4   5
ENDBRANCH   2   4
TORSDOF 9
ENDMDL
MODEL      140
REMARK 921   NORMALIZED FREE ENERGY PREDICTED BY IDOCK:   -5.03 KCAL/MOL
REMARK 922        TOTAL FREE ENERGY PREDICTED BY IDOCK:   -9.84 KCAL/MOL
REMARK 923 INTER-LIGAND FREE ENERGY PREDICTED BY IDOCK:   -8.17 KCAL/MOL
REMARK 924 INTRA-LIGAND FREE ENERGY PREDICTED BY IDOCK:   -1.66 KCAL/MOL
REMARK 927      BINDING AFFINITY PREDICTED BY RF-SCORE:    0.00 PKD
ROOT
HETATM    1  C   UNL     1     -11.267   9.577  71.255  1.00  0.00    -0.452 C  
HETATM    2  C   UNL     1     -11.761  10.724  70.374  1.00  0.00    -0.351 C  
HETATM    3  C   UNL     1     -12.628  11.668  71.214  1.00  0.00    -0.425 C  
ENDROOT
BRANCH   2   4
HETATM    4  O   UNL     1     -10.602  11.372  69.798  1.00  0.00    -0.002 OA 
BRANCH   4   5
HETATM    5  C   UNL     1     -10.736  11.850  68.511  1.00  0.00    -0.224 A  
HETATM    6  C   UNL     1     -11.084  11.056  67.406  1.00  0.00    -0.305 A  
HETATM    7  C   UNL     1     -11.559  13.644  64.692  1.00  0.00    -0.393 C  
HETATM    8  C   UNL     1     -11.500  11.726  66.257  1.00  0.00    -0.296 A  
HETATM    9  C   UNL     1     -10.540  13.251  68.358  1.00  0.00    -0.263 A  
HETATM   10  C   UNL     1     -11.312  13.111  66.082  1.00  0.00    -0.343 A  
HETATM   11  C   UNL     1     -10.806  13.910  67.140  1.00  0.00    -0.288 A  
BRANCH   6  12
HETATM   12  N   UNL     1     -11.150   9.650  67.410  1.00  0.00    -0.364 NA 
HETATM   13  H   UNL     1     -12.083   9.280  67.596  1.00  0.00     0.000 HD 
BRANCH  12  14
HETATM   14  C   UNL     1     -10.202   8.686  67.211  1.00  0.00    -0.268 A  
HETATM   15  N   UNL     1      -9.719   7.943  68.256  1.00  0.00    -0.156 NA 
HETATM   16  C   UNL     1      -8.598   7.759  65.844  1.00  0.00    -0.153 A  
HETATM   17  N   UNL     1      -9.642   8.645  66.022  1.00  0.00    -0.226 NA 
HETATM   18  C   UNL     1      -8.534   7.200  68.187  1.00  0.00    -0.123 A  
HETATM   19  C   UNL     1      -7.993   7.038  66.793  1.00  0.00    -0.108 A  
HETATM   20 CL   UNL     1      -6.621   6.053  66.491  1.00  0.00    -0.056 Cl 
BRANCH  18  21
HETATM   21  N   UNL     1      -7.824   6.686  69.164  1.00  0.00    -0.109 NA 
HETATM   22  H   UNL     1      -7.405   5.762  69.058  1.00  0.00     0.000 HD 
BRANCH  21  23
HETATM   23  C   UNL     1      -7.642   7.406  70.350  1.00  0.00    -0.091 A  
HETATM   24  C   UNL     1      -7.035   8.670  70.295  1.00  0.00    -0.041 A  
HETATM   25  C   UNL     1      -6.480   9.246  71.432  1.00  0.00    -0.039 A  
HETATM   26  C   UNL     1      -6.599   8.596  72.655  1.00  0.00    -0.045 A  
HETATM   27  C   UNL     1      -7.365   7.434  72.755  1.00  0.00    -0.084 A  
HETATM   28  C   UNL     1      -7.931   6.860  71.607  1.00  0.00    -0.101 A  
BRANCH  28  29
HETATM   29  S   UNL     1      -9.320   5.745  71.863  1.00  0.00    -0.151 S  
HETATM   30  O   UNL     1     -10.439   6.315  71.129  1.00  0.00    -0.210 OA 
HETATM   31  O   UNL     1      -8.830   4.435  71.467  1.00  0.00    -0.113 OA 
BRANCH  29  32
HETATM   32  C   UNL     1      -9.824   5.672  73.575  1.00  0.00    -0.167 C  
HETATM   33  C   UNL     1      -9.946   7.057  74.216  1.00  0.00    -0.235 C  
HETATM   34  C   UNL     1     -11.179   4.951  73.672  1.00  0.00    -0.299 C  
ENDBRANCH  29  32
ENDBRANCH  28  29
ENDBRANCH  21  23
ENDBRANCH  18  21
ENDBRANCH  12  14
ENDBRANCH   6  12
BRANCH  11  35
HETATM   35  C   UNL     1     -10.616  15.424  66.911  1.00  0.00    -0.309 C  
HETATM   36  C   UNL     1     -10.914  16.241  68.184  1.00  0.00    -0.343 C  
HETATM   37  C   UNL     1      -9.721  16.278  69.126  1.00  0.00    -0.265 C  
HETATM   38  N   UNL     1      -8.600  16.937  68.473  1.00  0.00    -0.242 NA 
HETATM   39  H   UNL     1      -7.823  17.078  69.118  1.00  0.00     0.000 HD 
HETATM   40  C   UNL     1      -8.175  16.213  67.275  1.00  0.00    -0.177 C  
HETATM   41  C   UNL     1      -9.311  15.971  66.286  1.00  0.00    -0.356 C  
ENDBRANCH  11  35
ENDBRANCH   4   5
ENDBRANCH   2   4
TORSDOF 9
ENDMDL
MODEL      141
REMARK 921   NORMALIZED FREE ENERGY PREDICTED BY IDOCK:   -5.01 KCAL/MOL
REMARK 922        TOTAL FREE ENERGY PREDICTED BY IDOCK:   -9.82 KCAL/MOL
REMARK 923 INTER-LIGAND FREE ENERGY PREDICTED BY IDOCK:   -7.82 KCAL/MOL
REMARK 924 INTRA-LIGAND FREE ENERGY PREDICTED BY IDOCK:   -1.99 KCAL/MOL
REMARK 927      BINDING AFFINITY PREDICTED BY RF-SCORE:    0.00 PKD
ROOT
HETATM    1  C   UNL     1      -9.878   7.959  71.920  1.00  0.00    -0.233 C  
HETATM    2  C   UNL     1     -10.434   7.030  70.841  1.00  0.00    -0.214 C  
HETATM    3  C   UNL     1     -11.954   6.921  71.002  1.00  0.00    -0.422 C  
ENDROOT
BRANCH   2   4
HETATM    4  O   UNL     1     -10.031   7.555  69.553  1.00  0.00    -0.175 OA 
BRANCH   4   5
HETATM    5  C   UNL     1      -9.356   6.691  68.716  1.00  0.00    -0.131 A  
HETATM    6  C   UNL     1      -8.704   7.085  67.535  1.00  0.00    -0.120 A  
HETATM    7  C   UNL     1      -6.920   3.911  66.523  1.00  0.00    -0.059 C  
HETATM    8  C   UNL     1      -7.802   6.178  66.983  1.00  0.00    -0.101 A  
HETATM    9  C   UNL     1      -9.312   5.336  69.146  1.00  0.00    -0.166 A  
HETATM   10  C   UNL     1      -7.744   4.830  67.390  1.00  0.00    -0.090 A  
HETATM   11  C   UNL     1      -8.522   4.372  68.486  1.00  0.00    -0.102 A  
BRANCH   6  12
HETATM   12  N   UNL     1      -8.810   8.356  66.939  1.00  0.00    -0.138 NA 
HETATM   13  H   UNL     1      -9.416   8.378  66.118  1.00  0.00     0.000 HD 
BRANCH  12  14
HETATM   14  C   UNL     1      -8.256   9.565  67.251  1.00  0.00    -0.114 A  
HETATM   15  N   UNL     1      -8.923  10.735  66.997  1.00  0.00    -0.141 NA 
HETATM   16  C   UNL     1      -6.386  10.783  67.817  1.00  0.00    -0.058 A  
HETATM   17  N   UNL     1      -6.993   9.559  67.617  1.00  0.00    -0.079 NA 
HETATM   18  C   UNL     1      -8.294  11.987  66.972  1.00  0.00    -0.178 A  
HETATM   19  C   UNL     1      -6.901  11.984  67.537  1.00  0.00    -0.128 A  
HETATM   20 CL   UNL     1      -6.019  13.446  67.710  1.00  0.00    -0.145 Cl 
BRANCH  18  21
HETATM   21  N   UNL     1      -8.735  13.121  66.481  1.00  0.00    -0.431 NA 
HETATM   22  H   UNL     1      -8.372  13.468  65.593  1.00  0.00     0.000 HD 
BRANCH  21  23
HETATM   23  C   UNL     1      -9.702  13.856  67.177  1.00  0.00    -0.244 A  
HETATM   24  C   UNL     1      -9.333  14.526  68.354  1.00  0.00    -0.208 A  
HETATM   25  C   UNL     1     -10.291  14.927  69.278  1.00  0.00    -0.240 A  
HETATM   26  C   UNL     1     -11.638  14.733  68.993  1.00  0.00    -0.324 A  
HETATM   27  C   UNL     1     -12.023  14.243  67.745  1.00  0.00    -0.384 A  
HETATM   28  C   UNL     1     -11.053  13.847  66.812  1.00  0.00    -0.303 A  
BRANCH  28  29
HETATM   29  S   UNL     1     -11.573  13.772  65.090  1.00  0.00    -0.347 S  
HETATM   30  O   UNL     1     -12.933  14.286  65.054  1.00  0.00    -0.693 OA 
HETATM   31  O   UNL     1     -10.543  14.488  64.355  1.00  0.00    -0.231 OA 
BRANCH  29  32
HETATM   32  C   UNL     1     -11.650  12.096  64.477  1.00  0.00    -0.336 C  
HETATM   33  C   UNL     1     -12.820  11.871  63.515  1.00  0.00    -0.435 C  
HETATM   34  C   UNL     1     -10.333  11.762  63.757  1.00  0.00    -0.451 C  
ENDBRANCH  29  32
ENDBRANCH  28  29
ENDBRANCH  21  23
ENDBRANCH  18  21
ENDBRANCH  12  14
ENDBRANCH   6  12
BRANCH  11  35
HETATM   35  C   UNL     1      -8.430   2.890  68.902  1.00  0.00    -0.099 C  
HETATM   36  C   UNL     1      -7.109   2.577  69.633  1.00  0.00    -0.036 C  
HETATM   37  C   UNL     1      -7.176   2.942  71.107  1.00  0.00    -0.033 C  
HETATM   38  N   UNL     1      -8.203   2.146  71.763  1.00  0.00    -0.051 NA 
HETATM   39  H   UNL     1      -8.194   2.286  72.773  1.00  0.00     0.000 HD 
HETATM   40  C   UNL     1      -9.527   2.405  71.199  1.00  0.00    -0.150 C  
HETATM   41  C   UNL     1      -9.581   2.216  69.686  1.00  0.00    -0.035 C  
ENDBRANCH  11  35
ENDBRANCH   4   5
ENDBRANCH   2   4
TORSDOF 9
ENDMDL
MODEL      142
REMARK 921   NORMALIZED FREE ENERGY PREDICTED BY IDOCK:   -4.98 KCAL/MOL
REMARK 922        TOTAL FREE ENERGY PREDICTED BY IDOCK:   -9.77 KCAL/MOL
REMARK 923 INTER-LIGAND FREE ENERGY PREDICTED BY IDOCK:   -7.97 KCAL/MOL
REMARK 924 INTRA-LIGAND FREE ENERGY PREDICTED BY IDOCK:   -1.80 KCAL/MOL
REMARK 927      BINDING AFFINITY PREDICTED BY RF-SCORE:    0.00 PKD
ROOT
HETATM    1  C   UNL     1     -12.459  13.281  65.447  1.00  0.00    -0.543 C  
HETATM    2  C   UNL     1     -11.509  12.176  65.907  1.00  0.00    -0.363 C  
HETATM    3  C   UNL     1     -10.661  11.712  64.719  1.00  0.00    -0.358 C  
ENDROOT
BRANCH   2   4
HETATM    4  O   UNL     1     -10.722  12.697  67.005  1.00  0.00    -0.241 OA 
BRANCH   4   5
HETATM    5  C   UNL     1     -11.174  12.418  68.278  1.00  0.00    -0.263 A  
HETATM    6  C   UNL     1     -11.662  13.386  69.172  1.00  0.00    -0.326 A  
HETATM    7  C   UNL     1     -12.968  11.255  72.007  1.00  0.00    -0.379 C  
HETATM    8  C   UNL     1     -12.378  12.920  70.272  1.00  0.00    -0.294 A  
HETATM    9  C   UNL     1     -11.164  11.043  68.640  1.00  0.00    -0.322 A  
HETATM   10  C   UNL     1     -12.378  11.564  70.652  1.00  0.00    -0.457 A  
HETATM   11  C   UNL     1     -11.748  10.586  69.840  1.00  0.00    -0.372 A  
BRANCH   6  12
HETATM   12  N   UNL     1     -11.577  14.778  68.981  1.00  0.00    -0.281 NA 
HETATM   13  H   UNL     1     -12.477  15.258  69.026  1.00  0.00     0.000 HD 
BRANCH  12  14
HETATM   14  C   UNL     1     -10.517  15.609  68.748  1.00  0.00    -0.225 A  
HETATM   15  N   UNL     1      -9.250  15.112  68.591  1.00  0.00    -0.188 NA 
HETATM   16  C   UNL     1      -9.651  17.742  68.767  1.00  0.00    -0.290 A  
HETATM   17  N   UNL     1     -10.738  16.899  68.878  1.00  0.00    -0.335 NA 
HETATM   18  C   UNL     1      -8.098  15.902  68.691  1.00  0.00    -0.162 A  
HETATM   19  C   UNL     1      -8.366  17.381  68.685  1.00  0.00    -0.264 A  
HETATM   20 CL   UNL     1      -7.074  18.510  68.671  1.00  0.00    -0.287 Cl 
BRANCH  18  21
HETATM   21  N   UNL     1      -6.849  15.525  68.840  1.00  0.00    -0.116 NA 
HETATM   22  H   UNL     1      -6.126  15.902  68.228  1.00  0.00     0.000 HD 
BRANCH  21  23
HETATM   23  C   UNL     1      -6.511  14.605  69.840  1.00  0.00    -0.164 A  
HETATM   24  C   UNL     1      -6.461  15.036  71.174  1.00  0.00     0.547 A  
HETATM   25  C   UNL     1      -5.770  14.306  72.135  1.00  0.00    -0.069 A  
HETATM   26  C   UNL     1      -5.188  13.094  71.784  1.00  0.00    -0.117 A  
HETATM   27  C   UNL     1      -5.394  12.565  70.510  1.00  0.00    -0.148 A  
HETATM   28  C   UNL     1      -6.099  13.300  69.546  1.00  0.00    -0.112 A  
BRANCH  28  29
HETATM   29  S   UNL     1      -6.799  12.368  68.173  1.00  0.00    -0.093 S  
HETATM   30  O   UNL     1      -8.024  11.766  68.674  1.00  0.00    -0.147 OA 
HETATM   31  O   UNL     1      -6.893  13.322  67.080  1.00  0.00    -0.120 OA 
BRANCH  29  32
HETATM   32  C   UNL     1      -5.745  11.019  67.663  1.00  0.00    -0.043 C  
HETATM   33  C   UNL     1      -6.212   9.665  68.208  1.00  0.00    -0.055 C  
HETATM   34  C   UNL     1      -5.711  10.959  66.127  1.00  0.00    -0.142 C  
ENDBRANCH  29  32
ENDBRANCH  28  29
ENDBRANCH  21  23
ENDBRANCH  18  21
ENDBRANCH  12  14
ENDBRANCH   6  12
BRANCH  11  35
HETATM   35  C   UNL     1     -11.771   9.110  70.289  1.00  0.00    -0.047 C  
HETATM   36  C   UNL     1     -10.785   8.245  69.478  1.00  0.00    -0.179 C  
HETATM   37  C   UNL     1      -9.368   8.343  70.019  1.00  0.00    -0.159 C  
HETATM   38  N   UNL     1      -9.327   7.835  71.382  1.00  0.00    -0.140 NA 
HETATM   39  H   UNL     1      -8.371   7.781  71.732  1.00  0.00     0.000 HD 
HETATM   40  C   UNL     1     -10.178   8.622  72.274  1.00  0.00    -0.301 C  
HETATM   41  C   UNL     1     -11.618   8.735  71.782  1.00  0.00    -0.416 C  
ENDBRANCH  11  35
ENDBRANCH   4   5
ENDBRANCH   2   4
TORSDOF 9
ENDMDL
MODEL      143
REMARK 921   NORMALIZED FREE ENERGY PREDICTED BY IDOCK:   -4.98 KCAL/MOL
REMARK 922        TOTAL FREE ENERGY PREDICTED BY IDOCK:   -9.76 KCAL/MOL
REMARK 923 INTER-LIGAND FREE ENERGY PREDICTED BY IDOCK:   -9.87 KCAL/MOL
REMARK 924 INTRA-LIGAND FREE ENERGY PREDICTED BY IDOCK:    0.11 KCAL/MOL
REMARK 927      BINDING AFFINITY PREDICTED BY RF-SCORE:    0.00 PKD
ROOT
HETATM    1  C   UNL     1     -10.510  11.381  63.456  1.00  0.00    -0.477 C  
HETATM    2  C   UNL     1     -10.654  12.751  64.116  1.00  0.00    -0.415 C  
HETATM    3  C   UNL     1     -12.141  13.094  64.252  1.00  0.00    -0.477 C  
ENDROOT
BRANCH   2   4
HETATM    4  O   UNL     1      -9.958  12.708  65.385  1.00  0.00    -0.270 OA 
BRANCH   4   5
HETATM    5  C   UNL     1     -10.041  11.529  66.097  1.00  0.00    -0.229 A  
HETATM    6  C   UNL     1     -11.103  11.198  66.954  1.00  0.00    -0.247 A  
HETATM    7  C   UNL     1     -10.317   7.607  67.835  1.00  0.00    -0.270 C  
HETATM    8  C   UNL     1     -11.210   9.862  67.335  1.00  0.00     0.071 A  
HETATM    9  C   UNL     1      -8.978  10.609  65.877  1.00  0.00    -0.192 A  
HETATM   10  C   UNL     1     -10.169   8.935  67.132  1.00  0.00    -0.339 A  
HETATM   11  C   UNL     1      -9.008   9.300  66.402  1.00  0.00    -0.185 A  
BRANCH   6  12
HETATM   12  N   UNL     1     -12.119  12.084  67.362  1.00  0.00    -0.520 NA 
HETATM   13  H   UNL     1     -13.041  11.853  66.993  1.00  0.00     0.000 HD 
BRANCH  12  14
HETATM   14  C   UNL     1     -12.102  13.193  68.160  1.00  0.00    -0.184 A  
HETATM   15  N   UNL     1     -11.720  14.413  67.666  1.00  0.00    -0.375 NA 
HETATM   16  C   UNL     1     -12.142  14.091  70.279  1.00  0.00    -0.355 A  
HETATM   17  N   UNL     1     -12.277  12.997  69.448  1.00  0.00    -0.188 NA 
HETATM   18  C   UNL     1     -11.358  15.492  68.482  1.00  0.00    -0.351 A  
HETATM   19  C   UNL     1     -11.707  15.307  69.933  1.00  0.00    -0.323 A  
HETATM   20 CL   UNL     1     -11.458  16.571  71.066  1.00  0.00    -0.243 Cl 
BRANCH  18  21
HETATM   21  N   UNL     1     -10.720  16.593  68.160  1.00  0.00    -0.337 NA 
HETATM   22  H   UNL     1     -11.226  17.477  68.100  1.00  0.00     0.000 HD 
BRANCH  21  23
HETATM   23  C   UNL     1      -9.346  16.554  67.898  1.00  0.00    -0.216 A  
HETATM   24  C   UNL     1      -8.817  15.462  67.192  1.00  0.00    -0.234 A  
HETATM   25  C   UNL     1      -7.459  15.169  67.243  1.00  0.00    -0.228 A  
HETATM   26  C   UNL     1      -6.603  16.015  67.938  1.00  0.00    -0.161 A  
HETATM   27  C   UNL     1      -7.088  17.205  68.482  1.00  0.00    -0.213 A  
HETATM   28  C   UNL     1      -8.458  17.501  68.421  1.00  0.00    -0.275 A  
BRANCH  28  29
HETATM   29  S   UNL     1      -8.918  19.231  68.615  1.00  0.00    -0.358 S  
HETATM   30  O   UNL     1     -10.229  19.234  69.244  1.00  0.00    -0.296 OA 
HETATM   31  O   UNL     1      -7.807  19.839  69.328  1.00  0.00    -0.249 OA 
BRANCH  29  32
HETATM   32  C   UNL     1      -9.110  20.061  67.045  1.00  0.00    -0.360 C  
HETATM   33  C   UNL     1      -8.100  19.585  65.996  1.00  0.00    -0.299 C  
HETATM   34  C   UNL     1     -10.535  19.821  66.518  1.00  0.00    -0.615 C  
ENDBRANCH  29  32
ENDBRANCH  28  29
ENDBRANCH  21  23
ENDBRANCH  18  21
ENDBRANCH  12  14
ENDBRANCH   6  12
BRANCH  11  35
HETATM   35  C   UNL     1      -7.890   8.256  66.199  1.00  0.00    -0.098 C  
HETATM   36  C   UNL     1      -6.521   8.777  66.680  1.00  0.00    -0.063 C  
HETATM   37  C   UNL     1      -6.346   8.609  68.180  1.00  0.00    -0.052 C  
HETATM   38  N   UNL     1      -6.387   7.195  68.524  1.00  0.00    -0.034 NA 
HETATM   39  H   UNL     1      -6.159   7.043  69.506  1.00  0.00     0.000 HD 
HETATM   40  C   UNL     1      -7.674   6.595  68.176  1.00  0.00    -0.105 C  
HETATM   41  C   UNL     1      -8.059   6.808  66.714  1.00  0.00    -0.109 C  
ENDBRANCH  11  35
ENDBRANCH   4   5
ENDBRANCH   2   4
TORSDOF 9
ENDMDL
MODEL      144
REMARK 921   NORMALIZED FREE ENERGY PREDICTED BY IDOCK:   -4.95 KCAL/MOL
REMARK 922        TOTAL FREE ENERGY PREDICTED BY IDOCK:   -9.73 KCAL/MOL
REMARK 923 INTER-LIGAND FREE ENERGY PREDICTED BY IDOCK:   -7.82 KCAL/MOL
REMARK 924 INTRA-LIGAND FREE ENERGY PREDICTED BY IDOCK:   -1.90 KCAL/MOL
REMARK 927      BINDING AFFINITY PREDICTED BY RF-SCORE:    0.00 PKD
ROOT
HETATM    1  C   UNL     1      -5.478  11.914  68.419  1.00  0.00    -0.049 C  
HETATM    2  C   UNL     1      -6.624  12.898  68.655  1.00  0.00    -0.091 C  
HETATM    3  C   UNL     1      -6.162  13.986  69.630  1.00  0.00    -0.127 C  
ENDROOT
BRANCH   2   4
HETATM    4  O   UNL     1      -7.034  13.418  67.368  1.00  0.00    -0.165 OA 
BRANCH   4   5
HETATM    5  C   UNL     1      -8.029  14.374  67.375  1.00  0.00    -0.201 A  
HETATM    6  C   UNL     1      -9.388  14.097  67.596  1.00  0.00    -0.209 A  
HETATM    7  C   UNL     1     -10.874  17.565  67.824  1.00  0.00    -0.251 C  
HETATM    8  C   UNL     1     -10.209  15.181  67.900  1.00  0.00    -0.232 A  
HETATM    9  C   UNL     1      -7.588  15.713  67.185  1.00  0.00    -0.258 A  
HETATM   10  C   UNL     1      -9.795  16.514  67.715  1.00  0.00    -0.240 A  
HETATM   11  C   UNL     1      -8.461  16.811  67.332  1.00  0.00    -0.203 A  
BRANCH   6  12
HETATM   12  N   UNL     1      -9.953  12.808  67.643  1.00  0.00    -0.213 NA 
HETATM   13  H   UNL     1     -10.124  12.398  66.724  1.00  0.00     0.000 HD 
BRANCH  12  14
HETATM   14  C   UNL     1     -10.315  12.002  68.685  1.00  0.00    -0.196 A  
HETATM   15  N   UNL     1      -9.563  10.910  69.029  1.00  0.00    -0.187 NA 
HETATM   16  C   UNL     1     -11.934  11.325  70.176  1.00  0.00    -0.369 A  
HETATM   17  N   UNL     1     -11.505  12.209  69.205  1.00  0.00    -0.287 NA 
HETATM   18  C   UNL     1     -10.041   9.873  69.840  1.00  0.00    -0.257 A  
HETATM   19  C   UNL     1     -11.330  10.191  70.545  1.00  0.00    -0.338 A  
HETATM   20 CL   UNL     1     -12.006   9.096  71.680  1.00  0.00    -0.413 Cl 
BRANCH  18  21
HETATM   21  N   UNL     1      -9.548   8.669  70.015  1.00  0.00    -0.167 NA 
HETATM   22  H   UNL     1      -9.104   8.424  70.900  1.00  0.00     0.000 HD 
BRANCH  21  23
HETATM   23  C   UNL     1      -9.633   7.722  68.988  1.00  0.00    -0.155 A  
HETATM   24  C   UNL     1     -10.473   7.977  67.893  1.00  0.00    -0.259 A  
HETATM   25  C   UNL     1     -10.898   6.946  67.063  1.00  0.00    -0.436 A  
HETATM   26  C   UNL     1     -10.422   5.658  67.276  1.00  0.00    -0.322 A  
HETATM   27  C   UNL     1      -9.441   5.427  68.241  1.00  0.00    -0.146 A  
HETATM   28  C   UNL     1      -9.008   6.473  69.070  1.00  0.00    -0.129 A  
BRANCH  28  29
HETATM   29  S   UNL     1      -7.406   6.261  69.864  1.00  0.00    -0.081 S  
HETATM   30  O   UNL     1      -6.833   5.047  69.304  1.00  0.00    -0.050 OA 
HETATM   31  O   UNL     1      -6.709   7.518  69.648  1.00  0.00    -0.039 OA 
BRANCH  29  32
HETATM   32  C   UNL     1      -7.552   5.985  71.623  1.00  0.00    -0.100 C  
HETATM   33  C   UNL     1      -7.213   7.231  72.448  1.00  0.00    -0.071 C  
HETATM   34  C   UNL     1      -8.989   5.543  71.946  1.00  0.00    -0.142 C  
ENDBRANCH  29  32
ENDBRANCH  28  29
ENDBRANCH  21  23
ENDBRANCH  18  21
ENDBRANCH  12  14
ENDBRANCH   6  12
BRANCH  11  35
HETATM   35  C   UNL     1      -8.045  18.284  67.140  1.00  0.00    -0.232 C  
HETATM   36  C   UNL     1      -7.673  18.956  68.476  1.00  0.00    -0.365 C  
HETATM   37  C   UNL     1      -6.241  18.650  68.884  1.00  0.00    -0.231 C  
HETATM   38  N   UNL     1      -5.322  19.185  67.889  1.00  0.00    -0.177 NA 
HETATM   39  H   UNL     1      -4.352  19.096  68.191  1.00  0.00     0.000 HD 
HETATM   40  C   UNL     1      -5.532  18.571  66.579  1.00  0.00    -0.143 C  
HETATM   41  C   UNL     1      -6.975  18.673  66.094  1.00  0.00    -0.289 C  
ENDBRANCH  11  35
ENDBRANCH   4   5
ENDBRANCH   2   4
TORSDOF 9
ENDMDL
MODEL      145
REMARK 921   NORMALIZED FREE ENERGY PREDICTED BY IDOCK:   -4.94 KCAL/MOL
REMARK 922        TOTAL FREE ENERGY PREDICTED BY IDOCK:   -9.70 KCAL/MOL
REMARK 923 INTER-LIGAND FREE ENERGY PREDICTED BY IDOCK:   -8.01 KCAL/MOL
REMARK 924 INTRA-LIGAND FREE ENERGY PREDICTED BY IDOCK:   -1.69 KCAL/MOL
REMARK 927      BINDING AFFINITY PREDICTED BY RF-SCORE:    0.00 PKD
ROOT
HETATM    1  C   UNL     1     -13.096  10.686  71.717  1.00  0.00    -0.571 C  
HETATM    2  C   UNL     1     -11.879  10.733  70.793  1.00  0.00    -0.339 C  
HETATM    3  C   UNL     1     -10.847   9.704  71.265  1.00  0.00    -0.366 C  
ENDROOT
BRANCH   2   4
HETATM    4  O   UNL     1     -12.340  10.503  69.441  1.00  0.00    -0.206 OA 
BRANCH   4   5
HETATM    5  C   UNL     1     -11.618  11.102  68.430  1.00  0.00    -0.306 A  
HETATM    6  C   UNL     1     -11.052  10.410  67.347  1.00  0.00    -0.226 A  
HETATM    7  C   UNL     1      -9.824  13.235  65.157  1.00  0.00    -0.078 C  
HETATM    8  C   UNL     1     -10.647  11.174  66.254  1.00  0.00    -0.309 A  
HETATM    9  C   UNL     1     -11.509  12.518  68.516  1.00  0.00    -0.346 A  
HETATM   10  C   UNL     1     -10.527  12.576  66.318  1.00  0.00    -0.268 A  
HETATM   11  C   UNL     1     -10.947  13.285  67.474  1.00  0.00    -0.281 A  
BRANCH   6  12
HETATM   12  N   UNL     1     -10.966   9.008  67.240  1.00  0.00    -0.365 NA 
HETATM   13  H   UNL     1     -11.833   8.563  66.938  1.00  0.00     0.000 HD 
BRANCH  12  14
HETATM   14  C   UNL     1      -9.940   8.133  67.462  1.00  0.00    -0.192 A  
HETATM   15  N   UNL     1     -10.154   6.943  68.108  1.00  0.00    -0.159 NA 
HETATM   16  C   UNL     1      -7.674   7.740  67.542  1.00  0.00    -0.117 A  
HETATM   17  N   UNL     1      -8.726   8.568  67.207  1.00  0.00    -0.129 NA 
HETATM   18  C   UNL     1      -9.123   6.174  68.661  1.00  0.00    -0.125 A  
HETATM   19  C   UNL     1      -7.745   6.598  68.234  1.00  0.00    -0.105 A  
HETATM   20 CL   UNL     1      -6.362   5.699  68.705  1.00  0.00    -0.039 Cl 
BRANCH  18  21
HETATM   21  N   UNL     1      -9.200   5.190  69.526  1.00  0.00    -0.114 NA 
HETATM   22  H   UNL     1      -8.738   4.301  69.331  1.00  0.00     0.000 HD 
BRANCH  21  23
HETATM   23  C   UNL     1      -9.917   5.360  70.716  1.00  0.00    -0.204 A  
HETATM   24  C   UNL     1     -11.215   5.890  70.661  1.00  0.00    -0.284 A  
HETATM   25  C   UNL     1     -11.811   6.440  71.790  1.00  0.00    -0.374 A  
HETATM   26  C   UNL     1     -11.142   6.391  73.008  1.00  0.00    -0.231 A  
HETATM   27  C   UNL     1      -9.936   5.698  73.113  1.00  0.00    -0.190 A  
HETATM   28  C   UNL     1      -9.342   5.137  71.973  1.00  0.00    -0.137 A  
BRANCH  28  29
HETATM   29  S   UNL     1      -8.143   3.823  72.251  1.00  0.00    -0.078 S  
HETATM   30  O   UNL     1      -7.128   3.975  71.221  1.00  0.00    -0.031 OA 
HETATM   31  O   UNL     1      -7.744   3.965  73.642  1.00  0.00    -0.076 OA 
BRANCH  29  32
HETATM   32  C   UNL     1      -8.853   2.199  72.025  1.00  0.00    -0.069 C  
HETATM   33  C   UNL     1     -10.332   2.139  72.419  1.00  0.00    -0.206 C  
HETATM   34  C   UNL     1      -8.706   1.786  70.551  1.00  0.00    -0.110 C  
ENDBRANCH  29  32
ENDBRANCH  28  29
ENDBRANCH  21  23
ENDBRANCH  18  21
ENDBRANCH  12  14
ENDBRANCH   6  12
BRANCH  11  35
HETATM   35  C   UNL     1     -10.801  14.821  67.506  1.00  0.00    -0.287 C  
HETATM   36  C   UNL     1     -12.024  15.502  68.150  1.00  0.00    -0.007 C  
HETATM   37  C   UNL     1     -11.937  15.506  69.668  1.00  0.00    -0.359 C  
HETATM   38  N   UNL     1     -10.774  16.272  70.091  1.00  0.00    -0.288 NA 
HETATM   39  H   UNL     1     -10.752  16.389  71.104  1.00  0.00     0.000 HD 
HETATM   40  C   UNL     1      -9.532  15.682  69.594  1.00  0.00    -0.243 C  
HETATM   41  C   UNL     1      -9.527  15.481  68.082  1.00  0.00    -0.198 C  
ENDBRANCH  11  35
ENDBRANCH   4   5
ENDBRANCH   2   4
TORSDOF 9
ENDMDL
MODEL      146
REMARK 921   NORMALIZED FREE ENERGY PREDICTED BY IDOCK:   -4.93 KCAL/MOL
REMARK 922        TOTAL FREE ENERGY PREDICTED BY IDOCK:   -9.69 KCAL/MOL
REMARK 923 INTER-LIGAND FREE ENERGY PREDICTED BY IDOCK:   -8.10 KCAL/MOL
REMARK 924 INTRA-LIGAND FREE ENERGY PREDICTED BY IDOCK:   -1.59 KCAL/MOL
REMARK 927      BINDING AFFINITY PREDICTED BY RF-SCORE:    0.00 PKD
ROOT
HETATM    1  C   UNL     1     -10.867   7.736  67.887  1.00  0.00    -0.080 C  
HETATM    2  C   UNL     1     -10.054   9.018  67.714  1.00  0.00    -0.208 C  
HETATM    3  C   UNL     1      -8.740   8.892  68.491  1.00  0.00    -0.134 C  
ENDROOT
BRANCH   2   4
HETATM    4  O   UNL     1      -9.863   9.234  66.295  1.00  0.00    -0.251 OA 
BRANCH   4   5
HETATM    5  C   UNL     1      -8.732   8.682  65.732  1.00  0.00    -0.181 A  
HETATM    6  C   UNL     1      -7.575   9.410  65.409  1.00  0.00    -0.100 A  
HETATM    7  C   UNL     1      -5.165   6.668  64.428  1.00  0.00    -0.026 C  
HETATM    8  C   UNL     1      -6.418   8.673  65.162  1.00  0.00    -0.064 A  
HETATM    9  C   UNL     1      -8.779   7.275  65.526  1.00  0.00    -0.047 A  
HETATM   10  C   UNL     1      -6.441   7.281  64.951  1.00  0.00    -0.037 A  
HETATM   11  C   UNL     1      -7.644   6.545  65.115  1.00  0.00    -0.090 A  
BRANCH   6  12
HETATM   12  N   UNL     1      -7.472  10.813  65.426  1.00  0.00    -0.347 NA 
HETATM   13  H   UNL     1      -7.452  11.238  64.498  1.00  0.00     0.000 HD 
BRANCH  12  14
HETATM   14  C   UNL     1      -7.395  11.715  66.449  1.00  0.00     0.127 A  
HETATM   15  N   UNL     1      -8.502  12.402  66.872  1.00  0.00    -0.177 NA 
HETATM   16  C   UNL     1      -6.089  13.030  67.817  1.00  0.00    -0.151 A  
HETATM   17  N   UNL     1      -6.189  12.031  66.869  1.00  0.00    -0.147 NA 
HETATM   18  C   UNL     1      -8.435  13.559  67.659  1.00  0.00    -0.184 A  
HETATM   19  C   UNL     1      -7.077  13.817  68.253  1.00  0.00    -0.109 A  
HETATM   20 CL   UNL     1      -6.829  15.114  69.348  1.00  0.00    -0.156 Cl 
BRANCH  18  21
HETATM   21  N   UNL     1      -9.367  14.453  67.894  1.00  0.00    -0.197 NA 
HETATM   22  H   UNL     1      -9.217  15.172  68.602  1.00  0.00     0.000 HD 
BRANCH  21  23
HETATM   23  C   UNL     1     -10.566  14.418  67.174  1.00  0.00    -0.277 A  
HETATM   24  C   UNL     1     -11.525  13.444  67.491  1.00  0.00    -0.357 A  
HETATM   25  C   UNL     1     -12.528  13.108  66.589  1.00  0.00    -0.031 A  
HETATM   26  C   UNL     1     -12.628  13.803  65.390  1.00  0.00    -0.534 A  
HETATM   27  C   UNL     1     -11.800  14.899  65.147  1.00  0.00    -0.258 A  
HETATM   28  C   UNL     1     -10.795  15.240  66.064  1.00  0.00    -0.330 A  
BRANCH  28  29
HETATM   29  S   UNL     1     -10.169  16.927  65.984  1.00  0.00    -0.297 S  
HETATM   30  O   UNL     1      -8.720  16.818  65.915  1.00  0.00    -0.504 OA 
HETATM   31  O   UNL     1     -10.871  17.536  64.867  1.00  0.00    -0.832 OA 
BRANCH  29  32
HETATM   32  C   UNL     1     -10.535  17.857  67.464  1.00  0.00    -0.390 C  
HETATM   33  C   UNL     1      -9.335  17.963  68.409  1.00  0.00    -0.290 C  
HETATM   34  C   UNL     1     -10.993  19.271  67.070  1.00  0.00    -0.413 C  
ENDBRANCH  29  32
ENDBRANCH  28  29
ENDBRANCH  21  23
ENDBRANCH  18  21
ENDBRANCH  12  14
ENDBRANCH   6  12
BRANCH  11  35
HETATM   35  C   UNL     1      -7.630   5.021  64.876  1.00  0.00    -0.078 C  
HETATM   36  C   UNL     1      -7.923   4.232  66.167  1.00  0.00    -0.098 C  
HETATM   37  C   UNL     1      -9.415   4.131  66.443  1.00  0.00    -0.189 C  
HETATM   38  N   UNL     1     -10.065   3.402  65.363  1.00  0.00    -0.392 NA 
HETATM   39  H   UNL     1     -11.045   3.219  65.574  1.00  0.00     0.000 HD 
HETATM   40  C   UNL     1      -9.914   4.091  64.082  1.00  0.00    -0.163 C  
HETATM   41  C   UNL     1      -8.460   4.393  63.732  1.00  0.00    -0.113 C  
ENDBRANCH  11  35
ENDBRANCH   4   5
ENDBRANCH   2   4
TORSDOF 9
ENDMDL
MODEL      147
REMARK 921   NORMALIZED FREE ENERGY PREDICTED BY IDOCK:   -4.92 KCAL/MOL
REMARK 922        TOTAL FREE ENERGY PREDICTED BY IDOCK:   -9.67 KCAL/MOL
REMARK 923 INTER-LIGAND FREE ENERGY PREDICTED BY IDOCK:   -7.54 KCAL/MOL
REMARK 924 INTRA-LIGAND FREE ENERGY PREDICTED BY IDOCK:   -2.14 KCAL/MOL
REMARK 927      BINDING AFFINITY PREDICTED BY RF-SCORE:    0.00 PKD
ROOT
HETATM    1  C   UNL     1     -11.810  14.155  70.278  1.00  0.00    -0.373 C  
HETATM    2  C   UNL     1     -10.696  14.585  69.323  1.00  0.00    -0.226 C  
HETATM    3  C   UNL     1     -11.308  15.354  68.147  1.00  0.00    -0.353 C  
ENDROOT
BRANCH   2   4
HETATM    4  O   UNL     1      -9.739  15.363  70.081  1.00  0.00    -0.182 OA 
BRANCH   4   5
HETATM    5  C   UNL     1      -8.634  15.823  69.395  1.00  0.00    -0.225 A  
HETATM    6  C   UNL     1      -7.405  15.146  69.334  1.00  0.00    -0.203 A  
HETATM    7  C   UNL     1      -5.491  17.210  66.810  1.00  0.00    -0.211 C  
HETATM    8  C   UNL     1      -6.508  15.559  68.350  1.00  0.00    -0.114 A  
HETATM    9  C   UNL     1      -8.821  17.042  68.687  1.00  0.00    -0.267 A  
HETATM   10  C   UNL     1      -6.671  16.764  67.640  1.00  0.00    -0.163 A  
HETATM   11  C   UNL     1      -7.840  17.550  67.809  1.00  0.00    -0.209 A  
BRANCH   6  12
HETATM   12  N   UNL     1      -7.061  14.023  70.110  1.00  0.00    -0.308 NA 
HETATM   13  H   UNL     1      -7.076  14.195  71.116  1.00  0.00     0.000 HD 
BRANCH  12  14
HETATM   14  C   UNL     1      -6.710  12.746  69.772  1.00  0.00     0.163 A  
HETATM   15  N   UNL     1      -7.348  12.084  68.756  1.00  0.00    -0.111 NA 
HETATM   16  C   UNL     1      -5.616  10.797  70.322  1.00  0.00    -0.081 A  
HETATM   17  N   UNL     1      -5.883  12.126  70.584  1.00  0.00    -0.289 NA 
HETATM   18  C   UNL     1      -7.282  10.695  68.585  1.00  0.00    -0.090 A  
HETATM   19  C   UNL     1      -6.222  10.025  69.415  1.00  0.00    -0.045 A  
HETATM   20 CL   UNL     1      -5.903   8.348  69.247  1.00  0.00    -0.034 Cl 
BRANCH  18  21
HETATM   21  N   UNL     1      -8.044   9.917  67.852  1.00  0.00    -0.108 NA 
HETATM   22  H   UNL     1      -7.642   9.107  67.380  1.00  0.00     0.000 HD 
BRANCH  21  23
HETATM   23  C   UNL     1      -9.408  10.199  67.718  1.00  0.00    -0.141 A  
HETATM   24  C   UNL     1      -9.886  10.688  66.492  1.00  0.00    -0.250 A  
HETATM   25  C   UNL     1     -11.109  11.344  66.412  1.00  0.00    -0.301 A  
HETATM   26  C   UNL     1     -11.904  11.447  67.547  1.00  0.00    -0.105 A  
HETATM   27  C   UNL     1     -11.526  10.801  68.724  1.00  0.00    -0.364 A  
HETATM   28  C   UNL     1     -10.295  10.132  68.799  1.00  0.00    -0.194 A  
BRANCH  28  29
HETATM   29  S   UNL     1     -10.129   8.887  70.089  1.00  0.00    -0.201 S  
HETATM   30  O   UNL     1      -9.025   9.320  70.931  1.00  0.00    -0.235 OA 
HETATM   31  O   UNL     1     -11.452   8.782  70.683  1.00  0.00    -0.265 OA 
BRANCH  29  32
HETATM   32  C   UNL     1      -9.669   7.290  69.435  1.00  0.00    -0.161 C  
HETATM   33  C   UNL     1      -8.796   6.484  70.401  1.00  0.00    -0.151 C  
HETATM   34  C   UNL     1     -10.943   6.489  69.119  1.00  0.00    -0.380 C  
ENDBRANCH  29  32
ENDBRANCH  28  29
ENDBRANCH  21  23
ENDBRANCH  18  21
ENDBRANCH  12  14
ENDBRANCH   6  12
BRANCH  11  35
HETATM   35  C   UNL     1      -7.983  18.864  67.013  1.00  0.00    -0.262 C  
HETATM   36  C   UNL     1      -8.822  18.675  65.734  1.00  0.00     0.438 C  
HETATM   37  C   UNL     1     -10.314  18.737  66.020  1.00  0.00    -0.422 C  
HETATM   38  N   UNL     1     -10.658  20.052  66.542  1.00  0.00    -0.416 NA 
HETATM   39  H   UNL     1     -11.667  20.163  66.637  1.00  0.00     0.000 HD 
HETATM   40  C   UNL     1      -9.970  20.326  67.803  1.00  0.00    -0.388 C  
HETATM   41  C   UNL     1      -8.456  20.162  67.708  1.00  0.00    -0.311 C  
ENDBRANCH  11  35
ENDBRANCH   4   5
ENDBRANCH   2   4
TORSDOF 9
ENDMDL
MODEL      148
REMARK 921   NORMALIZED FREE ENERGY PREDICTED BY IDOCK:   -4.90 KCAL/MOL
REMARK 922        TOTAL FREE ENERGY PREDICTED BY IDOCK:   -9.65 KCAL/MOL
REMARK 923 INTER-LIGAND FREE ENERGY PREDICTED BY IDOCK:   -9.62 KCAL/MOL
REMARK 924 INTRA-LIGAND FREE ENERGY PREDICTED BY IDOCK:   -0.03 KCAL/MOL
REMARK 927      BINDING AFFINITY PREDICTED BY RF-SCORE:    0.00 PKD
ROOT
HETATM    1  C   UNL     1     -12.939  13.908  65.298  1.00  0.00    -0.341 C  
HETATM    2  C   UNL     1     -11.436  13.685  65.134  1.00  0.00    -0.316 C  
HETATM    3  C   UNL     1     -11.171  12.998  63.791  1.00  0.00    -0.396 C  
ENDROOT
BRANCH   2   4
HETATM    4  O   UNL     1     -10.780  14.969  65.261  1.00  0.00    -0.332 OA 
BRANCH   4   5
HETATM    5  C   UNL     1      -9.727  15.042  66.149  1.00  0.00    -0.306 A  
HETATM    6  C   UNL     1      -9.350  14.001  67.013  1.00  0.00    -0.250 A  
HETATM    7  C   UNL     1      -6.128  15.323  68.482  1.00  0.00    -0.094 C  
HETATM    8  C   UNL     1      -8.089  14.097  67.599  1.00  0.00    -0.188 A  
HETATM    9  C   UNL     1      -8.984  16.255  66.114  1.00  0.00    -0.374 A  
HETATM   10  C   UNL     1      -7.338  15.288  67.581  1.00  0.00    -0.201 A  
HETATM   11  C   UNL     1      -7.785  16.413  66.840  1.00  0.00    -0.276 A  
BRANCH   6  12
HETATM   12  N   UNL     1     -10.096  12.829  67.241  1.00  0.00    -0.224 NA 
HETATM   13  H   UNL     1     -10.265  12.277  66.400  1.00  0.00     0.000 HD 
BRANCH  12  14
HETATM   14  C   UNL     1     -10.636  12.292  68.375  1.00  0.00    -0.235 A  
HETATM   15  N   UNL     1     -10.424  10.980  68.707  1.00  0.00    -0.190 NA 
HETATM   16  C   UNL     1     -12.160  12.453  70.094  1.00  0.00    -0.290 A  
HETATM   17  N   UNL     1     -11.516  13.029  69.017  1.00  0.00    -0.285 NA 
HETATM   18  C   UNL     1     -11.204  10.288  69.642  1.00  0.00    -0.269 A  
HETATM   19  C   UNL     1     -12.095  11.172  70.470  1.00  0.00    -0.381 A  
HETATM   20 CL   UNL     1     -13.029  10.523  71.755  1.00  0.00    -0.568 Cl 
BRANCH  18  21
HETATM   21  N   UNL     1     -11.295   8.995  69.845  1.00  0.00    -0.434 NA 
HETATM   22  H   UNL     1     -11.819   8.411  69.193  1.00  0.00     0.000 HD 
BRANCH  21  23
HETATM   23  C   UNL     1     -10.673   8.416  70.958  1.00  0.00    -0.223 A  
HETATM   24  C   UNL     1     -11.468   7.860  71.972  1.00  0.00    -0.351 A  
HETATM   25  C   UNL     1     -10.952   7.637  73.243  1.00  0.00    -0.331 A  
HETATM   26  C   UNL     1      -9.610   7.895  73.490  1.00  0.00    -0.281 A  
HETATM   27  C   UNL     1      -8.766   8.266  72.443  1.00  0.00    -0.279 A  
HETATM   28  C   UNL     1      -9.289   8.482  71.159  1.00  0.00    -0.196 A  
BRANCH  28  29
HETATM   29  S   UNL     1      -8.124   8.398  69.789  1.00  0.00    -0.119 S  
HETATM   30  O   UNL     1      -8.926   8.333  68.578  1.00  0.00    -0.137 OA 
HETATM   31  O   UNL     1      -7.243   9.539  69.973  1.00  0.00    -0.072 OA 
BRANCH  29  32
HETATM   32  C   UNL     1      -7.141   6.907  69.825  1.00  0.00    -0.068 C  
HETATM   33  C   UNL     1      -6.873   6.340  68.428  1.00  0.00    -0.071 C  
HETATM   34  C   UNL     1      -5.800   7.204  70.514  1.00  0.00    -0.027 C  
ENDBRANCH  29  32
ENDBRANCH  28  29
ENDBRANCH  21  23
ENDBRANCH  18  21
ENDBRANCH  12  14
ENDBRANCH   6  12
BRANCH  11  35
HETATM   35  C   UNL     1      -6.934  17.700  66.843  1.00  0.00    -0.219 C  
HETATM   36  C   UNL     1      -7.300  18.636  65.674  1.00  0.00    -0.096 C  
HETATM   37  C   UNL     1      -8.516  19.491  65.992  1.00  0.00    -0.233 C  
HETATM   38  N   UNL     1      -8.226  20.353  67.128  1.00  0.00    -0.399 NA 
HETATM   39  H   UNL     1      -8.980  21.019  67.294  1.00  0.00     0.000 HD 
HETATM   40  C   UNL     1      -7.926  19.576  68.330  1.00  0.00    -0.333 C  
HETATM   41  C   UNL     1      -6.806  18.560  68.122  1.00  0.00    -0.238 C  
ENDBRANCH  11  35
ENDBRANCH   4   5
ENDBRANCH   2   4
TORSDOF 9
ENDMDL
MODEL      149
REMARK 921   NORMALIZED FREE ENERGY PREDICTED BY IDOCK:   -4.90 KCAL/MOL
REMARK 922        TOTAL FREE ENERGY PREDICTED BY IDOCK:   -9.65 KCAL/MOL
REMARK 923 INTER-LIGAND FREE ENERGY PREDICTED BY IDOCK:   -7.11 KCAL/MOL
REMARK 924 INTRA-LIGAND FREE ENERGY PREDICTED BY IDOCK:   -2.55 KCAL/MOL
REMARK 927      BINDING AFFINITY PREDICTED BY RF-SCORE:    0.00 PKD
ROOT
HETATM    1  C   UNL     1     -12.227   6.198  72.315  1.00  0.00    -0.175 C  
HETATM    2  C   UNL     1     -13.023   7.052  71.329  1.00  0.00    -0.297 C  
HETATM    3  C   UNL     1     -13.584   8.277  72.058  1.00  0.00    -0.360 C  
ENDROOT
BRANCH   2   4
HETATM    4  O   UNL     1     -12.146   7.391  70.228  1.00  0.00    -0.040 OA 
BRANCH   4   5
HETATM    5  C   UNL     1     -10.812   7.567  70.531  1.00  0.00    -0.240 A  
HETATM    6  C   UNL     1     -10.252   8.784  70.954  1.00  0.00    -0.226 A  
HETATM    7  C   UNL     1      -6.733   7.757  71.873  1.00  0.00    -0.056 C  
HETATM    8  C   UNL     1      -8.986   8.726  71.532  1.00  0.00    -0.306 A  
HETATM    9  C   UNL     1     -10.006   6.399  70.433  1.00  0.00    -0.213 A  
HETATM   10  C   UNL     1      -8.169   7.581  71.443  1.00  0.00    -0.106 A  
HETATM   11  C   UNL     1      -8.665   6.382  70.869  1.00  0.00    -0.136 A  
BRANCH   6  12
HETATM   12  N   UNL     1     -10.914  10.026  70.940  1.00  0.00    -0.324 NA 
HETATM   13  H   UNL     1     -11.300  10.300  71.844  1.00  0.00     0.000 HD 
BRANCH  12  14
HETATM   14  C   UNL     1     -11.137  10.935  69.944  1.00  0.00    -0.241 A  
HETATM   15  N   UNL     1     -10.535  10.805  68.720  1.00  0.00    -0.187 NA 
HETATM   16  C   UNL     1     -11.913  13.009  69.313  1.00  0.00    -0.278 A  
HETATM   17  N   UNL     1     -11.788  12.028  70.277  1.00  0.00    -0.314 NA 
HETATM   18  C   UNL     1     -10.445  11.851  67.793  1.00  0.00    -0.202 A  
HETATM   19  C   UNL     1     -11.317  13.032  68.116  1.00  0.00    -0.294 A  
HETATM   20 CL   UNL     1     -11.441  14.357  67.033  1.00  0.00    -0.357 Cl 
BRANCH  18  21
HETATM   21  N   UNL     1      -9.677  11.952  66.734  1.00  0.00    -0.200 NA 
HETATM   22  H   UNL     1     -10.057  12.314  65.860  1.00  0.00     0.000 HD 
BRANCH  21  23
HETATM   23  C   UNL     1      -8.334  11.561  66.805  1.00  0.00    -0.165 A  
HETATM   24  C   UNL     1      -7.473  12.236  67.683  1.00  0.00    -0.134 A  
HETATM   25  C   UNL     1      -6.094  12.173  67.521  1.00  0.00    -0.124 A  
HETATM   26  C   UNL     1      -5.560  11.366  66.523  1.00  0.00    -0.142 A  
HETATM   27  C   UNL     1      -6.397  10.544  65.769  1.00  0.00    -0.129 A  
HETATM   28  C   UNL     1      -7.788  10.604  65.942  1.00  0.00    -0.150 A  
BRANCH  28  29
HETATM   29  S   UNL     1      -8.733   9.177  65.383  1.00  0.00    -0.196 S  
HETATM   30  O   UNL     1     -10.109   9.629  65.249  1.00  0.00    -0.237 OA 
HETATM   31  O   UNL     1      -8.040   8.709  64.193  1.00  0.00    -0.149 OA 
BRANCH  29  32
HETATM   32  C   UNL     1      -8.749   7.860  66.589  1.00  0.00    -0.142 C  
HETATM   33  C   UNL     1      -8.076   8.255  67.906  1.00  0.00    -0.127 C  
HETATM   34  C   UNL     1     -10.204   7.451  66.869  1.00  0.00    -0.346 C  
ENDBRANCH  29  32
ENDBRANCH  28  29
ENDBRANCH  21  23
ENDBRANCH  18  21
ENDBRANCH  12  14
ENDBRANCH   6  12
BRANCH  11  35
HETATM   35  C   UNL     1      -7.740   5.149  70.791  1.00  0.00    -0.080 C  
HETATM   36  C   UNL     1      -8.494   3.843  71.109  1.00  0.00    -0.099 C  
HETATM   37  C   UNL     1      -9.238   3.308  69.896  1.00  0.00    -0.152 C  
HETATM   38  N   UNL     1      -8.287   2.984  68.842  1.00  0.00    -0.059 NA 
HETATM   39  H   UNL     1      -8.744   2.517  68.059  1.00  0.00     0.000 HD 
HETATM   40  C   UNL     1      -7.549   4.166  68.402  1.00  0.00    -0.066 C  
HETATM   41  C   UNL     1      -6.857   4.901  69.546  1.00  0.00    -0.053 C  
ENDBRANCH  11  35
ENDBRANCH   4   5
ENDBRANCH   2   4
TORSDOF 9
ENDMDL
MODEL      150
REMARK 921   NORMALIZED FREE ENERGY PREDICTED BY IDOCK:   -4.79 KCAL/MOL
REMARK 922        TOTAL FREE ENERGY PREDICTED BY IDOCK:   -9.49 KCAL/MOL
REMARK 923 INTER-LIGAND FREE ENERGY PREDICTED BY IDOCK:   -7.67 KCAL/MOL
REMARK 924 INTRA-LIGAND FREE ENERGY PREDICTED BY IDOCK:   -1.82 KCAL/MOL
REMARK 927      BINDING AFFINITY PREDICTED BY RF-SCORE:    0.00 PKD
ROOT
HETATM    1  C   UNL     1     -11.284   9.357  70.501  1.00  0.00    -0.329 C  
HETATM    2  C   UNL     1     -10.759   7.945  70.243  1.00  0.00    -0.236 C  
HETATM    3  C   UNL     1     -11.847   6.928  70.603  1.00  0.00    -0.418 C  
ENDROOT
BRANCH   2   4
HETATM    4  O   UNL     1     -10.342   7.873  68.859  1.00  0.00    -0.210 OA 
BRANCH   4   5
HETATM    5  C   UNL     1      -9.045   7.468  68.623  1.00  0.00    -0.134 A  
HETATM    6  C   UNL     1      -7.919   8.014  69.261  1.00  0.00    -0.116 A  
HETATM    7  C   UNL     1      -5.154   5.723  68.083  1.00  0.00    -0.004 C  
HETATM    8  C   UNL     1      -6.732   7.290  69.170  1.00  0.00    -0.049 A  
HETATM    9  C   UNL     1      -8.900   6.395  67.700  1.00  0.00    -0.112 A  
HETATM   10  C   UNL     1      -6.565   6.228  68.260  1.00  0.00    -0.062 A  
HETATM   11  C   UNL     1      -7.657   5.764  67.483  1.00  0.00    -0.093 A  
BRANCH   6  12
HETATM   12  N   UNL     1      -7.928   9.168  70.068  1.00  0.00    -0.099 NA 
HETATM   13  H   UNL     1      -8.299   9.014  71.006  1.00  0.00     0.000 HD 
BRANCH  12  14
HETATM   14  C   UNL     1      -7.532  10.455  69.832  1.00  0.00    -0.125 A  
HETATM   15  N   UNL     1      -8.275  11.289  69.038  1.00  0.00    -0.078 NA 
HETATM   16  C   UNL     1      -5.866  12.042  69.898  1.00  0.00    -0.139 A  
HETATM   17  N   UNL     1      -6.325  10.785  70.236  1.00  0.00    -0.166 NA 
HETATM   18  C   UNL     1      -7.771  12.475  68.488  1.00  0.00    -0.113 A  
HETATM   19  C   UNL     1      -6.459  12.914  69.075  1.00  0.00    -0.103 A  
HETATM   20 CL   UNL     1      -5.747  14.408  68.621  1.00  0.00    -0.084 Cl 
BRANCH  18  21
HETATM   21  N   UNL     1      -8.260  13.204  67.512  1.00  0.00    -0.171 NA 
HETATM   22  H   UNL     1      -7.819  13.187  66.593  1.00  0.00     0.000 HD 
BRANCH  21  23
HETATM   23  C   UNL     1      -9.386  14.005  67.734  1.00  0.00    -0.205 A  
HETATM   24  C   UNL     1      -9.259  15.157  68.526  1.00  0.00    -0.192 A  
HETATM   25  C   UNL     1     -10.375  15.757  69.098  1.00  0.00    -0.240 A  
HETATM   26  C   UNL     1     -11.640  15.256  68.816  1.00  0.00    -0.379 A  
HETATM   27  C   UNL     1     -11.792  14.232  67.881  1.00  0.00    -0.393 A  
HETATM   28  C   UNL     1     -10.664  13.634  67.299  1.00  0.00    -0.279 A  
BRANCH  28  29
HETATM   29  S   UNL     1     -10.924  12.760  65.747  1.00  0.00    -0.284 S  
HETATM   30  O   UNL     1     -12.342  12.439  65.695  1.00  0.00    -0.639 OA 
HETATM   31  O   UNL     1     -10.376  13.637  64.725  1.00  0.00    -0.400 OA 
BRANCH  29  32
HETATM   32  C   UNL     1     -10.051  11.203  65.691  1.00  0.00    -0.253 C  
HETATM   33  C   UNL     1     -10.589  10.186  66.702  1.00  0.00    -0.214 C  
HETATM   34  C   UNL     1     -10.164  10.613  64.275  1.00  0.00    -0.391 C  
ENDBRANCH  29  32
ENDBRANCH  28  29
ENDBRANCH  21  23
ENDBRANCH  18  21
ENDBRANCH  12  14
ENDBRANCH   6  12
BRANCH  11  35
HETATM   35  C   UNL     1      -7.435   4.597  66.498  1.00  0.00    -0.082 C  
HETATM   36  C   UNL     1      -7.695   3.228  67.158  1.00  0.00    -0.078 C  
HETATM   37  C   UNL     1      -9.174   2.877  67.172  1.00  0.00    -0.159 C  
HETATM   38  N   UNL     1      -9.666   2.771  65.806  1.00  0.00    -0.362 NA 
HETATM   39  H   UNL     1     -10.625   2.426  65.780  1.00  0.00     0.000 HD 
HETATM   40  C   UNL     1      -9.535   4.038  65.088  1.00  0.00    -0.172 C  
HETATM   41  C   UNL     1      -8.115   4.595  65.109  1.00  0.00    -0.104 C  
ENDBRANCH  11  35
ENDBRANCH   4   5
ENDBRANCH   2   4
TORSDOF 9
ENDMDL
MODEL      151
REMARK 921   NORMALIZED FREE ENERGY PREDICTED BY IDOCK:   -4.76 KCAL/MOL
REMARK 922        TOTAL FREE ENERGY PREDICTED BY IDOCK:   -9.44 KCAL/MOL
REMARK 923 INTER-LIGAND FREE ENERGY PREDICTED BY IDOCK:   -7.54 KCAL/MOL
REMARK 924 INTRA-LIGAND FREE ENERGY PREDICTED BY IDOCK:   -1.90 KCAL/MOL
REMARK 927      BINDING AFFINITY PREDICTED BY RF-SCORE:    0.00 PKD
ROOT
HETATM    1  C   UNL     1     -12.242  11.027  69.356  1.00  0.00    -0.329 C  
HETATM    2  C   UNL     1     -10.792  10.633  69.637  1.00  0.00    -0.268 C  
HETATM    3  C   UNL     1     -10.709   9.963  71.012  1.00  0.00    -0.241 C  
ENDROOT
BRANCH   2   4
HETATM    4  O   UNL     1     -10.347   9.780  68.556  1.00  0.00    -0.186 OA 
BRANCH   4   5
HETATM    5  C   UNL     1     -10.260  10.357  67.306  1.00  0.00    -0.211 A  
HETATM    6  C   UNL     1     -10.243   9.634  66.102  1.00  0.00    -0.205 A  
HETATM    7  C   UNL     1     -10.465  12.389  63.524  1.00  0.00    -0.430 C  
HETATM    8  C   UNL     1     -10.484  10.354  64.934  1.00  0.00    -0.116 A  
HETATM    9  C   UNL     1     -10.233  11.779  67.293  1.00  0.00    -0.226 A  
HETATM   10  C   UNL     1     -10.458  11.762  64.897  1.00  0.00    -0.334 A  
HETATM   11  C   UNL     1     -10.313  12.513  66.091  1.00  0.00    -0.274 A  
BRANCH   6  12
HETATM   12  N   UNL     1     -10.111   8.236  66.001  1.00  0.00    -0.393 NA 
HETATM   13  H   UNL     1     -10.973   7.758  65.736  1.00  0.00     0.000 HD 
BRANCH  12  14
HETATM   14  C   UNL     1      -9.048   7.399  66.189  1.00  0.00    -0.126 A  
HETATM   15  N   UNL     1      -8.877   6.728  67.371  1.00  0.00    -0.117 NA 
HETATM   16  C   UNL     1      -6.973   6.673  65.506  1.00  0.00    -0.060 A  
HETATM   17  N   UNL     1      -8.108   7.421  65.269  1.00  0.00    -0.127 NA 
HETATM   18  C   UNL     1      -7.664   6.139  67.752  1.00  0.00    -0.098 A  
HETATM   19  C   UNL     1      -6.657   6.039  66.640  1.00  0.00    -0.059 A  
HETATM   20 CL   UNL     1      -5.161   5.233  66.878  1.00  0.00    -0.008 Cl 
BRANCH  18  21
HETATM   21  N   UNL     1      -7.285   5.724  68.938  1.00  0.00    -0.079 NA 
HETATM   22  H   UNL     1      -6.601   6.260  69.471  1.00  0.00     0.000 HD 
BRANCH  21  23
HETATM   23  C   UNL     1      -7.819   4.544  69.469  1.00  0.00    -0.058 A  
HETATM   24  C   UNL     1      -7.299   3.310  69.050  1.00  0.00    -0.049 A  
HETATM   25  C   UNL     1      -8.020   2.135  69.224  1.00  0.00    -0.057 A  
HETATM   26  C   UNL     1      -9.237   2.173  69.894  1.00  0.00    -0.182 A  
HETATM   27  C   UNL     1      -9.672   3.361  70.482  1.00  0.00    -0.161 A  
HETATM   28  C   UNL     1      -8.938   4.544  70.311  1.00  0.00    -0.090 A  
BRANCH  28  29
HETATM   29  S   UNL     1      -9.224   5.852  71.514  1.00  0.00    -0.145 S  
HETATM   30  O   UNL     1      -9.141   5.225  72.823  1.00  0.00    -0.133 OA 
HETATM   31  O   UNL     1      -8.259   6.887  71.181  1.00  0.00    -0.116 OA 
BRANCH  29  32
HETATM   32  C   UNL     1     -10.866   6.543  71.387  1.00  0.00    -0.245 C  
HETATM   33  C   UNL     1     -11.430   6.471  69.965  1.00  0.00    -0.476 C  
HETATM   34  C   UNL     1     -11.806   5.786  72.340  1.00  0.00    -0.227 C  
ENDBRANCH  29  32
ENDBRANCH  28  29
ENDBRANCH  21  23
ENDBRANCH  18  21
ENDBRANCH  12  14
ENDBRANCH   6  12
BRANCH  11  35
HETATM   35  C   UNL     1     -10.290  14.054  66.010  1.00  0.00    -0.312 C  
HETATM   36  C   UNL     1     -11.658  14.670  66.365  1.00  0.00    -0.343 C  
HETATM   37  C   UNL     1     -11.851  14.796  67.867  1.00  0.00    -0.297 C  
HETATM   38  N   UNL     1     -10.845  15.692  68.418  1.00  0.00    -0.277 NA 
HETATM   39  H   UNL     1     -11.017  15.887  69.404  1.00  0.00     0.000 HD 
HETATM   40  C   UNL     1      -9.492  15.180  68.203  1.00  0.00    -0.201 C  
HETATM   41  C   UNL     1      -9.195  14.867  66.739  1.00  0.00    -0.281 C  
ENDBRANCH  11  35
ENDBRANCH   4   5
ENDBRANCH   2   4
TORSDOF 9
ENDMDL
MODEL      152
REMARK 921   NORMALIZED FREE ENERGY PREDICTED BY IDOCK:   -4.75 KCAL/MOL
REMARK 922        TOTAL FREE ENERGY PREDICTED BY IDOCK:   -9.41 KCAL/MOL
REMARK 923 INTER-LIGAND FREE ENERGY PREDICTED BY IDOCK:   -8.11 KCAL/MOL
REMARK 924 INTRA-LIGAND FREE ENERGY PREDICTED BY IDOCK:   -1.30 KCAL/MOL
REMARK 927      BINDING AFFINITY PREDICTED BY RF-SCORE:    0.00 PKD
ROOT
HETATM    1  C   UNL     1      -8.262   7.100  65.396  1.00  0.00    -0.137 C  
HETATM    2  C   UNL     1      -9.205   7.415  66.557  1.00  0.00    -0.165 C  
HETATM    3  C   UNL     1     -10.023   6.166  66.898  1.00  0.00    -0.211 C  
ENDROOT
BRANCH   2   4
HETATM    4  O   UNL     1      -8.401   7.894  67.663  1.00  0.00    -0.122 OA 
BRANCH   4   5
HETATM    5  C   UNL     1      -9.060   8.125  68.852  1.00  0.00    -0.147 A  
HETATM    6  C   UNL     1     -10.121   9.033  69.003  1.00  0.00    -0.195 A  
HETATM    7  C   UNL     1     -11.268   8.330  72.535  1.00  0.00    -0.446 C  
HETATM    8  C   UNL     1     -10.889   8.916  70.159  1.00  0.00    -0.251 A  
HETATM    9  C   UNL     1      -8.626   7.336  69.953  1.00  0.00    -0.141 A  
HETATM   10  C   UNL     1     -10.476   8.144  71.263  1.00  0.00    -0.254 A  
HETATM   11  C   UNL     1      -9.310   7.340  71.186  1.00  0.00    -0.156 A  
BRANCH   6  12
HETATM   12  N   UNL     1     -10.529   9.968  68.032  1.00  0.00    -0.203 NA 
HETATM   13  H   UNL     1     -10.490   9.615  67.075  1.00  0.00     0.000 HD 
BRANCH  12  14
HETATM   14  C   UNL     1     -10.968  11.259  68.129  1.00  0.00    -0.231 A  
HETATM   15  N   UNL     1     -10.471  12.238  67.309  1.00  0.00    -0.216 NA 
HETATM   16  C   UNL     1     -12.079  12.872  69.338  1.00  0.00    -0.198 A  
HETATM   17  N   UNL     1     -11.730  11.548  69.161  1.00  0.00    -0.300 NA 
HETATM   18  C   UNL     1     -10.614  13.606  67.573  1.00  0.00    -0.241 A  
HETATM   19  C   UNL     1     -11.607  13.920  68.657  1.00  0.00    -0.328 A  
HETATM   20 CL   UNL     1     -12.013  15.544  69.034  1.00  0.00    -0.356 Cl 
BRANCH  18  21
HETATM   21  N   UNL     1      -9.968  14.620  67.045  1.00  0.00    -0.243 NA 
HETATM   22  H   UNL     1     -10.343  15.089  66.221  1.00  0.00     0.000 HD 
BRANCH  21  23
HETATM   23  C   UNL     1      -8.767  15.056  67.614  1.00  0.00    -0.176 A  
HETATM   24  C   UNL     1      -7.681  14.169  67.681  1.00  0.00    -0.186 A  
HETATM   25  C   UNL     1      -6.628  14.394  68.560  1.00  0.00    -0.094 A  
HETATM   26  C   UNL     1      -6.612  15.554  69.325  1.00  0.00    -0.147 A  
HETATM   27  C   UNL     1      -7.586  16.532  69.127  1.00  0.00    -0.210 A  
HETATM   28  C   UNL     1      -8.643  16.306  68.234  1.00  0.00    -0.196 A  
BRANCH  28  29
HETATM   29  S   UNL     1      -9.505  17.762  67.618  1.00  0.00    -0.259 S  
HETATM   30  O   UNL     1     -10.322  17.308  66.504  1.00  0.00    -0.321 OA 
HETATM   31  O   UNL     1     -10.172  18.324  68.781  1.00  0.00    -0.378 OA 
BRANCH  29  32
HETATM   32  C   UNL     1      -8.384  18.985  66.957  1.00  0.00    -0.276 C  
HETATM   33  C   UNL     1      -7.375  18.390  65.970  1.00  0.00    -0.273 C  
HETATM   34  C   UNL     1      -9.195  20.082  66.249  1.00  0.00    -0.426 C  
ENDBRANCH  29  32
ENDBRANCH  28  29
ENDBRANCH  21  23
ENDBRANCH  18  21
ENDBRANCH  12  14
ENDBRANCH   6  12
BRANCH  11  35
HETATM   35  C   UNL     1      -8.891   6.507  72.416  1.00  0.00    -0.133 C  
HETATM   36  C   UNL     1      -9.551   5.114  72.420  1.00  0.00    -0.176 C  
HETATM   37  C   UNL     1      -8.795   4.125  71.547  1.00  0.00    -0.112 C  
HETATM   38  N   UNL     1      -7.449   3.940  72.069  1.00  0.00    -0.059 NA 
HETATM   39  H   UNL     1      -6.955   3.198  71.573  1.00  0.00     0.000 HD 
HETATM   40  C   UNL     1      -6.690   5.190  72.054  1.00  0.00    -0.052 C  
HETATM   41  C   UNL     1      -7.398   6.330  72.779  1.00  0.00    -0.092 C  
ENDBRANCH  11  35
ENDBRANCH   4   5
ENDBRANCH   2   4
TORSDOF 9
ENDMDL
MODEL      153
REMARK 921   NORMALIZED FREE ENERGY PREDICTED BY IDOCK:   -4.72 KCAL/MOL
REMARK 922        TOTAL FREE ENERGY PREDICTED BY IDOCK:   -9.36 KCAL/MOL
REMARK 923 INTER-LIGAND FREE ENERGY PREDICTED BY IDOCK:  -11.13 KCAL/MOL
REMARK 924 INTRA-LIGAND FREE ENERGY PREDICTED BY IDOCK:    1.77 KCAL/MOL
REMARK 927      BINDING AFFINITY PREDICTED BY RF-SCORE:    0.00 PKD
ROOT
HETATM    1  C   UNL     1      -8.621  16.489  66.043  1.00  0.00    -0.241 C  
HETATM    2  C   UNL     1      -9.861  16.891  66.840  1.00  0.00    -0.276 C  
HETATM    3  C   UNL     1     -10.237  18.336  66.497  1.00  0.00    -0.409 C  
ENDROOT
BRANCH   2   4
HETATM    4  O   UNL     1     -10.910  15.939  66.538  1.00  0.00    -0.291 OA 
BRANCH   4   5
HETATM    5  C   UNL     1     -11.348  15.149  67.580  1.00  0.00    -0.320 A  
HETATM    6  C   UNL     1     -11.227  13.750  67.614  1.00  0.00    -0.293 A  
HETATM    7  C   UNL     1     -12.351  12.946  71.132  1.00  0.00    -0.262 C  
HETATM    8  C   UNL     1     -11.408  13.134  68.850  1.00  0.00    -0.335 A  
HETATM    9  C   UNL     1     -11.910  15.851  68.682  1.00  0.00    -0.243 A  
HETATM   10  C   UNL     1     -11.966  13.807  69.954  1.00  0.00    -0.412 A  
HETATM   11  C   UNL     1     -12.248  15.197  69.885  1.00  0.00    -0.353 A  
BRANCH   6  12
HETATM   12  N   UNL     1     -10.833  12.946  66.527  1.00  0.00    -0.268 NA 
HETATM   13  H   UNL     1     -10.628  13.471  65.677  1.00  0.00     0.000 HD 
BRANCH  12  14
HETATM   14  C   UNL     1     -10.672  11.595  66.396  1.00  0.00    -0.272 A  
HETATM   15  N   UNL     1     -11.112  10.734  67.367  1.00  0.00    -0.312 NA 
HETATM   16  C   UNL     1      -9.642   9.832  65.334  1.00  0.00    -0.292 A  
HETATM   17  N   UNL     1      -9.912  11.184  65.405  1.00  0.00    -0.245 NA 
HETATM   18  C   UNL     1     -10.686   9.402  67.462  1.00  0.00    -0.222 A  
HETATM   19  C   UNL     1      -9.948   8.907  66.249  1.00  0.00    -0.266 A  
HETATM   20 CL   UNL     1      -9.461   7.267  66.124  1.00  0.00    -0.123 Cl 
BRANCH  18  21
HETATM   21  N   UNL     1     -10.799   8.570  68.470  1.00  0.00    -0.437 NA 
HETATM   22  H   UNL     1     -11.596   7.935  68.520  1.00  0.00     0.000 HD 
BRANCH  21  23
HETATM   23  C   UNL     1      -9.826   8.553  69.476  1.00  0.00    -0.187 A  
HETATM   24  C   UNL     1      -9.082   9.717  69.724  1.00  0.00    -0.246 A  
HETATM   25  C   UNL     1      -7.872   9.660  70.406  1.00  0.00    -0.181 A  
HETATM   26  C   UNL     1      -7.434   8.444  70.918  1.00  0.00    -0.066 A  
HETATM   27  C   UNL     1      -8.256   7.319  70.844  1.00  0.00    -0.115 A  
HETATM   28  C   UNL     1      -9.480   7.383  70.162  1.00  0.00    -0.165 A  
BRANCH  28  29
HETATM   29  S   UNL     1     -10.701   6.127  70.576  1.00  0.00    -0.301 S  
HETATM   30  O   UNL     1     -11.540   5.973  69.398  1.00  0.00    -0.275 OA 
HETATM   31  O   UNL     1      -9.925   4.983  71.027  1.00  0.00    -0.188 OA 
BRANCH  29  32
HETATM   32  C   UNL     1     -11.781   6.642  71.902  1.00  0.00    -0.313 C  
HETATM   33  C   UNL     1     -11.079   7.542  72.922  1.00  0.00    -0.426 C  
HETATM   34  C   UNL     1     -12.983   7.395  71.308  1.00  0.00    -0.358 C  
ENDBRANCH  29  32
ENDBRANCH  28  29
ENDBRANCH  21  23
ENDBRANCH  18  21
ENDBRANCH  12  14
ENDBRANCH   6  12
BRANCH  11  35
HETATM   35  C   UNL     1     -12.858  15.900  71.115  1.00  0.00    -0.281 C  
HETATM   36  C   UNL     1     -14.249  15.336  71.470  1.00  0.00    -0.629 C  
HETATM   37  C   UNL     1     -14.151  14.066  72.300  1.00  0.00    -0.535 C  
HETATM   38  N   UNL     1     -13.493  14.356  73.565  1.00  0.00    -0.149 NA 
HETATM   39  H   UNL     1     -13.514  13.551  74.190  1.00  0.00     0.000 HD 
HETATM   40  C   UNL     1     -12.128  14.840  73.364  1.00  0.00    -0.215 C  
HETATM   41  C   UNL     1     -12.051  16.041  72.426  1.00  0.00    -0.629 C  
ENDBRANCH  11  35
ENDBRANCH   4   5
ENDBRANCH   2   4
TORSDOF 9
ENDMDL
MODEL      154
REMARK 921   NORMALIZED FREE ENERGY PREDICTED BY IDOCK:   -4.71 KCAL/MOL
REMARK 922        TOTAL FREE ENERGY PREDICTED BY IDOCK:   -9.36 KCAL/MOL
REMARK 923 INTER-LIGAND FREE ENERGY PREDICTED BY IDOCK:   -8.15 KCAL/MOL
REMARK 924 INTRA-LIGAND FREE ENERGY PREDICTED BY IDOCK:   -1.21 KCAL/MOL
REMARK 927      BINDING AFFINITY PREDICTED BY RF-SCORE:    0.00 PKD
ROOT
HETATM    1  C   UNL     1      -5.279   8.224  68.515  1.00  0.00    -0.032 C  
HETATM    2  C   UNL     1      -6.362   8.539  69.546  1.00  0.00    -0.040 C  
HETATM    3  C   UNL     1      -6.041   9.876  70.223  1.00  0.00    -0.074 C  
ENDROOT
BRANCH   2   4
HETATM    4  O   UNL     1      -7.639   8.535  68.864  1.00  0.00    -0.092 OA 
BRANCH   4   5
HETATM    5  C   UNL     1      -8.709   9.072  69.549  1.00  0.00    -0.144 A  
HETATM    6  C   UNL     1      -9.350  10.271  69.195  1.00  0.00    -0.204 A  
HETATM    7  C   UNL     1     -12.314  10.301  71.541  1.00  0.00    -0.488 C  
HETATM    8  C   UNL     1     -10.599  10.507  69.768  1.00  0.00    -0.274 A  
HETATM    9  C   UNL     1      -9.178   8.300  70.647  1.00  0.00    -0.167 A  
HETATM   10  C   UNL     1     -11.082   9.759  70.859  1.00  0.00    -0.428 A  
HETATM   11  C   UNL     1     -10.362   8.633  71.338  1.00  0.00    -0.331 A  
BRANCH   6  12
HETATM   12  N   UNL     1      -8.882  11.185  68.233  1.00  0.00    -0.149 NA 
HETATM   13  H   UNL     1      -9.279  11.046  67.303  1.00  0.00     0.000 HD 
BRANCH  12  14
HETATM   14  C   UNL     1      -7.997  12.223  68.309  1.00  0.00    -0.163 A  
HETATM   15  N   UNL     1      -8.342  13.404  68.912  1.00  0.00     0.109 NA 
HETATM   16  C   UNL     1      -6.041  13.196  67.582  1.00  0.00    -0.146 A  
HETATM   17  N   UNL     1      -6.888  12.106  67.612  1.00  0.00    -0.105 NA 
HETATM   18  C   UNL     1      -7.631  14.597  68.729  1.00  0.00    -0.138 A  
HETATM   19  C   UNL     1      -6.294  14.417  68.065  1.00  0.00    -0.155 A  
HETATM   20 CL   UNL     1      -5.223  15.743  67.870  1.00  0.00    -0.130 Cl 
BRANCH  18  21
HETATM   21  N   UNL     1      -7.996  15.826  69.007  1.00  0.00    -0.197 NA 
HETATM   22  H   UNL     1      -7.796  16.222  69.926  1.00  0.00     0.000 HD 
BRANCH  21  23
HETATM   23  C   UNL     1      -8.660  16.594  68.043  1.00  0.00    -0.193 A  
HETATM   24  C   UNL     1      -7.908  17.242  67.051  1.00  0.00    -0.243 A  
HETATM   25  C   UNL     1      -8.442  18.304  66.330  1.00  0.00    -0.266 A  
HETATM   26  C   UNL     1      -9.765  18.676  66.540  1.00  0.00    -0.369 A  
HETATM   27  C   UNL     1     -10.577  17.917  67.384  1.00  0.00    -0.370 A  
HETATM   28  C   UNL     1     -10.036  16.841  68.104  1.00  0.00    -0.282 A  
BRANCH  28  29
HETATM   29  S   UNL     1     -11.200  15.604  68.699  1.00  0.00    -0.358 S  
HETATM   30  O   UNL     1     -10.492  14.834  69.710  1.00  0.00    -0.175 OA 
HETATM   31  O   UNL     1     -12.377  16.356  69.101  1.00  0.00     0.129 OA 
BRANCH  29  32
HETATM   32  C   UNL     1     -11.672  14.446  67.423  1.00  0.00    -0.397 C  
HETATM   33  C   UNL     1     -10.623  14.329  66.313  1.00  0.00    -0.291 C  
HETATM   34  C   UNL     1     -11.894  13.062  68.054  1.00  0.00    -0.391 C  
ENDBRANCH  29  32
ENDBRANCH  28  29
ENDBRANCH  21  23
ENDBRANCH  18  21
ENDBRANCH  12  14
ENDBRANCH   6  12
BRANCH  11  35
HETATM   35  C   UNL     1     -10.924   7.838  72.534  1.00  0.00    -0.395 C  
HETATM   36  C   UNL     1     -11.721   6.599  72.079  1.00  0.00    -0.354 C  
HETATM   37  C   UNL     1     -10.810   5.419  71.778  1.00  0.00    -0.174 C  
HETATM   38  N   UNL     1     -10.101   5.026  72.987  1.00  0.00    -0.164 NA 
HETATM   39  H   UNL     1      -9.569   4.167  72.845  1.00  0.00     0.000 HD 
HETATM   40  C   UNL     1      -9.249   6.105  73.485  1.00  0.00    -0.131 C  
HETATM   41  C   UNL     1     -10.005   7.413  73.703  1.00  0.00    -0.379 C  
ENDBRANCH  11  35
ENDBRANCH   4   5
ENDBRANCH   2   4
TORSDOF 9
ENDMDL
MODEL      155
REMARK 921   NORMALIZED FREE ENERGY PREDICTED BY IDOCK:   -4.71 KCAL/MOL
REMARK 922        TOTAL FREE ENERGY PREDICTED BY IDOCK:   -9.36 KCAL/MOL
REMARK 923 INTER-LIGAND FREE ENERGY PREDICTED BY IDOCK:   -8.86 KCAL/MOL
REMARK 924 INTRA-LIGAND FREE ENERGY PREDICTED BY IDOCK:   -0.50 KCAL/MOL
REMARK 927      BINDING AFFINITY PREDICTED BY RF-SCORE:    0.00 PKD
ROOT
HETATM    1  C   UNL     1     -11.745  15.523  68.783  1.00  0.00    -0.372 C  
HETATM    2  C   UNL     1     -11.585  14.524  69.928  1.00  0.00    -0.287 C  
HETATM    3  C   UNL     1     -12.783  13.568  69.936  1.00  0.00     0.080 C  
ENDROOT
BRANCH   2   4
HETATM    4  O   UNL     1     -10.315  13.850  69.754  1.00  0.00     0.299 OA 
BRANCH   4   5
HETATM    5  C   UNL     1     -10.203  13.012  68.664  1.00  0.00    -0.164 A  
HETATM    6  C   UNL     1     -10.188  11.610  68.745  1.00  0.00    -0.177 A  
HETATM    7  C   UNL     1     -10.326  10.607  65.103  1.00  0.00    -0.331 C  
HETATM    8  C   UNL     1     -10.402  10.910  67.559  1.00  0.00    -0.237 A  
HETATM    9  C   UNL     1     -10.147  13.662  67.400  1.00  0.00    -0.241 A  
HETATM   10  C   UNL     1     -10.347  11.531  66.297  1.00  0.00    -0.280 A  
HETATM   11  C   UNL     1     -10.199  12.939  66.190  1.00  0.00    -0.286 A  
BRANCH   6  12
HETATM   12  N   UNL     1     -10.084  10.870  69.938  1.00  0.00    -0.360 NA 
HETATM   13  H   UNL     1      -9.179  10.959  70.403  1.00  0.00     0.000 HD 
BRANCH  12  14
HETATM   14  C   UNL     1     -10.965  10.056  70.593  1.00  0.00    -0.322 A  
HETATM   15  N   UNL     1     -10.824   8.693  70.564  1.00  0.00    -0.224 NA 
HETATM   16  C   UNL     1     -13.003   9.797  71.631  1.00  0.00    -0.419 A  
HETATM   17  N   UNL     1     -12.047  10.625  71.076  1.00  0.00    -0.362 NA 
HETATM   18  C   UNL     1     -11.852   7.807  70.911  1.00  0.00    -0.239 A  
HETATM   19  C   UNL     1     -13.017   8.461  71.601  1.00  0.00    -0.334 A  
HETATM   20 CL   UNL     1     -14.314   7.522  72.217  1.00  0.00    -0.264 Cl 
BRANCH  18  21
HETATM   21  N   UNL     1     -11.950   6.521  70.668  1.00  0.00    -0.355 NA 
HETATM   22  H   UNL     1     -12.714   6.167  70.092  1.00  0.00     0.000 HD 
BRANCH  21  23
HETATM   23  C   UNL     1     -11.006   5.635  71.201  1.00  0.00    -0.177 A  
HETATM   24  C   UNL     1     -11.222   5.094  72.477  1.00  0.00    -0.229 A  
HETATM   25  C   UNL     1     -10.174   4.545  73.207  1.00  0.00    -0.223 A  
HETATM   26  C   UNL     1      -8.912   4.459  72.631  1.00  0.00    -0.127 A  
HETATM   27  C   UNL     1      -8.729   4.818  71.296  1.00  0.00    -0.141 A  
HETATM   28  C   UNL     1      -9.791   5.364  70.560  1.00  0.00    -0.203 A  
BRANCH  28  29
HETATM   29  S   UNL     1      -9.661   5.273  68.767  1.00  0.00    -0.146 S  
HETATM   30  O   UNL     1      -9.403   3.878  68.449  1.00  0.00    -0.144 OA 
HETATM   31  O   UNL     1     -10.884   5.880  68.269  1.00  0.00    -0.270 OA 
BRANCH  29  32
HETATM   32  C   UNL     1      -8.268   6.200  68.140  1.00  0.00    -0.114 C  
HETATM   33  C   UNL     1      -8.220   6.233  66.609  1.00  0.00    -0.111 C  
HETATM   34  C   UNL     1      -8.341   7.640  68.672  1.00  0.00    -0.129 C  
ENDBRANCH  29  32
ENDBRANCH  28  29
ENDBRANCH  21  23
ENDBRANCH  18  21
ENDBRANCH  12  14
ENDBRANCH   6  12
BRANCH  11  35
HETATM   35  C   UNL     1     -10.144  13.583  64.789  1.00  0.00    -0.267 C  
HETATM   36  C   UNL     1     -11.067  12.862  63.787  1.00  0.00    -0.424 C  
HETATM   37  C   UNL     1     -12.507  13.337  63.900  1.00  0.00    -0.257 C  
HETATM   38  N   UNL     1     -12.583  14.754  63.578  1.00  0.00    -0.830 NA 
HETATM   39  H   UNL     1     -13.550  15.076  63.534  1.00  0.00     0.000 HD 
HETATM   40  C   UNL     1     -11.794  15.560  64.509  1.00  0.00    -0.216 C  
HETATM   41  C   UNL     1     -10.341  15.106  64.611  1.00  0.00     0.023 C  
ENDBRANCH  11  35
ENDBRANCH   4   5
ENDBRANCH   2   4
TORSDOF 9
ENDMDL
MODEL      156
REMARK 921   NORMALIZED FREE ENERGY PREDICTED BY IDOCK:   -4.70 KCAL/MOL
REMARK 922        TOTAL FREE ENERGY PREDICTED BY IDOCK:   -9.35 KCAL/MOL
REMARK 923 INTER-LIGAND FREE ENERGY PREDICTED BY IDOCK:   -8.94 KCAL/MOL
REMARK 924 INTRA-LIGAND FREE ENERGY PREDICTED BY IDOCK:   -0.41 KCAL/MOL
REMARK 927      BINDING AFFINITY PREDICTED BY RF-SCORE:    0.00 PKD
ROOT
HETATM    1  C   UNL     1     -12.725  13.721  65.279  1.00  0.00    -0.481 C  
HETATM    2  C   UNL     1     -11.209  13.599  65.134  1.00  0.00    -0.310 C  
HETATM    3  C   UNL     1     -10.874  13.089  63.729  1.00  0.00    -0.266 C  
ENDROOT
BRANCH   2   4
HETATM    4  O   UNL     1     -10.630  14.893  65.427  1.00  0.00    -0.318 OA 
BRANCH   4   5
HETATM    5  C   UNL     1      -9.575  14.913  66.315  1.00  0.00    -0.307 A  
HETATM    6  C   UNL     1      -9.231  13.842  67.156  1.00  0.00    -0.239 A  
HETATM    7  C   UNL     1      -5.967  15.028  68.649  1.00  0.00    -0.088 C  
HETATM    8  C   UNL     1      -7.967  13.885  67.742  1.00  0.00    -0.174 A  
HETATM    9  C   UNL     1      -8.794  16.102  66.306  1.00  0.00    -0.371 A  
HETATM   10  C   UNL     1      -7.178  15.052  67.749  1.00  0.00    -0.186 A  
HETATM   11  C   UNL     1      -7.590  16.206  67.034  1.00  0.00    -0.260 A  
BRANCH   6  12
HETATM   12  N   UNL     1     -10.013  12.690  67.359  1.00  0.00    -0.203 NA 
HETATM   13  H   UNL     1     -10.302  12.228  66.496  1.00  0.00     0.000 HD 
BRANCH  12  14
HETATM   14  C   UNL     1     -10.460  12.073  68.493  1.00  0.00    -0.229 A  
HETATM   15  N   UNL     1      -9.879  10.917  68.945  1.00  0.00    -0.197 NA 
HETATM   16  C   UNL     1     -12.108  11.835  70.083  1.00  0.00    -0.317 A  
HETATM   17  N   UNL     1     -11.581  12.526  69.010  1.00  0.00    -0.294 NA 
HETATM   18  C   UNL     1     -10.486  10.066  69.877  1.00  0.00    -0.274 A  
HETATM   19  C   UNL     1     -11.680  10.665  70.567  1.00  0.00    -0.356 A  
HETATM   20 CL   UNL     1     -12.479   9.825  71.833  1.00  0.00    -0.463 Cl 
BRANCH  18  21
HETATM   21  N   UNL     1     -10.186   8.824  70.179  1.00  0.00    -0.185 NA 
HETATM   22  H   UNL     1     -10.929   8.140  70.324  1.00  0.00     0.000 HD 
BRANCH  21  23
HETATM   23  C   UNL     1      -8.846   8.439  70.303  1.00  0.00    -0.142 A  
HETATM   24  C   UNL     1      -7.865   9.428  70.473  1.00  0.00    -0.185 A  
HETATM   25  C   UNL     1      -6.526   9.159  70.211  1.00  0.00    -0.050 A  
HETATM   26  C   UNL     1      -6.146   7.871  69.853  1.00  0.00    -0.026 A  
HETATM   27  C   UNL     1      -7.083   6.838  69.867  1.00  0.00    -0.071 A  
HETATM   28  C   UNL     1      -8.432   7.112  70.140  1.00  0.00    -0.139 A  
BRANCH  28  29
HETATM   29  S   UNL     1      -9.442   5.726  70.689  1.00  0.00    -0.167 S  
HETATM   30  O   UNL     1      -8.528   4.777  71.305  1.00  0.00    -0.103 OA 
HETATM   31  O   UNL     1     -10.481   6.321  71.514  1.00  0.00    -0.212 OA 
BRANCH  29  32
HETATM   32  C   UNL     1     -10.216   4.869  69.326  1.00  0.00    -0.135 C  
HETATM   33  C   UNL     1     -10.300   5.727  68.060  1.00  0.00    -0.258 C  
HETATM   34  C   UNL     1      -9.419   3.591  69.017  1.00  0.00    -0.213 C  
ENDBRANCH  29  32
ENDBRANCH  28  29
ENDBRANCH  21  23
ENDBRANCH  18  21
ENDBRANCH  12  14
ENDBRANCH   6  12
BRANCH  11  35
HETATM   35  C   UNL     1      -6.698  17.465  67.064  1.00  0.00    -0.218 C  
HETATM   36  C   UNL     1      -7.099  18.482  65.977  1.00  0.00    -0.306 C  
HETATM   37  C   UNL     1      -8.266  19.351  66.416  1.00  0.00    -0.325 C  
HETATM   38  N   UNL     1      -7.883  20.132  67.584  1.00  0.00    -0.301 NA 
HETATM   39  H   UNL     1      -8.605  20.808  67.833  1.00  0.00     0.000 HD 
HETATM   40  C   UNL     1      -7.541  19.274  68.716  1.00  0.00    -0.358 C  
HETATM   41  C   UNL     1      -6.469  18.240  68.382  1.00  0.00    -0.208 C  
ENDBRANCH  11  35
ENDBRANCH   4   5
ENDBRANCH   2   4
TORSDOF 9
ENDMDL
MODEL      157
REMARK 921   NORMALIZED FREE ENERGY PREDICTED BY IDOCK:   -4.70 KCAL/MOL
REMARK 922        TOTAL FREE ENERGY PREDICTED BY IDOCK:   -9.34 KCAL/MOL
REMARK 923 INTER-LIGAND FREE ENERGY PREDICTED BY IDOCK:   -6.65 KCAL/MOL
REMARK 924 INTRA-LIGAND FREE ENERGY PREDICTED BY IDOCK:   -2.69 KCAL/MOL
REMARK 927      BINDING AFFINITY PREDICTED BY RF-SCORE:    0.00 PKD
ROOT
HETATM    1  C   UNL     1      -9.846  12.441  67.699  1.00  0.00    -0.198 C  
HETATM    2  C   UNL     1     -10.357  11.137  68.311  1.00  0.00    -0.180 C  
HETATM    3  C   UNL     1     -11.378  11.460  69.407  1.00  0.00    -0.365 C  
ENDROOT
BRANCH   2   4
HETATM    4  O   UNL     1     -10.902  10.328  67.241  1.00  0.00    -0.277 OA 
BRANCH   4   5
HETATM    5  C   UNL     1     -10.220   9.170  66.932  1.00  0.00    -0.266 A  
HETATM    6  C   UNL     1     -10.405   7.944  67.593  1.00  0.00    -0.241 A  
HETATM    7  C   UNL     1      -8.336   5.588  65.484  1.00  0.00    -0.136 C  
HETATM    8  C   UNL     1      -9.901   6.808  66.964  1.00  0.00    -0.217 A  
HETATM    9  C   UNL     1      -9.317   9.268  65.837  1.00  0.00    -0.297 A  
HETATM   10  C   UNL     1      -9.003   6.882  65.881  1.00  0.00    -0.092 A  
HETATM   11  C   UNL     1      -8.675   8.134  65.298  1.00  0.00    -0.093 A  
BRANCH   6  12
HETATM   12  N   UNL     1     -11.149   7.768  68.775  1.00  0.00    -0.401 NA 
HETATM   13  H   UNL     1     -12.157   7.729  68.627  1.00  0.00     0.000 HD 
BRANCH  12  14
HETATM   14  C   UNL     1     -10.775   7.640  70.084  1.00  0.00    -0.240 A  
HETATM   15  N   UNL     1      -9.629   6.974  70.430  1.00  0.00    -0.169 NA 
HETATM   16  C   UNL     1     -11.341   7.772  72.311  1.00  0.00    -0.321 A  
HETATM   17  N   UNL     1     -11.655   8.009  70.988  1.00  0.00    -0.284 NA 
HETATM   18  C   UNL     1      -9.369   6.517  71.728  1.00  0.00    -0.149 A  
HETATM   19  C   UNL     1     -10.298   7.073  72.771  1.00  0.00    -0.222 A  
HETATM   20 CL   UNL     1     -10.059   6.731  74.435  1.00  0.00    -0.354 Cl 
BRANCH  18  21
HETATM   21  N   UNL     1      -8.474   5.646  72.132  1.00  0.00    -0.125 NA 
HETATM   22  H   UNL     1      -7.628   5.965  72.604  1.00  0.00     0.000 HD 
BRANCH  21  23
HETATM   23  C   UNL     1      -8.682   4.279  71.916  1.00  0.00    -0.111 A  
HETATM   24  C   UNL     1      -9.959   3.739  72.135  1.00  0.00    -0.239 A  
HETATM   25  C   UNL     1     -10.135   2.373  72.320  1.00  0.00    -0.225 A  
HETATM   26  C   UNL     1      -9.042   1.522  72.208  1.00  0.00    -0.103 A  
HETATM   27  C   UNL     1      -7.806   2.025  71.803  1.00  0.00    -0.041 A  
HETATM   28  C   UNL     1      -7.634   3.403  71.608  1.00  0.00    -0.052 A  
BRANCH  28  29
HETATM   29  S   UNL     1      -6.247   3.906  70.576  1.00  0.00    -0.019 S  
HETATM   30  O   UNL     1      -5.682   5.090  71.204  1.00  0.00    -0.011 OA 
HETATM   31  O   UNL     1      -5.414   2.720  70.461  1.00  0.00    -0.011 OA 
BRANCH  29  32
HETATM   32  C   UNL     1      -6.763   4.400  68.939  1.00  0.00    -0.046 C  
HETATM   33  C   UNL     1      -8.114   3.799  68.538  1.00  0.00    -0.079 C  
HETATM   34  C   UNL     1      -6.857   5.934  68.882  1.00  0.00    -0.066 C  
ENDBRANCH  29  32
ENDBRANCH  28  29
ENDBRANCH  21  23
ENDBRANCH  18  21
ENDBRANCH  12  14
ENDBRANCH   6  12
BRANCH  11  35
HETATM   35  C   UNL     1      -7.688   8.174  64.113  1.00  0.00    -0.136 C  
HETATM   36  C   UNL     1      -8.313   8.828  62.865  1.00  0.00    -0.182 C  
HETATM   37  C   UNL     1      -8.238  10.345  62.922  1.00  0.00    -0.157 C  
HETATM   38  N   UNL     1      -6.845  10.767  62.949  1.00  0.00    -0.353 NA 
HETATM   39  H   UNL     1      -6.760  11.780  62.872  1.00  0.00     0.000 HD 
HETATM   40  C   UNL     1      -6.153  10.261  64.133  1.00  0.00    -0.120 C  
HETATM   41  C   UNL     1      -6.263   8.747  64.291  1.00  0.00    -0.071 C  
ENDBRANCH  11  35
ENDBRANCH   4   5
ENDBRANCH   2   4
TORSDOF 9
ENDMDL
MODEL      158
REMARK 921   NORMALIZED FREE ENERGY PREDICTED BY IDOCK:   -4.69 KCAL/MOL
REMARK 922        TOTAL FREE ENERGY PREDICTED BY IDOCK:   -9.32 KCAL/MOL
REMARK 923 INTER-LIGAND FREE ENERGY PREDICTED BY IDOCK:   -7.94 KCAL/MOL
REMARK 924 INTRA-LIGAND FREE ENERGY PREDICTED BY IDOCK:   -1.38 KCAL/MOL
REMARK 927      BINDING AFFINITY PREDICTED BY RF-SCORE:    0.00 PKD
ROOT
HETATM    1  C   UNL     1     -11.853  14.488  69.169  1.00  0.00    -0.354 C  
HETATM    2  C   UNL     1     -10.507  14.331  68.463  1.00  0.00    -0.253 C  
HETATM    3  C   UNL     1     -10.511  15.162  67.176  1.00  0.00    -0.280 C  
ENDROOT
BRANCH   2   4
HETATM    4  O   UNL     1      -9.470  14.722  69.394  1.00  0.00    -0.114 OA 
BRANCH   4   5
HETATM    5  C   UNL     1      -8.373  15.369  68.864  1.00  0.00    -0.203 A  
HETATM    6  C   UNL     1      -7.188  14.723  68.474  1.00  0.00    -0.115 A  
HETATM    7  C   UNL     1      -5.278  17.521  66.799  1.00  0.00    -0.195 C  
HETATM    8  C   UNL     1      -6.315  15.446  67.664  1.00  0.00    -0.177 A  
HETATM    9  C   UNL     1      -8.522  16.772  68.681  1.00  0.00    -0.259 A  
HETATM   10  C   UNL     1      -6.442  16.836  67.472  1.00  0.00    -0.178 A  
HETATM   11  C   UNL     1      -7.556  17.540  67.999  1.00  0.00    -0.220 A  
BRANCH   6  12
HETATM   12  N   UNL     1      -6.873  13.378  68.747  1.00  0.00    -0.097 NA 
HETATM   13  H   UNL     1      -6.854  13.151  69.742  1.00  0.00     0.000 HD 
BRANCH  12  14
HETATM   14  C   UNL     1      -6.588  12.319  67.931  1.00  0.00    -0.087 A  
HETATM   15  N   UNL     1      -7.442  11.952  66.925  1.00  0.00    -0.118 NA 
HETATM   16  C   UNL     1      -5.346  10.421  67.536  1.00  0.00    -0.040 A  
HETATM   17  N   UNL     1      -5.571  11.562  68.280  1.00  0.00    -0.045 NA 
HETATM   18  C   UNL     1      -7.388  10.705  66.289  1.00  0.00    -0.137 A  
HETATM   19  C   UNL     1      -6.140   9.920  66.584  1.00  0.00    -0.060 A  
HETATM   20 CL   UNL     1      -5.834   8.426  65.798  1.00  0.00    -0.043 Cl 
BRANCH  18  21
HETATM   21  N   UNL     1      -8.289  10.127  65.530  1.00  0.00    -0.151 NA 
HETATM   22  H   UNL     1      -8.059   9.269  65.028  1.00  0.00     0.000 HD 
BRANCH  21  23
HETATM   23  C   UNL     1      -9.566  10.687  65.410  1.00  0.00    -0.230 A  
HETATM   24  C   UNL     1      -9.940  11.279  64.193  1.00  0.00    -0.350 A  
HETATM   25  C   UNL     1     -11.001  12.174  64.131  1.00  0.00    -0.416 A  
HETATM   26  C   UNL     1     -11.751  12.426  65.274  1.00  0.00    -0.437 A  
HETATM   27  C   UNL     1     -11.509  11.700  66.440  1.00  0.00    -0.238 A  
HETATM   28  C   UNL     1     -10.442  10.790  66.497  1.00  0.00    -0.240 A  
BRANCH  28  29
HETATM   29  S   UNL     1     -10.530   9.522  67.772  1.00  0.00    -0.259 S  
HETATM   30  O   UNL     1     -11.475  10.010  68.764  1.00  0.00    -0.122 OA 
HETATM   31  O   UNL     1     -10.846   8.295  67.061  1.00  0.00    -0.245 OA 
BRANCH  29  32
HETATM   32  C   UNL     1      -8.973   9.305  68.621  1.00  0.00    -0.132 C  
HETATM   33  C   UNL     1      -9.012   9.811  70.066  1.00  0.00    -0.255 C  
HETATM   34  C   UNL     1      -8.602   7.813  68.619  1.00  0.00    -0.129 C  
ENDBRANCH  29  32
ENDBRANCH  28  29
ENDBRANCH  21  23
ENDBRANCH  18  21
ENDBRANCH  12  14
ENDBRANCH   6  12
BRANCH  11  35
HETATM   35  C   UNL     1      -7.660  19.062  67.768  1.00  0.00    -0.270 C  
HETATM   36  C   UNL     1      -8.099  19.397  66.329  1.00  0.00    -0.335 C  
HETATM   37  C   UNL     1      -9.608  19.312  66.163  1.00  0.00    -0.306 C  
HETATM   38  N   UNL     1     -10.252  20.293  67.024  1.00  0.00    -0.416 NA 
HETATM   39  H   UNL     1     -11.256  20.340  66.852  1.00  0.00     0.000 HD 
HETATM   40  C   UNL     1      -9.964  20.041  68.435  1.00  0.00    -0.359 C  
HETATM   41  C   UNL     1      -8.470  19.955  68.736  1.00  0.00    -0.076 C  
ENDBRANCH  11  35
ENDBRANCH   4   5
ENDBRANCH   2   4
TORSDOF 9
ENDMDL
MODEL      159
REMARK 921   NORMALIZED FREE ENERGY PREDICTED BY IDOCK:   -4.69 KCAL/MOL
REMARK 922        TOTAL FREE ENERGY PREDICTED BY IDOCK:   -9.32 KCAL/MOL
REMARK 923 INTER-LIGAND FREE ENERGY PREDICTED BY IDOCK:   -7.43 KCAL/MOL
REMARK 924 INTRA-LIGAND FREE ENERGY PREDICTED BY IDOCK:   -1.89 KCAL/MOL
REMARK 927      BINDING AFFINITY PREDICTED BY RF-SCORE:    0.00 PKD
ROOT
HETATM    1  C   UNL     1      -6.024  14.202  70.339  1.00  0.00    -0.171 C  
HETATM    2  C   UNL     1      -6.541  14.408  68.916  1.00  0.00    -0.094 C  
HETATM    3  C   UNL     1      -5.707  13.564  67.947  1.00  0.00    -0.125 C  
ENDROOT
BRANCH   2   4
HETATM    4  O   UNL     1      -7.949  14.071  68.903  1.00  0.00    -0.117 OA 
BRANCH   4   5
HETATM    5  C   UNL     1      -8.672  14.473  67.799  1.00  0.00    -0.174 A  
HETATM    6  C   UNL     1      -9.334  13.593  66.926  1.00  0.00    -0.257 A  
HETATM    7  C   UNL     1     -11.252  15.977  64.707  1.00  0.00    -0.348 C  
HETATM    8  C   UNL     1     -10.279  14.152  66.069  1.00  0.00    -0.318 A  
HETATM    9  C   UNL     1      -8.756  15.879  67.605  1.00  0.00    -0.174 A  
HETATM   10  C   UNL     1     -10.377  15.541  65.857  1.00  0.00    -0.365 A  
HETATM   11  C   UNL     1      -9.594  16.446  66.621  1.00  0.00    -0.273 A  
BRANCH   6  12
HETATM   12  N   UNL     1      -9.195  12.192  66.932  1.00  0.00    -0.197 NA 
HETATM   13  H   UNL     1      -8.774  11.815  66.082  1.00  0.00     0.000 HD 
BRANCH  12  14
HETATM   14  C   UNL     1      -9.516  11.242  67.860  1.00  0.00    -0.178 A  
HETATM   15  N   UNL     1      -9.051   9.958  67.747  1.00  0.00    -0.131 NA 
HETATM   16  C   UNL     1     -10.859  10.576  69.607  1.00  0.00    -0.274 A  
HETATM   17  N   UNL     1     -10.437  11.565  68.741  1.00  0.00    -0.206 NA 
HETATM   18  C   UNL     1      -9.602   8.878  68.448  1.00  0.00    -0.146 A  
HETATM   19  C   UNL     1     -10.539   9.279  69.554  1.00  0.00    -0.224 A  
HETATM   20 CL   UNL     1     -11.212   8.103  70.606  1.00  0.00    -0.264 Cl 
BRANCH  18  21
HETATM   21  N   UNL     1      -9.451   7.592  68.234  1.00  0.00    -0.144 NA 
HETATM   22  H   UNL     1     -10.178   7.067  67.748  1.00  0.00     0.000 HD 
BRANCH  21  23
HETATM   23  C   UNL     1      -8.292   6.941  68.674  1.00  0.00    -0.121 A  
HETATM   24  C   UNL     1      -7.274   7.695  69.279  1.00  0.00    -0.082 A  
HETATM   25  C   UNL     1      -5.979   7.201  69.373  1.00  0.00    -0.026 A  
HETATM   26  C   UNL     1      -5.706   5.911  68.933  1.00  0.00    -0.012 A  
HETATM   27  C   UNL     1      -6.746   5.086  68.506  1.00  0.00    -0.050 A  
HETATM   28  C   UNL     1      -8.054   5.585  68.420  1.00  0.00    -0.099 A  
BRANCH  28  29
HETATM   29  S   UNL     1      -9.384   4.371  68.418  1.00  0.00    -0.155 S  
HETATM   30  O   UNL     1     -10.118   4.571  69.658  1.00  0.00    -0.221 OA 
HETATM   31  O   UNL     1     -10.081   4.578  67.160  1.00  0.00    -0.184 OA 
BRANCH  29  32
HETATM   32  C   UNL     1      -8.770   2.694  68.461  1.00  0.00    -0.091 C  
HETATM   33  C   UNL     1      -9.527   1.811  69.457  1.00  0.00    -0.123 C  
HETATM   34  C   UNL     1      -8.884   2.080  67.056  1.00  0.00    -0.148 C  
ENDBRANCH  29  32
ENDBRANCH  28  29
ENDBRANCH  21  23
ENDBRANCH  18  21
ENDBRANCH  12  14
ENDBRANCH   6  12
BRANCH  11  35
HETATM   35  C   UNL     1      -9.730  17.960  66.362  1.00  0.00    -0.321 C  
HETATM   36  C   UNL     1     -10.724  18.624  67.334  1.00  0.00    -0.456 C  
HETATM   37  C   UNL     1     -10.076  18.955  68.669  1.00  0.00    -0.388 C  
HETATM   38  N   UNL     1      -9.001  19.915  68.468  1.00  0.00    -0.220 NA 
HETATM   39  H   UNL     1      -8.622  20.243  69.356  1.00  0.00     0.000 HD 
HETATM   40  C   UNL     1      -7.951  19.373  67.607  1.00  0.00    -0.283 C  
HETATM   41  C   UNL     1      -8.477  18.862  66.269  1.00  0.00    -0.268 C  
ENDBRANCH  11  35
ENDBRANCH   4   5
ENDBRANCH   2   4
TORSDOF 9
ENDMDL
MODEL      160
REMARK 921   NORMALIZED FREE ENERGY PREDICTED BY IDOCK:   -4.68 KCAL/MOL
REMARK 922        TOTAL FREE ENERGY PREDICTED BY IDOCK:   -9.32 KCAL/MOL
REMARK 923 INTER-LIGAND FREE ENERGY PREDICTED BY IDOCK:   -8.14 KCAL/MOL
REMARK 924 INTRA-LIGAND FREE ENERGY PREDICTED BY IDOCK:   -1.17 KCAL/MOL
REMARK 927      BINDING AFFINITY PREDICTED BY RF-SCORE:    0.00 PKD
ROOT
HETATM    1  C   UNL     1     -12.367  15.547  70.540  1.00  0.00    -0.461 C  
HETATM    2  C   UNL     1     -11.526  14.416  69.950  1.00  0.00    -0.260 C  
HETATM    3  C   UNL     1     -12.287  13.093  70.094  1.00  0.00    -0.284 C  
ENDROOT
BRANCH   2   4
HETATM    4  O   UNL     1     -11.226  14.757  68.576  1.00  0.00    -0.253 OA 
BRANCH   4   5
HETATM    5  C   UNL     1      -9.924  15.121  68.298  1.00  0.00    -0.223 A  
HETATM    6  C   UNL     1      -8.888  14.208  68.039  1.00  0.00    -0.182 A  
HETATM    7  C   UNL     1      -6.067  16.495  66.991  1.00  0.00    -0.173 C  
HETATM    8  C   UNL     1      -7.730  14.721  67.458  1.00  0.00    -0.215 A  
HETATM    9  C   UNL     1      -9.683  16.521  68.240  1.00  0.00    -0.231 A  
HETATM   10  C   UNL     1      -7.468  16.104  67.394  1.00  0.00    -0.199 A  
HETATM   11  C   UNL     1      -8.447  17.045  67.806  1.00  0.00    -0.199 A  
BRANCH   6  12
HETATM   12  N   UNL     1      -8.975  12.815  68.217  1.00  0.00    -0.245 NA 
HETATM   13  H   UNL     1      -9.879  12.420  67.958  1.00  0.00     0.000 HD 
BRANCH  12  14
HETATM   14  C   UNL     1      -8.076  11.891  68.672  1.00  0.00    -0.086 A  
HETATM   15  N   UNL     1      -8.360  10.551  68.635  1.00  0.00    -0.124 NA 
HETATM   16  C   UNL     1      -6.176  11.429  69.887  1.00  0.00    -0.143 A  
HETATM   17  N   UNL     1      -7.028  12.354  69.317  1.00  0.00    -0.034 NA 
HETATM   18  C   UNL     1      -7.654   9.596  69.378  1.00  0.00    -0.097 A  
HETATM   19  C   UNL     1      -6.377  10.111  69.982  1.00  0.00    -0.088 A  
HETATM   20 CL   UNL     1      -5.312   9.057  70.819  1.00  0.00    -0.027 Cl 
BRANCH  18  21
HETATM   21  N   UNL     1      -7.984   8.355  69.652  1.00  0.00    -0.104 NA 
HETATM   22  H   UNL     1      -7.770   7.961  70.568  1.00  0.00     0.000 HD 
BRANCH  21  23
HETATM   23  C   UNL     1      -8.628   7.573  68.687  1.00  0.00    -0.129 A  
HETATM   24  C   UNL     1      -8.295   7.747  67.334  1.00  0.00    -0.123 A  
HETATM   25  C   UNL     1      -9.146   7.308  66.327  1.00  0.00    -0.186 A  
HETATM   26  C   UNL     1     -10.305   6.619  66.663  1.00  0.00    -0.215 A  
HETATM   27  C   UNL     1     -10.550   6.274  67.993  1.00  0.00    -0.326 A  
HETATM   28  C   UNL     1      -9.684   6.711  69.006  1.00  0.00    -0.140 A  
BRANCH  28  29
HETATM   29  S   UNL     1      -9.727   5.794  70.555  1.00  0.00    -0.184 S  
HETATM   30  O   UNL     1     -10.244   4.474  70.231  1.00  0.00    -0.219 OA 
HETATM   31  O   UNL     1      -8.380   5.898  71.092  1.00  0.00    -0.120 OA 
BRANCH  29  32
HETATM   32  C   UNL     1     -10.866   6.507  71.733  1.00  0.00    -0.238 C  
HETATM   33  C   UNL     1     -12.187   6.941  71.090  1.00  0.00    -0.428 C  
HETATM   34  C   UNL     1     -11.158   5.478  72.838  1.00  0.00    -0.349 C  
ENDBRANCH  29  32
ENDBRANCH  28  29
ENDBRANCH  21  23
ENDBRANCH  18  21
ENDBRANCH  12  14
ENDBRANCH   6  12
BRANCH  11  35
HETATM   35  C   UNL     1      -8.123  18.551  67.720  1.00  0.00    -0.264 C  
HETATM   36  C   UNL     1      -8.252  19.087  66.280  1.00  0.00    -0.294 C  
HETATM   37  C   UNL     1      -9.692  19.421  65.926  1.00  0.00    -0.145 C  
HETATM   38  N   UNL     1     -10.179  20.478  66.800  1.00  0.00    -0.373 NA 
HETATM   39  H   UNL     1     -11.102  20.804  66.513  1.00  0.00     0.000 HD 
HETATM   40  C   UNL     1     -10.170  20.064  68.202  1.00  0.00    -0.396 C  
HETATM   41  C   UNL     1      -8.807  19.562  68.669  1.00  0.00    -0.386 C  
ENDBRANCH  11  35
ENDBRANCH   4   5
ENDBRANCH   2   4
TORSDOF 9
ENDMDL
MODEL      161
REMARK 921   NORMALIZED FREE ENERGY PREDICTED BY IDOCK:   -4.65 KCAL/MOL
REMARK 922        TOTAL FREE ENERGY PREDICTED BY IDOCK:   -9.26 KCAL/MOL
REMARK 923 INTER-LIGAND FREE ENERGY PREDICTED BY IDOCK:   -7.45 KCAL/MOL
REMARK 924 INTRA-LIGAND FREE ENERGY PREDICTED BY IDOCK:   -1.82 KCAL/MOL
REMARK 927      BINDING AFFINITY PREDICTED BY RF-SCORE:    0.00 PKD
ROOT
HETATM    1  C   UNL     1     -11.474  12.428  64.061  1.00  0.00    -0.479 C  
HETATM    2  C   UNL     1     -11.502  13.780  64.773  1.00  0.00    -0.356 C  
HETATM    3  C   UNL     1     -12.528  14.690  64.089  1.00  0.00    -0.180 C  
ENDROOT
BRANCH   2   4
HETATM    4  O   UNL     1     -11.792  13.539  66.170  1.00  0.00    -0.351 OA 
BRANCH   4   5
HETATM    5  C   UNL     1     -10.717  13.545  67.036  1.00  0.00    -0.277 A  
HETATM    6  C   UNL     1     -10.173  12.392  67.625  1.00  0.00    -0.207 A  
HETATM    7  C   UNL     1      -7.081  13.758  69.317  1.00  0.00    -0.004 C  
HETATM    8  C   UNL     1      -8.909  12.518  68.199  1.00  0.00    -0.191 A  
HETATM    9  C   UNL     1     -10.136  14.821  67.276  1.00  0.00    -0.236 A  
HETATM   10  C   UNL     1      -8.317  13.770  68.451  1.00  0.00    -0.152 A  
HETATM   11  C   UNL     1      -8.936  14.966  68.002  1.00  0.00    -0.172 A  
BRANCH   6  12
HETATM   12  N   UNL     1     -10.753  11.111  67.582  1.00  0.00    -0.214 NA 
HETATM   13  H   UNL     1     -11.770  11.114  67.667  1.00  0.00     0.000 HD 
BRANCH  12  14
HETATM   14  C   UNL     1     -10.213   9.863  67.447  1.00  0.00    -0.222 A  
HETATM   15  N   UNL     1      -9.817   9.142  68.543  1.00  0.00    -0.159 NA 
HETATM   16  C   UNL     1      -9.256   8.272  66.086  1.00  0.00    -0.192 A  
HETATM   17  N   UNL     1      -9.914   9.477  66.226  1.00  0.00    -0.268 NA 
HETATM   18  C   UNL     1      -8.963   8.034  68.466  1.00  0.00    -0.133 A  
HETATM   19  C   UNL     1      -8.756   7.516  67.069  1.00  0.00    -0.127 A  
HETATM   20 CL   UNL     1      -7.846   6.090  66.785  1.00  0.00    -0.100 Cl 
BRANCH  18  21
HETATM   21  N   UNL     1      -8.295   7.439  69.426  1.00  0.00    -0.131 NA 
HETATM   22  H   UNL     1      -7.366   7.060  69.242  1.00  0.00     0.000 HD 
BRANCH  21  23
HETATM   23  C   UNL     1      -8.858   7.323  70.702  1.00  0.00    -0.148 A  
HETATM   24  C   UNL     1      -8.969   8.468  71.505  1.00  0.00    -0.276 A  
HETATM   25  C   UNL     1      -9.141   8.362  72.880  1.00  0.00    -0.282 A  
HETATM   26  C   UNL     1      -9.285   7.106  73.456  1.00  0.00    -0.220 A  
HETATM   27  C   UNL     1      -9.367   5.973  72.646  1.00  0.00    -0.147 A  
HETATM   28  C   UNL     1      -9.201   6.085  71.257  1.00  0.00    -0.146 A  
BRANCH  28  29
HETATM   29  S   UNL     1      -9.862   4.743  70.255  1.00  0.00    -0.253 S  
HETATM   30  O   UNL     1     -10.443   3.789  71.187  1.00  0.00     0.235 OA 
HETATM   31  O   UNL     1     -10.738   5.389  69.291  1.00  0.00    -0.248 OA 
BRANCH  29  32
HETATM   32  C   UNL     1      -8.584   3.867  69.367  1.00  0.00    -0.074 C  
HETATM   33  C   UNL     1      -7.375   3.533  70.246  1.00  0.00    -0.041 C  
HETATM   34  C   UNL     1      -9.169   2.563  68.798  1.00  0.00    -0.227 C  
ENDBRANCH  29  32
ENDBRANCH  28  29
ENDBRANCH  21  23
ENDBRANCH  18  21
ENDBRANCH  12  14
ENDBRANCH   6  12
BRANCH  11  35
HETATM   35  C   UNL     1      -8.255  16.319  68.295  1.00  0.00    -0.173 C  
HETATM   36  C   UNL     1      -7.085  16.597  67.331  1.00  0.00    -0.189 C  
HETATM   37  C   UNL     1      -7.565  17.174  66.009  1.00  0.00    -0.150 C  
HETATM   38  N   UNL     1      -8.215  18.456  66.241  1.00  0.00    -0.416 NA 
HETATM   39  H   UNL     1      -8.446  18.921  65.363  1.00  0.00     0.000 HD 
HETATM   40  C   UNL     1      -9.392  18.315  67.097  1.00  0.00    -0.264 C  
HETATM   41  C   UNL     1      -9.091  17.614  68.418  1.00  0.00    -0.277 C  
ENDBRANCH  11  35
ENDBRANCH   4   5
ENDBRANCH   2   4
TORSDOF 9
ENDMDL
MODEL      162
REMARK 921   NORMALIZED FREE ENERGY PREDICTED BY IDOCK:   -4.61 KCAL/MOL
REMARK 922        TOTAL FREE ENERGY PREDICTED BY IDOCK:   -9.21 KCAL/MOL
REMARK 923 INTER-LIGAND FREE ENERGY PREDICTED BY IDOCK:   -7.07 KCAL/MOL
REMARK 924 INTRA-LIGAND FREE ENERGY PREDICTED BY IDOCK:   -2.14 KCAL/MOL
REMARK 927      BINDING AFFINITY PREDICTED BY RF-SCORE:    0.00 PKD
ROOT
HETATM    1  C   UNL     1      -9.854  11.262  63.193  1.00  0.00    -0.403 C  
HETATM    2  C   UNL     1      -8.971  10.016  63.234  1.00  0.00    -0.258 C  
HETATM    3  C   UNL     1      -7.531  10.404  62.883  1.00  0.00    -0.111 C  
ENDROOT
BRANCH   2   4
HETATM    4  O   UNL     1      -9.101   9.424  64.549  1.00  0.00    -0.222 OA 
BRANCH   4   5
HETATM    5  C   UNL     1      -8.677  10.188  65.617  1.00  0.00    -0.158 A  
HETATM    6  C   UNL     1      -7.510   9.932  66.356  1.00  0.00    -0.101 A  
HETATM    7  C   UNL     1      -7.308  12.975  68.589  1.00  0.00    -0.097 C  
HETATM    8  C   UNL     1      -7.046  10.961  67.173  1.00  0.00    -0.103 A  
HETATM    9  C   UNL     1      -9.486  11.319  65.916  1.00  0.00    -0.247 A  
HETATM   10  C   UNL     1      -7.831  12.087  67.486  1.00  0.00    -0.155 A  
HETATM   11  C   UNL     1      -9.094  12.283  66.867  1.00  0.00    -0.208 A  
BRANCH   6  12
HETATM   12  N   UNL     1      -6.724   8.769  66.249  1.00  0.00    -0.072 NA 
HETATM   13  H   UNL     1      -5.721   8.940  66.322  1.00  0.00     0.000 HD 
BRANCH  12  14
HETATM   14  C   UNL     1      -7.051   7.455  66.067  1.00  0.00    -0.066 A  
HETATM   15  N   UNL     1      -8.089   6.882  66.755  1.00  0.00    -0.108 NA 
HETATM   16  C   UNL     1      -6.465   5.376  65.271  1.00  0.00    -0.039 A  
HETATM   17  N   UNL     1      -6.212   6.730  65.361  1.00  0.00    -0.038 NA 
HETATM   18  C   UNL     1      -8.259   5.497  66.875  1.00  0.00    -0.105 A  
HETATM   19  C   UNL     1      -7.393   4.691  65.947  1.00  0.00    -0.077 A  
HETATM   20 CL   UNL     1      -7.551   2.985  65.856  1.00  0.00    -0.073 Cl 
BRANCH  18  21
HETATM   21  N   UNL     1      -9.018   4.829  67.711  1.00  0.00    -0.108 NA 
HETATM   22  H   UNL     1      -9.793   4.266  67.359  1.00  0.00     0.000 HD 
BRANCH  21  23
HETATM   23  C   UNL     1      -8.765   4.888  69.086  1.00  0.00    -0.087 A  
HETATM   24  C   UNL     1      -7.554   4.377  69.580  1.00  0.00    -0.054 A  
HETATM   25  C   UNL     1      -7.412   4.050  70.923  1.00  0.00    -0.044 A  
HETATM   26  C   UNL     1      -8.456   4.307  71.804  1.00  0.00    -0.112 A  
HETATM   27  C   UNL     1      -9.590   4.989  71.360  1.00  0.00    -0.220 A  
HETATM   28  C   UNL     1      -9.726   5.325  70.005  1.00  0.00    -0.196 A  
BRANCH  28  29
HETATM   29  S   UNL     1     -10.883   6.648  69.615  1.00  0.00    -0.315 S  
HETATM   30  O   UNL     1     -11.175   6.526  68.195  1.00  0.00    -0.275 OA 
HETATM   31  O   UNL     1     -11.974   6.487  70.562  1.00  0.00    -0.388 OA 
BRANCH  29  32
HETATM   32  C   UNL     1     -10.163   8.267  69.844  1.00  0.00    -0.201 C  
HETATM   33  C   UNL     1      -8.632   8.238  69.857  1.00  0.00    -0.125 C  
HETATM   34  C   UNL     1     -10.640   9.195  68.714  1.00  0.00    -0.208 C  
ENDBRANCH  29  32
ENDBRANCH  28  29
ENDBRANCH  21  23
ENDBRANCH  18  21
ENDBRANCH  12  14
ENDBRANCH   6  12
BRANCH  11  35
HETATM   35  C   UNL     1      -9.924  13.530  67.236  1.00  0.00    -0.236 C  
HETATM   36  C   UNL     1      -9.694  14.689  66.246  1.00  0.00    -0.329 C  
HETATM   37  C   UNL     1     -10.546  14.544  64.996  1.00  0.00    -0.437 C  
HETATM   38  N   UNL     1     -11.956  14.589  65.355  1.00  0.00    -0.354 NA 
HETATM   39  H   UNL     1     -12.551  14.610  64.527  1.00  0.00     0.000 HD 
HETATM   40  C   UNL     1     -12.319  13.489  66.247  1.00  0.00    -0.383 C  
HETATM   41  C   UNL     1     -11.445  13.417  67.496  1.00  0.00    -0.357 C  
ENDBRANCH  11  35
ENDBRANCH   4   5
ENDBRANCH   2   4
TORSDOF 9
ENDMDL
MODEL      163
REMARK 921   NORMALIZED FREE ENERGY PREDICTED BY IDOCK:   -4.59 KCAL/MOL
REMARK 922        TOTAL FREE ENERGY PREDICTED BY IDOCK:   -9.17 KCAL/MOL
REMARK 923 INTER-LIGAND FREE ENERGY PREDICTED BY IDOCK:   -8.13 KCAL/MOL
REMARK 924 INTRA-LIGAND FREE ENERGY PREDICTED BY IDOCK:   -1.05 KCAL/MOL
REMARK 927      BINDING AFFINITY PREDICTED BY RF-SCORE:    0.00 PKD
ROOT
HETATM    1  C   UNL     1      -7.963   9.222  63.740  1.00  0.00    -0.142 C  
HETATM    2  C   UNL     1      -7.753   8.226  64.879  1.00  0.00    -0.115 C  
HETATM    3  C   UNL     1      -6.638   7.247  64.495  1.00  0.00    -0.040 C  
ENDROOT
BRANCH   2   4
HETATM    4  O   UNL     1      -7.464   8.979  66.081  1.00  0.00    -0.089 OA 
BRANCH   4   5
HETATM    5  C   UNL     1      -7.920   8.449  67.269  1.00  0.00    -0.105 A  
HETATM    6  C   UNL     1      -8.661   9.168  68.222  1.00  0.00    -0.129 A  
HETATM    7  C   UNL     1      -9.639   6.460  70.670  1.00  0.00    -0.186 C  
HETATM    8  C   UNL     1      -9.323   8.423  69.195  1.00  0.00    -0.151 A  
HETATM    9  C   UNL     1      -7.632   7.071  67.472  1.00  0.00    -0.109 A  
HETATM   10  C   UNL     1      -9.051   7.059  69.416  1.00  0.00    -0.145 A  
HETATM   11  C   UNL     1      -8.173   6.349  68.556  1.00  0.00    -0.113 A  
BRANCH   6  12
HETATM   12  N   UNL     1      -8.871  10.560  68.200  1.00  0.00    -0.131 NA 
HETATM   13  H   UNL     1      -8.283  11.077  68.854  1.00  0.00     0.000 HD 
BRANCH  12  14
HETATM   14  C   UNL     1      -9.712  11.349  67.467  1.00  0.00    -0.178 A  
HETATM   15  N   UNL     1     -10.330  12.436  68.028  1.00  0.00    -0.210 NA 
HETATM   16  C   UNL     1     -10.990  11.632  65.573  1.00  0.00    -0.270 A  
HETATM   17  N   UNL     1     -10.047  10.908  66.275  1.00  0.00    -0.226 NA 
HETATM   18  C   UNL     1     -11.439  13.069  67.454  1.00  0.00    -0.332 A  
HETATM   19  C   UNL     1     -11.713  12.658  66.034  1.00  0.00    -0.417 A  
HETATM   20 CL   UNL     1     -12.950  13.419  65.120  1.00  0.00    -0.366 Cl 
BRANCH  18  21
HETATM   21  N   UNL     1     -12.282  13.915  68.001  1.00  0.00    -0.489 NA 
HETATM   22  H   UNL     1     -13.073  14.267  67.462  1.00  0.00     0.000 HD 
BRANCH  21  23
HETATM   23  C   UNL     1     -12.094  14.332  69.323  1.00  0.00    -0.313 A  
HETATM   24  C   UNL     1     -12.639  13.565  70.365  1.00  0.00    -0.267 A  
HETATM   25  C   UNL     1     -12.829  14.110  71.629  1.00  0.00    -0.428 A  
HETATM   26  C   UNL     1     -12.400  15.407  71.886  1.00  0.00    -0.446 A  
HETATM   27  C   UNL     1     -11.686  16.110  70.915  1.00  0.00    -0.370 A  
HETATM   28  C   UNL     1     -11.489  15.553  69.643  1.00  0.00    -0.329 A  
BRANCH  28  29
HETATM   29  S   UNL     1     -10.131  16.225  68.670  1.00  0.00    -0.246 S  
HETATM   30  O   UNL     1      -9.897  17.569  69.174  1.00  0.00    -0.250 OA 
HETATM   31  O   UNL     1      -9.062  15.247  68.789  1.00  0.00    -0.179 OA 
BRANCH  29  32
HETATM   32  C   UNL     1     -10.555  16.399  66.943  1.00  0.00    -0.252 C  
HETATM   33  C   UNL     1     -10.590  17.861  66.487  1.00  0.00    -0.238 C  
HETATM   34  C   UNL     1      -9.530  15.631  66.093  1.00  0.00    -0.376 C  
ENDBRANCH  29  32
ENDBRANCH  28  29
ENDBRANCH  21  23
ENDBRANCH  18  21
ENDBRANCH  12  14
ENDBRANCH   6  12
BRANCH  11  35
HETATM   35  C   UNL     1      -7.900   4.855  68.829  1.00  0.00    -0.077 C  
HETATM   36  C   UNL     1      -8.927   3.944  68.128  1.00  0.00    -0.158 C  
HETATM   37  C   UNL     1      -8.566   3.699  66.672  1.00  0.00    -0.111 C  
HETATM   38  N   UNL     1      -7.287   3.008  66.594  1.00  0.00    -0.069 NA 
HETATM   39  H   UNL     1      -7.073   2.728  65.637  1.00  0.00     0.000 HD 
HETATM   40  C   UNL     1      -6.208   3.807  67.172  1.00  0.00    -0.036 C  
HETATM   41  C   UNL     1      -6.494   4.255  68.602  1.00  0.00    -0.037 C  
ENDBRANCH  11  35
ENDBRANCH   4   5
ENDBRANCH   2   4
TORSDOF 9
ENDMDL
MODEL      164
REMARK 921   NORMALIZED FREE ENERGY PREDICTED BY IDOCK:   -4.57 KCAL/MOL
REMARK 922        TOTAL FREE ENERGY PREDICTED BY IDOCK:   -9.14 KCAL/MOL
REMARK 923 INTER-LIGAND FREE ENERGY PREDICTED BY IDOCK:   -7.23 KCAL/MOL
REMARK 924 INTRA-LIGAND FREE ENERGY PREDICTED BY IDOCK:   -1.91 KCAL/MOL
REMARK 927      BINDING AFFINITY PREDICTED BY RF-SCORE:    0.00 PKD
ROOT
HETATM    1  C   UNL     1      -8.402   8.286  65.306  1.00  0.00    -0.175 C  
HETATM    2  C   UNL     1      -8.906   7.242  66.302  1.00  0.00    -0.159 C  
HETATM    3  C   UNL     1      -8.786   5.848  65.677  1.00  0.00    -0.149 C  
ENDROOT
BRANCH   2   4
HETATM    4  O   UNL     1      -8.144   7.389  67.524  1.00  0.00    -0.111 OA 
BRANCH   4   5
HETATM    5  C   UNL     1      -8.838   7.251  68.708  1.00  0.00    -0.127 A  
HETATM    6  C   UNL     1      -9.682   8.236  69.247  1.00  0.00    -0.177 A  
HETATM    7  C   UNL     1     -11.262   6.413  72.157  1.00  0.00    -0.319 C  
HETATM    8  C   UNL     1     -10.556   7.831  70.254  1.00  0.00    -0.231 A  
HETATM    9  C   UNL     1      -8.686   5.996  69.359  1.00  0.00    -0.121 A  
HETATM   10  C   UNL     1     -10.422   6.595  70.916  1.00  0.00    -0.249 A  
HETATM   11  C   UNL     1      -9.459   5.645  70.486  1.00  0.00    -0.203 A  
BRANCH   6  12
HETATM   12  N   UNL     1      -9.787   9.558  68.775  1.00  0.00    -0.164 NA 
HETATM   13  H   UNL     1     -10.646   9.746  68.257  1.00  0.00     0.000 HD 
BRANCH  12  14
HETATM   14  C   UNL     1      -8.955  10.638  68.878  1.00  0.00    -0.168 A  
HETATM   15  N   UNL     1      -9.188  11.780  68.159  1.00  0.00    -0.181 NA 
HETATM   16  C   UNL     1      -6.928  11.500  69.546  1.00  0.00    -0.034 A  
HETATM   17  N   UNL     1      -7.832  10.457  69.538  1.00  0.00    -0.162 NA 
HETATM   18  C   UNL     1      -8.218  12.771  67.956  1.00  0.00    -0.168 A  
HETATM   19  C   UNL     1      -7.005  12.628  68.833  1.00  0.00    -0.086 A  
HETATM   20 CL   UNL     1      -5.767  13.816  68.821  1.00  0.00    -0.080 Cl 
BRANCH  18  21
HETATM   21  N   UNL     1      -8.209  13.751  67.083  1.00  0.00    -0.332 NA 
HETATM   22  H   UNL     1      -7.337  14.234  66.868  1.00  0.00     0.000 HD 
BRANCH  21  23
HETATM   23  C   UNL     1      -9.397  14.132  66.448  1.00  0.00    -0.230 A  
HETATM   24  C   UNL     1      -9.899  13.336  65.407  1.00  0.00    -0.128 A  
HETATM   25  C   UNL     1     -10.820  13.846  64.498  1.00  0.00    -0.381 A  
HETATM   26  C   UNL     1     -11.308  15.136  64.671  1.00  0.00    -0.362 A  
HETATM   27  C   UNL     1     -10.961  15.866  65.809  1.00  0.00    -0.179 A  
HETATM   28  C   UNL     1     -10.038  15.344  66.728  1.00  0.00    -0.262 A  
BRANCH  28  29
HETATM   29  S   UNL     1     -10.068  16.044  68.386  1.00  0.00    -0.235 S  
HETATM   30  O   UNL     1      -8.683  16.103  68.827  1.00  0.00    -0.213 OA 
HETATM   31  O   UNL     1     -10.806  17.289  68.256  1.00  0.00    -0.365 OA 
BRANCH  29  32
HETATM   32  C   UNL     1     -10.924  14.993  69.550  1.00  0.00    -0.269 C  
HETATM   33  C   UNL     1     -11.728  15.786  70.584  1.00  0.00    -0.412 C  
HETATM   34  C   UNL     1     -11.874  14.059  68.782  1.00  0.00    -0.396 C  
ENDBRANCH  29  32
ENDBRANCH  28  29
ENDBRANCH  21  23
ENDBRANCH  18  21
ENDBRANCH  12  14
ENDBRANCH   6  12
BRANCH  11  35
HETATM   35  C   UNL     1      -9.344   4.302  71.236  1.00  0.00    -0.214 C  
HETATM   36  C   UNL     1      -9.828   3.118  70.375  1.00  0.00     0.044 C  
HETATM   37  C   UNL     1      -8.748   2.630  69.424  1.00  0.00    -0.082 C  
HETATM   38  N   UNL     1      -7.608   2.141  70.185  1.00  0.00    -0.042 NA 
HETATM   39  H   UNL     1      -6.915   1.702  69.579  1.00  0.00     0.000 HD 
HETATM   40  C   UNL     1      -7.012   3.198  71.000  1.00  0.00    -0.033 C  
HETATM   41  C   UNL     1      -8.018   3.888  71.916  1.00  0.00    -0.075 C  
ENDBRANCH  11  35
ENDBRANCH   4   5
ENDBRANCH   2   4
TORSDOF 9
ENDMDL
MODEL      165
REMARK 921   NORMALIZED FREE ENERGY PREDICTED BY IDOCK:   -4.56 KCAL/MOL
REMARK 922        TOTAL FREE ENERGY PREDICTED BY IDOCK:   -9.12 KCAL/MOL
REMARK 923 INTER-LIGAND FREE ENERGY PREDICTED BY IDOCK:   -8.03 KCAL/MOL
REMARK 924 INTRA-LIGAND FREE ENERGY PREDICTED BY IDOCK:   -1.09 KCAL/MOL
REMARK 927      BINDING AFFINITY PREDICTED BY RF-SCORE:    0.00 PKD
ROOT
HETATM    1  C   UNL     1     -12.052  14.143  67.004  1.00  0.00    -0.449 C  
HETATM    2  C   UNL     1     -11.667  13.814  65.562  1.00  0.00    -0.346 C  
HETATM    3  C   UNL     1     -12.460  14.715  64.609  1.00  0.00    -0.302 C  
ENDROOT
BRANCH   2   4
HETATM    4  O   UNL     1     -10.233  13.970  65.439  1.00  0.00    -0.325 OA 
BRANCH   4   5
HETATM    5  C   UNL     1      -9.546  14.309  66.586  1.00  0.00    -0.289 A  
HETATM    6  C   UNL     1      -9.104  13.382  67.544  1.00  0.00    -0.215 A  
HETATM    7  C   UNL     1      -7.015  15.546  69.832  1.00  0.00    -0.073 C  
HETATM    8  C   UNL     1      -8.154  13.829  68.459  1.00  0.00    -0.128 A  
HETATM    9  C   UNL     1      -9.255  15.693  66.735  1.00  0.00    -0.275 A  
HETATM   10  C   UNL     1      -7.853  15.195  68.627  1.00  0.00    -0.140 A  
HETATM   11  C   UNL     1      -8.419  16.170  67.766  1.00  0.00    -0.165 A  
BRANCH   6  12
HETATM   12  N   UNL     1      -9.464  12.021  67.578  1.00  0.00    -0.175 NA 
HETATM   13  H   UNL     1      -9.431  11.561  66.667  1.00  0.00     0.000 HD 
BRANCH  12  14
HETATM   14  C   UNL     1      -9.849  11.199  68.600  1.00  0.00    -0.202 A  
HETATM   15  N   UNL     1      -9.117  10.088  68.927  1.00  0.00    -0.150 NA 
HETATM   16  C   UNL     1     -11.491  10.517  70.062  1.00  0.00    -0.316 A  
HETATM   17  N   UNL     1     -11.040  11.414  69.114  1.00  0.00    -0.242 NA 
HETATM   18  C   UNL     1      -9.619   9.041  69.711  1.00  0.00    -0.175 A  
HETATM   19  C   UNL     1     -10.909   9.365  70.412  1.00  0.00    -0.269 A  
HETATM   20 CL   UNL     1     -11.612   8.257  71.517  1.00  0.00    -0.307 Cl 
BRANCH  18  21
HETATM   21  N   UNL     1      -9.147   7.826  69.865  1.00  0.00    -0.147 NA 
HETATM   22  H   UNL     1      -9.478   7.244  70.635  1.00  0.00     0.000 HD 
BRANCH  21  23
HETATM   23  C   UNL     1      -8.190   7.329  68.973  1.00  0.00    -0.125 A  
HETATM   24  C   UNL     1      -6.839   7.654  69.171  1.00  0.00    -0.053 A  
HETATM   25  C   UNL     1      -5.917   7.533  68.138  1.00  0.00    -0.035 A  
HETATM   26  C   UNL     1      -6.323   7.009  66.917  1.00  0.00    -0.052 A  
HETATM   27  C   UNL     1      -7.616   6.506  66.769  1.00  0.00    -0.091 A  
HETATM   28  C   UNL     1      -8.542   6.622  67.817  1.00  0.00    -0.121 A  
BRANCH  28  29
HETATM   29  S   UNL     1      -9.945   5.494  67.782  1.00  0.00    -0.168 S  
HETATM   30  O   UNL     1     -10.510   5.508  69.122  1.00  0.00    -0.238 OA 
HETATM   31  O   UNL     1     -10.771   5.955  66.678  1.00  0.00    -0.286 OA 
BRANCH  29  32
HETATM   32  C   UNL     1      -9.451   3.808  67.459  1.00  0.00    -0.191 C  
HETATM   33  C   UNL     1      -9.388   3.485  65.963  1.00  0.00    -0.163 C  
HETATM   34  C   UNL     1      -8.070   3.558  68.087  1.00  0.00    -0.083 C  
ENDBRANCH  29  32
ENDBRANCH  28  29
ENDBRANCH  21  23
ENDBRANCH  18  21
ENDBRANCH  12  14
ENDBRANCH   6  12
BRANCH  11  35
HETATM   35  C   UNL     1      -8.065  17.656  67.981  1.00  0.00    -0.243 C  
HETATM   36  C   UNL     1      -6.842  18.084  67.145  1.00  0.00    -0.207 C  
HETATM   37  C   UNL     1      -7.225  18.427  65.714  1.00  0.00    -0.187 C  
HETATM   38  N   UNL     1      -8.139  19.560  65.710  1.00  0.00    -0.422 NA 
HETATM   39  H   UNL     1      -8.324  19.886  64.761  1.00  0.00     0.000 HD 
HETATM   40  C   UNL     1      -9.379  19.255  66.421  1.00  0.00    -0.360 C  
HETATM   41  C   UNL     1      -9.145  18.754  67.844  1.00  0.00    -0.318 C  
ENDBRANCH  11  35
ENDBRANCH   4   5
ENDBRANCH   2   4
TORSDOF 9
ENDMDL
MODEL      166
REMARK 921   NORMALIZED FREE ENERGY PREDICTED BY IDOCK:   -4.53 KCAL/MOL
REMARK 922        TOTAL FREE ENERGY PREDICTED BY IDOCK:   -9.08 KCAL/MOL
REMARK 923 INTER-LIGAND FREE ENERGY PREDICTED BY IDOCK:   -6.77 KCAL/MOL
REMARK 924 INTRA-LIGAND FREE ENERGY PREDICTED BY IDOCK:   -2.31 KCAL/MOL
REMARK 927      BINDING AFFINITY PREDICTED BY RF-SCORE:    0.00 PKD
ROOT
HETATM    1  C   UNL     1     -10.711   9.833  71.060  1.00  0.00    -0.342 C  
HETATM    2  C   UNL     1     -10.758   8.347  71.416  1.00  0.00    -0.237 C  
HETATM    3  C   UNL     1     -12.154   7.997  71.940  1.00  0.00    -0.359 C  
ENDROOT
BRANCH   2   4
HETATM    4  O   UNL     1     -10.384   7.597  70.236  1.00  0.00    -0.207 OA 
BRANCH   4   5
HETATM    5  C   UNL     1      -9.206   6.883  70.303  1.00  0.00    -0.156 A  
HETATM    6  C   UNL     1      -7.989   7.314  69.749  1.00  0.00    -0.123 A  
HETATM    7  C   UNL     1      -5.566   4.721  71.049  1.00  0.00    -0.012 C  
HETATM    8  C   UNL     1      -6.836   6.659  70.177  1.00  0.00    -0.061 A  
HETATM    9  C   UNL     1      -9.274   5.661  71.029  1.00  0.00    -0.173 A  
HETATM   10  C   UNL     1      -6.880   5.447  70.893  1.00  0.00    -0.048 A  
HETATM   11  C   UNL     1      -8.119   4.907  71.325  1.00  0.00    -0.105 A  
BRANCH   6  12
HETATM   12  N   UNL     1      -7.839   8.417  68.887  1.00  0.00    -0.111 NA 
HETATM   13  H   UNL     1      -7.995   8.198  67.903  1.00  0.00     0.000 HD 
BRANCH  12  14
HETATM   14  C   UNL     1      -7.525   9.727  69.120  1.00  0.00    -0.082 A  
HETATM   15  N   UNL     1      -8.304  10.740  68.624  1.00  0.00    -0.134 NA 
HETATM   16  C   UNL     1      -5.971  11.285  69.794  1.00  0.00    -0.103 A  
HETATM   17  N   UNL     1      -6.353   9.965  69.665  1.00  0.00    -0.046 NA 
HETATM   18  C   UNL     1      -7.868  12.068  68.532  1.00  0.00    -0.129 A  
HETATM   19  C   UNL     1      -6.601  12.351  69.291  1.00  0.00    -0.093 A  
HETATM   20 CL   UNL     1      -5.981  13.947  69.403  1.00  0.00    -0.093 Cl 
BRANCH  18  21
HETATM   21  N   UNL     1      -8.381  13.058  67.841  1.00  0.00    -0.157 NA 
HETATM   22  H   UNL     1      -7.847  13.482  67.082  1.00  0.00     0.000 HD 
BRANCH  21  23
HETATM   23  C   UNL     1      -9.662  13.534  68.146  1.00  0.00    -0.233 A  
HETATM   24  C   UNL     1      -9.815  14.464  69.186  1.00  0.00    -0.040 A  
HETATM   25  C   UNL     1     -11.052  14.668  69.786  1.00  0.00    -0.268 A  
HETATM   26  C   UNL     1     -12.167  13.999  69.296  1.00  0.00    -0.319 A  
HETATM   27  C   UNL     1     -12.063  13.220  68.143  1.00  0.00    -0.248 A  
HETATM   28  C   UNL     1     -10.814  13.023  67.536  1.00  0.00    -0.247 A  
BRANCH  28  29
HETATM   29  S   UNL     1     -10.828  12.513  65.809  1.00  0.00    -0.286 S  
HETATM   30  O   UNL     1      -9.638  13.090  65.205  1.00  0.00    -0.040 OA 
HETATM   31  O   UNL     1     -10.952  11.065  65.846  1.00  0.00    -0.173 OA 
BRANCH  29  32
HETATM   32  C   UNL     1     -12.223  13.181  64.916  1.00  0.00    -0.428 C  
HETATM   33  C   UNL     1     -11.947  14.575  64.344  1.00  0.00    -0.467 C  
HETATM   34  C   UNL     1     -12.589  12.228  63.766  1.00  0.00    -0.577 C  
ENDBRANCH  29  32
ENDBRANCH  28  29
ENDBRANCH  21  23
ENDBRANCH  18  21
ENDBRANCH  12  14
ENDBRANCH   6  12
BRANCH  11  35
HETATM   35  C   UNL     1      -8.126   3.578  72.108  1.00  0.00    -0.071 C  
HETATM   36  C   UNL     1      -7.900   3.796  73.617  1.00  0.00    -0.082 C  
HETATM   37  C   UNL     1      -9.186   4.175  74.334  1.00  0.00    -0.102 C  
HETATM   38  N   UNL     1     -10.149   3.089  74.219  1.00  0.00    -0.125 NA 
HETATM   39  H   UNL     1     -10.979   3.265  74.785  1.00  0.00     0.000 HD 
HETATM   40  C   UNL     1     -10.500   2.827  72.824  1.00  0.00    -0.134 C  
HETATM   41  C   UNL     1      -9.285   2.567  71.939  1.00  0.00    -0.159 C  
ENDBRANCH  11  35
ENDBRANCH   4   5
ENDBRANCH   2   4
TORSDOF 9
ENDMDL
MODEL      167
REMARK 921   NORMALIZED FREE ENERGY PREDICTED BY IDOCK:   -4.53 KCAL/MOL
REMARK 922        TOTAL FREE ENERGY PREDICTED BY IDOCK:   -9.07 KCAL/MOL
REMARK 923 INTER-LIGAND FREE ENERGY PREDICTED BY IDOCK:   -7.29 KCAL/MOL
REMARK 924 INTRA-LIGAND FREE ENERGY PREDICTED BY IDOCK:   -1.79 KCAL/MOL
REMARK 927      BINDING AFFINITY PREDICTED BY RF-SCORE:    0.00 PKD
ROOT
HETATM    1  C   UNL     1      -6.648  13.736  67.571  1.00  0.00    -0.113 C  
HETATM    2  C   UNL     1      -6.787  13.967  69.075  1.00  0.00    -0.111 C  
HETATM    3  C   UNL     1      -5.673  14.907  69.547  1.00  0.00    -0.099 C  
ENDROOT
BRANCH   2   4
HETATM    4  O   UNL     1      -8.116  14.484  69.324  1.00  0.00    -0.088 OA 
BRANCH   4   5
HETATM    5  C   UNL     1      -8.725  15.154  68.284  1.00  0.00    -0.171 A  
HETATM    6  C   UNL     1      -9.725  14.601  67.466  1.00  0.00    -0.210 A  
HETATM    7  C   UNL     1     -10.809  17.586  65.416  1.00  0.00     0.058 C  
HETATM    8  C   UNL     1     -10.465  15.491  66.690  1.00  0.00    -0.299 A  
HETATM    9  C   UNL     1      -8.307  16.501  68.100  1.00  0.00    -0.186 A  
HETATM   10  C   UNL     1     -10.067  16.827  66.490  1.00  0.00    -0.322 A  
HETATM   11  C   UNL     1      -8.954  17.363  67.189  1.00  0.00    -0.248 A  
BRANCH   6  12
HETATM   12  N   UNL     1     -10.103  13.245  67.457  1.00  0.00    -0.221 NA 
HETATM   13  H   UNL     1     -10.215  12.853  66.522  1.00  0.00     0.000 HD 
BRANCH  12  14
HETATM   14  C   UNL     1     -10.349  12.355  68.464  1.00  0.00    -0.221 A  
HETATM   15  N   UNL     1      -9.528  11.277  68.671  1.00  0.00    -0.189 NA 
HETATM   16  C   UNL     1     -11.815  11.505  70.023  1.00  0.00    -0.355 A  
HETATM   17  N   UNL     1     -11.501  12.471  69.087  1.00  0.00    -0.288 NA 
HETATM   18  C   UNL     1      -9.899  10.166  69.440  1.00  0.00    -0.229 A  
HETATM   19  C   UNL     1     -11.140  10.377  70.263  1.00  0.00    -0.307 A  
HETATM   20 CL   UNL     1     -11.679   9.178  71.365  1.00  0.00    -0.386 Cl 
BRANCH  18  21
HETATM   21  N   UNL     1      -9.346   8.977  69.491  1.00  0.00    -0.156 NA 
HETATM   22  H   UNL     1      -8.956   8.633  70.369  1.00  0.00     0.000 HD 
BRANCH  21  23
HETATM   23  C   UNL     1      -9.292   8.181  68.341  1.00  0.00    -0.135 A  
HETATM   24  C   UNL     1     -10.492   7.770  67.739  1.00  0.00    -0.277 A  
HETATM   25  C   UNL     1     -10.518   6.690  66.864  1.00  0.00    -0.349 A  
HETATM   26  C   UNL     1      -9.328   6.060  66.520  1.00  0.00    -0.166 A  
HETATM   27  C   UNL     1      -8.111   6.579  66.962  1.00  0.00    -0.113 A  
HETATM   28  C   UNL     1      -8.088   7.675  67.839  1.00  0.00    -0.123 A  
BRANCH  28  29
HETATM   29  S   UNL     1      -6.556   8.617  67.911  1.00  0.00    -0.062 S  
HETATM   30  O   UNL     1      -6.386   9.009  69.301  1.00  0.00    -0.041 OA 
HETATM   31  O   UNL     1      -5.554   7.754  67.308  1.00  0.00    -0.033 OA 
BRANCH  29  32
HETATM   32  C   UNL     1      -6.646  10.132  66.968  1.00  0.00    -0.074 C  
HETATM   33  C   UNL     1      -5.303  10.521  66.342  1.00  0.00    -0.060 C  
HETATM   34  C   UNL     1      -7.693   9.969  65.853  1.00  0.00    -0.116 C  
ENDBRANCH  29  32
ENDBRANCH  28  29
ENDBRANCH  21  23
ENDBRANCH  18  21
ENDBRANCH  12  14
ENDBRANCH   6  12
BRANCH  11  35
HETATM   35  C   UNL     1      -8.551  18.831  66.945  1.00  0.00    -0.290 C  
HETATM   36  C   UNL     1      -8.219  19.564  68.260  1.00  0.00    -0.373 C  
HETATM   37  C   UNL     1      -6.794  19.294  68.715  1.00  0.00    -0.315 C  
HETATM   38  N   UNL     1      -5.858  19.797  67.720  1.00  0.00    -0.193 NA 
HETATM   39  H   UNL     1      -4.894  19.734  68.049  1.00  0.00     0.000 HD 
HETATM   40  C   UNL     1      -6.028  19.125  66.433  1.00  0.00    -0.165 C  
HETATM   41  C   UNL     1      -7.460  19.189  65.909  1.00  0.00    -0.263 C  
ENDBRANCH  11  35
ENDBRANCH   4   5
ENDBRANCH   2   4
TORSDOF 9
ENDMDL
MODEL      168
REMARK 921   NORMALIZED FREE ENERGY PREDICTED BY IDOCK:   -4.52 KCAL/MOL
REMARK 922        TOTAL FREE ENERGY PREDICTED BY IDOCK:   -9.06 KCAL/MOL
REMARK 923 INTER-LIGAND FREE ENERGY PREDICTED BY IDOCK:   -7.56 KCAL/MOL
REMARK 924 INTRA-LIGAND FREE ENERGY PREDICTED BY IDOCK:   -1.50 KCAL/MOL
REMARK 927      BINDING AFFINITY PREDICTED BY RF-SCORE:    0.00 PKD
ROOT
HETATM    1  C   UNL     1     -12.258  14.717  68.952  1.00  0.00    -0.174 C  
HETATM    2  C   UNL     1     -11.147  13.671  69.035  1.00  0.00    -0.255 C  
HETATM    3  C   UNL     1     -11.772  12.272  69.061  1.00  0.00    -0.376 C  
ENDROOT
BRANCH   2   4
HETATM    4  O   UNL     1     -10.257  13.879  67.913  1.00  0.00    -0.232 OA 
BRANCH   4   5
HETATM    5  C   UNL     1      -9.113  14.609  68.157  1.00  0.00    -0.187 A  
HETATM    6  C   UNL     1      -7.906  14.055  68.615  1.00  0.00    -0.130 A  
HETATM    7  C   UNL     1      -5.550  17.002  68.391  1.00  0.00    -0.131 C  
HETATM    8  C   UNL     1      -6.766  14.849  68.498  1.00  0.00    -0.092 A  
HETATM    9  C   UNL     1      -9.204  15.999  67.869  1.00  0.00    -0.196 A  
HETATM   10  C   UNL     1      -6.833  16.227  68.218  1.00  0.00    -0.134 A  
HETATM   11  C   UNL     1      -8.074  16.843  67.910  1.00  0.00    -0.191 A  
BRANCH   6  12
HETATM   12  N   UNL     1      -7.745  12.734  69.074  1.00  0.00    -0.326 NA 
HETATM   13  H   UNL     1      -7.362  12.668  70.018  1.00  0.00     0.000 HD 
BRANCH  12  14
HETATM   14  C   UNL     1      -8.006  11.524  68.496  1.00  0.00    -0.143 A  
HETATM   15  N   UNL     1      -8.772  10.585  69.136  1.00  0.00    -0.160 NA 
HETATM   16  C   UNL     1      -7.497   9.969  66.877  1.00  0.00    -0.095 A  
HETATM   17  N   UNL     1      -7.335  11.235  67.403  1.00  0.00    -0.108 NA 
HETATM   18  C   UNL     1      -8.796   9.234  68.769  1.00  0.00    -0.132 A  
HETATM   19  C   UNL     1      -8.153   8.949  67.439  1.00  0.00    -0.108 A  
HETATM   20 CL   UNL     1      -8.197   7.373  66.761  1.00  0.00    -0.118 Cl 
BRANCH  18  21
HETATM   21  N   UNL     1      -9.247   8.203  69.444  1.00  0.00    -0.155 NA 
HETATM   22  H   UNL     1     -10.048   7.676  69.096  1.00  0.00     0.000 HD 
BRANCH  21  23
HETATM   23  C   UNL     1      -8.629   7.827  70.643  1.00  0.00    -0.127 A  
HETATM   24  C   UNL     1      -7.854   8.770  71.335  1.00  0.00    -0.166 A  
HETATM   25  C   UNL     1      -6.921   8.370  72.284  1.00  0.00    -0.106 A  
HETATM   26  C   UNL     1      -6.810   7.023  72.607  1.00  0.00    -0.068 A  
HETATM   27  C   UNL     1      -7.705   6.100  72.065  1.00  0.00    -0.097 A  
HETATM   28  C   UNL     1      -8.652   6.509  71.114  1.00  0.00    -0.130 A  
BRANCH  28  29
HETATM   29  S   UNL     1     -10.087   5.445  70.894  1.00  0.00    -0.232 S  
HETATM   30  O   UNL     1     -10.358   4.856  72.195  1.00  0.00    -0.194 OA 
HETATM   31  O   UNL     1     -11.100   6.298  70.295  1.00  0.00    -0.303 OA 
BRANCH  29  32
HETATM   32  C   UNL     1      -9.758   4.085  69.783  1.00  0.00    -0.184 C  
HETATM   33  C   UNL     1      -8.625   4.386  68.797  1.00  0.00    -0.102 C  
HETATM   34  C   UNL     1      -9.391   2.839  70.606  1.00  0.00    -0.218 C  
ENDBRANCH  29  32
ENDBRANCH  28  29
ENDBRANCH  21  23
ENDBRANCH  18  21
ENDBRANCH  12  14
ENDBRANCH   6  12
BRANCH  11  35
HETATM   35  C   UNL     1      -8.107  18.355  67.607  1.00  0.00    -0.257 C  
HETATM   36  C   UNL     1      -8.735  18.654  66.231  1.00  0.00    -0.229 C  
HETATM   37  C   UNL     1     -10.253  18.678  66.294  1.00  0.00    -0.427 C  
HETATM   38  N   UNL     1     -10.691  19.745  67.182  1.00  0.00    -0.456 NA 
HETATM   39  H   UNL     1     -11.704  19.861  67.157  1.00  0.00     0.000 HD 
HETATM   40  C   UNL     1     -10.211  19.539  68.548  1.00  0.00    -0.416 C  
HETATM   41  C   UNL     1      -8.698  19.353  68.630  1.00  0.00    -0.403 C  
ENDBRANCH  11  35
ENDBRANCH   4   5
ENDBRANCH   2   4
TORSDOF 9
ENDMDL
MODEL      169
REMARK 921   NORMALIZED FREE ENERGY PREDICTED BY IDOCK:   -4.52 KCAL/MOL
REMARK 922        TOTAL FREE ENERGY PREDICTED BY IDOCK:   -9.06 KCAL/MOL
REMARK 923 INTER-LIGAND FREE ENERGY PREDICTED BY IDOCK:   -7.48 KCAL/MOL
REMARK 924 INTRA-LIGAND FREE ENERGY PREDICTED BY IDOCK:   -1.58 KCAL/MOL
REMARK 927      BINDING AFFINITY PREDICTED BY RF-SCORE:    0.00 PKD
ROOT
HETATM    1  C   UNL     1     -12.395  15.584  70.520  1.00  0.00    -0.461 C  
HETATM    2  C   UNL     1     -11.618  14.447  69.858  1.00  0.00    -0.284 C  
HETATM    3  C   UNL     1     -12.450  13.161  69.925  1.00  0.00    -0.091 C  
ENDROOT
BRANCH   2   4
HETATM    4  O   UNL     1     -11.302  14.854  68.505  1.00  0.00    -0.270 OA 
BRANCH   4   5
HETATM    5  C   UNL     1      -9.980  15.146  68.239  1.00  0.00    -0.223 A  
HETATM    6  C   UNL     1      -8.997  14.179  67.972  1.00  0.00    -0.183 A  
HETATM    7  C   UNL     1      -6.043  16.312  66.969  1.00  0.00    -0.074 C  
HETATM    8  C   UNL     1      -7.808  14.632  67.404  1.00  0.00    -0.225 A  
HETATM    9  C   UNL     1      -9.658  16.531  68.201  1.00  0.00    -0.226 A  
HETATM   10  C   UNL     1      -7.466  15.997  67.360  1.00  0.00    -0.208 A  
HETATM   11  C   UNL     1      -8.392  16.988  67.780  1.00  0.00    -0.199 A  
BRANCH   6  12
HETATM   12  N   UNL     1      -9.165  12.790  68.132  1.00  0.00    -0.210 NA 
HETATM   13  H   UNL     1     -10.060  12.439  67.788  1.00  0.00     0.000 HD 
BRANCH  12  14
HETATM   14  C   UNL     1      -8.357  11.823  68.659  1.00  0.00    -0.079 A  
HETATM   15  N   UNL     1      -8.685  10.496  68.562  1.00  0.00    -0.133 NA 
HETATM   16  C   UNL     1      -6.618  11.264  70.061  1.00  0.00    -0.066 A  
HETATM   17  N   UNL     1      -7.368  12.232  69.424  1.00  0.00     0.186 NA 
HETATM   18  C   UNL     1      -8.100   9.500  69.355  1.00  0.00    -0.116 A  
HETATM   19  C   UNL     1      -6.878   9.954  70.104  1.00  0.00    -0.125 A  
HETATM   20 CL   UNL     1      -5.950   8.844  71.027  1.00  0.00    -0.040 Cl 
BRANCH  18  21
HETATM   21  N   UNL     1      -8.503   8.269  69.564  1.00  0.00    -0.124 NA 
HETATM   22  H   UNL     1      -8.030   7.492  69.104  1.00  0.00     0.000 HD 
BRANCH  21  23
HETATM   23  C   UNL     1      -9.584   8.023  70.419  1.00  0.00    -0.174 A  
HETATM   24  C   UNL     1     -10.702   8.870  70.367  1.00  0.00    -0.261 A  
HETATM   25  C   UNL     1     -11.606   8.927  71.421  1.00  0.00    -0.382 A  
HETATM   26  C   UNL     1     -11.443   8.074  72.507  1.00  0.00    -0.471 A  
HETATM   27  C   UNL     1     -10.447   7.097  72.482  1.00  0.00    -0.254 A  
HETATM   28  C   UNL     1      -9.542   7.038  71.412  1.00  0.00    -0.162 A  
BRANCH  28  29
HETATM   29  S   UNL     1      -8.687   5.473  71.164  1.00  0.00    -0.131 S  
HETATM   30  O   UNL     1      -9.518   4.454  71.786  1.00  0.00    -0.133 OA 
HETATM   31  O   UNL     1      -8.452   5.395  69.732  1.00  0.00    -0.098 OA 
BRANCH  29  32
HETATM   32  C   UNL     1      -7.111   5.421  72.004  1.00  0.00    -0.085 C  
HETATM   33  C   UNL     1      -7.169   6.028  73.409  1.00  0.00    -0.085 C  
HETATM   34  C   UNL     1      -6.642   3.960  72.105  1.00  0.00    -0.018 C  
ENDBRANCH  29  32
ENDBRANCH  28  29
ENDBRANCH  21  23
ENDBRANCH  18  21
ENDBRANCH  12  14
ENDBRANCH   6  12
BRANCH  11  35
HETATM   35  C   UNL     1      -7.981  18.474  67.715  1.00  0.00    -0.263 C  
HETATM   36  C   UNL     1      -8.305  19.102  66.345  1.00  0.00    -0.326 C  
HETATM   37  C   UNL     1      -9.756  19.545  66.254  1.00  0.00    -0.402 C  
HETATM   38  N   UNL     1     -10.018  20.576  67.247  1.00  0.00    -0.439 NA 
HETATM   39  H   UNL     1     -10.951  20.973  67.135  1.00  0.00     0.000 HD 
HETATM   40  C   UNL     1      -9.810  20.078  68.606  1.00  0.00    -0.267 C  
HETATM   41  C   UNL     1      -8.428  19.465  68.814  1.00  0.00    -0.377 C  
ENDBRANCH  11  35
ENDBRANCH   4   5
ENDBRANCH   2   4
TORSDOF 9
ENDMDL
MODEL      170
REMARK 921   NORMALIZED FREE ENERGY PREDICTED BY IDOCK:   -4.49 KCAL/MOL
REMARK 922        TOTAL FREE ENERGY PREDICTED BY IDOCK:   -9.03 KCAL/MOL
REMARK 923 INTER-LIGAND FREE ENERGY PREDICTED BY IDOCK:   -7.52 KCAL/MOL
REMARK 924 INTRA-LIGAND FREE ENERGY PREDICTED BY IDOCK:   -1.51 KCAL/MOL
REMARK 927      BINDING AFFINITY PREDICTED BY RF-SCORE:    0.00 PKD
ROOT
HETATM    1  C   UNL     1      -6.309   8.538  70.298  1.00  0.00    -0.035 C  
HETATM    2  C   UNL     1      -7.255   9.439  69.505  1.00  0.00    -0.067 C  
HETATM    3  C   UNL     1      -6.881  10.905  69.753  1.00  0.00    -0.134 C  
ENDROOT
BRANCH   2   4
HETATM    4  O   UNL     1      -7.171   9.054  68.112  1.00  0.00    -0.077 OA 
BRANCH   4   5
HETATM    5  C   UNL     1      -8.064   8.095  67.680  1.00  0.00    -0.127 A  
HETATM    6  C   UNL     1      -9.131   8.349  66.803  1.00  0.00    -0.157 A  
HETATM    7  C   UNL     1     -10.420   4.867  66.100  1.00  0.00    -0.346 C  
HETATM    8  C   UNL     1      -9.731   7.242  66.206  1.00  0.00    -0.068 A  
HETATM    9  C   UNL     1      -7.814   6.776  68.148  1.00  0.00    -0.113 A  
HETATM   10  C   UNL     1      -9.502   5.927  66.656  1.00  0.00    -0.165 A  
HETATM   11  C   UNL     1      -8.536   5.666  67.663  1.00  0.00    -0.108 A  
BRANCH   6  12
HETATM   12  N   UNL     1      -9.561   9.628  66.402  1.00  0.00    -0.193 NA 
HETATM   13  H   UNL     1      -9.413   9.823  65.411  1.00  0.00     0.000 HD 
BRANCH  12  14
HETATM   14  C   UNL     1     -10.140  10.658  67.089  1.00  0.00    -0.207 A  
HETATM   15  N   UNL     1     -10.083  11.943  66.616  1.00  0.00    -0.198 NA 
HETATM   16  C   UNL     1     -11.049  11.447  69.051  1.00  0.00    -0.243 A  
HETATM   17  N   UNL     1     -10.574  10.390  68.301  1.00  0.00    -0.197 NA 
HETATM   18  C   UNL     1     -10.345  13.066  67.412  1.00  0.00    -0.234 A  
HETATM   19  C   UNL     1     -10.982  12.744  68.735  1.00  0.00    -0.250 A  
HETATM   20 CL   UNL     1     -11.495  13.994  69.793  1.00  0.00    -0.307 Cl 
BRANCH  18  21
HETATM   21  N   UNL     1     -10.063  14.327  67.179  1.00  0.00    -0.252 NA 
HETATM   22  H   UNL     1     -10.809  14.982  66.947  1.00  0.00     0.000 HD 
BRANCH  21  23
HETATM   23  C   UNL     1      -8.737  14.771  67.249  1.00  0.00    -0.210 A  
HETATM   24  C   UNL     1      -7.711  13.830  67.429  1.00  0.00    -0.158 A  
HETATM   25  C   UNL     1      -6.459  14.219  67.892  1.00  0.00    -0.175 A  
HETATM   26  C   UNL     1      -6.197  15.567  68.103  1.00  0.00    -0.139 A  
HETATM   27  C   UNL     1      -7.146  16.526  67.745  1.00  0.00    -0.154 A  
HETATM   28  C   UNL     1      -8.405  16.130  67.271  1.00  0.00    -0.180 A  
BRANCH  28  29
HETATM   29  S   UNL     1      -9.331  17.351  66.326  1.00  0.00    -0.173 S  
HETATM   30  O   UNL     1      -8.362  18.340  65.881  1.00  0.00    -0.506 OA 
HETATM   31  O   UNL     1     -10.048  16.584  65.320  1.00  0.00    -0.564 OA 
BRANCH  29  32
HETATM   32  C   UNL     1     -10.521  18.227  67.330  1.00  0.00    -0.409 C  
HETATM   33  C   UNL     1     -10.743  17.567  68.695  1.00  0.00    -0.201 C  
HETATM   34  C   UNL     1     -10.036  19.671  67.542  1.00  0.00    -0.513 C  
ENDBRANCH  29  32
ENDBRANCH  28  29
ENDBRANCH  21  23
ENDBRANCH  18  21
ENDBRANCH  12  14
ENDBRANCH   6  12
BRANCH  11  35
HETATM   35  C   UNL     1      -8.313   4.212  68.129  1.00  0.00    -0.099 C  
HETATM   36  C   UNL     1      -6.984   4.049  68.892  1.00  0.00    -0.047 C  
HETATM   37  C   UNL     1      -7.116   4.451  70.352  1.00  0.00    -0.045 C  
HETATM   38  N   UNL     1      -8.076   3.580  71.015  1.00  0.00    -0.064 NA 
HETATM   39  H   UNL     1      -8.102   3.750  72.021  1.00  0.00     0.000 HD 
HETATM   40  C   UNL     1      -9.406   3.695  70.420  1.00  0.00    -0.168 C  
HETATM   41  C   UNL     1      -9.411   3.456  68.913  1.00  0.00    -0.237 C  
ENDBRANCH  11  35
ENDBRANCH   4   5
ENDBRANCH   2   4
TORSDOF 9
ENDMDL
MODEL      171
REMARK 921   NORMALIZED FREE ENERGY PREDICTED BY IDOCK:   -4.48 KCAL/MOL
REMARK 922        TOTAL FREE ENERGY PREDICTED BY IDOCK:   -9.01 KCAL/MOL
REMARK 923 INTER-LIGAND FREE ENERGY PREDICTED BY IDOCK:   -7.46 KCAL/MOL
REMARK 924 INTRA-LIGAND FREE ENERGY PREDICTED BY IDOCK:   -1.54 KCAL/MOL
REMARK 927      BINDING AFFINITY PREDICTED BY RF-SCORE:    0.00 PKD
ROOT
HETATM    1  C   UNL     1     -12.762  13.890  65.386  1.00  0.00    -0.525 C  
HETATM    2  C   UNL     1     -11.432  14.619  65.568  1.00  0.00    -0.341 C  
HETATM    3  C   UNL     1     -11.534  16.019  64.953  1.00  0.00    -0.125 C  
ENDROOT
BRANCH   2   4
HETATM    4  O   UNL     1     -11.125  14.636  66.983  1.00  0.00    -0.315 OA 
BRANCH   4   5
HETATM    5  C   UNL     1      -9.791  14.581  67.328  1.00  0.00    -0.236 A  
HETATM    6  C   UNL     1      -9.046  13.393  67.411  1.00  0.00    -0.216 A  
HETATM    7  C   UNL     1      -5.540  14.697  67.957  1.00  0.00    -0.134 C  
HETATM    8  C   UNL     1      -7.659  13.523  67.444  1.00  0.00    -0.140 A  
HETATM    9  C   UNL     1      -9.170  15.839  67.562  1.00  0.00    -0.207 A  
HETATM   10  C   UNL     1      -7.022  14.757  67.679  1.00  0.00    -0.204 A  
HETATM   11  C   UNL     1      -7.778  15.956  67.760  1.00  0.00    -0.156 A  
BRANCH   6  12
HETATM   12  N   UNL     1      -9.586  12.094  67.352  1.00  0.00    -0.176 NA 
HETATM   13  H   UNL     1      -9.612  11.699  66.411  1.00  0.00     0.000 HD 
BRANCH  12  14
HETATM   14  C   UNL     1     -10.080  11.262  68.316  1.00  0.00    -0.188 A  
HETATM   15  N   UNL     1     -10.042   9.901  68.163  1.00  0.00    -0.159 NA 
HETATM   16  C   UNL     1     -11.370  10.988  70.204  1.00  0.00    -0.251 A  
HETATM   17  N   UNL     1     -10.761  11.825  69.290  1.00  0.00    -0.132 NA 
HETATM   18  C   UNL     1     -10.818   9.020  68.928  1.00  0.00    -0.045 A  
HETATM   19  C   UNL     1     -11.466   9.657  70.126  1.00  0.00    -0.189 A  
HETATM   20 CL   UNL     1     -12.350   8.713  71.254  1.00  0.00    -0.316 Cl 
BRANCH  18  21
HETATM   21  N   UNL     1     -11.088   7.754  68.708  1.00  0.00    -0.401 NA 
HETATM   22  H   UNL     1     -11.908   7.496  68.160  1.00  0.00     0.000 HD 
BRANCH  21  23
HETATM   23  C   UNL     1     -10.249   6.760  69.226  1.00  0.00    -0.181 A  
HETATM   24  C   UNL     1     -10.353   6.419  70.583  1.00  0.00    -0.243 A  
HETATM   25  C   UNL     1      -9.321   5.753  71.233  1.00  0.00    -0.166 A  
HETATM   26  C   UNL     1      -8.205   5.350  70.509  1.00  0.00    -0.110 A  
HETATM   27  C   UNL     1      -8.176   5.514  69.124  1.00  0.00    -0.095 A  
HETATM   28  C   UNL     1      -9.224   6.180  68.470  1.00  0.00    -0.115 A  
BRANCH  28  29
HETATM   29  S   UNL     1      -9.402   5.867  66.706  1.00  0.00    -0.140 S  
HETATM   30  O   UNL     1     -10.205   4.660  66.588  1.00  0.00    -0.237 OA 
HETATM   31  O   UNL     1      -9.929   7.104  66.155  1.00  0.00     0.022 OA 
BRANCH  29  32
HETATM   32  C   UNL     1      -7.839   5.512  65.919  1.00  0.00    -0.104 C  
HETATM   33  C   UNL     1      -7.955   4.449  64.823  1.00  0.00    -0.090 C  
HETATM   34  C   UNL     1      -7.277   6.807  65.307  1.00  0.00    -0.073 C  
ENDBRANCH  29  32
ENDBRANCH  28  29
ENDBRANCH  21  23
ENDBRANCH  18  21
ENDBRANCH  12  14
ENDBRANCH   6  12
BRANCH  11  35
HETATM   35  C   UNL     1      -7.045  17.288  68.017  1.00  0.00    -0.184 C  
HETATM   36  C   UNL     1      -6.429  17.865  66.727  1.00  0.00    -0.218 C  
HETATM   37  C   UNL     1      -7.451  18.635  65.906  1.00  0.00    -0.180 C  
HETATM   38  N   UNL     1      -7.936  19.775  66.671  1.00  0.00    -0.295 NA 
HETATM   39  H   UNL     1      -8.536  20.375  66.106  1.00  0.00     0.000 HD 
HETATM   40  C   UNL     1      -8.607  19.352  67.899  1.00  0.00    -0.313 C  
HETATM   41  C   UNL     1      -7.745  18.443  68.770  1.00  0.00    -0.287 C  
ENDBRANCH  11  35
ENDBRANCH   4   5
ENDBRANCH   2   4
TORSDOF 9
ENDMDL
MODEL      172
REMARK 921   NORMALIZED FREE ENERGY PREDICTED BY IDOCK:   -4.47 KCAL/MOL
REMARK 922        TOTAL FREE ENERGY PREDICTED BY IDOCK:   -8.99 KCAL/MOL
REMARK 923 INTER-LIGAND FREE ENERGY PREDICTED BY IDOCK:   -7.27 KCAL/MOL
REMARK 924 INTRA-LIGAND FREE ENERGY PREDICTED BY IDOCK:   -1.72 KCAL/MOL
REMARK 927      BINDING AFFINITY PREDICTED BY RF-SCORE:    0.00 PKD
ROOT
HETATM    1  C   UNL     1      -6.909  11.239  66.267  1.00  0.00    -0.001 C  
HETATM    2  C   UNL     1      -7.078  10.037  65.340  1.00  0.00    -0.138 C  
HETATM    3  C   UNL     1      -5.995   8.999  65.655  1.00  0.00    -0.051 C  
ENDROOT
BRANCH   2   4
HETATM    4  O   UNL     1      -8.424   9.530  65.512  1.00  0.00    -0.129 OA 
BRANCH   4   5
HETATM    5  C   UNL     1      -9.186  10.120  66.499  1.00  0.00    -0.153 A  
HETATM    6  C   UNL     1      -9.050   9.847  67.870  1.00  0.00    -0.131 A  
HETATM    7  C   UNL     1     -11.340  12.424  69.419  1.00  0.00    -0.286 C  
HETATM    8  C   UNL     1      -9.646  10.746  68.752  1.00  0.00    -0.194 A  
HETATM    9  C   UNL     1     -10.123  11.090  66.046  1.00  0.00    -0.297 A  
HETATM   10  C   UNL     1     -10.580  11.711  68.327  1.00  0.00    -0.232 A  
HETATM   11  C   UNL     1     -10.854  11.894  66.946  1.00  0.00    -0.305 A  
BRANCH   6  12
HETATM   12  N   UNL     1      -8.273   8.806  68.414  1.00  0.00    -0.117 NA 
HETATM   13  H   UNL     1      -7.440   9.128  68.909  1.00  0.00     0.000 HD 
BRANCH  12  14
HETATM   14  C   UNL     1      -8.422   7.448  68.404  1.00  0.00    -0.125 A  
HETATM   15  N   UNL     1      -9.199   6.816  69.340  1.00  0.00    -0.143 NA 
HETATM   16  C   UNL     1      -7.694   5.396  67.658  1.00  0.00    -0.092 A  
HETATM   17  N   UNL     1      -7.641   6.773  67.590  1.00  0.00    -0.104 NA 
HETATM   18  C   UNL     1      -9.125   5.441  69.597  1.00  0.00    -0.116 A  
HETATM   19  C   UNL     1      -8.350   4.666  68.566  1.00  0.00    -0.086 A  
HETATM   20 CL   UNL     1      -8.258   2.955  68.639  1.00  0.00    -0.076 Cl 
BRANCH  18  21
HETATM   21  N   UNL     1      -9.587   4.767  70.624  1.00  0.00    -0.170 NA 
HETATM   22  H   UNL     1      -9.910   3.807  70.501  1.00  0.00     0.000 HD 
BRANCH  21  23
HETATM   23  C   UNL     1      -9.638   5.367  71.887  1.00  0.00    -0.154 A  
HETATM   24  C   UNL     1     -10.864   5.861  72.359  1.00  0.00    -0.288 A  
HETATM   25  C   UNL     1     -10.909   6.791  73.392  1.00  0.00    -0.282 A  
HETATM   26  C   UNL     1      -9.729   7.175  74.017  1.00  0.00    -0.314 A  
HETATM   27  C   UNL     1      -8.528   6.548  73.685  1.00  0.00    -0.130 A  
HETATM   28  C   UNL     1      -8.487   5.604  72.648  1.00  0.00    -0.120 A  
BRANCH  28  29
HETATM   29  S   UNL     1      -7.096   4.461  72.652  1.00  0.00    -0.065 S  
HETATM   30  O   UNL     1      -6.591   4.442  74.016  1.00  0.00    -0.050 OA 
HETATM   31  O   UNL     1      -7.622   3.227  72.091  1.00  0.00    -0.054 OA 
BRANCH  29  32
HETATM   32  C   UNL     1      -5.751   5.028  71.623  1.00  0.00    -0.012 C  
HETATM   33  C   UNL     1      -5.422   4.053  70.488  1.00  0.00    -0.012 C  
HETATM   34  C   UNL     1      -6.117   6.395  71.022  1.00  0.00    -0.032 C  
ENDBRANCH  29  32
ENDBRANCH  28  29
ENDBRANCH  21  23
ENDBRANCH  18  21
ENDBRANCH  12  14
ENDBRANCH   6  12
BRANCH  11  35
HETATM   35  C   UNL     1     -11.882  12.962  66.520  1.00  0.00    -0.473 C  
HETATM   36  C   UNL     1     -11.305  14.388  66.617  1.00  0.00    -0.359 C  
HETATM   37  C   UNL     1     -10.484  14.752  65.390  1.00  0.00    -0.380 C  
HETATM   38  N   UNL     1     -11.334  14.735  64.208  1.00  0.00    -0.639 NA 
HETATM   39  H   UNL     1     -10.839  15.085  63.388  1.00  0.00     0.000 HD 
HETATM   40  C   UNL     1     -11.894  13.406  63.968  1.00  0.00    -0.445 C  
HETATM   41  C   UNL     1     -12.636  12.841  65.176  1.00  0.00    -0.513 C  
ENDBRANCH  11  35
ENDBRANCH   4   5
ENDBRANCH   2   4
TORSDOF 9
ENDMDL
MODEL      173
REMARK 921   NORMALIZED FREE ENERGY PREDICTED BY IDOCK:   -4.46 KCAL/MOL
REMARK 922        TOTAL FREE ENERGY PREDICTED BY IDOCK:   -8.98 KCAL/MOL
REMARK 923 INTER-LIGAND FREE ENERGY PREDICTED BY IDOCK:   -7.56 KCAL/MOL
REMARK 924 INTRA-LIGAND FREE ENERGY PREDICTED BY IDOCK:   -1.42 KCAL/MOL
REMARK 927      BINDING AFFINITY PREDICTED BY RF-SCORE:    0.00 PKD
ROOT
HETATM    1  C   UNL     1     -11.095   9.813  71.135  1.00  0.00    -0.414 C  
HETATM    2  C   UNL     1     -11.240   8.293  71.177  1.00  0.00    -0.258 C  
HETATM    3  C   UNL     1     -12.566   7.930  71.854  1.00  0.00    -0.348 C  
ENDROOT
BRANCH   2   4
HETATM    4  O   UNL     1     -11.136   7.799  69.820  1.00  0.00    -0.204 OA 
BRANCH   4   5
HETATM    5  C   UNL     1      -9.976   7.130  69.492  1.00  0.00    -0.164 A  
HETATM    6  C   UNL     1      -9.006   7.621  68.602  1.00  0.00    -0.133 A  
HETATM    7  C   UNL     1      -6.225   5.091  68.991  1.00  0.00    -0.030 C  
HETATM    8  C   UNL     1      -7.759   7.000  68.627  1.00  0.00    -0.120 A  
HETATM    9  C   UNL     1      -9.779   5.889  70.159  1.00  0.00    -0.211 A  
HETATM   10  C   UNL     1      -7.542   5.769  69.277  1.00  0.00    -0.088 A  
HETATM   11  C   UNL     1      -8.569   5.172  70.054  1.00  0.00    -0.109 A  
BRANCH   6  12
HETATM   12  N   UNL     1      -9.164   8.750  67.777  1.00  0.00    -0.134 NA 
HETATM   13  H   UNL     1      -9.747   8.585  66.956  1.00  0.00     0.000 HD 
BRANCH  12  14
HETATM   14  C   UNL     1      -8.685  10.027  67.868  1.00  0.00    -0.125 A  
HETATM   15  N   UNL     1      -9.532  11.090  68.039  1.00  0.00    -0.162 NA 
HETATM   16  C   UNL     1      -6.942  11.499  67.558  1.00  0.00    -0.102 A  
HETATM   17  N   UNL     1      -7.412  10.201  67.590  1.00  0.00    -0.089 NA 
HETATM   18  C   UNL     1      -9.156  12.418  67.802  1.00  0.00    -0.193 A  
HETATM   19  C   UNL     1      -7.675  12.615  67.636  1.00  0.00    -0.155 A  
HETATM   20 CL   UNL     1      -7.009  14.187  67.466  1.00  0.00    -0.201 Cl 
BRANCH  18  21
HETATM   21  N   UNL     1      -9.917  13.478  67.655  1.00  0.00    -0.225 NA 
HETATM   22  H   UNL     1      -9.932  13.975  66.765  1.00  0.00     0.000 HD 
BRANCH  21  23
HETATM   23  C   UNL     1     -10.706  13.925  68.721  1.00  0.00    -0.262 A  
HETATM   24  C   UNL     1     -11.392  12.983  69.504  1.00  0.00    -0.223 A  
HETATM   25  C   UNL     1     -12.469  13.362  70.297  1.00  0.00    -0.285 A  
HETATM   26  C   UNL     1     -12.821  14.704  70.375  1.00  0.00    -0.321 A  
HETATM   27  C   UNL     1     -12.030  15.670  69.752  1.00  0.00    -0.371 A  
HETATM   28  C   UNL     1     -10.938  15.284  68.960  1.00  0.00    -0.254 A  
BRANCH  28  29
HETATM   29  S   UNL     1      -9.671  16.531  68.670  1.00  0.00    -0.256 S  
HETATM   30  O   UNL     1     -10.244  17.798  69.097  1.00  0.00    -0.346 OA 
HETATM   31  O   UNL     1      -8.492  16.037  69.362  1.00  0.00    -0.247 OA 
BRANCH  29  32
HETATM   32  C   UNL     1      -9.282  16.711  66.936  1.00  0.00    -0.227 C  
HETATM   33  C   UNL     1     -10.521  16.633  66.040  1.00  0.00    -0.306 C  
HETATM   34  C   UNL     1      -8.584  18.063  66.715  1.00  0.00    -0.270 C  
ENDBRANCH  29  32
ENDBRANCH  28  29
ENDBRANCH  21  23
ENDBRANCH  18  21
ENDBRANCH  12  14
ENDBRANCH   6  12
BRANCH  11  35
HETATM   35  C   UNL     1      -8.293   3.824  70.752  1.00  0.00    -0.091 C  
HETATM   36  C   UNL     1      -7.420   3.995  72.011  1.00  0.00    -0.065 C  
HETATM   37  C   UNL     1      -8.245   4.404  73.221  1.00  0.00    -0.095 C  
HETATM   38  N   UNL     1      -9.209   3.359  73.533  1.00  0.00    -0.096 NA 
HETATM   39  H   UNL     1      -9.699   3.551  74.406  1.00  0.00     0.000 HD 
HETATM   40  C   UNL     1     -10.146   3.146  72.431  1.00  0.00    -0.157 C  
HETATM   41  C   UNL     1      -9.453   2.863  71.101  1.00  0.00    -0.225 C  
ENDBRANCH  11  35
ENDBRANCH   4   5
ENDBRANCH   2   4
TORSDOF 9
ENDMDL
MODEL      174
REMARK 921   NORMALIZED FREE ENERGY PREDICTED BY IDOCK:   -4.43 KCAL/MOL
REMARK 922        TOTAL FREE ENERGY PREDICTED BY IDOCK:   -8.93 KCAL/MOL
REMARK 923 INTER-LIGAND FREE ENERGY PREDICTED BY IDOCK:   -7.90 KCAL/MOL
REMARK 924 INTRA-LIGAND FREE ENERGY PREDICTED BY IDOCK:   -1.03 KCAL/MOL
REMARK 927      BINDING AFFINITY PREDICTED BY RF-SCORE:    0.00 PKD
ROOT
HETATM    1  C   UNL     1      -6.075  14.966  70.491  1.00  0.00    -0.113 C  
HETATM    2  C   UNL     1      -5.761  13.878  69.465  1.00  0.00    -0.093 C  
HETATM    3  C   UNL     1      -6.112  12.509  70.056  1.00  0.00    -0.117 C  
ENDROOT
BRANCH   2   4
HETATM    4  O   UNL     1      -6.495  14.185  68.255  1.00  0.00    -0.093 OA 
BRANCH   4   5
HETATM    5  C   UNL     1      -7.247  15.342  68.263  1.00  0.00    -0.117 A  
HETATM    6  C   UNL     1      -8.597  15.403  68.647  1.00  0.00    -0.179 A  
HETATM    7  C   UNL     1      -9.244  19.127  68.663  1.00  0.00    -0.429 C  
HETATM    8  C   UNL     1      -9.116  16.667  68.918  1.00  0.00    -0.238 A  
HETATM    9  C   UNL     1      -6.549  16.524  67.892  1.00  0.00    -0.155 A  
HETATM   10  C   UNL     1      -8.445  17.851  68.555  1.00  0.00    -0.303 A  
HETATM   11  C   UNL     1      -7.135  17.802  68.012  1.00  0.00    -0.209 A  
BRANCH   6  12
HETATM   12  N   UNL     1      -9.422  14.287  68.883  1.00  0.00    -0.372 NA 
HETATM   13  H   UNL     1      -9.841  14.271  69.813  1.00  0.00     0.000 HD 
BRANCH  12  14
HETATM   14  C   UNL     1      -9.768  13.221  68.101  1.00  0.00    -0.227 A  
HETATM   15  N   UNL     1     -10.000  11.987  68.650  1.00  0.00    -0.183 NA 
HETATM   16  C   UNL     1      -9.905  12.285  66.002  1.00  0.00    -0.248 A  
HETATM   17  N   UNL     1      -9.676  13.388  66.800  1.00  0.00    -0.255 NA 
HETATM   18  C   UNL     1     -10.020  10.804  67.899  1.00  0.00    -0.174 A  
HETATM   19  C   UNL     1     -10.068  11.023  66.412  1.00  0.00    -0.229 A  
HETATM   20 CL   UNL     1     -10.227   9.699  65.333  1.00  0.00    -0.120 Cl 
BRANCH  18  21
HETATM   21  N   UNL     1      -9.950   9.562  68.315  1.00  0.00    -0.156 NA 
HETATM   22  H   UNL     1     -10.691   8.902  68.079  1.00  0.00     0.000 HD 
BRANCH  21  23
HETATM   23  C   UNL     1      -8.858   9.142  69.084  1.00  0.00    -0.146 A  
HETATM   24  C   UNL     1      -7.559   9.447  68.647  1.00  0.00    -0.080 A  
HETATM   25  C   UNL     1      -6.461   8.744  69.128  1.00  0.00    -0.043 A  
HETATM   26  C   UNL     1      -6.643   7.781  70.113  1.00  0.00    -0.038 A  
HETATM   27  C   UNL     1      -7.901   7.605  70.691  1.00  0.00    -0.097 A  
HETATM   28  C   UNL     1      -9.006   8.322  70.208  1.00  0.00    -0.142 A  
BRANCH  28  29
HETATM   29  S   UNL     1     -10.416   8.475  71.318  1.00  0.00    -0.244 S  
HETATM   30  O   UNL     1      -9.876   8.426  72.667  1.00  0.00    -0.282 OA 
HETATM   31  O   UNL     1     -11.103   9.682  70.890  1.00  0.00    -0.296 OA 
BRANCH  29  32
HETATM   32  C   UNL     1     -11.544   7.096  71.175  1.00  0.00    -0.301 C  
HETATM   33  C   UNL     1     -13.005   7.504  71.383  1.00  0.00    -0.379 C  
HETATM   34  C   UNL     1     -11.390   6.462  69.783  1.00  0.00    -0.494 C  
ENDBRANCH  29  32
ENDBRANCH  28  29
ENDBRANCH  21  23
ENDBRANCH  18  21
ENDBRANCH  12  14
ENDBRANCH   6  12
BRANCH  11  35
HETATM   35  C   UNL     1      -6.431  19.120  67.628  1.00  0.00    -0.225 C  
HETATM   36  C   UNL     1      -5.177  18.874  66.765  1.00  0.00    -0.145 C  
HETATM   37  C   UNL     1      -5.527  18.685  65.298  1.00  0.00    -0.196 C  
HETATM   38  N   UNL     1      -6.147  19.897  64.781  1.00  0.00    -0.247 NA 
HETATM   39  H   UNL     1      -6.289  19.842  63.773  1.00  0.00     0.000 HD 
HETATM   40  C   UNL     1      -7.394  20.203  65.480  1.00  0.00    -0.221 C  
HETATM   41  C   UNL     1      -7.227  20.285  66.995  1.00  0.00    -0.315 C  
ENDBRANCH  11  35
ENDBRANCH   4   5
ENDBRANCH   2   4
TORSDOF 9
ENDMDL
MODEL      175
REMARK 921   NORMALIZED FREE ENERGY PREDICTED BY IDOCK:   -4.43 KCAL/MOL
REMARK 922        TOTAL FREE ENERGY PREDICTED BY IDOCK:   -8.93 KCAL/MOL
REMARK 923 INTER-LIGAND FREE ENERGY PREDICTED BY IDOCK:   -7.42 KCAL/MOL
REMARK 924 INTRA-LIGAND FREE ENERGY PREDICTED BY IDOCK:   -1.51 KCAL/MOL
REMARK 927      BINDING AFFINITY PREDICTED BY RF-SCORE:    0.00 PKD
ROOT
HETATM    1  C   UNL     1      -7.937   4.469  67.038  1.00  0.00    -0.102 C  
HETATM    2  C   UNL     1      -8.109   4.199  68.532  1.00  0.00    -0.076 C  
HETATM    3  C   UNL     1      -7.606   2.787  68.851  1.00  0.00    -0.047 C  
ENDROOT
BRANCH   2   4
HETATM    4  O   UNL     1      -7.402   5.235  69.254  1.00  0.00    -0.056 OA 
BRANCH   4   5
HETATM    5  C   UNL     1      -8.151   6.015  70.111  1.00  0.00    -0.114 A  
HETATM    6  C   UNL     1      -8.567   7.326  69.825  1.00  0.00    -0.141 A  
HETATM    7  C   UNL     1     -10.875   8.071  72.724  1.00  0.00    -0.438 C  
HETATM    8  C   UNL     1      -9.577   7.853  70.627  1.00  0.00    -0.167 A  
HETATM    9  C   UNL     1      -8.536   5.385  71.327  1.00  0.00    -0.128 A  
HETATM   10  C   UNL     1      -9.972   7.250  71.837  1.00  0.00    -0.184 A  
HETATM   11  C   UNL     1      -9.439   5.993  72.225  1.00  0.00    -0.159 A  
BRANCH   6  12
HETATM   12  N   UNL     1      -8.121   8.095  68.734  1.00  0.00    -0.118 NA 
HETATM   13  H   UNL     1      -8.118   7.591  67.847  1.00  0.00     0.000 HD 
BRANCH  12  14
HETATM   14  C   UNL     1      -7.694   9.390  68.638  1.00  0.00    -0.084 A  
HETATM   15  N   UNL     1      -8.418  10.324  67.946  1.00  0.00    -0.117 NA 
HETATM   16  C   UNL     1      -5.987  10.918  68.865  1.00  0.00    -0.040 A  
HETATM   17  N   UNL     1      -6.477   9.643  69.067  1.00  0.00    -0.045 NA 
HETATM   18  C   UNL     1      -7.887  11.550  67.525  1.00  0.00    -0.133 A  
HETATM   19  C   UNL     1      -6.560  11.889  68.147  1.00  0.00    -0.057 A  
HETATM   20 CL   UNL     1      -5.813  13.405  67.854  1.00  0.00    -0.126 Cl 
BRANCH  18  21
HETATM   21  N   UNL     1      -8.361  12.394  66.639  1.00  0.00    -0.395 NA 
HETATM   22  H   UNL     1      -8.026  13.358  66.622  1.00  0.00     0.000 HD 
BRANCH  21  23
HETATM   23  C   UNL     1      -9.326  11.972  65.717  1.00  0.00    -0.125 A  
HETATM   24  C   UNL     1      -9.211  10.695  65.147  1.00  0.00    -0.241 A  
HETATM   25  C   UNL     1      -9.881  10.375  63.971  1.00  0.00    -0.355 A  
HETATM   26  C   UNL     1     -10.736  11.307  63.397  1.00  0.00    -0.349 A  
HETATM   27  C   UNL     1     -11.005  12.507  64.057  1.00  0.00    -0.443 A  
HETATM   28  C   UNL     1     -10.334  12.823  65.248  1.00  0.00    -0.296 A  
BRANCH  28  29
HETATM   29  S   UNL     1     -11.107  14.056  66.307  1.00  0.00    -0.312 S  
HETATM   30  O   UNL     1     -10.045  14.962  66.717  1.00  0.00    -0.244 OA 
HETATM   31  O   UNL     1     -12.206  14.591  65.521  1.00  0.00    -0.353 OA 
BRANCH  29  32
HETATM   32  C   UNL     1     -11.770  13.345  67.805  1.00  0.00    -0.359 C  
HETATM   33  C   UNL     1     -11.731  11.813  67.800  1.00  0.00    -0.337 C  
HETATM   34  C   UNL     1     -10.967  13.865  69.008  1.00  0.00    -0.281 C  
ENDBRANCH  29  32
ENDBRANCH  28  29
ENDBRANCH  21  23
ENDBRANCH  18  21
ENDBRANCH  12  14
ENDBRANCH   6  12
BRANCH  11  35
HETATM   35  C   UNL     1      -9.897   5.363  73.557  1.00  0.00    -0.173 C  
HETATM   36  C   UNL     1     -11.040   4.349  73.352  1.00  0.00    -0.394 C  
HETATM   37  C   UNL     1     -10.518   2.983  72.936  1.00  0.00    -0.148 C  
HETATM   38  N   UNL     1      -9.674   2.438  73.989  1.00  0.00    -0.091 NA 
HETATM   39  H   UNL     1      -9.402   1.476  73.789  1.00  0.00     0.000 HD 
HETATM   40  C   UNL     1      -8.507   3.284  74.234  1.00  0.00    -0.076 C  
HETATM   41  C   UNL     1      -8.870   4.736  74.529  1.00  0.00    -0.111 C  
ENDBRANCH  11  35
ENDBRANCH   4   5
ENDBRANCH   2   4
TORSDOF 9
ENDMDL
MODEL      176
REMARK 921   NORMALIZED FREE ENERGY PREDICTED BY IDOCK:   -4.41 KCAL/MOL
REMARK 922        TOTAL FREE ENERGY PREDICTED BY IDOCK:   -8.89 KCAL/MOL
REMARK 923 INTER-LIGAND FREE ENERGY PREDICTED BY IDOCK:   -7.72 KCAL/MOL
REMARK 924 INTRA-LIGAND FREE ENERGY PREDICTED BY IDOCK:   -1.17 KCAL/MOL
REMARK 927      BINDING AFFINITY PREDICTED BY RF-SCORE:    0.00 PKD
ROOT
HETATM    1  C   UNL     1     -11.293   7.679  72.872  1.00  0.00    -0.394 C  
HETATM    2  C   UNL     1     -10.945   7.171  71.473  1.00  0.00    -0.235 C  
HETATM    3  C   UNL     1     -11.997   7.672  70.477  1.00  0.00    -0.044 C  
ENDROOT
BRANCH   2   4
HETATM    4  O   UNL     1      -9.603   7.615  71.160  1.00  0.00    -0.159 OA 
BRANCH   4   5
HETATM    5  C   UNL     1      -9.181   7.443  69.858  1.00  0.00    -0.144 A  
HETATM    6  C   UNL     1      -8.839   8.497  68.994  1.00  0.00    -0.145 A  
HETATM    7  C   UNL     1      -7.440   6.646  66.010  1.00  0.00    -0.081 C  
HETATM    8  C   UNL     1      -8.126   8.160  67.845  1.00  0.00    -0.128 A  
HETATM    9  C   UNL     1      -9.061   6.092  69.431  1.00  0.00    -0.135 A  
HETATM   10  C   UNL     1      -7.998   6.830  67.400  1.00  0.00    -0.114 A  
HETATM   11  C   UNL     1      -8.485   5.754  68.188  1.00  0.00    -0.109 A  
BRANCH   6  12
HETATM   12  N   UNL     1      -9.063   9.862  69.256  1.00  0.00    -0.177 NA 
HETATM   13  H   UNL     1      -8.717  10.171  70.164  1.00  0.00     0.000 HD 
BRANCH  12  14
HETATM   14  C   UNL     1      -9.655  10.851  68.522  1.00  0.00    -0.187 A  
HETATM   15  N   UNL     1      -9.059  12.075  68.374  1.00  0.00    -0.182 NA 
HETATM   16  C   UNL     1     -11.546  11.677  67.502  1.00  0.00    -0.272 A  
HETATM   17  N   UNL     1     -10.895  10.639  68.137  1.00  0.00    -0.224 NA 
HETATM   18  C   UNL     1      -9.745  13.216  67.939  1.00  0.00    -0.221 A  
HETATM   19  C   UNL     1     -11.104  12.931  67.362  1.00  0.00    -0.273 A  
HETATM   20 CL   UNL     1     -12.043  14.184  66.660  1.00  0.00    -0.473 Cl 
BRANCH  18  21
HETATM   21  N   UNL     1      -9.385  14.476  68.018  1.00  0.00    -0.196 NA 
HETATM   22  H   UNL     1     -10.070  15.187  68.274  1.00  0.00     0.000 HD 
BRANCH  21  23
HETATM   23  C   UNL     1      -8.061  14.843  67.751  1.00  0.00    -0.152 A  
HETATM   24  C   UNL     1      -7.039  13.901  67.946  1.00  0.00    -0.168 A  
HETATM   25  C   UNL     1      -5.715  14.302  68.081  1.00  0.00    -0.129 A  
HETATM   26  C   UNL     1      -5.390  15.645  67.941  1.00  0.00    -0.146 A  
HETATM   27  C   UNL     1      -6.369  16.563  67.558  1.00  0.00    -0.187 A  
HETATM   28  C   UNL     1      -7.703  16.154  67.415  1.00  0.00    -0.160 A  
BRANCH  28  29
HETATM   29  S   UNL     1      -8.764  17.201  66.406  1.00  0.00    -0.241 S  
HETATM   30  O   UNL     1      -7.876  18.078  65.658  1.00  0.00    -0.531 OA 
HETATM   31  O   UNL     1      -9.610  16.279  65.666  1.00  0.00    -0.466 OA 
BRANCH  29  32
HETATM   32  C   UNL     1      -9.806  18.263  67.395  1.00  0.00    -0.316 C  
HETATM   33  C   UNL     1     -10.332  19.471  66.613  1.00  0.00    -0.570 C  
HETATM   34  C   UNL     1     -10.998  17.448  67.924  1.00  0.00    -0.156 C  
ENDBRANCH  29  32
ENDBRANCH  28  29
ENDBRANCH  21  23
ENDBRANCH  18  21
ENDBRANCH  12  14
ENDBRANCH   6  12
BRANCH  11  35
HETATM   35  C   UNL     1      -8.325   4.311  67.667  1.00  0.00    -0.098 C  
HETATM   36  C   UNL     1      -6.953   3.713  68.039  1.00  0.00    -0.051 C  
HETATM   37  C   UNL     1      -6.941   3.158  69.454  1.00  0.00    -0.041 C  
HETATM   38  N   UNL     1      -7.902   2.070  69.562  1.00  0.00    -0.042 NA 
HETATM   39  H   UNL     1      -7.836   1.603  70.466  1.00  0.00     0.000 HD 
HETATM   40  C   UNL     1      -9.265   2.529  69.296  1.00  0.00    -0.129 C  
HETATM   41  C   UNL     1      -9.406   3.243  67.955  1.00  0.00    -0.246 C  
ENDBRANCH  11  35
ENDBRANCH   4   5
ENDBRANCH   2   4
TORSDOF 9
ENDMDL
MODEL      177
REMARK 921   NORMALIZED FREE ENERGY PREDICTED BY IDOCK:   -4.39 KCAL/MOL
REMARK 922        TOTAL FREE ENERGY PREDICTED BY IDOCK:   -8.87 KCAL/MOL
REMARK 923 INTER-LIGAND FREE ENERGY PREDICTED BY IDOCK:   -7.56 KCAL/MOL
REMARK 924 INTRA-LIGAND FREE ENERGY PREDICTED BY IDOCK:   -1.31 KCAL/MOL
REMARK 927      BINDING AFFINITY PREDICTED BY RF-SCORE:    0.00 PKD
ROOT
HETATM    1  C   UNL     1     -10.779   7.540  72.297  1.00  0.00    -0.294 C  
HETATM    2  C   UNL     1     -10.574   8.405  71.054  1.00  0.00    -0.214 C  
HETATM    3  C   UNL     1     -11.259   9.760  71.263  1.00  0.00    -0.417 C  
ENDROOT
BRANCH   2   4
HETATM    4  O   UNL     1      -9.150   8.513  70.818  1.00  0.00    -0.145 OA 
BRANCH   4   5
HETATM    5  C   UNL     1      -8.685   8.042  69.608  1.00  0.00    -0.133 A  
HETATM    6  C   UNL     1      -8.567   8.826  68.448  1.00  0.00    -0.134 A  
HETATM    7  C   UNL     1      -6.768   6.483  66.091  1.00  0.00    -0.049 C  
HETATM    8  C   UNL     1      -7.785   8.309  67.417  1.00  0.00    -0.102 A  
HETATM    9  C   UNL     1      -8.272   6.681  69.602  1.00  0.00    -0.127 A  
HETATM   10  C   UNL     1      -7.369   6.964  67.389  1.00  0.00    -0.092 A  
HETATM   11  C   UNL     1      -7.623   6.106  68.490  1.00  0.00    -0.092 A  
BRANCH   6  12
HETATM   12  N   UNL     1      -9.083  10.127  68.297  1.00  0.00    -0.121 NA 
HETATM   13  H   UNL     1     -10.078  10.154  68.071  1.00  0.00     0.000 HD 
BRANCH  12  14
HETATM   14  C   UNL     1      -8.503  11.361  68.394  1.00  0.00    -0.155 A  
HETATM   15  N   UNL     1      -8.901  12.395  67.588  1.00  0.00    -0.168 NA 
HETATM   16  C   UNL     1      -6.763  12.660  69.160  1.00  0.00    -0.086 A  
HETATM   17  N   UNL     1      -7.430  11.451  69.148  1.00  0.00    -0.094 NA 
HETATM   18  C   UNL     1      -8.140  13.556  67.398  1.00  0.00    -0.176 A  
HETATM   19  C   UNL     1      -7.006  13.712  68.372  1.00  0.00    -0.104 A  
HETATM   20 CL   UNL     1      -6.042  15.131  68.379  1.00  0.00    -0.099 Cl 
BRANCH  18  21
HETATM   21  N   UNL     1      -8.256  14.474  66.467  1.00  0.00    -0.288 NA 
HETATM   22  H   UNL     1      -7.421  14.899  66.063  1.00  0.00     0.000 HD 
BRANCH  21  23
HETATM   23  C   UNL     1      -9.524  14.871  66.029  1.00  0.00    -0.281 A  
HETATM   24  C   UNL     1     -10.458  13.888  65.663  1.00  0.00    -0.320 A  
HETATM   25  C   UNL     1     -11.554  14.205  64.869  1.00  0.00    -0.379 A  
HETATM   26  C   UNL     1     -11.771  15.527  64.500  1.00  0.00    -0.253 A  
HETATM   27  C   UNL     1     -10.959  16.537  65.016  1.00  0.00    -0.222 A  
HETATM   28  C   UNL     1      -9.858  16.215  65.824  1.00  0.00    -0.320 A  
BRANCH  28  29
HETATM   29  S   UNL     1      -9.221  17.525  66.881  1.00  0.00    -0.273 S  
HETATM   30  O   UNL     1      -8.848  16.889  68.135  1.00  0.00    -0.211 OA 
HETATM   31  O   UNL     1      -8.182  18.171  66.097  1.00  0.00    -0.428 OA 
BRANCH  29  32
HETATM   32  C   UNL     1     -10.469  18.738  67.283  1.00  0.00    -0.431 C  
HETATM   33  C   UNL     1     -10.135  19.534  68.548  1.00  0.00    -0.543 C  
HETATM   34  C   UNL     1     -10.625  19.711  66.102  1.00  0.00    -0.584 C  
ENDBRANCH  29  32
ENDBRANCH  28  29
ENDBRANCH  21  23
ENDBRANCH  18  21
ENDBRANCH  12  14
ENDBRANCH   6  12
BRANCH  11  35
HETATM   35  C   UNL     1      -7.150   4.639  68.422  1.00  0.00    -0.057 C  
HETATM   36  C   UNL     1      -5.733   4.462  69.005  1.00  0.00    -0.017 C  
HETATM   37  C   UNL     1      -5.754   4.340  70.520  1.00  0.00    -0.013 C  
HETATM   38  N   UNL     1      -6.504   3.153  70.905  1.00  0.00    -0.026 NA 
HETATM   39  H   UNL     1      -6.440   2.981  71.908  1.00  0.00     0.000 HD 
HETATM   40  C   UNL     1      -7.896   3.230  70.465  1.00  0.00    -0.043 C  
HETATM   41  C   UNL     1      -8.037   3.496  68.969  1.00  0.00    -0.071 C  
ENDBRANCH  11  35
ENDBRANCH   4   5
ENDBRANCH   2   4
TORSDOF 9
ENDMDL
MODEL      178
REMARK 921   NORMALIZED FREE ENERGY PREDICTED BY IDOCK:   -4.38 KCAL/MOL
REMARK 922        TOTAL FREE ENERGY PREDICTED BY IDOCK:   -8.86 KCAL/MOL
REMARK 923 INTER-LIGAND FREE ENERGY PREDICTED BY IDOCK:   -7.19 KCAL/MOL
REMARK 924 INTRA-LIGAND FREE ENERGY PREDICTED BY IDOCK:   -1.67 KCAL/MOL
REMARK 927      BINDING AFFINITY PREDICTED BY RF-SCORE:    0.00 PKD
ROOT
HETATM    1  C   UNL     1      -8.785   6.805  69.673  1.00  0.00    -0.137 C  
HETATM    2  C   UNL     1      -9.709   6.742  68.457  1.00  0.00    -0.133 C  
HETATM    3  C   UNL     1     -11.148   6.503  68.928  1.00  0.00    -0.371 C  
ENDROOT
BRANCH   2   4
HETATM    4  O   UNL     1      -9.547   7.973  67.713  1.00  0.00    -0.145 OA 
BRANCH   4   5
HETATM    5  C   UNL     1      -8.982   7.868  66.459  1.00  0.00    -0.161 A  
HETATM    6  C   UNL     1      -8.426   8.948  65.752  1.00  0.00    -0.145 A  
HETATM    7  C   UNL     1      -6.853   7.218  62.782  1.00  0.00    -0.054 C  
HETATM    8  C   UNL     1      -7.610   8.634  64.667  1.00  0.00    -0.111 A  
HETATM    9  C   UNL     1      -8.946   6.555  65.914  1.00  0.00    -0.103 A  
HETATM   10  C   UNL     1      -7.563   7.342  64.108  1.00  0.00    -0.113 A  
HETATM   11  C   UNL     1      -8.253   6.264  64.721  1.00  0.00    -0.100 A  
BRANCH   6  12
HETATM   12  N   UNL     1      -8.542  10.301  66.121  1.00  0.00    -0.136 NA 
HETATM   13  H   UNL     1      -9.084  10.864  65.465  1.00  0.00     0.000 HD 
BRANCH  12  14
HETATM   14  C   UNL     1      -8.066  11.004  67.192  1.00  0.00    -0.134 A  
HETATM   15  N   UNL     1      -8.576  12.234  67.514  1.00  0.00    -0.164 NA 
HETATM   16  C   UNL     1      -6.419  11.302  68.773  1.00  0.00    -0.058 A  
HETATM   17  N   UNL     1      -6.980  10.538  67.769  1.00  0.00    -0.077 NA 
HETATM   18  C   UNL     1      -7.924  13.138  68.363  1.00  0.00    -0.130 A  
HETATM   19  C   UNL     1      -6.775  12.540  69.127  1.00  0.00    -0.089 A  
HETATM   20 CL   UNL     1      -5.935  13.455  70.311  1.00  0.00    -0.155 Cl 
BRANCH  18  21
HETATM   21  N   UNL     1      -8.147  14.420  68.531  1.00  0.00    -0.142 NA 
HETATM   22  H   UNL     1      -8.715  14.740  69.315  1.00  0.00     0.000 HD 
BRANCH  21  23
HETATM   23  C   UNL     1      -7.606  15.347  67.633  1.00  0.00    -0.167 A  
HETATM   24  C   UNL     1      -6.211  15.479  67.546  1.00  0.00    -0.141 A  
HETATM   25  C   UNL     1      -5.634  16.616  66.991  1.00  0.00    -0.149 A  
HETATM   26  C   UNL     1      -6.450  17.599  66.444  1.00  0.00    -0.272 A  
HETATM   27  C   UNL     1      -7.827  17.391  66.353  1.00  0.00    -0.337 A  
HETATM   28  C   UNL     1      -8.405  16.238  66.907  1.00  0.00    -0.232 A  
BRANCH  28  29
HETATM   29  S   UNL     1     -10.026  15.769  66.281  1.00  0.00    -0.320 S  
HETATM   30  O   UNL     1     -10.394  16.782  65.305  1.00  0.00    -0.622 OA 
HETATM   31  O   UNL     1      -9.871  14.396  65.827  1.00  0.00    -0.317 OA 
BRANCH  29  32
HETATM   32  C   UNL     1     -11.282  15.811  67.550  1.00  0.00    -0.218 C  
HETATM   33  C   UNL     1     -11.501  14.447  68.212  1.00  0.00    -0.333 C  
HETATM   34  C   UNL     1     -10.877  16.833  68.625  1.00  0.00    -0.336 C  
ENDBRANCH  29  32
ENDBRANCH  28  29
ENDBRANCH  21  23
ENDBRANCH  18  21
ENDBRANCH  12  14
ENDBRANCH   6  12
BRANCH  11  35
HETATM   35  C   UNL     1      -8.176   4.863  64.080  1.00  0.00    -0.122 C  
HETATM   36  C   UNL     1      -7.768   3.783  65.102  1.00  0.00    -0.085 C  
HETATM   37  C   UNL     1      -8.956   3.297  65.917  1.00  0.00    -0.143 C  
HETATM   38  N   UNL     1      -9.934   2.675  65.036  1.00  0.00    -0.344 NA 
HETATM   39  H   UNL     1     -10.688   2.238  65.565  1.00  0.00     0.000 HD 
HETATM   40  C   UNL     1     -10.452   3.625  64.053  1.00  0.00    -0.265 C  
HETATM   41  C   UNL     1      -9.353   4.310  63.244  1.00  0.00    -0.132 C  
ENDBRANCH  11  35
ENDBRANCH   4   5
ENDBRANCH   2   4
TORSDOF 9
ENDMDL
MODEL      179
REMARK 921   NORMALIZED FREE ENERGY PREDICTED BY IDOCK:   -4.38 KCAL/MOL
REMARK 922        TOTAL FREE ENERGY PREDICTED BY IDOCK:   -8.85 KCAL/MOL
REMARK 923 INTER-LIGAND FREE ENERGY PREDICTED BY IDOCK:   -8.47 KCAL/MOL
REMARK 924 INTRA-LIGAND FREE ENERGY PREDICTED BY IDOCK:   -0.39 KCAL/MOL
REMARK 927      BINDING AFFINITY PREDICTED BY RF-SCORE:    0.00 PKD
ROOT
HETATM    1  C   UNL     1     -11.081   6.377  72.196  1.00  0.00    -0.302 C  
HETATM    2  C   UNL     1     -12.100   6.827  71.151  1.00  0.00    -0.370 C  
HETATM    3  C   UNL     1     -12.594   8.235  71.499  1.00  0.00    -0.333 C  
ENDROOT
BRANCH   2   4
HETATM    4  O   UNL     1     -11.468   6.747  69.851  1.00  0.00    -0.323 OA 
BRANCH   4   5
HETATM    5  C   UNL     1     -10.103   6.548  69.837  1.00  0.00    -0.173 A  
HETATM    6  C   UNL     1      -9.154   7.576  69.963  1.00  0.00    -0.148 A  
HETATM    7  C   UNL     1      -5.922   5.637  70.246  1.00  0.00    -0.025 C  
HETATM    8  C   UNL     1      -7.848   7.193  70.261  1.00  0.00    -0.104 A  
HETATM    9  C   UNL     1      -9.687   5.192  69.731  1.00  0.00    -0.263 A  
HETATM   10  C   UNL     1      -7.413   5.857  70.158  1.00  0.00    -0.082 A  
HETATM   11  C   UNL     1      -8.334   4.817  69.871  1.00  0.00    -0.072 A  
BRANCH   6  12
HETATM   12  N   UNL     1      -9.444   8.953  69.919  1.00  0.00    -0.165 NA 
HETATM   13  H   UNL     1     -10.417   9.178  70.131  1.00  0.00     0.000 HD 
BRANCH  12  14
HETATM   14  C   UNL     1      -8.669  10.045  69.648  1.00  0.00    -0.194 A  
HETATM   15  N   UNL     1      -9.009  10.924  68.653  1.00  0.00    -0.157 NA 
HETATM   16  C   UNL     1      -6.656  11.135  69.889  1.00  0.00    -0.129 A  
HETATM   17  N   UNL     1      -7.499  10.102  70.246  1.00  0.00    -0.236 NA 
HETATM   18  C   UNL     1      -8.110  11.847  68.105  1.00  0.00    -0.155 A  
HETATM   19  C   UNL     1      -6.838  12.007  68.892  1.00  0.00    -0.103 A  
HETATM   20 CL   UNL     1      -5.671  13.184  68.449  1.00  0.00    -0.074 Cl 
BRANCH  18  21
HETATM   21  N   UNL     1      -8.209  12.534  66.991  1.00  0.00    -0.305 NA 
HETATM   22  H   UNL     1      -7.718  12.222  66.153  1.00  0.00     0.000 HD 
BRANCH  21  23
HETATM   23  C   UNL     1      -8.990  13.695  66.952  1.00  0.00    -0.218 A  
HETATM   24  C   UNL     1      -8.359  14.945  67.059  1.00  0.00    -0.246 A  
HETATM   25  C   UNL     1      -9.077  16.079  67.418  1.00  0.00    -0.207 A  
HETATM   26  C   UNL     1     -10.453  15.989  67.597  1.00  0.00    -0.292 A  
HETATM   27  C   UNL     1     -11.116  14.796  67.308  1.00  0.00    -0.334 A  
HETATM   28  C   UNL     1     -10.389  13.655  66.937  1.00  0.00    -0.262 A  
BRANCH  28  29
HETATM   29  S   UNL     1     -11.294  12.372  66.058  1.00  0.00    -0.370 S  
HETATM   30  O   UNL     1     -10.294  11.562  65.380  1.00  0.00    -0.252 OA 
HETATM   31  O   UNL     1     -12.127  11.739  67.068  1.00  0.00    -0.575 OA 
BRANCH  29  32
HETATM   32  C   UNL     1     -12.353  13.040  64.784  1.00  0.00    -0.436 C  
HETATM   33  C   UNL     1     -11.801  14.332  64.174  1.00  0.00    -0.338 C  
HETATM   34  C   UNL     1     -12.526  11.992  63.672  1.00  0.00    -0.637 C  
ENDBRANCH  29  32
ENDBRANCH  28  29
ENDBRANCH  21  23
ENDBRANCH  18  21
ENDBRANCH  12  14
ENDBRANCH   6  12
BRANCH  11  35
HETATM   35  C   UNL     1      -7.819   3.366  69.768  1.00  0.00    -0.053 C  
HETATM   36  C   UNL     1      -8.967   2.361  69.548  1.00  0.00    -0.165 C  
HETATM   37  C   UNL     1      -9.373   2.275  68.086  1.00  0.00    -0.210 C  
HETATM   38  N   UNL     1      -8.252   1.792  67.294  1.00  0.00    -0.070 NA 
HETATM   39  H   UNL     1      -8.526   1.614  66.328  1.00  0.00     0.000 HD 
HETATM   40  C   UNL     1      -7.110   2.703  67.366  1.00  0.00    -0.052 C  
HETATM   41  C   UNL     1      -6.672   3.002  68.797  1.00  0.00    -0.037 C  
ENDBRANCH  11  35
ENDBRANCH   4   5
ENDBRANCH   2   4
TORSDOF 9
ENDMDL
MODEL      180
REMARK 921   NORMALIZED FREE ENERGY PREDICTED BY IDOCK:   -4.37 KCAL/MOL
REMARK 922        TOTAL FREE ENERGY PREDICTED BY IDOCK:   -8.84 KCAL/MOL
REMARK 923 INTER-LIGAND FREE ENERGY PREDICTED BY IDOCK:   -7.62 KCAL/MOL
REMARK 924 INTRA-LIGAND FREE ENERGY PREDICTED BY IDOCK:   -1.22 KCAL/MOL
REMARK 927      BINDING AFFINITY PREDICTED BY RF-SCORE:    0.00 PKD
ROOT
HETATM    1  C   UNL     1      -5.497   8.349  68.509  1.00  0.00    -0.033 C  
HETATM    2  C   UNL     1      -6.616   8.278  69.547  1.00  0.00    -0.038 C  
HETATM    3  C   UNL     1      -6.412   9.385  70.587  1.00  0.00    -0.081 C  
ENDROOT
BRANCH   2   4
HETATM    4  O   UNL     1      -7.879   8.377  68.846  1.00  0.00    -0.108 OA 
BRANCH   4   5
HETATM    5  C   UNL     1      -8.968   8.790  69.585  1.00  0.00    -0.145 A  
HETATM    6  C   UNL     1      -9.747   9.918  69.280  1.00  0.00    -0.208 A  
HETATM    7  C   UNL     1     -12.590   9.606  71.752  1.00  0.00    -0.497 C  
HETATM    8  C   UNL     1     -10.986  10.014  69.910  1.00  0.00    -0.339 A  
HETATM    9  C   UNL     1      -9.304   7.959  70.690  1.00  0.00    -0.158 A  
HETATM   10  C   UNL     1     -11.339   9.206  71.008  1.00  0.00    -0.377 A  
HETATM   11  C   UNL     1     -10.484   8.157  71.437  1.00  0.00    -0.261 A  
BRANCH   6  12
HETATM   12  N   UNL     1      -9.421  10.888  68.314  1.00  0.00    -0.161 NA 
HETATM   13  H   UNL     1      -9.948  10.800  67.444  1.00  0.00     0.000 HD 
BRANCH  12  14
HETATM   14  C   UNL     1      -8.532  11.926  68.320  1.00  0.00    -0.161 A  
HETATM   15  N   UNL     1      -8.951  13.214  68.524  1.00  0.00    -0.107 NA 
HETATM   16  C   UNL     1      -6.430  12.717  67.815  1.00  0.00    -0.128 A  
HETATM   17  N   UNL     1      -7.305  11.656  67.931  1.00  0.00    -0.090 NA 
HETATM   18  C   UNL     1      -8.171  14.334  68.210  1.00  0.00    -0.148 A  
HETATM   19  C   UNL     1      -6.731  14.015  67.915  1.00  0.00    -0.164 A  
HETATM   20 CL   UNL     1      -5.592  15.267  67.635  1.00  0.00    -0.106 Cl 
BRANCH  18  21
HETATM   21  N   UNL     1      -8.538  15.589  68.090  1.00  0.00    -0.151 NA 
HETATM   22  H   UNL     1      -8.095  16.307  68.663  1.00  0.00     0.000 HD 
BRANCH  21  23
HETATM   23  C   UNL     1      -9.538  15.940  67.175  1.00  0.00    -0.218 A  
HETATM   24  C   UNL     1     -10.664  15.113  67.044  1.00  0.00    -0.307 A  
HETATM   25  C   UNL     1     -11.473  15.181  65.916  1.00  0.00    -0.159 A  
HETATM   26  C   UNL     1     -11.208  16.135  64.941  1.00  0.00    -0.292 A  
HETATM   27  C   UNL     1     -10.209  17.086  65.151  1.00  0.00     0.346 A  
HETATM   28  C   UNL     1      -9.399  17.020  66.295  1.00  0.00    -0.248 A  
BRANCH  28  29
HETATM   29  S   UNL     1      -8.554  18.535  66.775  1.00  0.00    -0.291 S  
HETATM   30  O   UNL     1      -7.603  18.160  67.808  1.00  0.00    -0.216 OA 
HETATM   31  O   UNL     1      -8.042  19.090  65.532  1.00  0.00    -0.327 OA 
BRANCH  29  32
HETATM   32  C   UNL     1      -9.662  19.724  67.516  1.00  0.00    -0.368 C  
HETATM   33  C   UNL     1     -11.124  19.498  67.121  1.00  0.00    -0.292 C  
HETATM   34  C   UNL     1      -9.536  19.644  69.047  1.00  0.00    -0.333 C  
ENDBRANCH  29  32
ENDBRANCH  28  29
ENDBRANCH  21  23
ENDBRANCH  18  21
ENDBRANCH  12  14
ENDBRANCH   6  12
BRANCH  11  35
HETATM   35  C   UNL     1     -10.906   7.292  72.643  1.00  0.00    -0.331 C  
HETATM   36  C   UNL     1     -11.526   5.951  72.202  1.00  0.00    -0.333 C  
HETATM   37  C   UNL     1     -10.463   4.912  71.883  1.00  0.00    -0.163 C  
HETATM   38  N   UNL     1      -9.683   4.626  73.078  1.00  0.00    -0.135 NA 
HETATM   39  H   UNL     1      -9.038   3.851  72.926  1.00  0.00     0.000 HD 
HETATM   40  C   UNL     1      -8.984   5.816  73.561  1.00  0.00    -0.128 C  
HETATM   41  C   UNL     1      -9.914   7.004  73.794  1.00  0.00    -0.367 C  
ENDBRANCH  11  35
ENDBRANCH   4   5
ENDBRANCH   2   4
TORSDOF 9
ENDMDL
MODEL      181
REMARK 921   NORMALIZED FREE ENERGY PREDICTED BY IDOCK:   -4.37 KCAL/MOL
REMARK 922        TOTAL FREE ENERGY PREDICTED BY IDOCK:   -8.83 KCAL/MOL
REMARK 923 INTER-LIGAND FREE ENERGY PREDICTED BY IDOCK:   -7.23 KCAL/MOL
REMARK 924 INTRA-LIGAND FREE ENERGY PREDICTED BY IDOCK:   -1.60 KCAL/MOL
REMARK 927      BINDING AFFINITY PREDICTED BY RF-SCORE:    0.00 PKD
ROOT
HETATM    1  C   UNL     1      -5.905  11.343  66.547  1.00  0.00    -0.138 C  
HETATM    2  C   UNL     1      -6.413  10.151  65.736  1.00  0.00    -0.107 C  
HETATM    3  C   UNL     1      -5.255   9.179  65.489  1.00  0.00    -0.036 C  
ENDROOT
BRANCH   2   4
HETATM    4  O   UNL     1      -7.514   9.557  66.463  1.00  0.00    -0.092 OA 
BRANCH   4   5
HETATM    5  C   UNL     1      -8.404  10.427  67.059  1.00  0.00    -0.127 A  
HETATM    6  C   UNL     1      -8.546  10.581  68.448  1.00  0.00    -0.132 A  
HETATM    7  C   UNL     1     -10.895  13.533  68.678  1.00  0.00    -0.281 C  
HETATM    8  C   UNL     1      -9.231  11.712  68.888  1.00  0.00     0.045 A  
HETATM    9  C   UNL     1      -9.169  11.224  66.164  1.00  0.00    -0.222 A  
HETATM   10  C   UNL     1      -9.998  12.514  68.020  1.00  0.00    -0.219 A  
HETATM   11  C   UNL     1      -9.995  12.272  66.622  1.00  0.00    -0.229 A  
BRANCH   6  12
HETATM   12  N   UNL     1      -7.959   9.747  69.419  1.00  0.00    -0.111 NA 
HETATM   13  H   UNL     1      -6.954   9.881  69.526  1.00  0.00     0.000 HD 
BRANCH  12  14
HETATM   14  C   UNL     1      -8.483   8.791  70.244  1.00  0.00    -0.149 A  
HETATM   15  N   UNL     1      -8.905   7.585  69.750  1.00  0.00    -0.141 NA 
HETATM   16  C   UNL     1      -9.380   8.239  72.291  1.00  0.00    -0.253 A  
HETATM   17  N   UNL     1      -8.739   9.155  71.481  1.00  0.00    -0.336 NA 
HETATM   18  C   UNL     1      -9.744   6.716  70.459  1.00  0.00    -0.176 A  
HETATM   19  C   UNL     1      -9.902   7.068  71.913  1.00  0.00    -0.163 A  
HETATM   20 CL   UNL     1     -10.788   6.050  72.973  1.00  0.00    -0.276 Cl 
BRANCH  18  21
HETATM   21  N   UNL     1     -10.436   5.692  70.017  1.00  0.00    -0.272 NA 
HETATM   22  H   UNL     1     -11.409   5.817  69.737  1.00  0.00     0.000 HD 
BRANCH  21  23
HETATM   23  C   UNL     1      -9.838   4.430  69.929  1.00  0.00    -0.220 A  
HETATM   24  C   UNL     1      -9.903   3.566  71.034  1.00  0.00    -0.156 A  
HETATM   25  C   UNL     1      -9.022   2.498  71.158  1.00  0.00    -0.149 A  
HETATM   26  C   UNL     1      -8.118   2.236  70.137  1.00  0.00    -0.056 A  
HETATM   27  C   UNL     1      -8.173   2.970  68.951  1.00  0.00    -0.077 A  
HETATM   28  C   UNL     1      -9.069   4.042  68.826  1.00  0.00    -0.134 A  
BRANCH  28  29
HETATM   29  S   UNL     1      -9.481   4.557  67.151  1.00  0.00    -0.175 S  
HETATM   30  O   UNL     1      -9.841   3.346  66.431  1.00  0.00    -0.042 OA 
HETATM   31  O   UNL     1     -10.490   5.591  67.313  1.00  0.00    -0.221 OA 
BRANCH  29  32
HETATM   32  C   UNL     1      -8.079   5.258  66.293  1.00  0.00    -0.109 C  
HETATM   33  C   UNL     1      -6.966   5.706  67.245  1.00  0.00    -0.065 C  
HETATM   34  C   UNL     1      -7.515   4.215  65.314  1.00  0.00    -0.077 C  
ENDBRANCH  29  32
ENDBRANCH  28  29
ENDBRANCH  21  23
ENDBRANCH  18  21
ENDBRANCH  12  14
ENDBRANCH   6  12
BRANCH  11  35
HETATM   35  C   UNL     1     -10.847  13.172  65.703  1.00  0.00    -0.294 C  
HETATM   36  C   UNL     1     -10.170  13.410  64.339  1.00  0.00    -0.262 C  
HETATM   37  C   UNL     1     -10.420  12.262  63.374  1.00  0.00    -0.368 C  
HETATM   38  N   UNL     1     -11.847  12.149  63.106  1.00  0.00    -0.733 NA 
HETATM   39  H   UNL     1     -12.036  11.463  62.376  1.00  0.00     0.000 HD 
HETATM   40  C   UNL     1     -12.601  11.854  64.324  1.00  0.00    -0.142 C  
HETATM   41  C   UNL     1     -12.339  12.853  65.447  1.00  0.00    -0.538 C  
ENDBRANCH  11  35
ENDBRANCH   4   5
ENDBRANCH   2   4
TORSDOF 9
ENDMDL
MODEL      182
REMARK 921   NORMALIZED FREE ENERGY PREDICTED BY IDOCK:   -4.36 KCAL/MOL
REMARK 922        TOTAL FREE ENERGY PREDICTED BY IDOCK:   -8.83 KCAL/MOL
REMARK 923 INTER-LIGAND FREE ENERGY PREDICTED BY IDOCK:   -8.10 KCAL/MOL
REMARK 924 INTRA-LIGAND FREE ENERGY PREDICTED BY IDOCK:   -0.73 KCAL/MOL
REMARK 927      BINDING AFFINITY PREDICTED BY RF-SCORE:    0.00 PKD
ROOT
HETATM    1  C   UNL     1      -8.812   9.539  63.344  1.00  0.00    -0.236 C  
HETATM    2  C   UNL     1      -9.152  10.957  63.803  1.00  0.00    -0.174 C  
HETATM    3  C   UNL     1     -10.641  11.224  63.557  1.00  0.00    -0.436 C  
ENDROOT
BRANCH   2   4
HETATM    4  O   UNL     1      -8.771  11.076  65.194  1.00  0.00    -0.161 OA 
BRANCH   4   5
HETATM    5  C   UNL     1      -8.942   9.956  65.981  1.00  0.00    -0.149 A  
HETATM    6  C   UNL     1     -10.146   9.616  66.619  1.00  0.00    -0.239 A  
HETATM    7  C   UNL     1      -9.371   6.179  67.987  1.00  0.00    -0.114 C  
HETATM    8  C   UNL     1     -10.258   8.311  67.095  1.00  0.00    -0.365 A  
HETATM    9  C   UNL     1      -7.807   9.104  66.083  1.00  0.00    -0.103 A  
HETATM   10  C   UNL     1      -9.148   7.452  67.209  1.00  0.00    -0.135 A  
HETATM   11  C   UNL     1      -7.877   7.844  66.713  1.00  0.00    -0.103 A  
BRANCH   6  12
HETATM   12  N   UNL     1     -11.275  10.452  66.714  1.00  0.00    -0.078 NA 
HETATM   13  H   UNL     1     -12.111  10.070  66.270  1.00  0.00     0.000 HD 
BRANCH  12  14
HETATM   14  C   UNL     1     -11.463  11.678  67.288  1.00  0.00    -0.277 A  
HETATM   15  N   UNL     1     -11.009  12.819  66.682  1.00  0.00    -0.264 NA 
HETATM   16  C   UNL     1     -11.995  12.912  69.157  1.00  0.00    -0.259 A  
HETATM   17  N   UNL     1     -11.916  11.688  68.523  1.00  0.00    -0.493 NA 
HETATM   18  C   UNL     1     -10.864  14.040  67.354  1.00  0.00    -0.282 A  
HETATM   19  C   UNL     1     -11.522  14.078  68.705  1.00  0.00    -0.302 A  
HETATM   20 CL   UNL     1     -11.562  15.526  69.624  1.00  0.00    -0.330 Cl 
BRANCH  18  21
HETATM   21  N   UNL     1     -10.197  15.109  66.987  1.00  0.00    -0.258 NA 
HETATM   22  H   UNL     1     -10.600  15.754  66.308  1.00  0.00     0.000 HD 
BRANCH  21  23
HETATM   23  C   UNL     1      -8.932  15.364  67.529  1.00  0.00    -0.183 A  
HETATM   24  C   UNL     1      -8.099  14.282  67.857  1.00  0.00    -0.152 A  
HETATM   25  C   UNL     1      -7.034  14.441  68.736  1.00  0.00    -0.100 A  
HETATM   26  C   UNL     1      -6.742  15.705  69.234  1.00  0.00    -0.158 A  
HETATM   27  C   UNL     1      -7.443  16.817  68.767  1.00  0.00    -0.231 A  
HETATM   28  C   UNL     1      -8.512  16.654  67.873  1.00  0.00    -0.194 A  
BRANCH  28  29
HETATM   29  S   UNL     1      -8.981  18.097  66.904  1.00  0.00    -0.278 S  
HETATM   30  O   UNL     1      -8.280  17.978  65.635  1.00  0.00    -0.455 OA 
HETATM   31  O   UNL     1     -10.434  18.088  66.895  1.00  0.00    -0.360 OA 
BRANCH  29  32
HETATM   32  C   UNL     1      -8.424  19.623  67.647  1.00  0.00    -0.319 C  
HETATM   33  C   UNL     1      -6.974  19.962  67.288  1.00  0.00    -0.257 C  
HETATM   34  C   UNL     1      -9.339  20.770  67.187  1.00  0.00    -0.402 C  
ENDBRANCH  29  32
ENDBRANCH  28  29
ENDBRANCH  21  23
ENDBRANCH  18  21
ENDBRANCH  12  14
ENDBRANCH   6  12
BRANCH  11  35
HETATM   35  C   UNL     1      -6.685   6.875  66.854  1.00  0.00    -0.056 C  
HETATM   36  C   UNL     1      -7.068   5.431  66.474  1.00  0.00    -0.069 C  
HETATM   37  C   UNL     1      -7.015   5.208  64.971  1.00  0.00    -0.061 C  
HETATM   38  N   UNL     1      -5.654   5.408  64.493  1.00  0.00    -0.016 NA 
HETATM   39  H   UNL     1      -5.563   5.154  63.510  1.00  0.00     0.000 HD 
HETATM   40  C   UNL     1      -5.195   6.774  64.738  1.00  0.00    -0.027 C  
HETATM   41  C   UNL     1      -5.323   7.197  66.198  1.00  0.00    -0.024 C  
ENDBRANCH  11  35
ENDBRANCH   4   5
ENDBRANCH   2   4
TORSDOF 9
ENDMDL
MODEL      183
REMARK 921   NORMALIZED FREE ENERGY PREDICTED BY IDOCK:   -4.36 KCAL/MOL
REMARK 922        TOTAL FREE ENERGY PREDICTED BY IDOCK:   -8.82 KCAL/MOL
REMARK 923 INTER-LIGAND FREE ENERGY PREDICTED BY IDOCK:   -7.49 KCAL/MOL
REMARK 924 INTRA-LIGAND FREE ENERGY PREDICTED BY IDOCK:   -1.33 KCAL/MOL
REMARK 927      BINDING AFFINITY PREDICTED BY RF-SCORE:    0.00 PKD
ROOT
HETATM    1  C   UNL     1     -10.861  11.038  64.664  1.00  0.00    -0.248 C  
HETATM    2  C   UNL     1     -10.833  12.554  64.856  1.00  0.00    -0.293 C  
HETATM    3  C   UNL     1     -11.740  13.213  63.811  1.00  0.00    -0.519 C  
ENDROOT
BRANCH   2   4
HETATM    4  O   UNL     1     -11.230  12.836  66.219  1.00  0.00    -0.279 OA 
BRANCH   4   5
HETATM    5  C   UNL     1     -10.225  13.183  67.098  1.00  0.00    -0.244 A  
HETATM    6  C   UNL     1      -9.357  12.261  67.707  1.00  0.00    -0.194 A  
HETATM    7  C   UNL     1      -6.873  14.533  69.425  1.00  0.00    -0.149 C  
HETATM    8  C   UNL     1      -8.205  12.778  68.296  1.00  0.00    -0.159 A  
HETATM    9  C   UNL     1     -10.075  14.577  67.332  1.00  0.00    -0.235 A  
HETATM   10  C   UNL     1      -8.037  14.154  68.542  1.00  0.00    -0.143 A  
HETATM   11  C   UNL     1      -8.991  15.094  68.073  1.00  0.00    -0.172 A  
BRANCH   6  12
HETATM   12  N   UNL     1      -9.508  10.862  67.669  1.00  0.00    -0.158 NA 
HETATM   13  H   UNL     1     -10.435  10.554  67.374  1.00  0.00     0.000 HD 
BRANCH  12  14
HETATM   14  C   UNL     1      -8.648   9.839  67.953  1.00  0.00    -0.125 A  
HETATM   15  N   UNL     1      -8.857   9.019  69.031  1.00  0.00    -0.135 NA 
HETATM   16  C   UNL     1      -6.595   8.850  67.630  1.00  0.00    -0.061 A  
HETATM   17  N   UNL     1      -7.525   9.804  67.270  1.00  0.00    -0.088 NA 
HETATM   18  C   UNL     1      -7.863   8.191  69.570  1.00  0.00    -0.104 A  
HETATM   19  C   UNL     1      -6.647   8.046  68.697  1.00  0.00    -0.057 A  
HETATM   20 CL   UNL     1      -5.378   6.974  69.126  1.00  0.00    -0.014 Cl 
BRANCH  18  21
HETATM   21  N   UNL     1      -7.835   7.585  70.733  1.00  0.00    -0.096 NA 
HETATM   22  H   UNL     1      -7.464   8.068  71.551  1.00  0.00     0.000 HD 
BRANCH  21  23
HETATM   23  C   UNL     1      -8.315   6.275  70.851  1.00  0.00    -0.127 A  
HETATM   24  C   UNL     1      -7.465   5.206  70.528  1.00  0.00    -0.070 A  
HETATM   25  C   UNL     1      -7.978   3.945  70.247  1.00  0.00    -0.052 A  
HETATM   26  C   UNL     1      -9.345   3.722  70.364  1.00  0.00    -0.235 A  
HETATM   27  C   UNL     1     -10.174   4.725  70.868  1.00  0.00    -0.247 A  
HETATM   28  C   UNL     1      -9.651   5.994  71.159  1.00  0.00    -0.172 A  
BRANCH  28  29
HETATM   29  S   UNL     1     -10.601   7.017  72.295  1.00  0.00    -0.221 S  
HETATM   30  O   UNL     1     -11.318   6.098  73.166  1.00  0.00    -0.180 OA 
HETATM   31  O   UNL     1      -9.629   7.919  72.892  1.00  0.00    -0.210 OA 
BRANCH  29  32
HETATM   32  C   UNL     1     -11.842   7.990  71.456  1.00  0.00    -0.292 C  
HETATM   33  C   UNL     1     -13.149   7.223  71.240  1.00  0.00    -0.363 C  
HETATM   34  C   UNL     1     -12.131   9.256  72.279  1.00  0.00    -0.262 C  
ENDBRANCH  29  32
ENDBRANCH  28  29
ENDBRANCH  21  23
ENDBRANCH  18  21
ENDBRANCH  12  14
ENDBRANCH   6  12
BRANCH  11  35
HETATM   35  C   UNL     1      -8.771  16.594  68.361  1.00  0.00    -0.225 C  
HETATM   36  C   UNL     1      -8.019  17.297  67.213  1.00  0.00    -0.207 C  
HETATM   37  C   UNL     1      -8.954  17.696  66.083  1.00  0.00    -0.107 C  
HETATM   38  N   UNL     1      -9.936  18.652  66.573  1.00  0.00    -0.359 NA 
HETATM   39  H   UNL     1     -10.505  19.025  65.813  1.00  0.00     0.000 HD 
HETATM   40  C   UNL     1     -10.766  18.077  67.630  1.00  0.00    -0.344 C  
HETATM   41  C   UNL     1      -9.952  17.499  68.783  1.00  0.00    -0.342 C  
ENDBRANCH  11  35
ENDBRANCH   4   5
ENDBRANCH   2   4
TORSDOF 9
ENDMDL
MODEL      184
REMARK 921   NORMALIZED FREE ENERGY PREDICTED BY IDOCK:   -4.35 KCAL/MOL
REMARK 922        TOTAL FREE ENERGY PREDICTED BY IDOCK:   -8.81 KCAL/MOL
REMARK 923 INTER-LIGAND FREE ENERGY PREDICTED BY IDOCK:   -8.52 KCAL/MOL
REMARK 924 INTRA-LIGAND FREE ENERGY PREDICTED BY IDOCK:   -0.29 KCAL/MOL
REMARK 927      BINDING AFFINITY PREDICTED BY RF-SCORE:    0.00 PKD
ROOT
HETATM    1  C   UNL     1     -11.781  11.636  68.026  1.00  0.00    -0.351 C  
HETATM    2  C   UNL     1     -10.560  11.079  67.295  1.00  0.00    -0.245 C  
HETATM    3  C   UNL     1     -10.764  11.228  65.784  1.00  0.00    -0.284 C  
ENDROOT
BRANCH   2   4
HETATM    4  O   UNL     1      -9.392  11.779  67.786  1.00  0.00    -0.171 OA 
BRANCH   4   5
HETATM    5  C   UNL     1      -8.533  11.061  68.592  1.00  0.00    -0.157 A  
HETATM    6  C   UNL     1      -7.183  11.391  68.798  1.00  0.00    -0.107 A  
HETATM    7  C   UNL     1      -6.182   8.960  71.514  1.00  0.00    -0.069 C  
HETATM    8  C   UNL     1      -6.545  10.781  69.877  1.00  0.00    -0.149 A  
HETATM    9  C   UNL     1      -9.115   9.952  69.267  1.00  0.00    -0.196 A  
HETATM   10  C   UNL     1      -7.100   9.680  70.557  1.00  0.00    -0.137 A  
HETATM   11  C   UNL     1      -8.410   9.226  70.250  1.00  0.00    -0.204 A  
BRANCH   6  12
HETATM   12  N   UNL     1      -6.468  12.362  68.072  1.00  0.00    -0.072 NA 
HETATM   13  H   UNL     1      -6.013  12.000  67.234  1.00  0.00     0.000 HD 
BRANCH  12  14
HETATM   14  C   UNL     1      -6.270  13.699  68.278  1.00  0.00    -0.107 A  
HETATM   15  N   UNL     1      -7.165  14.444  69.000  1.00  0.00    -0.125 NA 
HETATM   16  C   UNL     1      -5.165  15.634  67.699  1.00  0.00    -0.065 A  
HETATM   17  N   UNL     1      -5.299  14.264  67.595  1.00  0.00    -0.333 NA 
HETATM   18  C   UNL     1      -7.206  15.843  68.961  1.00  0.00    -0.177 A  
HETATM   19  C   UNL     1      -6.008  16.474  68.307  1.00  0.00    -0.120 A  
HETATM   20 CL   UNL     1      -5.817  18.179  68.279  1.00  0.00    -0.169 Cl 
BRANCH  18  21
HETATM   21  N   UNL     1      -8.158  16.652  69.364  1.00  0.00    -0.030 NA 
HETATM   22  H   UNL     1      -8.466  16.633  70.337  1.00  0.00     0.000 HD 
BRANCH  21  23
HETATM   23  C   UNL     1      -8.751  17.540  68.460  1.00  0.00    -0.282 A  
HETATM   24  C   UNL     1      -8.257  18.851  68.367  1.00  0.00    -0.377 A  
HETATM   25  C   UNL     1      -9.022  19.865  67.803  1.00  0.00    -0.402 A  
HETATM   26  C   UNL     1     -10.262  19.560  67.254  1.00  0.00    -0.547 A  
HETATM   27  C   UNL     1     -10.680  18.232  67.170  1.00  0.00    -0.334 A  
HETATM   28  C   UNL     1      -9.900  17.210  67.732  1.00  0.00    -0.274 A  
BRANCH  28  29
HETATM   29  S   UNL     1     -10.188  15.543  67.114  1.00  0.00    -0.265 S  
HETATM   30  O   UNL     1      -8.984  15.165  66.391  1.00  0.00    -0.284 OA 
HETATM   31  O   UNL     1     -10.564  14.768  68.285  1.00  0.00    -0.234 OA 
BRANCH  29  32
HETATM   32  C   UNL     1     -11.527  15.479  65.934  1.00  0.00     0.082 C  
HETATM   33  C   UNL     1     -11.037  15.477  64.483  1.00  0.00    -0.290 C  
HETATM   34  C   UNL     1     -12.361  14.213  66.186  1.00  0.00    -0.463 C  
ENDBRANCH  29  32
ENDBRANCH  28  29
ENDBRANCH  21  23
ENDBRANCH  18  21
ENDBRANCH  12  14
ENDBRANCH   6  12
BRANCH  11  35
HETATM   35  C   UNL     1      -8.984   8.017  71.017  1.00  0.00    -0.160 C  
HETATM   36  C   UNL     1      -9.746   8.450  72.286  1.00  0.00    -0.386 C  
HETATM   37  C   UNL     1     -11.172   8.874  71.973  1.00  0.00    -0.352 C  
HETATM   38  N   UNL     1     -11.909   7.747  71.419  1.00  0.00    -0.290 NA 
HETATM   39  H   UNL     1     -12.898   7.967  71.306  1.00  0.00     0.000 HD 
HETATM   40  C   UNL     1     -11.318   7.283  70.165  1.00  0.00    -0.207 C  
HETATM   41  C   UNL     1      -9.834   6.950  70.289  1.00  0.00    -0.186 C  
ENDBRANCH  11  35
ENDBRANCH   4   5
ENDBRANCH   2   4
TORSDOF 9
ENDMDL
MODEL      185
REMARK 921   NORMALIZED FREE ENERGY PREDICTED BY IDOCK:   -4.34 KCAL/MOL
REMARK 922        TOTAL FREE ENERGY PREDICTED BY IDOCK:   -8.80 KCAL/MOL
REMARK 923 INTER-LIGAND FREE ENERGY PREDICTED BY IDOCK:   -6.76 KCAL/MOL
REMARK 924 INTRA-LIGAND FREE ENERGY PREDICTED BY IDOCK:   -2.03 KCAL/MOL
REMARK 927      BINDING AFFINITY PREDICTED BY RF-SCORE:    0.00 PKD
ROOT
HETATM    1  C   UNL     1      -6.508  12.333  69.452  1.00  0.00    -0.105 C  
HETATM    2  C   UNL     1      -7.159  11.908  68.136  1.00  0.00    -0.081 C  
HETATM    3  C   UNL     1      -6.339  10.777  67.508  1.00  0.00    -0.057 C  
ENDROOT
BRANCH   2   4
HETATM    4  O   UNL     1      -8.529  11.533  68.420  1.00  0.00    -0.149 OA 
BRANCH   4   5
HETATM    5  C   UNL     1      -9.503  12.094  67.620  1.00  0.00    -0.187 A  
HETATM    6  C   UNL     1     -10.573  11.377  67.060  1.00  0.00    -0.248 A  
HETATM    7  C   UNL     1     -12.673  14.137  65.559  1.00  0.00    -0.468 C  
HETATM    8  C   UNL     1     -11.638  12.124  66.562  1.00  0.00    -0.425 A  
HETATM    9  C   UNL     1      -9.392  13.498  67.418  1.00  0.00    -0.228 A  
HETATM   10  C   UNL     1     -11.550  13.514  66.350  1.00  0.00    -0.381 A  
HETATM   11  C   UNL     1     -10.401  14.237  66.765  1.00  0.00    -0.274 A  
BRANCH   6  12
HETATM   12  N   UNL     1     -10.697   9.974  67.065  1.00  0.00    -0.213 NA 
HETATM   13  H   UNL     1     -11.486   9.627  66.520  1.00  0.00     0.000 HD 
BRANCH  12  14
HETATM   14  C   UNL     1      -9.959   8.990  67.661  1.00  0.00    -0.201 A  
HETATM   15  N   UNL     1      -8.908   8.401  67.009  1.00  0.00    -0.131 NA 
HETATM   16  C   UNL     1      -9.756   7.432  69.343  1.00  0.00    -0.159 A  
HETATM   17  N   UNL     1     -10.423   8.508  68.793  1.00  0.00    -0.210 NA 
HETATM   18  C   UNL     1      -8.340   7.185  67.410  1.00  0.00    -0.119 A  
HETATM   19  C   UNL     1      -8.771   6.729  68.776  1.00  0.00    -0.125 A  
HETATM   20 CL   UNL     1      -8.086   5.329  69.493  1.00  0.00    -0.093 Cl 
BRANCH  18  21
HETATM   21  N   UNL     1      -7.543   6.386  66.740  1.00  0.00    -0.097 NA 
HETATM   22  H   UNL     1      -7.234   5.508  67.156  1.00  0.00     0.000 HD 
BRANCH  21  23
HETATM   23  C   UNL     1      -7.116   6.741  65.455  1.00  0.00    -0.068 A  
HETATM   24  C   UNL     1      -6.147   7.746  65.311  1.00  0.00    -0.038 A  
HETATM   25  C   UNL     1      -5.975   8.404  64.099  1.00  0.00    -0.066 A  
HETATM   26  C   UNL     1      -6.719   8.007  62.994  1.00  0.00    -0.084 A  
HETATM   27  C   UNL     1      -7.545   6.886  63.077  1.00  0.00    -0.096 A  
HETATM   28  C   UNL     1      -7.709   6.219  64.300  1.00  0.00    -0.107 A  
BRANCH  28  29
HETATM   29  S   UNL     1      -8.301   4.520  64.220  1.00  0.00    -0.120 S  
HETATM   30  O   UNL     1      -7.968   4.038  62.888  1.00  0.00    -0.072 OA 
HETATM   31  O   UNL     1      -7.700   3.857  65.365  1.00  0.00    -0.081 OA 
BRANCH  29  32
HETATM   32  C   UNL     1     -10.078   4.413  64.366  1.00  0.00     0.019 C  
HETATM   33  C   UNL     1     -10.639   3.098  63.817  1.00  0.00    -0.220 C  
HETATM   34  C   UNL     1     -10.470   4.549  65.846  1.00  0.00    -0.262 C  
ENDBRANCH  29  32
ENDBRANCH  28  29
ENDBRANCH  21  23
ENDBRANCH  18  21
ENDBRANCH  12  14
ENDBRANCH   6  12
BRANCH  11  35
HETATM   35  C   UNL     1     -10.341  15.758  66.517  1.00  0.00    -0.298 C  
HETATM   36  C   UNL     1     -10.907  16.559  67.707  1.00  0.00    -0.304 C  
HETATM   37  C   UNL     1      -9.875  16.742  68.809  1.00  0.00    -0.264 C  
HETATM   38  N   UNL     1      -8.747  17.509  68.301  1.00  0.00    -0.263 NA 
HETATM   39  H   UNL     1      -8.092  17.746  69.046  1.00  0.00     0.000 HD 
HETATM   40  C   UNL     1      -8.077  16.816  67.201  1.00  0.00    -0.183 C  
HETATM   41  C   UNL     1      -9.025  16.435  66.068  1.00  0.00    -0.307 C  
ENDBRANCH  11  35
ENDBRANCH   4   5
ENDBRANCH   2   4
TORSDOF 9
ENDMDL
MODEL      186
REMARK 921   NORMALIZED FREE ENERGY PREDICTED BY IDOCK:   -4.33 KCAL/MOL
REMARK 922        TOTAL FREE ENERGY PREDICTED BY IDOCK:   -8.78 KCAL/MOL
REMARK 923 INTER-LIGAND FREE ENERGY PREDICTED BY IDOCK:   -7.11 KCAL/MOL
REMARK 924 INTRA-LIGAND FREE ENERGY PREDICTED BY IDOCK:   -1.67 KCAL/MOL
REMARK 927      BINDING AFFINITY PREDICTED BY RF-SCORE:    0.00 PKD
ROOT
HETATM    1  C   UNL     1     -10.993  15.806  69.487  1.00  0.00    -0.295 C  
HETATM    2  C   UNL     1      -9.829  15.725  68.501  1.00  0.00    -0.209 C  
HETATM    3  C   UNL     1      -9.005  17.014  68.584  1.00  0.00    -0.267 C  
ENDROOT
BRANCH   2   4
HETATM    4  O   UNL     1      -9.065  14.536  68.813  1.00  0.00    -0.190 OA 
BRANCH   4   5
HETATM    5  C   UNL     1      -9.270  13.437  68.004  1.00  0.00    -0.209 A  
HETATM    6  C   UNL     1      -8.433  12.310  67.977  1.00  0.00    -0.171 A  
HETATM    7  C   UNL     1     -10.372   9.941  65.759  1.00  0.00    -0.155 C  
HETATM    8  C   UNL     1      -8.942  11.164  67.369  1.00  0.00    -0.139 A  
HETATM    9  C   UNL     1     -10.443  13.484  67.200  1.00  0.00    -0.256 A  
HETATM   10  C   UNL     1     -10.099  11.187  66.565  1.00  0.00    -0.265 A  
HETATM   11  C   UNL     1     -10.875  12.370  66.450  1.00  0.00    -0.291 A  
BRANCH   6  12
HETATM   12  N   UNL     1      -7.178  12.219  68.608  1.00  0.00    -0.103 NA 
HETATM   13  H   UNL     1      -6.629  13.078  68.561  1.00  0.00     0.000 HD 
BRANCH  12  14
HETATM   14  C   UNL     1      -6.556  11.199  69.271  1.00  0.00    -0.096 A  
HETATM   15  N   UNL     1      -6.259  10.021  68.637  1.00  0.00    -0.045 NA 
HETATM   16  C   UNL     1      -5.922  10.254  71.272  1.00  0.00     0.105 A  
HETATM   17  N   UNL     1      -6.437  11.328  70.574  1.00  0.00    -0.242 NA 
HETATM   18  C   UNL     1      -5.944   8.840  69.321  1.00  0.00    -0.041 A  
HETATM   19  C   UNL     1      -5.664   9.036  70.786  1.00  0.00    -0.036 A  
HETATM   20 CL   UNL     1      -5.136   7.728  71.763  1.00  0.00    -0.034 Cl 
BRANCH  18  21
HETATM   21  N   UNL     1      -5.917   7.608  68.870  1.00  0.00    -0.030 NA 
HETATM   22  H   UNL     1      -5.531   6.861  69.449  1.00  0.00     0.000 HD 
BRANCH  21  23
HETATM   23  C   UNL     1      -6.417   7.318  67.596  1.00  0.00    -0.052 A  
HETATM   24  C   UNL     1      -5.549   7.370  66.494  1.00  0.00    -0.024 A  
HETATM   25  C   UNL     1      -6.043   7.484  65.200  1.00  0.00    -0.038 A  
HETATM   26  C   UNL     1      -7.416   7.466  64.989  1.00  0.00    -0.085 A  
HETATM   27  C   UNL     1      -8.282   7.223  66.055  1.00  0.00    -0.138 A  
HETATM   28  C   UNL     1      -7.779   7.101  67.359  1.00  0.00    -0.110 A  
BRANCH  28  29
HETATM   29  S   UNL     1      -8.828   6.253  68.552  1.00  0.00    -0.113 S  
HETATM   30  O   UNL     1     -10.011   5.826  67.820  1.00  0.00    -0.123 OA 
HETATM   31  O   UNL     1      -7.977   5.236  69.146  1.00  0.00    -0.087 OA 
BRANCH  29  32
HETATM   32  C   UNL     1      -9.402   7.344  69.846  1.00  0.00    -0.154 C  
HETATM   33  C   UNL     1     -10.180   8.546  69.304  1.00  0.00    -0.211 C  
HETATM   34  C   UNL     1     -10.302   6.553  70.809  1.00  0.00    -0.241 C  
ENDBRANCH  29  32
ENDBRANCH  28  29
ENDBRANCH  21  23
ENDBRANCH  18  21
ENDBRANCH  12  14
ENDBRANCH   6  12
BRANCH  11  35
HETATM   35  C   UNL     1     -12.135  12.356  65.561  1.00  0.00    -0.417 C  
HETATM   36  C   UNL     1     -12.904  13.691  65.630  1.00  0.00    -0.425 C  
HETATM   37  C   UNL     1     -12.311  14.735  64.698  1.00  0.00    -0.333 C  
HETATM   38  N   UNL     1     -12.413  14.277  63.320  1.00  0.00    -1.068 NA 
HETATM   39  H   UNL     1     -12.128  15.003  62.663  1.00  0.00     0.000 HD 
HETATM   40  C   UNL     1     -11.662  13.041  63.108  1.00  0.00    -0.075 C  
HETATM   41  C   UNL     1     -12.051  11.929  64.077  1.00  0.00    -0.444 C  
ENDBRANCH  11  35
ENDBRANCH   4   5
ENDBRANCH   2   4
TORSDOF 9
ENDMDL
MODEL      187
REMARK 921   NORMALIZED FREE ENERGY PREDICTED BY IDOCK:   -4.30 KCAL/MOL
REMARK 922        TOTAL FREE ENERGY PREDICTED BY IDOCK:   -8.73 KCAL/MOL
REMARK 923 INTER-LIGAND FREE ENERGY PREDICTED BY IDOCK:   -6.97 KCAL/MOL
REMARK 924 INTRA-LIGAND FREE ENERGY PREDICTED BY IDOCK:   -1.75 KCAL/MOL
REMARK 927      BINDING AFFINITY PREDICTED BY RF-SCORE:    0.00 PKD
ROOT
HETATM    1  C   UNL     1     -12.640  10.801  69.755  1.00  0.00    -0.126 C  
HETATM    2  C   UNL     1     -11.124  10.946  69.640  1.00  0.00    -0.266 C  
HETATM    3  C   UNL     1     -10.447   9.866  70.491  1.00  0.00    -0.330 C  
ENDROOT
BRANCH   2   4
HETATM    4  O   UNL     1     -10.776  10.870  68.237  1.00  0.00    -0.178 OA 
BRANCH   4   5
HETATM    5  C   UNL     1     -10.746  12.061  67.541  1.00  0.00    -0.226 A  
HETATM    6  C   UNL     1     -10.902  12.165  66.149  1.00  0.00    -0.282 A  
HETATM    7  C   UNL     1     -11.092  15.908  65.655  1.00  0.00    -0.108 C  
HETATM    8  C   UNL     1     -11.177  13.434  65.641  1.00  0.00    -0.307 A  
HETATM    9  C   UNL     1     -10.587  13.228  68.338  1.00  0.00    -0.263 A  
HETATM   10  C   UNL     1     -11.023  14.603  66.411  1.00  0.00    -0.325 A  
HETATM   11  C   UNL     1     -10.704  14.523  67.791  1.00  0.00    -0.256 A  
BRANCH   6  12
HETATM   12  N   UNL     1     -10.911  11.080  65.253  1.00  0.00    -0.162 NA 
HETATM   13  H   UNL     1     -11.830  10.876  64.859  1.00  0.00     0.000 HD 
BRANCH  12  14
HETATM   14  C   UNL     1      -9.921  10.248  64.809  1.00  0.00    -0.321 A  
HETATM   15  N   UNL     1      -9.677   9.049  65.425  1.00  0.00    -0.048 NA 
HETATM   16  C   UNL     1      -8.026   9.952  63.537  1.00  0.00    -0.155 A  
HETATM   17  N   UNL     1      -9.101  10.736  63.904  1.00  0.00    -0.196 NA 
HETATM   18  C   UNL     1      -8.492   8.323  65.250  1.00  0.00    -0.162 A  
HETATM   19  C   UNL     1      -7.641   8.807  64.109  1.00  0.00    -0.122 A  
HETATM   20 CL   UNL     1      -6.215   7.966  63.657  1.00  0.00    -0.062 Cl 
BRANCH  18  21
HETATM   21  N   UNL     1      -8.016   7.334  65.969  1.00  0.00    -0.109 NA 
HETATM   22  H   UNL     1      -7.082   6.969  65.781  1.00  0.00     0.000 HD 
BRANCH  21  23
HETATM   23  C   UNL     1      -8.791   6.779  66.995  1.00  0.00    -0.115 A  
HETATM   24  C   UNL     1      -9.884   5.966  66.660  1.00  0.00    -0.197 A  
HETATM   25  C   UNL     1     -10.898   5.718  67.579  1.00  0.00    -0.268 A  
HETATM   26  C   UNL     1     -10.786   6.218  68.871  1.00  0.00    -0.396 A  
HETATM   27  C   UNL     1      -9.616   6.865  69.269  1.00  0.00    -0.149 A  
HETATM   28  C   UNL     1      -8.592   7.106  68.341  1.00  0.00    -0.123 A  
BRANCH  28  29
HETATM   29  S   UNL     1      -6.950   7.411  69.014  1.00  0.00    -0.079 S  
HETATM   30  O   UNL     1      -6.964   6.888  70.371  1.00  0.00    -0.060 OA 
HETATM   31  O   UNL     1      -6.034   6.817  68.054  1.00  0.00    -0.028 OA 
BRANCH  29  32
HETATM   32  C   UNL     1      -6.584   9.154  69.148  1.00  0.00    -0.050 C  
HETATM   33  C   UNL     1      -7.496  10.019  68.271  1.00  0.00    -0.079 C  
HETATM   34  C   UNL     1      -6.735   9.589  70.615  1.00  0.00    -0.110 C  
ENDBRANCH  29  32
ENDBRANCH  28  29
ENDBRANCH  21  23
ENDBRANCH  18  21
ENDBRANCH  12  14
ENDBRANCH   6  12
BRANCH  11  35
HETATM   35  C   UNL     1     -10.545  15.827  68.601  1.00  0.00    -0.250 C  
HETATM   36  C   UNL     1      -9.679  15.621  69.860  1.00  0.00    -0.148 C  
HETATM   37  C   UNL     1      -8.194  15.687  69.544  1.00  0.00    -0.175 C  
HETATM   38  N   UNL     1      -7.860  17.008  69.031  1.00  0.00    -0.208 NA 
HETATM   39  H   UNL     1      -6.853  17.120  68.917  1.00  0.00     0.000 HD 
HETATM   40  C   UNL     1      -8.574  17.299  67.789  1.00  0.00    -0.225 C  
HETATM   41  C   UNL     1     -10.085  17.133  67.913  1.00  0.00    -0.308 C  
ENDBRANCH  11  35
ENDBRANCH   4   5
ENDBRANCH   2   4
TORSDOF 9
ENDMDL
MODEL      188
REMARK 921   NORMALIZED FREE ENERGY PREDICTED BY IDOCK:   -4.23 KCAL/MOL
REMARK 922        TOTAL FREE ENERGY PREDICTED BY IDOCK:   -8.62 KCAL/MOL
REMARK 923 INTER-LIGAND FREE ENERGY PREDICTED BY IDOCK:   -7.37 KCAL/MOL
REMARK 924 INTRA-LIGAND FREE ENERGY PREDICTED BY IDOCK:   -1.25 KCAL/MOL
REMARK 927      BINDING AFFINITY PREDICTED BY RF-SCORE:    0.00 PKD
ROOT
HETATM    1  C   UNL     1      -6.122  14.295  70.138  1.00  0.00    -0.160 C  
HETATM    2  C   UNL     1      -6.600  14.233  68.688  1.00  0.00    -0.090 C  
HETATM    3  C   UNL     1      -5.773  13.191  67.927  1.00  0.00    -0.129 C  
ENDROOT
BRANCH   2   4
HETATM    4  O   UNL     1      -8.018  13.941  68.701  1.00  0.00    -0.138 OA 
BRANCH   4   5
HETATM    5  C   UNL     1      -8.775  14.502  67.694  1.00  0.00    -0.183 A  
HETATM    6  C   UNL     1      -9.234  13.800  66.567  1.00  0.00    -0.192 A  
HETATM    7  C   UNL     1     -11.513  16.333  64.932  1.00  0.00    -0.033 C  
HETATM    8  C   UNL     1     -10.245  14.401  65.821  1.00  0.00    -0.355 A  
HETATM    9  C   UNL     1      -9.121  15.869  67.881  1.00  0.00    -0.190 A  
HETATM   10  C   UNL     1     -10.601  15.754  65.986  1.00  0.00    -0.334 A  
HETATM   11  C   UNL     1     -10.025  16.531  67.024  1.00  0.00    -0.268 A  
BRANCH   6  12
HETATM   12  N   UNL     1      -8.830  12.501  66.204  1.00  0.00    -0.418 NA 
HETATM   13  H   UNL     1      -8.222  12.470  65.385  1.00  0.00     0.000 HD 
BRANCH  12  14
HETATM   14  C   UNL     1      -9.096  11.273  66.742  1.00  0.00    -0.174 A  
HETATM   15  N   UNL     1      -8.649  10.126  66.142  1.00  0.00    -0.136 NA 
HETATM   16  C   UNL     1     -10.327   9.996  68.210  1.00  0.00    -0.193 A  
HETATM   17  N   UNL     1      -9.956  11.239  67.737  1.00  0.00    -0.174 NA 
HETATM   18  C   UNL     1      -9.161   8.856  66.437  1.00  0.00    -0.174 A  
HETATM   19  C   UNL     1     -10.021   8.812  67.670  1.00  0.00    -0.193 A  
HETATM   20 CL   UNL     1     -10.632   7.324  68.264  1.00  0.00    -0.233 Cl 
BRANCH  18  21
HETATM   21  N   UNL     1      -9.033   7.738  65.761  1.00  0.00    -0.344 NA 
HETATM   22  H   UNL     1      -9.850   7.308  65.327  1.00  0.00     0.000 HD 
BRANCH  21  23
HETATM   23  C   UNL     1      -7.776   7.135  65.638  1.00  0.00    -0.102 A  
HETATM   24  C   UNL     1      -6.625   7.931  65.740  1.00  0.00    -0.045 A  
HETATM   25  C   UNL     1      -5.403   7.487  65.247  1.00  0.00    -0.029 A  
HETATM   26  C   UNL     1      -5.304   6.206  64.718  1.00  0.00    -0.017 A  
HETATM   27  C   UNL     1      -6.395   5.338  64.786  1.00  0.00    -0.034 A  
HETATM   28  C   UNL     1      -7.624   5.787  65.292  1.00  0.00    -0.085 A  
BRANCH  28  29
HETATM   29  S   UNL     1      -8.771   4.523  65.865  1.00  0.00    -0.122 S  
HETATM   30  O   UNL     1     -10.085   5.145  65.880  1.00  0.00    -0.172 OA 
HETATM   31  O   UNL     1      -8.553   3.389  64.982  1.00  0.00    -0.103 OA 
BRANCH  29  32
HETATM   32  C   UNL     1      -8.434   4.013  67.543  1.00  0.00    -0.099 C  
HETATM   33  C   UNL     1      -9.710   3.765  68.354  1.00  0.00    -0.094 C  
HETATM   34  C   UNL     1      -7.594   2.725  67.519  1.00  0.00    -0.061 C  
ENDBRANCH  29  32
ENDBRANCH  28  29
ENDBRANCH  21  23
ENDBRANCH  18  21
ENDBRANCH  12  14
ENDBRANCH   6  12
BRANCH  11  35
HETATM   35  C   UNL     1     -10.441  18.009  67.174  1.00  0.00    -0.377 C  
HETATM   36  C   UNL     1     -10.037  18.586  68.545  1.00  0.00    -0.414 C  
HETATM   37  C   UNL     1      -8.585  19.037  68.564  1.00  0.00    -0.358 C  
HETATM   38  N   UNL     1      -8.393  20.110  67.599  1.00  0.00    -0.315 NA 
HETATM   39  H   UNL     1      -7.458  20.511  67.669  1.00  0.00     0.000 HD 
HETATM   40  C   UNL     1      -8.683  19.665  66.237  1.00  0.00    -0.369 C  
HETATM   41  C   UNL     1     -10.071  19.048  66.090  1.00  0.00    -0.462 C  
ENDBRANCH  11  35
ENDBRANCH   4   5
ENDBRANCH   2   4
TORSDOF 9
ENDMDL
MODEL      189
REMARK 921   NORMALIZED FREE ENERGY PREDICTED BY IDOCK:   -4.18 KCAL/MOL
REMARK 922        TOTAL FREE ENERGY PREDICTED BY IDOCK:   -8.55 KCAL/MOL
REMARK 923 INTER-LIGAND FREE ENERGY PREDICTED BY IDOCK:   -5.88 KCAL/MOL
REMARK 924 INTRA-LIGAND FREE ENERGY PREDICTED BY IDOCK:   -2.66 KCAL/MOL
REMARK 927      BINDING AFFINITY PREDICTED BY RF-SCORE:    0.00 PKD
ROOT
HETATM    1  C   UNL     1     -10.534   8.859  67.439  1.00  0.00    -0.347 C  
HETATM    2  C   UNL     1     -10.647   7.432  67.974  1.00  0.00    -0.175 C  
HETATM    3  C   UNL     1     -11.127   6.508  66.850  1.00  0.00    -0.342 C  
ENDROOT
BRANCH   2   4
HETATM    4  O   UNL     1      -9.357   7.056  68.513  1.00  0.00    -0.137 OA 
BRANCH   4   5
HETATM    5  C   UNL     1      -8.466   6.473  67.637  1.00  0.00    -0.117 A  
HETATM    6  C   UNL     1      -8.396   5.092  67.385  1.00  0.00    -0.106 A  
HETATM    7  C   UNL     1      -5.938   4.936  64.518  1.00  0.00    -0.021 C  
HETATM    8  C   UNL     1      -7.689   4.696  66.252  1.00  0.00    -0.091 A  
HETATM    9  C   UNL     1      -7.618   7.376  66.939  1.00  0.00    -0.102 A  
HETATM   10  C   UNL     1      -6.840   5.572  65.548  1.00  0.00    -0.063 A  
HETATM   11  C   UNL     1      -6.774   6.947  65.893  1.00  0.00    -0.052 A  
BRANCH   6  12
HETATM   12  N   UNL     1      -9.072   4.101  68.122  1.00  0.00    -0.126 NA 
HETATM   13  H   UNL     1      -9.703   3.528  67.561  1.00  0.00     0.000 HD 
BRANCH  12  14
HETATM   14  C   UNL     1      -9.043   3.761  69.445  1.00  0.00    -0.132 A  
HETATM   15  N   UNL     1      -9.916   4.323  70.339  1.00  0.00    -0.195 NA 
HETATM   16  C   UNL     1      -7.916   2.784  71.199  1.00  0.00    -0.053 A  
HETATM   17  N   UNL     1      -8.024   3.032  69.845  1.00  0.00    -0.042 NA 
HETATM   18  C   UNL     1      -9.725   4.285  71.726  1.00  0.00    -0.169 A  
HETATM   19  C   UNL     1      -8.655   3.328  72.171  1.00  0.00    -0.082 A  
HETATM   20 CL   UNL     1      -8.363   3.047  73.838  1.00  0.00    -0.073 Cl 
BRANCH  18  21
HETATM   21  N   UNL     1     -10.310   5.000  72.659  1.00  0.00    -0.191 NA 
HETATM   22  H   UNL     1     -10.482   4.594  73.579  1.00  0.00     0.000 HD 
BRANCH  21  23
HETATM   23  C   UNL     1     -10.696   6.318  72.391  1.00  0.00    -0.225 A  
HETATM   24  C   UNL     1     -12.027   6.579  72.032  1.00  0.00    -0.372 A  
HETATM   25  C   UNL     1     -12.374   7.761  71.387  1.00  0.00    -0.346 A  
HETATM   26  C   UNL     1     -11.402   8.730  71.166  1.00  0.00    -0.345 A  
HETATM   27  C   UNL     1     -10.119   8.562  71.689  1.00  0.00    -0.338 A  
HETATM   28  C   UNL     1      -9.775   7.372  72.347  1.00  0.00    -0.155 A  
BRANCH  28  29
HETATM   29  S   UNL     1      -8.356   7.442  73.452  1.00  0.00    -0.136 S  
HETATM   30  O   UNL     1      -8.318   8.798  73.978  1.00  0.00    -0.285 OA 
HETATM   31  O   UNL     1      -8.549   6.344  74.384  1.00  0.00    -0.125 OA 
BRANCH  29  32
HETATM   32  C   UNL     1      -6.812   7.193  72.589  1.00  0.00    -0.068 C  
HETATM   33  C   UNL     1      -6.997   6.518  71.227  1.00  0.00    -0.075 C  
HETATM   34  C   UNL     1      -6.121   8.552  72.388  1.00  0.00    -0.071 C  
ENDBRANCH  29  32
ENDBRANCH  28  29
ENDBRANCH  21  23
ENDBRANCH  18  21
ENDBRANCH  12  14
ENDBRANCH   6  12
BRANCH  11  35
HETATM   35  C   UNL     1      -5.833   7.875  65.098  1.00  0.00    -0.037 C  
HETATM   36  C   UNL     1      -6.488   8.384  63.799  1.00  0.00    -0.072 C  
HETATM   37  C   UNL     1      -7.388   9.583  64.050  1.00  0.00    -0.115 C  
HETATM   38  N   UNL     1      -6.597  10.690  64.568  1.00  0.00    -0.363 NA 
HETATM   39  H   UNL     1      -7.151  11.543  64.639  1.00  0.00     0.000 HD 
HETATM   40  C   UNL     1      -5.972  10.352  65.846  1.00  0.00    -0.105 C  
HETATM   41  C   UNL     1      -5.139   9.074  65.786  1.00  0.00    -0.033 C  
ENDBRANCH  11  35
ENDBRANCH   4   5
ENDBRANCH   2   4
TORSDOF 9
ENDMDL
MODEL      190
REMARK 921   NORMALIZED FREE ENERGY PREDICTED BY IDOCK:   -4.17 KCAL/MOL
REMARK 922        TOTAL FREE ENERGY PREDICTED BY IDOCK:   -8.53 KCAL/MOL
REMARK 923 INTER-LIGAND FREE ENERGY PREDICTED BY IDOCK:   -8.92 KCAL/MOL
REMARK 924 INTRA-LIGAND FREE ENERGY PREDICTED BY IDOCK:    0.39 KCAL/MOL
REMARK 927      BINDING AFFINITY PREDICTED BY RF-SCORE:    0.00 PKD
ROOT
HETATM    1  C   UNL     1      -8.834  15.270  65.858  1.00  0.00     0.151 C  
HETATM    2  C   UNL     1     -10.310  14.990  66.138  1.00  0.00    -0.299 C  
HETATM    3  C   UNL     1     -11.146  15.439  64.935  1.00  0.00    -0.435 C  
ENDROOT
BRANCH   2   4
HETATM    4  O   UNL     1     -10.445  13.580  66.436  1.00  0.00    -0.279 OA 
BRANCH   4   5
HETATM    5  C   UNL     1     -11.077  13.255  67.619  1.00  0.00    -0.269 A  
HETATM    6  C   UNL     1     -11.469  11.953  67.971  1.00  0.00    -0.323 A  
HETATM    7  C   UNL     1     -12.597  12.410  71.550  1.00  0.00    -0.250 C  
HETATM    8  C   UNL     1     -11.787  11.734  69.310  1.00  0.00    -0.389 A  
HETATM    9  C   UNL     1     -11.281  14.337  68.519  1.00  0.00    -0.289 A  
HETATM   10  C   UNL     1     -11.997  12.790  70.218  1.00  0.00    -0.358 A  
HETATM   11  C   UNL     1     -11.760  14.134  69.829  1.00  0.00    -0.370 A  
BRANCH   6  12
HETATM   12  N   UNL     1     -11.458  10.843  67.106  1.00  0.00    -0.406 NA 
HETATM   13  H   UNL     1     -12.335  10.701  66.603  1.00  0.00     0.000 HD 
BRANCH  12  14
HETATM   14  C   UNL     1     -10.495   9.919  66.811  1.00  0.00    -0.191 A  
HETATM   15  N   UNL     1      -9.958   9.121  67.787  1.00  0.00    -0.178 NA 
HETATM   16  C   UNL     1      -8.920   9.125  65.331  1.00  0.00    -0.207 A  
HETATM   17  N   UNL     1      -9.977   9.970  65.603  1.00  0.00    -0.288 NA 
HETATM   18  C   UNL     1      -8.759   8.415  67.628  1.00  0.00    -0.137 A  
HETATM   19  C   UNL     1      -8.265   8.358  66.209  1.00  0.00    -0.111 A  
HETATM   20 CL   UNL     1      -6.882   7.431  65.795  1.00  0.00    -0.055 Cl 
BRANCH  18  21
HETATM   21  N   UNL     1      -8.003   7.856  68.544  1.00  0.00    -0.119 NA 
HETATM   22  H   UNL     1      -7.128   8.299  68.823  1.00  0.00     0.000 HD 
BRANCH  21  23
HETATM   23  C   UNL     1      -8.397   6.651  69.136  1.00  0.00    -0.124 A  
HETATM   24  C   UNL     1      -8.040   5.440  68.524  1.00  0.00    -0.095 A  
HETATM   25  C   UNL     1      -8.712   4.261  68.825  1.00  0.00    -0.124 A  
HETATM   26  C   UNL     1      -9.698   4.268  69.804  1.00  0.00    -0.290 A  
HETATM   27  C   UNL     1      -9.929   5.422  70.552  1.00  0.00    -0.288 A  
HETATM   28  C   UNL     1      -9.243   6.608  70.251  1.00  0.00    -0.156 A  
BRANCH  28  29
HETATM   29  S   UNL     1      -9.160   7.846  71.556  1.00  0.00    -0.143 S  
HETATM   30  O   UNL     1      -9.168   9.139  70.889  1.00  0.00    -0.234 OA 
HETATM   31  O   UNL     1     -10.259   7.523  72.452  1.00  0.00    -0.191 OA 
BRANCH  29  32
HETATM   32  C   UNL     1      -7.631   7.761  72.475  1.00  0.00    -0.098 C  
HETATM   33  C   UNL     1      -7.757   8.335  73.889  1.00  0.00    -0.228 C  
HETATM   34  C   UNL     1      -7.178   6.294  72.566  1.00  0.00    -0.084 C  
ENDBRANCH  29  32
ENDBRANCH  28  29
ENDBRANCH  21  23
ENDBRANCH  18  21
ENDBRANCH  12  14
ENDBRANCH   6  12
BRANCH  11  35
HETATM   35  C   UNL     1     -12.001  15.264  70.852  1.00  0.00    -0.391 C  
HETATM   36  C   UNL     1     -13.461  15.759  70.831  1.00  0.00     0.076 C  
HETATM   37  C   UNL     1     -14.372  14.871  71.663  1.00  0.00    -0.570 C  
HETATM   38  N   UNL     1     -13.951  14.904  73.056  1.00  0.00    -0.479 NA 
HETATM   39  H   UNL     1     -14.610  14.410  73.657  1.00  0.00     0.000 HD 
HETATM   40  C   UNL     1     -12.592  14.390  73.218  1.00  0.00    -0.227 C  
HETATM   41  C   UNL     1     -11.573  15.097  72.329  1.00  0.00    -0.473 C  
ENDBRANCH  11  35
ENDBRANCH   4   5
ENDBRANCH   2   4
TORSDOF 9
ENDMDL
MODEL      191
REMARK 921   NORMALIZED FREE ENERGY PREDICTED BY IDOCK:   -4.17 KCAL/MOL
REMARK 922        TOTAL FREE ENERGY PREDICTED BY IDOCK:   -8.53 KCAL/MOL
REMARK 923 INTER-LIGAND FREE ENERGY PREDICTED BY IDOCK:   -9.94 KCAL/MOL
REMARK 924 INTRA-LIGAND FREE ENERGY PREDICTED BY IDOCK:    1.42 KCAL/MOL
REMARK 927      BINDING AFFINITY PREDICTED BY RF-SCORE:    0.00 PKD
ROOT
HETATM    1  C   UNL     1     -12.776  13.572  65.503  1.00  0.00    -0.493 C  
HETATM    2  C   UNL     1     -11.314  13.941  65.253  1.00  0.00    -0.314 C  
HETATM    3  C   UNL     1     -11.178  15.467  65.216  1.00  0.00    -0.313 C  
ENDROOT
BRANCH   2   4
HETATM    4  O   UNL     1     -10.516  13.319  66.288  1.00  0.00    -0.278 OA 
BRANCH   4   5
HETATM    5  C   UNL     1     -11.150  13.054  67.484  1.00  0.00    -0.268 A  
HETATM    6  C   UNL     1     -11.513  11.768  67.917  1.00  0.00    -0.317 A  
HETATM    7  C   UNL     1     -12.683  12.425  71.450  1.00  0.00    -0.346 C  
HETATM    8  C   UNL     1     -11.837  11.627  69.265  1.00  0.00    -0.396 A  
HETATM    9  C   UNL     1     -11.388  14.187  68.311  1.00  0.00    -0.319 A  
HETATM   10  C   UNL     1     -12.081  12.734  70.101  1.00  0.00    -0.370 A  
HETATM   11  C   UNL     1     -11.874  14.056  69.629  1.00  0.00    -0.386 A  
BRANCH   6  12
HETATM   12  N   UNL     1     -11.468  10.606  67.124  1.00  0.00    -0.302 NA 
HETATM   13  H   UNL     1     -12.179  10.575  66.393  1.00  0.00     0.000 HD 
BRANCH  12  14
HETATM   14  C   UNL     1     -10.650   9.511  67.148  1.00  0.00    -0.225 A  
HETATM   15  N   UNL     1     -10.906   8.455  67.983  1.00  0.00    -0.032 NA 
HETATM   16  C   UNL     1      -8.628   8.555  66.601  1.00  0.00    -0.115 A  
HETATM   17  N   UNL     1      -9.517   9.605  66.486  1.00  0.00    -0.169 NA 
HETATM   18  C   UNL     1      -9.952   7.481  68.303  1.00  0.00    -0.173 A  
HETATM   19  C   UNL     1      -8.727   7.512  67.431  1.00  0.00    -0.124 A  
HETATM   20 CL   UNL     1      -7.506   6.317  67.586  1.00  0.00    -0.087 Cl 
BRANCH  18  21
HETATM   21  N   UNL     1      -9.966   6.601  69.277  1.00  0.00    -0.156 NA 
HETATM   22  H   UNL     1      -9.516   5.694  69.152  1.00  0.00     0.000 HD 
BRANCH  21  23
HETATM   23  C   UNL     1     -10.598   6.908  70.487  1.00  0.00    -0.220 A  
HETATM   24  C   UNL     1     -11.990   6.758  70.587  1.00  0.00    -0.418 A  
HETATM   25  C   UNL     1     -12.708   7.400  71.590  1.00  0.00    -0.399 A  
HETATM   26  C   UNL     1     -12.028   8.135  72.553  1.00  0.00    -0.410 A  
HETATM   27  C   UNL     1     -10.633   8.134  72.575  1.00  0.00    -0.411 A  
HETATM   28  C   UNL     1      -9.911   7.478  71.566  1.00  0.00    -0.177 A  
BRANCH  28  29
HETATM   29  S   UNL     1      -8.207   7.040  71.947  1.00  0.00    -0.102 S  
HETATM   30  O   UNL     1      -7.397   7.594  70.874  1.00  0.00    -0.065 OA 
HETATM   31  O   UNL     1      -7.987   7.524  73.300  1.00  0.00    -0.100 OA 
BRANCH  29  32
HETATM   32  C   UNL     1      -7.939   5.274  71.922  1.00  0.00    -0.113 C  
HETATM   33  C   UNL     1      -9.221   4.477  72.184  1.00  0.00    -0.165 C  
HETATM   34  C   UNL     1      -7.366   4.870  70.554  1.00  0.00    -0.054 C  
ENDBRANCH  29  32
ENDBRANCH  28  29
ENDBRANCH  21  23
ENDBRANCH  18  21
ENDBRANCH  12  14
ENDBRANCH   6  12
BRANCH  11  35
HETATM   35  C   UNL     1     -12.151  15.242  70.575  1.00  0.00    -0.395 C  
HETATM   36  C   UNL     1     -13.655  15.568  70.666  1.00  0.00    -0.003 C  
HETATM   37  C   UNL     1     -14.371  14.666  71.658  1.00  0.00    -0.517 C  
HETATM   38  N   UNL     1     -13.828  14.875  72.992  1.00  0.00    -0.517 NA 
HETATM   39  H   UNL     1     -14.364  14.369  73.697  1.00  0.00     0.000 HD 
HETATM   40  C   UNL     1     -12.408  14.532  73.054  1.00  0.00    -0.166 C  
HETATM   41  C   UNL     1     -11.570  15.262  72.008  1.00  0.00    -0.529 C  
ENDBRANCH  11  35
ENDBRANCH   4   5
ENDBRANCH   2   4
TORSDOF 9
ENDMDL
MODEL      192
REMARK 921   NORMALIZED FREE ENERGY PREDICTED BY IDOCK:   -4.14 KCAL/MOL
REMARK 922        TOTAL FREE ENERGY PREDICTED BY IDOCK:   -8.49 KCAL/MOL
REMARK 923 INTER-LIGAND FREE ENERGY PREDICTED BY IDOCK:   -7.92 KCAL/MOL
REMARK 924 INTRA-LIGAND FREE ENERGY PREDICTED BY IDOCK:   -0.57 KCAL/MOL
REMARK 927      BINDING AFFINITY PREDICTED BY RF-SCORE:    0.00 PKD
ROOT
HETATM    1  C   UNL     1     -11.207   8.775  71.983  1.00  0.00    -0.443 C  
HETATM    2  C   UNL     1     -12.169   9.545  71.079  1.00  0.00    -0.304 C  
HETATM    3  C   UNL     1     -13.569   9.529  71.700  1.00  0.00    -0.426 C  
ENDROOT
BRANCH   2   4
HETATM    4  O   UNL     1     -11.637  10.880  70.900  1.00  0.00    -0.271 OA 
BRANCH   4   5
HETATM    5  C   UNL     1     -11.489  11.319  69.601  1.00  0.00    -0.309 A  
HETATM    6  C   UNL     1     -11.319  10.470  68.495  1.00  0.00    -0.257 A  
HETATM    7  C   UNL     1     -11.527  12.891  65.600  1.00  0.00    -0.368 C  
HETATM    8  C   UNL     1     -11.515  11.032  67.235  1.00  0.00    -0.164 A  
HETATM    9  C   UNL     1     -11.565  12.728  69.422  1.00  0.00    -0.361 A  
HETATM   10  C   UNL     1     -11.589  12.424  67.034  1.00  0.00    -0.434 A  
HETATM   11  C   UNL     1     -11.599  13.314  68.139  1.00  0.00    -0.373 A  
BRANCH   6  12
HETATM   12  N   UNL     1     -11.078   9.085  68.570  1.00  0.00    -0.450 NA 
HETATM   13  H   UNL     1     -11.884   8.540  68.877  1.00  0.00     0.000 HD 
BRANCH  12  14
HETATM   14  C   UNL     1      -9.968   8.332  68.307  1.00  0.00    -0.191 A  
HETATM   15  N   UNL     1      -9.251   7.752  69.321  1.00  0.00    -0.146 NA 
HETATM   16  C   UNL     1      -8.329   7.698  66.820  1.00  0.00    -0.125 A  
HETATM   17  N   UNL     1      -9.517   8.355  67.072  1.00  0.00    -0.163 NA 
HETATM   18  C   UNL     1      -7.946   7.269  69.160  1.00  0.00    -0.119 A  
HETATM   19  C   UNL     1      -7.506   7.161  67.726  1.00  0.00    -0.098 A  
HETATM   20 CL   UNL     1      -5.988   6.470  67.322  1.00  0.00    -0.020 Cl 
BRANCH  18  21
HETATM   21  N   UNL     1      -7.062   6.957  70.079  1.00  0.00    -0.072 NA 
HETATM   22  H   UNL     1      -6.097   6.765  69.813  1.00  0.00     0.000 HD 
BRANCH  21  23
HETATM   23  C   UNL     1      -7.446   6.888  71.423  1.00  0.00    -0.082 A  
HETATM   24  C   UNL     1      -7.679   8.079  72.128  1.00  0.00    -0.131 A  
HETATM   25  C   UNL     1      -7.672   8.099  73.518  1.00  0.00    -0.218 A  
HETATM   26  C   UNL     1      -7.510   6.910  74.218  1.00  0.00    -0.108 A  
HETATM   27  C   UNL     1      -7.469   5.697  73.530  1.00  0.00    -0.091 A  
HETATM   28  C   UNL     1      -7.485   5.679  72.128  1.00  0.00    -0.099 A  
BRANCH  28  29
HETATM   29  S   UNL     1      -7.990   4.138  71.346  1.00  0.00    -0.078 S  
HETATM   30  O   UNL     1      -8.614   3.340  72.389  1.00  0.00    -0.081 OA 
HETATM   31  O   UNL     1      -8.798   4.541  70.206  1.00  0.00    -0.079 OA 
BRANCH  29  32
HETATM   32  C   UNL     1      -6.597   3.191  70.751  1.00  0.00    -0.032 C  
HETATM   33  C   UNL     1      -5.742   3.966  69.743  1.00  0.00    -0.017 C  
HETATM   34  C   UNL     1      -5.720   2.780  71.945  1.00  0.00    -0.009 C  
ENDBRANCH  29  32
ENDBRANCH  28  29
ENDBRANCH  21  23
ENDBRANCH  18  21
ENDBRANCH  12  14
ENDBRANCH   6  12
BRANCH  11  35
HETATM   35  C   UNL     1     -11.682  14.832  67.879  1.00  0.00    -0.367 C  
HETATM   36  C   UNL     1     -11.951  15.625  69.173  1.00  0.00    -0.329 C  
HETATM   37  C   UNL     1     -10.675  15.874  69.961  1.00  0.00    -0.339 C  
HETATM   38  N   UNL     1      -9.760  16.684  69.170  1.00  0.00    -0.252 NA 
HETATM   39  H   UNL     1      -8.944  16.964  69.713  1.00  0.00     0.000 HD 
HETATM   40  C   UNL     1      -9.372  16.005  67.934  1.00  0.00    -0.208 C  
HETATM   41  C   UNL     1     -10.566  15.562  67.094  1.00  0.00    -0.300 C  
ENDBRANCH  11  35
ENDBRANCH   4   5
ENDBRANCH   2   4
TORSDOF 9
ENDMDL
MODEL      193
REMARK 921   NORMALIZED FREE ENERGY PREDICTED BY IDOCK:   -4.11 KCAL/MOL
REMARK 922        TOTAL FREE ENERGY PREDICTED BY IDOCK:   -8.45 KCAL/MOL
REMARK 923 INTER-LIGAND FREE ENERGY PREDICTED BY IDOCK:   -6.28 KCAL/MOL
REMARK 924 INTRA-LIGAND FREE ENERGY PREDICTED BY IDOCK:   -2.17 KCAL/MOL
REMARK 927      BINDING AFFINITY PREDICTED BY RF-SCORE:    0.00 PKD
ROOT
HETATM    1  C   UNL     1     -11.605   9.568  71.301  1.00  0.00    -0.445 C  
HETATM    2  C   UNL     1     -10.620   8.422  71.071  1.00  0.00    -0.214 C  
HETATM    3  C   UNL     1     -11.251   7.110  71.551  1.00  0.00    -0.273 C  
ENDROOT
BRANCH   2   4
HETATM    4  O   UNL     1     -10.273   8.410  69.666  1.00  0.00    -0.199 OA 
BRANCH   4   5
HETATM    5  C   UNL     1      -9.099   7.772  69.323  1.00  0.00    -0.145 A  
HETATM    6  C   UNL     1      -7.826   8.175  69.758  1.00  0.00    -0.105 A  
HETATM    7  C   UNL     1      -5.638   5.353  68.517  1.00  0.00    -0.011 C  
HETATM    8  C   UNL     1      -6.790   7.255  69.606  1.00  0.00    -0.049 A  
HETATM    9  C   UNL     1      -9.250   6.613  68.513  1.00  0.00    -0.127 A  
HETATM   10  C   UNL     1      -6.916   6.104  68.805  1.00  0.00    -0.076 A  
HETATM   11  C   UNL     1      -8.163   5.763  68.220  1.00  0.00    -0.108 A  
BRANCH   6  12
HETATM   12  N   UNL     1      -7.544   9.381  70.428  1.00  0.00    -0.129 NA 
HETATM   13  H   UNL     1      -7.575   9.306  71.445  1.00  0.00     0.000 HD 
BRANCH  12  14
HETATM   14  C   UNL     1      -7.237  10.632  69.974  1.00  0.00    -0.033 A  
HETATM   15  N   UNL     1      -7.777  11.115  68.811  1.00  0.00    -0.130 NA 
HETATM   16  C   UNL     1      -5.859  12.474  70.068  1.00  0.00    -0.150 A  
HETATM   17  N   UNL     1      -6.262  11.262  70.592  1.00  0.00    -0.337 NA 
HETATM   18  C   UNL     1      -7.258  12.219  68.123  1.00  0.00    -0.101 A  
HETATM   19  C   UNL     1      -6.253  13.014  68.911  1.00  0.00    -0.088 A  
HETATM   20 CL   UNL     1      -5.602  14.474  68.287  1.00  0.00    -0.109 Cl 
BRANCH  18  21
HETATM   21  N   UNL     1      -7.490  12.608  66.892  1.00  0.00    -0.385 NA 
HETATM   22  H   UNL     1      -6.725  12.958  66.314  1.00  0.00     0.000 HD 
BRANCH  21  23
HETATM   23  C   UNL     1      -8.788  12.543  66.371  1.00  0.00    -0.013 A  
HETATM   24  C   UNL     1      -9.710  13.544  66.711  1.00  0.00    -0.271 A  
HETATM   25  C   UNL     1     -11.077  13.337  66.561  1.00  0.00    -0.313 A  
HETATM   26  C   UNL     1     -11.530  12.153  65.992  1.00  0.00    -0.427 A  
HETATM   27  C   UNL     1     -10.617  11.234  65.476  1.00  0.00    -0.306 A  
HETATM   28  C   UNL     1      -9.238  11.450  65.621  1.00  0.00    -0.193 A  
BRANCH  28  29
HETATM   29  S   UNL     1      -8.158  10.567  64.484  1.00  0.00     0.018 S  
HETATM   30  O   UNL     1      -8.290  11.235  63.199  1.00  0.00     0.096 OA 
HETATM   31  O   UNL     1      -6.856  10.559  65.129  1.00  0.00    -0.112 OA 
BRANCH  29  32
HETATM   32  C   UNL     1      -8.678   8.877  64.229  1.00  0.00    -0.063 C  
HETATM   33  C   UNL     1      -7.863   8.163  63.146  1.00  0.00    -0.149 C  
HETATM   34  C   UNL     1      -8.544   8.104  65.552  1.00  0.00    -0.173 C  
ENDBRANCH  29  32
ENDBRANCH  28  29
ENDBRANCH  21  23
ENDBRANCH  18  21
ENDBRANCH  12  14
ENDBRANCH   6  12
BRANCH  11  35
HETATM   35  C   UNL     1      -8.262   4.493  67.350  1.00  0.00    -0.101 C  
HETATM   36  C   UNL     1      -9.714   3.992  67.225  1.00  0.00    -0.199 C  
HETATM   37  C   UNL     1     -10.480   4.739  66.145  1.00  0.00    -0.290 C  
HETATM   38  N   UNL     1      -9.856   4.506  64.850  1.00  0.00    -0.333 NA 
HETATM   39  H   UNL     1     -10.412   4.900  64.092  1.00  0.00     0.000 HD 
HETATM   40  C   UNL     1      -8.482   5.004  64.819  1.00  0.00    -0.148 C  
HETATM   41  C   UNL     1      -7.616   4.446  65.945  1.00  0.00    -0.089 C  
ENDBRANCH  11  35
ENDBRANCH   4   5
ENDBRANCH   2   4
TORSDOF 9
ENDMDL
MODEL      194
REMARK 921   NORMALIZED FREE ENERGY PREDICTED BY IDOCK:   -4.10 KCAL/MOL
REMARK 922        TOTAL FREE ENERGY PREDICTED BY IDOCK:   -8.43 KCAL/MOL
REMARK 923 INTER-LIGAND FREE ENERGY PREDICTED BY IDOCK:   -6.42 KCAL/MOL
REMARK 924 INTRA-LIGAND FREE ENERGY PREDICTED BY IDOCK:   -2.01 KCAL/MOL
REMARK 927      BINDING AFFINITY PREDICTED BY RF-SCORE:    0.00 PKD
ROOT
HETATM    1  C   UNL     1     -12.747  10.648  70.184  1.00  0.00    -0.224 C  
HETATM    2  C   UNL     1     -11.253  10.437  70.427  1.00  0.00    -0.321 C  
HETATM    3  C   UNL     1     -11.064   9.494  71.620  1.00  0.00    -0.336 C  
ENDROOT
BRANCH   2   4
HETATM    4  O   UNL     1     -10.671   9.934  69.201  1.00  0.00    -0.210 OA 
BRANCH   4   5
HETATM    5  C   UNL     1     -10.516  10.839  68.172  1.00  0.00    -0.185 A  
HETATM    6  C   UNL     1     -10.464  10.488  66.813  1.00  0.00    -0.242 A  
HETATM    7  C   UNL     1     -10.505  13.868  65.122  1.00  0.00    -0.409 C  
HETATM    8  C   UNL     1     -10.637  11.518  65.891  1.00  0.00    -0.318 A  
HETATM    9  C   UNL     1     -10.452  12.204  68.566  1.00  0.00    -0.248 A  
HETATM   10  C   UNL     1     -10.574  12.877  66.258  1.00  0.00    -0.281 A  
HETATM   11  C   UNL     1     -10.462  13.252  67.622  1.00  0.00    -0.231 A  
BRANCH   6  12
HETATM   12  N   UNL     1     -10.364   9.173  66.321  1.00  0.00    -0.227 NA 
HETATM   13  H   UNL     1     -11.253   8.776  66.014  1.00  0.00     0.000 HD 
BRANCH  12  14
HETATM   14  C   UNL     1      -9.301   8.326  66.176  1.00  0.00    -0.188 A  
HETATM   15  N   UNL     1      -9.087   7.301  67.060  1.00  0.00    -0.130 NA 
HETATM   16  C   UNL     1      -7.260   7.881  65.207  1.00  0.00    -0.061 A  
HETATM   17  N   UNL     1      -8.399   8.659  65.279  1.00  0.00    -0.159 NA 
HETATM   18  C   UNL     1      -7.865   6.626  67.173  1.00  0.00    -0.105 A  
HETATM   19  C   UNL     1      -6.904   6.908  66.051  1.00  0.00    -0.060 A  
HETATM   20 CL   UNL     1      -5.407   6.077  65.946  1.00  0.00    -0.012 Cl 
BRANCH  18  21
HETATM   21  N   UNL     1      -7.441   5.842  68.137  1.00  0.00    -0.080 NA 
HETATM   22  H   UNL     1      -6.554   5.349  68.040  1.00  0.00     0.000 HD 
BRANCH  21  23
HETATM   23  C   UNL     1      -8.208   5.683  69.296  1.00  0.00    -0.096 A  
HETATM   24  C   UNL     1      -9.348   4.865  69.253  1.00  0.00    -0.185 A  
HETATM   25  C   UNL     1     -10.343   4.974  70.218  1.00  0.00    -0.299 A  
HETATM   26  C   UNL     1     -10.168   5.850  71.283  1.00  0.00    -0.262 A  
HETATM   27  C   UNL     1      -8.958   6.527  71.438  1.00  0.00    -0.140 A  
HETATM   28  C   UNL     1      -7.953   6.407  70.467  1.00  0.00    -0.112 A  
BRANCH  28  29
HETATM   29  S   UNL     1      -6.278   6.820  70.983  1.00  0.00    -0.041 S  
HETATM   30  O   UNL     1      -6.085   6.185  72.277  1.00  0.00    -0.040 OA 
HETATM   31  O   UNL     1      -5.430   6.408  69.877  1.00  0.00    -0.013 OA 
BRANCH  29  32
HETATM   32  C   UNL     1      -6.063   8.574  71.244  1.00  0.00    -0.042 C  
HETATM   33  C   UNL     1      -7.173   9.409  70.599  1.00  0.00    -0.134 C  
HETATM   34  C   UNL     1      -6.031   8.859  72.755  1.00  0.00    -0.048 C  
ENDBRANCH  29  32
ENDBRANCH  28  29
ENDBRANCH  21  23
ENDBRANCH  18  21
ENDBRANCH  12  14
ENDBRANCH   6  12
BRANCH  11  35
HETATM   35  C   UNL     1     -10.397  14.750  67.985  1.00  0.00    -0.237 C  
HETATM   36  C   UNL     1     -11.773  15.434  67.861  1.00  0.00    -0.198 C  
HETATM   37  C   UNL     1     -12.628  15.215  69.099  1.00  0.00     0.203 C  
HETATM   38  N   UNL     1     -11.978  15.815  70.255  1.00  0.00    -0.368 NA 
HETATM   39  H   UNL     1     -12.579  15.785  71.078  1.00  0.00     0.000 HD 
HETATM   40  C   UNL     1     -10.678  15.200  70.521  1.00  0.00    -0.149 C  
HETATM   41  C   UNL     1      -9.750  15.215  69.310  1.00  0.00    -0.225 C  
ENDBRANCH  11  35
ENDBRANCH   4   5
ENDBRANCH   2   4
TORSDOF 9
ENDMDL
MODEL      195
REMARK 921   NORMALIZED FREE ENERGY PREDICTED BY IDOCK:   -4.09 KCAL/MOL
REMARK 922        TOTAL FREE ENERGY PREDICTED BY IDOCK:   -8.41 KCAL/MOL
REMARK 923 INTER-LIGAND FREE ENERGY PREDICTED BY IDOCK:   -7.82 KCAL/MOL
REMARK 924 INTRA-LIGAND FREE ENERGY PREDICTED BY IDOCK:   -0.59 KCAL/MOL
REMARK 927      BINDING AFFINITY PREDICTED BY RF-SCORE:    0.00 PKD
ROOT
HETATM    1  C   UNL     1     -11.083   8.811  71.941  1.00  0.00    -0.434 C  
HETATM    2  C   UNL     1     -12.164   9.099  70.901  1.00  0.00    -0.183 C  
HETATM    3  C   UNL     1     -13.479   8.448  71.345  1.00  0.00    -0.251 C  
ENDROOT
BRANCH   2   4
HETATM    4  O   UNL     1     -12.260  10.535  70.746  1.00  0.00    -0.306 OA 
BRANCH   4   5
HETATM    5  C   UNL     1     -11.822  11.059  69.547  1.00  0.00    -0.333 A  
HETATM    6  C   UNL     1     -11.351  10.286  68.473  1.00  0.00    -0.168 A  
HETATM    7  C   UNL     1     -10.962  12.876  65.748  1.00  0.00    -0.303 C  
HETATM    8  C   UNL     1     -11.262  10.920  67.235  1.00  0.00    -0.307 A  
HETATM    9  C   UNL     1     -11.916  12.474  69.431  1.00  0.00    -0.315 A  
HETATM   10  C   UNL     1     -11.347  12.319  67.097  1.00  0.00    -0.398 A  
HETATM   11  C   UNL     1     -11.664  13.137  68.211  1.00  0.00    -0.384 A  
BRANCH   6  12
HETATM   12  N   UNL     1     -11.073   8.907  68.530  1.00  0.00    -0.442 NA 
HETATM   13  H   UNL     1     -11.886   8.330  68.745  1.00  0.00     0.000 HD 
BRANCH  12  14
HETATM   14  C   UNL     1      -9.920   8.196  68.351  1.00  0.00    -0.190 A  
HETATM   15  N   UNL     1      -9.084   8.458  67.297  1.00  0.00    -0.135 NA 
HETATM   16  C   UNL     1      -8.655   6.341  68.861  1.00  0.00    -0.125 A  
HETATM   17  N   UNL     1      -9.755   7.137  69.113  1.00  0.00    -0.157 NA 
HETATM   18  C   UNL     1      -8.091   7.569  66.866  1.00  0.00    -0.116 A  
HETATM   19  C   UNL     1      -7.814   6.447  67.828  1.00  0.00    -0.104 A  
HETATM   20 CL   UNL     1      -6.543   5.331  67.535  1.00  0.00    -0.052 Cl 
BRANCH  18  21
HETATM   21  N   UNL     1      -7.427   7.560  65.734  1.00  0.00    -0.077 NA 
HETATM   22  H   UNL     1      -6.794   6.789  65.520  1.00  0.00     0.000 HD 
BRANCH  21  23
HETATM   23  C   UNL     1      -7.588   8.608  64.820  1.00  0.00    -0.102 A  
HETATM   24  C   UNL     1      -8.615   8.530  63.867  1.00  0.00     0.040 A  
HETATM   25  C   UNL     1      -8.584   9.313  62.719  1.00  0.00    -0.222 A  
HETATM   26  C   UNL     1      -7.563  10.240  62.551  1.00  0.00    -0.151 A  
HETATM   27  C   UNL     1      -6.645  10.460  63.578  1.00  0.00    -0.041 A  
HETATM   28  C   UNL     1      -6.685   9.674  64.740  1.00  0.00    -0.103 A  
BRANCH  28  29
HETATM   29  S   UNL     1      -5.884  10.354  66.202  1.00  0.00    -0.100 S  
HETATM   30  O   UNL     1      -5.152   9.256  66.812  1.00  0.00    -0.033 OA 
HETATM   31  O   UNL     1      -5.133  11.502  65.720  1.00  0.00    -0.314 OA 
BRANCH  29  32
HETATM   32  C   UNL     1      -7.062  10.915  67.421  1.00  0.00    -0.093 C  
HETATM   33  C   UNL     1      -6.491  10.910  68.842  1.00  0.00    -0.049 C  
HETATM   34  C   UNL     1      -7.516  12.340  67.066  1.00  0.00    -0.063 C  
ENDBRANCH  29  32
ENDBRANCH  28  29
ENDBRANCH  21  23
ENDBRANCH  18  21
ENDBRANCH  12  14
ENDBRANCH   6  12
BRANCH  11  35
HETATM   35  C   UNL     1     -11.750  14.666  68.020  1.00  0.00    -0.371 C  
HETATM   36  C   UNL     1     -11.704  15.419  69.364  1.00  0.00    -0.369 C  
HETATM   37  C   UNL     1     -10.280  15.605  69.861  1.00  0.00    -0.289 C  
HETATM   38  N   UNL     1      -9.532  16.418  68.913  1.00  0.00    -0.246 NA 
HETATM   39  H   UNL     1      -8.608  16.655  69.273  1.00  0.00     0.000 HD 
HETATM   40  C   UNL     1      -9.446  15.773  67.604  1.00  0.00    -0.218 C  
HETATM   41  C   UNL     1     -10.808  15.392  67.032  1.00  0.00    -0.320 C  
ENDBRANCH  11  35
ENDBRANCH   4   5
ENDBRANCH   2   4
TORSDOF 9
ENDMDL
MODEL      196
REMARK 921   NORMALIZED FREE ENERGY PREDICTED BY IDOCK:   -4.08 KCAL/MOL
REMARK 922        TOTAL FREE ENERGY PREDICTED BY IDOCK:   -8.39 KCAL/MOL
REMARK 923 INTER-LIGAND FREE ENERGY PREDICTED BY IDOCK:   -5.35 KCAL/MOL
REMARK 924 INTRA-LIGAND FREE ENERGY PREDICTED BY IDOCK:   -3.04 KCAL/MOL
REMARK 927      BINDING AFFINITY PREDICTED BY RF-SCORE:    0.00 PKD
ROOT
HETATM    1  C   UNL     1     -11.832   6.613  69.837  1.00  0.00    -0.238 C  
HETATM    2  C   UNL     1     -10.693   6.209  68.902  1.00  0.00    -0.312 C  
HETATM    3  C   UNL     1     -11.124   6.444  67.450  1.00  0.00    -0.412 C  
ENDROOT
BRANCH   2   4
HETATM    4  O   UNL     1      -9.518   6.966  69.280  1.00  0.00    -0.147 OA 
BRANCH   4   5
HETATM    5  C   UNL     1      -8.474   6.981  68.379  1.00  0.00    -0.123 A  
HETATM    6  C   UNL     1      -7.695   5.857  68.055  1.00  0.00    -0.100 A  
HETATM    7  C   UNL     1      -5.589   7.152  65.197  1.00  0.00    -0.032 C  
HETATM    8  C   UNL     1      -6.912   5.945  66.907  1.00  0.00    -0.068 A  
HETATM    9  C   UNL     1      -8.243   8.227  67.734  1.00  0.00    -0.127 A  
HETATM   10  C   UNL     1      -6.666   7.169  66.254  1.00  0.00    -0.053 A  
HETATM   11  C   UNL     1      -7.324   8.355  66.671  1.00  0.00    -0.082 A  
BRANCH   6  12
HETATM   12  N   UNL     1      -7.733   4.625  68.735  1.00  0.00    -0.071 NA 
HETATM   13  H   UNL     1      -8.190   3.877  68.212  1.00  0.00     0.000 HD 
BRANCH  12  14
HETATM   14  C   UNL     1      -7.272   4.240  69.963  1.00  0.00    -0.046 A  
HETATM   15  N   UNL     1      -7.949   4.570  71.108  1.00  0.00    -0.080 NA 
HETATM   16  C   UNL     1      -5.538   3.439  71.249  1.00  0.00    -0.012 A  
HETATM   17  N   UNL     1      -6.065   3.719  70.004  1.00  0.00    -0.022 NA 
HETATM   18  C   UNL     1      -7.374   4.511  72.384  1.00  0.00    -0.081 A  
HETATM   19  C   UNL     1      -6.063   3.776  72.432  1.00  0.00    -0.009 A  
HETATM   20 CL   UNL     1      -5.270   3.488  73.926  1.00  0.00     0.000 Cl 
BRANCH  18  21
HETATM   21  N   UNL     1      -7.796   5.047  73.505  1.00  0.00    -0.099 NA 
HETATM   22  H   UNL     1      -7.519   4.644  74.400  1.00  0.00     0.000 HD 
BRANCH  21  23
HETATM   23  C   UNL     1      -8.627   6.173  73.471  1.00  0.00    -0.125 A  
HETATM   24  C   UNL     1     -10.012   6.004  73.629  1.00  0.00    -0.199 A  
HETATM   25  C   UNL     1     -10.903   6.990  73.222  1.00  0.00    -0.345 A  
HETATM   26  C   UNL     1     -10.412   8.192  72.725  1.00  0.00    -0.385 A  
HETATM   27  C   UNL     1      -9.040   8.445  72.742  1.00  0.00    -0.299 A  
HETATM   28  C   UNL     1      -8.144   7.450  73.161  1.00  0.00    -0.109 A  
BRANCH  28  29
HETATM   29  S   UNL     1      -6.513   8.002  73.686  1.00  0.00    -0.105 S  
HETATM   30  O   UNL     1      -6.703   9.312  74.289  1.00  0.00    -0.357 OA 
HETATM   31  O   UNL     1      -6.000   6.926  74.518  1.00  0.00    -0.070 OA 
BRANCH  29  32
HETATM   32  C   UNL     1      -5.401   8.237  72.308  1.00  0.00    -0.038 C  
HETATM   33  C   UNL     1      -5.842   7.476  71.055  1.00  0.00    -0.035 C  
HETATM   34  C   UNL     1      -5.313   9.737  71.982  1.00  0.00    -0.034 C  
ENDBRANCH  29  32
ENDBRANCH  28  29
ENDBRANCH  21  23
ENDBRANCH  18  21
ENDBRANCH  12  14
ENDBRANCH   6  12
BRANCH  11  35
HETATM   35  C   UNL     1      -7.029   9.676  65.931  1.00  0.00    -0.097 C  
HETATM   36  C   UNL     1      -8.065   9.960  64.825  1.00  0.00    -0.151 C  
HETATM   37  C   UNL     1      -9.326  10.603  65.381  1.00  0.00    -0.210 C  
HETATM   38  N   UNL     1      -8.999  11.892  65.973  1.00  0.00    -0.381 NA 
HETATM   39  H   UNL     1      -9.839  12.398  66.252  1.00  0.00     0.000 HD 
HETATM   40  C   UNL     1      -8.066  11.749  67.090  1.00  0.00    -0.169 C  
HETATM   41  C   UNL     1      -6.797  10.988  66.716  1.00  0.00    -0.128 C  
ENDBRANCH  11  35
ENDBRANCH   4   5
ENDBRANCH   2   4
TORSDOF 9
ENDMDL
MODEL      197
REMARK 921   NORMALIZED FREE ENERGY PREDICTED BY IDOCK:   -4.03 KCAL/MOL
REMARK 922        TOTAL FREE ENERGY PREDICTED BY IDOCK:   -8.32 KCAL/MOL
REMARK 923 INTER-LIGAND FREE ENERGY PREDICTED BY IDOCK:   -7.62 KCAL/MOL
REMARK 924 INTRA-LIGAND FREE ENERGY PREDICTED BY IDOCK:   -0.71 KCAL/MOL
REMARK 927      BINDING AFFINITY PREDICTED BY RF-SCORE:    0.00 PKD
ROOT
HETATM    1  C   UNL     1      -9.729   9.909  63.677  1.00  0.00     0.143 C  
HETATM    2  C   UNL     1      -9.816  11.374  64.104  1.00  0.00    -0.268 C  
HETATM    3  C   UNL     1     -11.243  11.883  63.875  1.00  0.00    -0.497 C  
ENDROOT
BRANCH   2   4
HETATM    4  O   UNL     1      -9.392  11.459  65.486  1.00  0.00    -0.221 OA 
BRANCH   4   5
HETATM    5  C   UNL     1      -9.721  10.396  66.301  1.00  0.00    -0.205 A  
HETATM    6  C   UNL     1     -10.878  10.339  67.095  1.00  0.00    -0.212 A  
HETATM    7  C   UNL     1     -10.771   6.789  68.390  1.00  0.00    -0.284 C  
HETATM    8  C   UNL     1     -11.234   9.088  67.597  1.00  0.00     0.478 A  
HETATM    9  C   UNL     1      -8.817   9.298  66.263  1.00  0.00    -0.172 A  
HETATM   10  C   UNL     1     -10.354   7.988  67.574  1.00  0.00    -0.330 A  
HETATM   11  C   UNL     1      -9.103   8.078  66.911  1.00  0.00    -0.182 A  
BRANCH   6  12
HETATM   12  N   UNL     1     -11.753  11.416  67.328  1.00  0.00    -0.583 NA 
HETATM   13  H   UNL     1     -12.707  11.252  67.003  1.00  0.00     0.000 HD 
BRANCH  12  14
HETATM   14  C   UNL     1     -11.568  12.641  67.905  1.00  0.00    -0.349 A  
HETATM   15  N   UNL     1     -10.902  13.640  67.245  1.00  0.00    -0.282 NA 
HETATM   16  C   UNL     1     -11.584  13.940  69.805  1.00  0.00    -0.270 A  
HETATM   17  N   UNL     1     -11.880  12.747  69.178  1.00  0.00    -0.309 NA 
HETATM   18  C   UNL     1     -10.387  14.774  67.887  1.00  0.00    -0.240 A  
HETATM   19  C   UNL     1     -10.879  14.956  69.297  1.00  0.00    -0.266 A  
HETATM   20 CL   UNL     1     -10.461  16.353  70.201  1.00  0.00    -0.130 Cl 
BRANCH  18  21
HETATM   21  N   UNL     1      -9.511  15.645  67.446  1.00  0.00    -0.214 NA 
HETATM   22  H   UNL     1      -9.816  16.576  67.160  1.00  0.00     0.000 HD 
BRANCH  21  23
HETATM   23  C   UNL     1      -8.158  15.297  67.367  1.00  0.00    -0.182 A  
HETATM   24  C   UNL     1      -7.793  13.946  67.469  1.00  0.00    -0.193 A  
HETATM   25  C   UNL     1      -6.492  13.579  67.790  1.00  0.00    -0.175 A  
HETATM   26  C   UNL     1      -5.521  14.562  67.934  1.00  0.00    -0.093 A  
HETATM   27  C   UNL     1      -5.828  15.892  67.648  1.00  0.00    -0.171 A  
HETATM   28  C   UNL     1      -7.141  16.258  67.316  1.00  0.00    -0.190 A  
BRANCH  28  29
HETATM   29  S   UNL     1      -7.346  17.815  66.436  1.00  0.00    -0.300 S  
HETATM   30  O   UNL     1      -6.095  18.052  65.734  1.00  0.00    -0.210 OA 
HETATM   31  O   UNL     1      -8.558  17.646  65.651  1.00  0.00    -0.410 OA 
BRANCH  29  32
HETATM   32  C   UNL     1      -7.573  19.196  67.545  1.00  0.00    -0.236 C  
HETATM   33  C   UNL     1      -8.648  18.935  68.605  1.00  0.00    -0.376 C  
HETATM   34  C   UNL     1      -6.240  19.505  68.245  1.00  0.00    -0.258 C  
ENDBRANCH  29  32
ENDBRANCH  28  29
ENDBRANCH  21  23
ENDBRANCH  18  21
ENDBRANCH  12  14
ENDBRANCH   6  12
BRANCH  11  35
HETATM   35  C   UNL     1      -8.167   6.851  66.906  1.00  0.00    -0.113 C  
HETATM   36  C   UNL     1      -6.714   7.236  66.566  1.00  0.00    -0.060 C  
HETATM   37  C   UNL     1      -5.963   7.750  67.783  1.00  0.00    -0.041 C  
HETATM   38  N   UNL     1      -5.881   6.700  68.788  1.00  0.00    -0.020 NA 
HETATM   39  H   UNL     1      -5.286   6.976  69.569  1.00  0.00     0.000 HD 
HETATM   40  C   UNL     1      -7.208   6.291  69.247  1.00  0.00    -0.086 C  
HETATM   41  C   UNL     1      -8.135   5.878  68.107  1.00  0.00    -0.109 C  
ENDBRANCH  11  35
ENDBRANCH   4   5
ENDBRANCH   2   4
TORSDOF 9
ENDMDL
MODEL      198
REMARK 921   NORMALIZED FREE ENERGY PREDICTED BY IDOCK:   -4.02 KCAL/MOL
REMARK 922        TOTAL FREE ENERGY PREDICTED BY IDOCK:   -8.30 KCAL/MOL
REMARK 923 INTER-LIGAND FREE ENERGY PREDICTED BY IDOCK:  -10.06 KCAL/MOL
REMARK 924 INTRA-LIGAND FREE ENERGY PREDICTED BY IDOCK:    1.76 KCAL/MOL
REMARK 927      BINDING AFFINITY PREDICTED BY RF-SCORE:    0.00 PKD
ROOT
HETATM    1  C   UNL     1      -5.690   9.294  68.293  1.00  0.00    -0.038 C  
HETATM    2  C   UNL     1      -6.714   9.097  69.410  1.00  0.00    -0.048 C  
HETATM    3  C   UNL     1      -6.608  10.258  70.404  1.00  0.00    -0.126 C  
ENDROOT
BRANCH   2   4
HETATM    4  O   UNL     1      -8.021   8.984  68.798  1.00  0.00    -0.098 OA 
BRANCH   4   5
HETATM    5  C   UNL     1      -9.096   9.413  69.548  1.00  0.00    -0.165 A  
HETATM    6  C   UNL     1      -9.780  10.620  69.329  1.00  0.00    -0.160 A  
HETATM    7  C   UNL     1     -12.705  10.313  71.703  1.00  0.00    -0.561 C  
HETATM    8  C   UNL     1     -11.025  10.757  69.939  1.00  0.00    -0.304 A  
HETATM    9  C   UNL     1      -9.524   8.517  70.567  1.00  0.00    -0.193 A  
HETATM   10  C   UNL     1     -11.467   9.884  70.953  1.00  0.00    -0.456 A  
HETATM   11  C   UNL     1     -10.706   8.739  71.304  1.00  0.00    -0.339 A  
BRANCH   6  12
HETATM   12  N   UNL     1      -9.355  11.644  68.461  1.00  0.00    -0.269 NA 
HETATM   13  H   UNL     1      -9.282  11.355  67.485  1.00  0.00     0.000 HD 
BRANCH  12  14
HETATM   14  C   UNL     1      -9.023  12.952  68.678  1.00  0.00     0.051 A  
HETATM   15  N   UNL     1      -9.989  13.901  68.888  1.00  0.00    -0.134 NA 
HETATM   16  C   UNL     1      -7.440  14.620  68.578  1.00  0.00    -0.120 A  
HETATM   17  N   UNL     1      -7.765  13.282  68.482  1.00  0.00    -0.133 NA 
HETATM   18  C   UNL     1      -9.750  15.277  68.776  1.00  0.00    -0.212 A  
HETATM   19  C   UNL     1      -8.293  15.642  68.705  1.00  0.00    -0.189 A  
HETATM   20 CL   UNL     1      -7.797  17.284  68.695  1.00  0.00    -0.265 Cl 
BRANCH  18  21
HETATM   21  N   UNL     1     -10.615  16.259  68.674  1.00  0.00    -0.278 NA 
HETATM   22  H   UNL     1     -11.499  16.214  69.180  1.00  0.00     0.000 HD 
BRANCH  21  23
HETATM   23  C   UNL     1     -10.323  17.366  67.869  1.00  0.00    -0.369 A  
HETATM   24  C   UNL     1      -9.838  18.538  68.471  1.00  0.00    -0.414 A  
HETATM   25  C   UNL     1      -9.905  19.760  67.811  1.00  0.00    -0.520 A  
HETATM   26  C   UNL     1     -10.386  19.807  66.508  1.00  0.00    -0.621 A  
HETATM   27  C   UNL     1     -10.691  18.624  65.834  1.00  0.00    -0.274 A  
HETATM   28  C   UNL     1     -10.614  17.392  66.500  1.00  0.00    -0.184 A  
BRANCH  28  29
HETATM   29  S   UNL     1     -10.466  15.925  65.468  1.00  0.00    -0.403 S  
HETATM   30  O   UNL     1     -10.949  16.305  64.150  1.00  0.00    -0.649 OA 
HETATM   31  O   UNL     1      -9.079  15.509  65.602  1.00  0.00    -0.211 OA 
BRANCH  29  32
HETATM   32  C   UNL     1     -11.517  14.593  66.027  1.00  0.00    -0.332 C  
HETATM   33  C   UNL     1     -12.876  14.577  65.320  1.00  0.00    -0.102 C  
HETATM   34  C   UNL     1     -10.806  13.253  65.782  1.00  0.00    -0.286 C  
ENDBRANCH  29  32
ENDBRANCH  28  29
ENDBRANCH  21  23
ENDBRANCH  18  21
ENDBRANCH  12  14
ENDBRANCH   6  12
BRANCH  11  35
HETATM   35  C   UNL     1     -11.224   7.806  72.418  1.00  0.00    -0.392 C  
HETATM   36  C   UNL     1     -11.927   6.559  71.846  1.00  0.00    -0.389 C  
HETATM   37  C   UNL     1     -10.933   5.475  71.461  1.00  0.00    -0.150 C  
HETATM   38  N   UNL     1     -10.211   5.030  72.644  1.00  0.00    -0.181 NA 
HETATM   39  H   UNL     1      -9.619   4.225  72.438  1.00  0.00     0.000 HD 
HETATM   40  C   UNL     1      -9.443   6.118  73.246  1.00  0.00    -0.142 C  
HETATM   41  C   UNL     1     -10.290   7.347  73.562  1.00  0.00    -0.405 C  
ENDBRANCH  11  35
ENDBRANCH   4   5
ENDBRANCH   2   4
TORSDOF 9
ENDMDL
MODEL      199
REMARK 921   NORMALIZED FREE ENERGY PREDICTED BY IDOCK:   -4.01 KCAL/MOL
REMARK 922        TOTAL FREE ENERGY PREDICTED BY IDOCK:   -8.29 KCAL/MOL
REMARK 923 INTER-LIGAND FREE ENERGY PREDICTED BY IDOCK:   -7.75 KCAL/MOL
REMARK 924 INTRA-LIGAND FREE ENERGY PREDICTED BY IDOCK:   -0.55 KCAL/MOL
REMARK 927      BINDING AFFINITY PREDICTED BY RF-SCORE:    0.00 PKD
ROOT
HETATM    1  C   UNL     1     -10.752   5.812  71.257  1.00  0.00    -0.323 C  
HETATM    2  C   UNL     1     -10.148   6.740  70.204  1.00  0.00    -0.178 C  
HETATM    3  C   UNL     1      -8.670   6.388  70.008  1.00  0.00    -0.142 C  
ENDROOT
BRANCH   2   4
HETATM    4  O   UNL     1     -10.934   6.610  68.995  1.00  0.00    -0.265 OA 
BRANCH   4   5
HETATM    5  C   UNL     1     -10.250   6.692  67.800  1.00  0.00    -0.170 A  
HETATM    6  C   UNL     1      -9.933   7.898  67.153  1.00  0.00    -0.230 A  
HETATM    7  C   UNL     1      -7.702   6.723  64.337  1.00  0.00    -0.109 C  
HETATM    8  C   UNL     1      -8.969   7.838  66.149  1.00  0.00    -0.201 A  
HETATM    9  C   UNL     1      -9.824   5.449  67.254  1.00  0.00    -0.175 A  
HETATM   10  C   UNL     1      -8.537   6.619  65.591  1.00  0.00    -0.130 A  
HETATM   11  C   UNL     1      -8.975   5.382  66.130  1.00  0.00    -0.142 A  
BRANCH   6  12
HETATM   12  N   UNL     1     -10.429   9.164  67.516  1.00  0.00    -0.261 NA 
HETATM   13  H   UNL     1     -10.617   9.265  68.515  1.00  0.00     0.000 HD 
BRANCH  12  14
HETATM   14  C   UNL     1     -10.707  10.285  66.785  1.00  0.00    -0.146 A  
HETATM   15  N   UNL     1     -10.964  11.483  67.398  1.00  0.00    -0.248 NA 
HETATM   16  C   UNL     1     -11.310  11.216  64.768  1.00  0.00     0.140 A  
HETATM   17  N   UNL     1     -10.909  10.114  65.497  1.00  0.00     0.297 NA 
HETATM   18  C   UNL     1     -11.577  12.562  66.748  1.00  0.00    -0.382 A  
HETATM   19  C   UNL     1     -11.660  12.411  65.254  1.00  0.00    -0.373 A  
HETATM   20 CL   UNL     1     -12.262  13.683  64.273  1.00  0.00    -0.456 Cl 
BRANCH  18  21
HETATM   21  N   UNL     1     -12.124  13.636  67.268  1.00  0.00    -0.371 NA 
HETATM   22  H   UNL     1     -12.917  14.080  66.804  1.00  0.00     0.000 HD 
BRANCH  21  23
HETATM   23  C   UNL     1     -11.619  14.171  68.458  1.00  0.00    -0.316 A  
HETATM   24  C   UNL     1     -12.083  13.668  69.684  1.00  0.00    -0.378 A  
HETATM   25  C   UNL     1     -11.932  14.395  70.858  1.00  0.00    -0.393 A  
HETATM   26  C   UNL     1     -11.242  15.601  70.831  1.00  0.00    -0.407 A  
HETATM   27  C   UNL     1     -10.613  16.018  69.658  1.00  0.00    -0.311 A  
HETATM   28  C   UNL     1     -10.760  15.276  68.476  1.00  0.00    -0.247 A  
BRANCH  28  29
HETATM   29  S   UNL     1      -9.515  15.533  67.201  1.00  0.00    -0.219 S  
HETATM   30  O   UNL     1      -8.611  14.397  67.283  1.00  0.00    -0.192 OA 
HETATM   31  O   UNL     1     -10.268  15.731  65.974  1.00  0.00    -0.290 OA 
BRANCH  29  32
HETATM   32  C   UNL     1      -8.525  16.989  67.504  1.00  0.00    -0.200 C  
HETATM   33  C   UNL     1      -9.363  18.193  67.944  1.00  0.00    -0.276 C  
HETATM   34  C   UNL     1      -7.486  16.674  68.593  1.00  0.00    -0.211 C  
ENDBRANCH  29  32
ENDBRANCH  28  29
ENDBRANCH  21  23
ENDBRANCH  18  21
ENDBRANCH  12  14
ENDBRANCH   6  12
BRANCH  11  35
HETATM   35  C   UNL     1      -8.478   4.068  65.493  1.00  0.00    -0.109 C  
HETATM   36  C   UNL     1      -7.017   3.758  65.875  1.00  0.00    -0.062 C  
HETATM   37  C   UNL     1      -6.918   3.086  67.235  1.00  0.00    -0.049 C  
HETATM   38  N   UNL     1      -7.610   1.806  67.201  1.00  0.00    -0.059 NA 
HETATM   39  H   UNL     1      -7.464   1.279  68.062  1.00  0.00     0.000 HD 
HETATM   40  C   UNL     1      -9.033   1.972  66.911  1.00  0.00    -0.114 C  
HETATM   41  C   UNL     1      -9.296   2.763  65.633  1.00  0.00    -0.047 C  
ENDBRANCH  11  35
ENDBRANCH   4   5
ENDBRANCH   2   4
TORSDOF 9
ENDMDL
MODEL      200
REMARK 921   NORMALIZED FREE ENERGY PREDICTED BY IDOCK:   -3.95 KCAL/MOL
REMARK 922        TOTAL FREE ENERGY PREDICTED BY IDOCK:   -8.20 KCAL/MOL
REMARK 923 INTER-LIGAND FREE ENERGY PREDICTED BY IDOCK:   -7.28 KCAL/MOL
REMARK 924 INTRA-LIGAND FREE ENERGY PREDICTED BY IDOCK:   -0.92 KCAL/MOL
REMARK 927      BINDING AFFINITY PREDICTED BY RF-SCORE:    0.00 PKD
ROOT
HETATM    1  C   UNL     1      -9.336   9.611  70.357  1.00  0.00    -0.268 C  
HETATM    2  C   UNL     1      -7.994   9.252  70.995  1.00  0.00    -0.069 C  
HETATM    3  C   UNL     1      -8.243   8.492  72.302  1.00  0.00    -0.168 C  
ENDROOT
BRANCH   2   4
HETATM    4  O   UNL     1      -7.232   8.492  70.026  1.00  0.00    -0.049 OA 
BRANCH   4   5
HETATM    5  C   UNL     1      -7.945   7.642  69.206  1.00  0.00    -0.126 A  
HETATM    6  C   UNL     1      -8.000   7.757  67.808  1.00  0.00    -0.124 A  
HETATM    7  C   UNL     1      -9.836   4.602  66.828  1.00  0.00    -0.237 C  
HETATM    8  C   UNL     1      -8.476   6.652  67.105  1.00  0.00    -0.113 A  
HETATM    9  C   UNL     1      -8.611   6.574  69.869  1.00  0.00    -0.139 A  
HETATM   10  C   UNL     1      -9.142   5.585  67.739  1.00  0.00    -0.107 A  
HETATM   11  C   UNL     1      -9.239   5.532  69.154  1.00  0.00    -0.142 A  
BRANCH   6  12
HETATM   12  N   UNL     1      -7.513   8.850  67.067  1.00  0.00    -0.086 NA 
HETATM   13  H   UNL     1      -7.168   8.601  66.139  1.00  0.00     0.000 HD 
BRANCH  12  14
HETATM   14  C   UNL     1      -7.415  10.183  67.354  1.00  0.00    -0.094 A  
HETATM   15  N   UNL     1      -8.356  11.073  66.907  1.00  0.00    -0.133 NA 
HETATM   16  C   UNL     1      -6.130  11.947  68.085  1.00  0.00    -0.051 A  
HETATM   17  N   UNL     1      -6.291  10.588  67.902  1.00  0.00    -0.059 NA 
HETATM   18  C   UNL     1      -8.146  12.458  66.869  1.00  0.00    -0.063 A  
HETATM   19  C   UNL     1      -6.934  12.914  67.632  1.00  0.00    -0.152 A  
HETATM   20 CL   UNL     1      -6.583  14.585  67.809  1.00  0.00    -0.178 Cl 
BRANCH  18  21
HETATM   21  N   UNL     1      -8.825  13.378  66.225  1.00  0.00    -0.433 NA 
HETATM   22  H   UNL     1      -8.339  14.173  65.809  1.00  0.00     0.000 HD 
BRANCH  21  23
HETATM   23  C   UNL     1     -10.215  13.268  66.109  1.00  0.00    -0.296 A  
HETATM   24  C   UNL     1     -10.757  12.192  65.389  1.00  0.00    -0.323 A  
HETATM   25  C   UNL     1     -12.062  12.238  64.910  1.00  0.00    -0.422 A  
HETATM   26  C   UNL     1     -12.864  13.329  65.217  1.00  0.00    -0.368 A  
HETATM   27  C   UNL     1     -12.399  14.313  66.090  1.00  0.00    -0.411 A  
HETATM   28  C   UNL     1     -11.085  14.260  66.578  1.00  0.00    -0.323 A  
BRANCH  28  29
HETATM   29  S   UNL     1     -10.744  15.191  68.080  1.00  0.00    -0.262 S  
HETATM   30  O   UNL     1     -12.020  15.729  68.523  1.00  0.00    -0.314 OA 
HETATM   31  O   UNL     1     -10.047  14.259  68.951  1.00  0.00    -0.226 OA 
BRANCH  29  32
HETATM   32  C   UNL     1      -9.680  16.595  67.781  1.00  0.00    -0.240 C  
HETATM   33  C   UNL     1      -9.604  16.975  66.300  1.00  0.00    -0.289 C  
HETATM   34  C   UNL     1     -10.199  17.800  68.584  1.00  0.00    -0.377 C  
ENDBRANCH  29  32
ENDBRANCH  28  29
ENDBRANCH  21  23
ENDBRANCH  18  21
ENDBRANCH  12  14
ENDBRANCH   6  12
BRANCH  11  35
HETATM   35  C   UNL     1      -9.975   4.347  69.811  1.00  0.00    -0.224 C  
HETATM   36  C   UNL     1      -9.167   3.038  69.710  1.00  0.00    -0.219 C  
HETATM   37  C   UNL     1      -8.116   2.935  70.803  1.00  0.00    -0.049 C  
HETATM   38  N   UNL     1      -8.763   2.914  72.106  1.00  0.00    -0.073 NA 
HETATM   39  H   UNL     1      -8.093   2.730  72.853  1.00  0.00     0.000 HD 
HETATM   40  C   UNL     1      -9.515   4.143  72.353  1.00  0.00    -0.129 C  
HETATM   41  C   UNL     1     -10.524   4.460  71.253  1.00  0.00     0.059 C  
ENDBRANCH  11  35
ENDBRANCH   4   5
ENDBRANCH   2   4
TORSDOF 9
ENDMDL
MODEL      201
REMARK 921   NORMALIZED FREE ENERGY PREDICTED BY IDOCK:   -3.94 KCAL/MOL
REMARK 922        TOTAL FREE ENERGY PREDICTED BY IDOCK:   -8.18 KCAL/MOL
REMARK 923 INTER-LIGAND FREE ENERGY PREDICTED BY IDOCK:   -5.77 KCAL/MOL
REMARK 924 INTRA-LIGAND FREE ENERGY PREDICTED BY IDOCK:   -2.42 KCAL/MOL
REMARK 927      BINDING AFFINITY PREDICTED BY RF-SCORE:    0.00 PKD
ROOT
HETATM    1  C   UNL     1     -11.577   6.418  69.469  1.00  0.00    -0.303 C  
HETATM    2  C   UNL     1     -10.496   6.079  68.444  1.00  0.00    -0.238 C  
HETATM    3  C   UNL     1     -11.026   6.367  67.036  1.00  0.00    -0.463 C  
ENDROOT
BRANCH   2   4
HETATM    4  O   UNL     1      -9.313   6.843  68.778  1.00  0.00    -0.132 OA 
BRANCH   4   5
HETATM    5  C   UNL     1      -8.348   6.951  67.799  1.00  0.00    -0.120 A  
HETATM    6  C   UNL     1      -7.567   5.878  67.339  1.00  0.00    -0.096 A  
HETATM    7  C   UNL     1      -5.743   7.426  64.412  1.00  0.00    -0.037 C  
HETATM    8  C   UNL     1      -6.884   6.067  66.139  1.00  0.00    -0.061 A  
HETATM    9  C   UNL     1      -8.207   8.244  67.221  1.00  0.00    -0.120 A  
HETATM   10  C   UNL     1      -6.729   7.337  65.552  1.00  0.00    -0.052 A  
HETATM   11  C   UNL     1      -7.384   8.471  66.099  1.00  0.00    -0.081 A  
BRANCH   6  12
HETATM   12  N   UNL     1      -7.512   4.604  67.936  1.00  0.00    -0.076 NA 
HETATM   13  H   UNL     1      -7.852   3.851  67.337  1.00  0.00     0.000 HD 
BRANCH  12  14
HETATM   14  C   UNL     1      -7.088   4.185  69.166  1.00  0.00    -0.050 A  
HETATM   15  N   UNL     1      -7.821   4.450  70.293  1.00  0.00    -0.058 NA 
HETATM   16  C   UNL     1      -5.384   3.385  70.491  1.00  0.00    -0.011 A  
HETATM   17  N   UNL     1      -5.869   3.698  69.236  1.00  0.00    -0.022 NA 
HETATM   18  C   UNL     1      -7.296   4.357  71.589  1.00  0.00    -0.064 A  
HETATM   19  C   UNL     1      -5.966   3.659  71.662  1.00  0.00    -0.013 A  
HETATM   20 CL   UNL     1      -5.225   3.335  73.176  1.00  0.00     0.000 Cl 
BRANCH  18  21
HETATM   21  N   UNL     1      -7.779   4.837  72.711  1.00  0.00    -0.091 NA 
HETATM   22  H   UNL     1      -7.223   5.485  73.269  1.00  0.00     0.000 HD 
BRANCH  21  23
HETATM   23  C   UNL     1      -9.055   4.458  73.141  1.00  0.00    -0.118 A  
HETATM   24  C   UNL     1      -9.270   3.137  73.562  1.00  0.00    -0.096 A  
HETATM   25  C   UNL     1     -10.553   2.605  73.620  1.00  0.00    -0.253 A  
HETATM   26  C   UNL     1     -11.643   3.417  73.332  1.00  0.00    -0.041 A  
HETATM   27  C   UNL     1     -11.455   4.780  73.099  1.00  0.00    -0.348 A  
HETATM   28  C   UNL     1     -10.159   5.315  73.050  1.00  0.00    -0.176 A  
BRANCH  28  29
HETATM   29  S   UNL     1     -10.009   7.090  73.310  1.00  0.00    -0.262 S  
HETATM   30  O   UNL     1     -11.366   7.597  73.445  1.00  0.00    -0.289 OA 
HETATM   31  O   UNL     1      -9.103   7.230  74.439  1.00  0.00    -0.221 OA 
BRANCH  29  32
HETATM   32  C   UNL     1      -9.296   7.924  71.901  1.00  0.00    -0.154 C  
HETATM   33  C   UNL     1     -10.123   9.132  71.447  1.00  0.00    -0.392 C  
HETATM   34  C   UNL     1      -7.875   8.391  72.257  1.00  0.00    -0.162 C  
ENDBRANCH  29  32
ENDBRANCH  28  29
ENDBRANCH  21  23
ENDBRANCH  18  21
ENDBRANCH  12  14
ENDBRANCH   6  12
BRANCH  11  35
HETATM   35  C   UNL     1      -7.190   9.846  65.427  1.00  0.00    -0.125 C  
HETATM   36  C   UNL     1      -8.030   9.983  64.141  1.00  0.00    -0.152 C  
HETATM   37  C   UNL     1      -9.466  10.380  64.442  1.00  0.00    -0.287 C  
HETATM   38  N   UNL     1      -9.490  11.686  65.084  1.00  0.00    -0.378 NA 
HETATM   39  H   UNL     1     -10.443  12.031  65.195  1.00  0.00     0.000 HD 
HETATM   40  C   UNL     1      -8.776  11.671  66.360  1.00  0.00    -0.170 C  
HETATM   41  C   UNL     1      -7.346  11.152  66.240  1.00  0.00    -0.055 C  
ENDBRANCH  11  35
ENDBRANCH   4   5
ENDBRANCH   2   4
TORSDOF 9
ENDMDL
MODEL      202
REMARK 921   NORMALIZED FREE ENERGY PREDICTED BY IDOCK:   -3.93 KCAL/MOL
REMARK 922        TOTAL FREE ENERGY PREDICTED BY IDOCK:   -8.16 KCAL/MOL
REMARK 923 INTER-LIGAND FREE ENERGY PREDICTED BY IDOCK:   -6.82 KCAL/MOL
REMARK 924 INTRA-LIGAND FREE ENERGY PREDICTED BY IDOCK:   -1.34 KCAL/MOL
REMARK 927      BINDING AFFINITY PREDICTED BY RF-SCORE:    0.00 PKD
ROOT
HETATM    1  C   UNL     1      -8.381   6.959  71.447  1.00  0.00    -0.115 C  
HETATM    2  C   UNL     1      -9.153   6.794  70.138  1.00  0.00    -0.155 C  
HETATM    3  C   UNL     1     -10.641   7.055  70.392  1.00  0.00    -0.244 C  
ENDROOT
BRANCH   2   4
HETATM    4  O   UNL     1      -8.572   7.694  69.164  1.00  0.00    -0.137 OA 
BRANCH   4   5
HETATM    5  C   UNL     1      -8.219   7.147  67.948  1.00  0.00    -0.119 A  
HETATM    6  C   UNL     1      -8.081   7.886  66.761  1.00  0.00    -0.108 A  
HETATM    7  C   UNL     1      -6.648   5.312  64.393  1.00  0.00    -0.042 C  
HETATM    8  C   UNL     1      -7.408   7.265  65.710  1.00  0.00    -0.075 A  
HETATM    9  C   UNL     1      -7.946   5.751  67.964  1.00  0.00    -0.101 A  
HETATM   10  C   UNL     1      -7.132   5.884  65.703  1.00  0.00    -0.069 A  
HETATM   11  C   UNL     1      -7.414   5.085  66.840  1.00  0.00    -0.087 A  
BRANCH   6  12
HETATM   12  N   UNL     1      -8.469   9.228  66.594  1.00  0.00    -0.125 NA 
HETATM   13  H   UNL     1      -9.335   9.346  66.067  1.00  0.00     0.000 HD 
BRANCH  12  14
HETATM   14  C   UNL     1      -7.906  10.404  67.006  1.00  0.00    -0.112 A  
HETATM   15  N   UNL     1      -8.630  11.567  67.019  1.00  0.00    -0.155 NA 
HETATM   16  C   UNL     1      -6.006  11.609  67.492  1.00  0.00    -0.079 A  
HETATM   17  N   UNL     1      -6.605  10.401  67.195  1.00  0.00    -0.072 NA 
HETATM   18  C   UNL     1      -8.041  12.836  67.097  1.00  0.00    -0.129 A  
HETATM   19  C   UNL     1      -6.584  12.814  67.465  1.00  0.00    -0.158 A  
HETATM   20 CL   UNL     1      -5.722  14.274  67.733  1.00  0.00    -0.110 Cl 
BRANCH  18  21
HETATM   21  N   UNL     1      -8.573  14.009  66.843  1.00  0.00    -0.391 NA 
HETATM   22  H   UNL     1      -8.138  14.629  66.159  1.00  0.00     0.000 HD 
BRANCH  21  23
HETATM   23  C   UNL     1      -9.736  14.409  67.510  1.00  0.00    -0.215 A  
HETATM   24  C   UNL     1      -9.621  15.134  68.707  1.00  0.00    -0.219 A  
HETATM   25  C   UNL     1     -10.684  15.214  69.599  1.00  0.00    -0.289 A  
HETATM   26  C   UNL     1     -11.902  14.635  69.264  1.00  0.00    -0.357 A  
HETATM   27  C   UNL     1     -12.084  14.078  67.998  1.00  0.00    -0.312 A  
HETATM   28  C   UNL     1     -11.011  14.007  67.097  1.00  0.00    -0.296 A  
BRANCH  28  29
HETATM   29  S   UNL     1     -11.431  13.816  65.356  1.00  0.00    -0.320 S  
HETATM   30  O   UNL     1     -12.767  14.368  65.198  1.00  0.00    -0.549 OA 
HETATM   31  O   UNL     1     -10.335  14.441  64.634  1.00  0.00    -0.397 OA 
BRANCH  29  32
HETATM   32  C   UNL     1     -11.531  12.101  64.867  1.00  0.00    -0.325 C  
HETATM   33  C   UNL     1     -10.355  11.667  63.987  1.00  0.00    -0.405 C  
HETATM   34  C   UNL     1     -11.571  11.219  66.126  1.00  0.00     0.283 C  
ENDBRANCH  29  32
ENDBRANCH  28  29
ENDBRANCH  21  23
ENDBRANCH  18  21
ENDBRANCH  12  14
ENDBRANCH   6  12
BRANCH  11  35
HETATM   35  C   UNL     1      -7.096   3.576  66.795  1.00  0.00    -0.059 C  
HETATM   36  C   UNL     1      -7.662   2.830  68.019  1.00  0.00    -0.056 C  
HETATM   37  C   UNL     1      -9.131   2.481  67.842  1.00  0.00    -0.188 C  
HETATM   38  N   UNL     1      -9.288   1.581  66.708  1.00  0.00    -0.339 NA 
HETATM   39  H   UNL     1     -10.246   1.239  66.633  1.00  0.00     0.000 HD 
HETATM   40  C   UNL     1      -8.844   2.204  65.462  1.00  0.00    -0.121 C  
HETATM   41  C   UNL     1      -7.417   2.738  65.535  1.00  0.00    -0.072 C  
ENDBRANCH  11  35
ENDBRANCH   4   5
ENDBRANCH   2   4
TORSDOF 9
ENDMDL
MODEL      203
REMARK 921   NORMALIZED FREE ENERGY PREDICTED BY IDOCK:   -3.87 KCAL/MOL
REMARK 922        TOTAL FREE ENERGY PREDICTED BY IDOCK:   -8.08 KCAL/MOL
REMARK 923 INTER-LIGAND FREE ENERGY PREDICTED BY IDOCK:   -7.35 KCAL/MOL
REMARK 924 INTRA-LIGAND FREE ENERGY PREDICTED BY IDOCK:   -0.72 KCAL/MOL
REMARK 927      BINDING AFFINITY PREDICTED BY RF-SCORE:    0.00 PKD
ROOT
HETATM    1  C   UNL     1      -5.658  14.847  70.397  1.00  0.00    -0.139 C  
HETATM    2  C   UNL     1      -5.398  13.817  69.299  1.00  0.00    -0.078 C  
HETATM    3  C   UNL     1      -5.919  12.450  69.756  1.00  0.00    -0.136 C  
ENDROOT
BRANCH   2   4
HETATM    4  O   UNL     1      -6.028  14.293  68.086  1.00  0.00    -0.110 OA 
BRANCH   4   5
HETATM    5  C   UNL     1      -7.056  15.200  68.236  1.00  0.00    -0.112 A  
HETATM    6  C   UNL     1      -8.342  14.867  68.695  1.00  0.00    -0.164 A  
HETATM    7  C   UNL     1      -9.949  18.266  69.076  1.00  0.00    -0.293 C  
HETATM    8  C   UNL     1      -9.155  15.921  69.104  1.00  0.00    -0.255 A  
HETATM    9  C   UNL     1      -6.726  16.550  67.935  1.00  0.00    -0.154 A  
HETATM   10  C   UNL     1      -8.851  17.265  68.813  1.00  0.00    -0.233 A  
HETATM   11  C   UNL     1      -7.619  17.610  68.199  1.00  0.00    -0.234 A  
BRANCH   6  12
HETATM   12  N   UNL     1      -8.821  13.555  68.874  1.00  0.00    -0.371 NA 
HETATM   13  H   UNL     1      -8.888  13.269  69.851  1.00  0.00     0.000 HD 
BRANCH  12  14
HETATM   14  C   UNL     1      -9.215  12.594  67.986  1.00  0.00    -0.208 A  
HETATM   15  N   UNL     1      -9.639  11.364  68.418  1.00  0.00    -0.192 NA 
HETATM   16  C   UNL     1      -9.261  11.820  65.818  1.00  0.00    -0.139 A  
HETATM   17  N   UNL     1      -8.982  12.833  66.714  1.00  0.00    -0.212 NA 
HETATM   18  C   UNL     1      -9.727  10.245  67.580  1.00  0.00    -0.164 A  
HETATM   19  C   UNL     1      -9.608  10.564  66.116  1.00  0.00    -0.190 A  
HETATM   20 CL   UNL     1      -9.818   9.343  64.929  1.00  0.00     0.026 Cl 
BRANCH  18  21
HETATM   21  N   UNL     1      -9.842   8.978  67.905  1.00  0.00    -0.163 NA 
HETATM   22  H   UNL     1     -10.756   8.594  68.142  1.00  0.00     0.000 HD 
BRANCH  21  23
HETATM   23  C   UNL     1      -8.709   8.156  67.927  1.00  0.00    -0.128 A  
HETATM   24  C   UNL     1      -7.464   8.719  68.246  1.00  0.00    -0.092 A  
HETATM   25  C   UNL     1      -6.280   8.073  67.909  1.00  0.00    -0.051 A  
HETATM   26  C   UNL     1      -6.332   6.816  67.318  1.00  0.00    -0.047 A  
HETATM   27  C   UNL     1      -7.558   6.166  67.171  1.00  0.00    -0.092 A  
HETATM   28  C   UNL     1      -8.750   6.818  67.520  1.00  0.00    -0.119 A  
BRANCH  28  29
HETATM   29  S   UNL     1     -10.179   5.770  67.837  1.00  0.00    -0.204 S  
HETATM   30  O   UNL     1     -11.316   6.437  67.222  1.00  0.00    -0.295 OA 
HETATM   31  O   UNL     1      -9.799   4.456  67.345  1.00  0.00    -0.185 OA 
BRANCH  29  32
HETATM   32  C   UNL     1     -10.552   5.641  69.580  1.00  0.00    -0.314 C  
HETATM   33  C   UNL     1      -9.330   5.894  70.467  1.00  0.00    -0.185 C  
HETATM   34  C   UNL     1     -11.652   6.654  69.936  1.00  0.00    -0.393 C  
ENDBRANCH  29  32
ENDBRANCH  28  29
ENDBRANCH  21  23
ENDBRANCH  18  21
ENDBRANCH  12  14
ENDBRANCH   6  12
BRANCH  11  35
HETATM   35  C   UNL     1      -7.321  19.094  67.897  1.00  0.00    -0.279 C  
HETATM   36  C   UNL     1      -6.173  19.256  66.881  1.00  0.00    -0.178 C  
HETATM   37  C   UNL     1      -6.658  19.107  65.449  1.00  0.00    -0.268 C  
HETATM   38  N   UNL     1      -7.621  20.156  65.146  1.00  0.00    -0.411 NA 
HETATM   39  H   UNL     1      -7.879  20.152  64.159  1.00  0.00     0.000 HD 
HETATM   40  C   UNL     1      -8.800  20.068  66.007  1.00  0.00    -0.196 C  
HETATM   41  C   UNL     1      -8.457  20.062  67.493  1.00  0.00    -0.393 C  
ENDBRANCH  11  35
ENDBRANCH   4   5
ENDBRANCH   2   4
TORSDOF 9
ENDMDL
MODEL      204
REMARK 921   NORMALIZED FREE ENERGY PREDICTED BY IDOCK:   -3.87 KCAL/MOL
REMARK 922        TOTAL FREE ENERGY PREDICTED BY IDOCK:   -8.07 KCAL/MOL
REMARK 923 INTER-LIGAND FREE ENERGY PREDICTED BY IDOCK:   -6.43 KCAL/MOL
REMARK 924 INTRA-LIGAND FREE ENERGY PREDICTED BY IDOCK:   -1.64 KCAL/MOL
REMARK 927      BINDING AFFINITY PREDICTED BY RF-SCORE:    0.00 PKD
ROOT
HETATM    1  C   UNL     1      -6.468  11.142  65.879  1.00  0.00     0.077 C  
HETATM    2  C   UNL     1      -7.691  10.475  66.506  1.00  0.00    -0.131 C  
HETATM    3  C   UNL     1      -7.538   8.953  66.417  1.00  0.00    -0.092 C  
ENDROOT
BRANCH   2   4
HETATM    4  O   UNL     1      -7.813  10.960  67.864  1.00  0.00    -0.105 OA 
BRANCH   4   5
HETATM    5  C   UNL     1      -8.955  11.671  68.168  1.00  0.00    -0.182 A  
HETATM    6  C   UNL     1     -10.153  11.089  68.615  1.00  0.00    -0.197 A  
HETATM    7  C   UNL     1     -12.223  14.123  69.506  1.00  0.00    -0.351 C  
HETATM    8  C   UNL     1     -11.092  11.944  69.188  1.00  0.00    -0.285 A  
HETATM    9  C   UNL     1      -8.843  13.084  68.046  1.00  0.00    -0.191 A  
HETATM   10  C   UNL     1     -11.003  13.345  69.076  1.00  0.00    -0.265 A  
HETATM   11  C   UNL     1      -9.868  13.952  68.478  1.00  0.00    -0.214 A  
BRANCH   6  12
HETATM   12  N   UNL     1     -10.425   9.707  68.626  1.00  0.00    -0.204 NA 
HETATM   13  H   UNL     1     -10.601   9.313  67.701  1.00  0.00     0.000 HD 
BRANCH  12  14
HETATM   14  C   UNL     1     -10.497   8.795  69.641  1.00  0.00    -0.220 A  
HETATM   15  N   UNL     1      -9.488   7.892  69.852  1.00  0.00    -0.160 NA 
HETATM   16  C   UNL     1     -11.774   7.699  71.212  1.00  0.00    -0.284 A  
HETATM   17  N   UNL     1     -11.648   8.699  70.268  1.00  0.00    -0.084 NA 
HETATM   18  C   UNL     1      -9.642   6.738  70.631  1.00  0.00    -0.169 A  
HETATM   19  C   UNL     1     -10.898   6.719  71.457  1.00  0.00    -0.234 A  
HETATM   20 CL   UNL     1     -11.200   5.449  72.571  1.00  0.00    -0.318 Cl 
BRANCH  18  21
HETATM   21  N   UNL     1      -8.877   5.673  70.689  1.00  0.00    -0.137 NA 
HETATM   22  H   UNL     1      -9.203   4.835  71.171  1.00  0.00     0.000 HD 
BRANCH  21  23
HETATM   23  C   UNL     1      -7.612   5.688  70.090  1.00  0.00    -0.085 A  
HETATM   24  C   UNL     1      -6.496   6.051  70.860  1.00  0.00    -0.041 A  
HETATM   25  C   UNL     1      -5.314   6.461  70.255  1.00  0.00    -0.014 A  
HETATM   26  C   UNL     1      -5.210   6.434  68.870  1.00  0.00    -0.008 A  
HETATM   27  C   UNL     1      -6.244   5.895  68.103  1.00  0.00    -0.032 A  
HETATM   28  C   UNL     1      -7.433   5.475  68.718  1.00  0.00    -0.079 A  
BRANCH  28  29
HETATM   29  S   UNL     1      -8.450   4.311  67.795  1.00  0.00    -0.099 S  
HETATM   30  O   UNL     1      -9.830   4.631  68.122  1.00  0.00    -0.152 OA 
HETATM   31  O   UNL     1      -8.018   4.446  66.413  1.00  0.00    -0.098 OA 
BRANCH  29  32
HETATM   32  C   UNL     1      -8.187   2.622  68.312  1.00  0.00    -0.061 C  
HETATM   33  C   UNL     1      -9.493   1.835  68.451  1.00  0.00    -0.239 C  
HETATM   34  C   UNL     1      -7.280   1.917  67.290  1.00  0.00    -0.054 C  
ENDBRANCH  29  32
ENDBRANCH  28  29
ENDBRANCH  21  23
ENDBRANCH  18  21
ENDBRANCH  12  14
ENDBRANCH   6  12
BRANCH  11  35
HETATM   35  C   UNL     1      -9.807  15.490  68.374  1.00  0.00    -0.210 C  
HETATM   36  C   UNL     1      -8.428  15.980  67.889  1.00  0.00    -0.165 C  
HETATM   37  C   UNL     1      -8.305  15.916  66.375  1.00  0.00    -0.275 C  
HETATM   38  N   UNL     1      -9.289  16.798  65.765  1.00  0.00    -0.523 NA 
HETATM   39  H   UNL     1      -9.157  16.865  64.756  1.00  0.00     0.000 HD 
HETATM   40  C   UNL     1     -10.654  16.393  66.099  1.00  0.00    -0.255 C  
HETATM   41  C   UNL     1     -10.893  16.273  67.601  1.00  0.00    -0.293 C  
ENDBRANCH  11  35
ENDBRANCH   4   5
ENDBRANCH   2   4
TORSDOF 9
ENDMDL
MODEL      205
REMARK 921   NORMALIZED FREE ENERGY PREDICTED BY IDOCK:   -3.86 KCAL/MOL
REMARK 922        TOTAL FREE ENERGY PREDICTED BY IDOCK:   -8.06 KCAL/MOL
REMARK 923 INTER-LIGAND FREE ENERGY PREDICTED BY IDOCK:   -6.78 KCAL/MOL
REMARK 924 INTRA-LIGAND FREE ENERGY PREDICTED BY IDOCK:   -1.27 KCAL/MOL
REMARK 927      BINDING AFFINITY PREDICTED BY RF-SCORE:    0.00 PKD
ROOT
HETATM    1  C   UNL     1      -6.111  10.619  62.810  1.00  0.00    -0.106 C  
HETATM    2  C   UNL     1      -6.381   9.139  63.078  1.00  0.00    -0.090 C  
HETATM    3  C   UNL     1      -5.333   8.604  64.060  1.00  0.00    -0.056 C  
ENDROOT
BRANCH   2   4
HETATM    4  O   UNL     1      -7.738   9.016  63.567  1.00  0.00    -0.111 OA 
BRANCH   4   5
HETATM    5  C   UNL     1      -7.898   8.467  64.822  1.00  0.00    -0.128 A  
HETATM    6  C   UNL     1      -7.978   9.216  66.007  1.00  0.00    -0.103 A  
HETATM    7  C   UNL     1      -8.872   6.571  68.554  1.00  0.00    -0.121 C  
HETATM    8  C   UNL     1      -8.465   8.558  67.135  1.00  0.00    -0.118 A  
HETATM    9  C   UNL     1      -8.027   7.050  64.854  1.00  0.00    -0.127 A  
HETATM   10  C   UNL     1      -8.597   7.157  67.191  1.00  0.00    -0.121 A  
HETATM   11  C   UNL     1      -8.361   6.362  66.039  1.00  0.00    -0.132 A  
BRANCH   6  12
HETATM   12  N   UNL     1      -7.712  10.595  66.111  1.00  0.00    -0.142 NA 
HETATM   13  H   UNL     1      -7.652  11.074  65.212  1.00  0.00     0.000 HD 
BRANCH  12  14
HETATM   14  C   UNL     1      -7.520  11.413  67.189  1.00  0.00    -0.138 A  
HETATM   15  N   UNL     1      -8.493  12.289  67.594  1.00  0.00    -0.156 NA 
HETATM   16  C   UNL     1      -6.066  12.369  68.696  1.00  0.00    -0.065 A  
HETATM   17  N   UNL     1      -6.304  11.457  67.687  1.00  0.00    -0.058 NA 
HETATM   18  C   UNL     1      -8.244  13.369  68.450  1.00  0.00    -0.139 A  
HETATM   19  C   UNL     1      -6.902  13.319  69.127  1.00  0.00    -0.067 A  
HETATM   20 CL   UNL     1      -6.468  14.485  70.308  1.00  0.00    -0.173 Cl 
BRANCH  18  21
HETATM   21  N   UNL     1      -8.992  14.421  68.690  1.00  0.00    -0.226 NA 
HETATM   22  H   UNL     1      -8.821  14.991  69.519  1.00  0.00     0.000 HD 
BRANCH  21  23
HETATM   23  C   UNL     1     -10.025  14.760  67.808  1.00  0.00    -0.223 A  
HETATM   24  C   UNL     1     -11.250  14.082  67.899  1.00  0.00    -0.295 A  
HETATM   25  C   UNL     1     -12.149  14.085  66.838  1.00  0.00    -0.465 A  
HETATM   26  C   UNL     1     -11.864  14.836  65.704  1.00  0.00    -0.212 A  
HETATM   27  C   UNL     1     -10.742  15.665  65.680  1.00  0.00    -0.376 A  
HETATM   28  C   UNL     1      -9.842  15.665  66.756  1.00  0.00    -0.244 A  
BRANCH  28  29
HETATM   29  S   UNL     1      -8.777  17.108  66.917  1.00  0.00    -0.244 S  
HETATM   30  O   UNL     1      -8.047  16.937  68.162  1.00  0.00    -0.188 OA 
HETATM   31  O   UNL     1      -8.024  17.161  65.674  1.00  0.00    -0.381 OA 
BRANCH  29  32
HETATM   32  C   UNL     1      -9.710  18.623  67.083  1.00  0.00    -0.302 C  
HETATM   33  C   UNL     1     -10.555  18.937  65.845  1.00  0.00    -0.438 C  
HETATM   34  C   UNL     1     -10.632  18.515  68.308  1.00  0.00    -0.223 C  
ENDBRANCH  29  32
ENDBRANCH  28  29
ENDBRANCH  21  23
ENDBRANCH  18  21
ENDBRANCH  12  14
ENDBRANCH   6  12
BRANCH  11  35
HETATM   35  C   UNL     1      -8.518   4.830  66.140  1.00  0.00    -0.114 C  
HETATM   36  C   UNL     1      -9.995   4.409  66.273  1.00  0.00    -0.255 C  
HETATM   37  C   UNL     1     -10.690   4.348  64.922  1.00  0.00    -0.073 C  
HETATM   38  N   UNL     1     -10.053   3.340  64.088  1.00  0.00    -0.197 NA 
HETATM   39  H   UNL     1     -10.567   3.195  63.219  1.00  0.00     0.000 HD 
HETATM   40  C   UNL     1      -8.650   3.663  63.831  1.00  0.00    -0.091 C  
HETATM   41  C   UNL     1      -7.845   3.898  65.106  1.00  0.00    -0.086 C  
ENDBRANCH  11  35
ENDBRANCH   4   5
ENDBRANCH   2   4
TORSDOF 9
ENDMDL
MODEL      206
REMARK 921   NORMALIZED FREE ENERGY PREDICTED BY IDOCK:   -3.85 KCAL/MOL
REMARK 922        TOTAL FREE ENERGY PREDICTED BY IDOCK:   -8.04 KCAL/MOL
REMARK 923 INTER-LIGAND FREE ENERGY PREDICTED BY IDOCK:   -6.76 KCAL/MOL
REMARK 924 INTRA-LIGAND FREE ENERGY PREDICTED BY IDOCK:   -1.29 KCAL/MOL
REMARK 927      BINDING AFFINITY PREDICTED BY RF-SCORE:    0.00 PKD
ROOT
HETATM    1  C   UNL     1      -7.176   8.931  63.176  1.00  0.00    -0.093 C  
HETATM    2  C   UNL     1      -7.129   7.495  63.694  1.00  0.00    -0.070 C  
HETATM    3  C   UNL     1      -5.926   7.334  64.630  1.00  0.00    -0.037 C  
ENDROOT
BRANCH   2   4
HETATM    4  O   UNL     1      -8.396   7.213  64.336  1.00  0.00    -0.032 OA 
BRANCH   4   5
HETATM    5  C   UNL     1      -8.364   6.985  65.696  1.00  0.00    -0.136 A  
HETATM    6  C   UNL     1      -8.531   7.985  66.668  1.00  0.00    -0.133 A  
HETATM    7  C   UNL     1      -8.702   5.965  69.858  1.00  0.00    -0.129 C  
HETATM    8  C   UNL     1      -8.803   7.560  67.967  1.00  0.00    -0.127 A  
HETATM    9  C   UNL     1      -8.192   5.627  66.082  1.00  0.00    -0.110 A  
HETATM   10  C   UNL     1      -8.635   6.222  68.372  1.00  0.00    -0.114 A  
HETATM   11  C   UNL     1      -8.305   5.216  67.427  1.00  0.00    -0.106 A  
BRANCH   6  12
HETATM   12  N   UNL     1      -8.554   9.369  66.408  1.00  0.00    -0.132 NA 
HETATM   13  H   UNL     1      -8.787   9.604  65.443  1.00  0.00     0.000 HD 
BRANCH  12  14
HETATM   14  C   UNL     1      -8.325  10.455  67.205  1.00  0.00    -0.126 A  
HETATM   15  N   UNL     1      -9.339  11.313  67.540  1.00  0.00    -0.161 NA 
HETATM   16  C   UNL     1      -6.816  11.905  68.165  1.00  0.00    -0.071 A  
HETATM   17  N   UNL     1      -7.068  10.742  67.465  1.00  0.00    -0.087 NA 
HETATM   18  C   UNL     1      -9.121  12.598  68.051  1.00  0.00    -0.207 A  
HETATM   19  C   UNL     1      -7.703  12.852  68.484  1.00  0.00    -0.109 A  
HETATM   20 CL   UNL     1      -7.268  14.323  69.253  1.00  0.00    -0.113 Cl 
BRANCH  18  21
HETATM   21  N   UNL     1      -9.961  13.602  68.148  1.00  0.00    -0.240 NA 
HETATM   22  H   UNL     1     -10.541  13.703  68.981  1.00  0.00     0.000 HD 
BRANCH  21  23
HETATM   23  C   UNL     1     -10.061  14.533  67.108  1.00  0.00    -0.252 A  
HETATM   24  C   UNL     1      -9.037  15.478  66.938  1.00  0.00    -0.264 A  
HETATM   25  C   UNL     1      -9.253  16.641  66.207  1.00  0.00    -0.328 A  
HETATM   26  C   UNL     1     -10.474  16.832  65.571  1.00  0.00    -0.254 A  
HETATM   27  C   UNL     1     -11.428  15.814  65.575  1.00  0.00     0.147 A  
HETATM   28  C   UNL     1     -11.204  14.638  66.307  1.00  0.00    -0.340 A  
BRANCH  28  29
HETATM   29  S   UNL     1     -12.167  13.194  65.829  1.00  0.00    -0.441 S  
HETATM   30  O   UNL     1     -12.330  12.398  67.035  1.00  0.00    -0.399 OA 
HETATM   31  O   UNL     1     -13.356  13.730  65.187  1.00  0.00    -0.688 OA 
BRANCH  29  32
HETATM   32  C   UNL     1     -11.302  12.162  64.655  1.00  0.00    -0.326 C  
HETATM   33  C   UNL     1     -12.108  11.917  63.376  1.00  0.00    -0.539 C  
HETATM   34  C   UNL     1      -9.965  12.826  64.289  1.00  0.00    -0.176 C  
ENDBRANCH  29  32
ENDBRANCH  28  29
ENDBRANCH  21  23
ENDBRANCH  18  21
ENDBRANCH  12  14
ENDBRANCH   6  12
BRANCH  11  35
HETATM   35  C   UNL     1      -8.131   3.761  67.909  1.00  0.00    -0.084 C  
HETATM   36  C   UNL     1      -9.254   2.842  67.388  1.00  0.00    -0.219 C  
HETATM   37  C   UNL     1      -8.980   2.360  65.972  1.00  0.00    -0.115 C  
HETATM   38  N   UNL     1      -7.761   1.565  65.952  1.00  0.00    -0.065 NA 
HETATM   39  H   UNL     1      -7.612   1.133  65.041  1.00  0.00     0.000 HD 
HETATM   40  C   UNL     1      -6.600   2.351  66.367  1.00  0.00    -0.038 C  
HETATM   41  C   UNL     1      -6.784   3.023  67.724  1.00  0.00    -0.044 C  
ENDBRANCH  11  35
ENDBRANCH   4   5
ENDBRANCH   2   4
TORSDOF 9
ENDMDL
MODEL      207
REMARK 921   NORMALIZED FREE ENERGY PREDICTED BY IDOCK:   -3.80 KCAL/MOL
REMARK 922        TOTAL FREE ENERGY PREDICTED BY IDOCK:   -7.96 KCAL/MOL
REMARK 923 INTER-LIGAND FREE ENERGY PREDICTED BY IDOCK:   -7.42 KCAL/MOL
REMARK 924 INTRA-LIGAND FREE ENERGY PREDICTED BY IDOCK:   -0.54 KCAL/MOL
REMARK 927      BINDING AFFINITY PREDICTED BY RF-SCORE:    0.00 PKD
ROOT
HETATM    1  C   UNL     1      -9.402   4.537  68.200  1.00  0.00    -0.186 C  
HETATM    2  C   UNL     1      -8.660   4.797  69.510  1.00  0.00    -0.085 C  
HETATM    3  C   UNL     1      -7.904   3.529  69.923  1.00  0.00    -0.049 C  
ENDROOT
BRANCH   2   4
HETATM    4  O   UNL     1      -7.794   5.940  69.310  1.00  0.00    -0.092 OA 
BRANCH   4   5
HETATM    5  C   UNL     1      -7.971   6.655  68.144  1.00  0.00    -0.110 A  
HETATM    6  C   UNL     1      -8.246   8.032  68.096  1.00  0.00    -0.126 A  
HETATM    7  C   UNL     1      -8.011   8.755  64.394  1.00  0.00    -0.144 C  
HETATM    8  C   UNL     1      -8.071   8.665  66.867  1.00  0.00    -0.098 A  
HETATM    9  C   UNL     1      -7.812   5.910  66.942  1.00  0.00    -0.101 A  
HETATM   10  C   UNL     1      -7.916   7.947  65.665  1.00  0.00    -0.116 A  
HETATM   11  C   UNL     1      -7.798   6.533  65.677  1.00  0.00    -0.100 A  
BRANCH   6  12
HETATM   12  N   UNL     1      -8.573   8.830  69.208  1.00  0.00    -0.129 NA 
HETATM   13  H   UNL     1      -7.818   8.920  69.889  1.00  0.00     0.000 HD 
BRANCH  12  14
HETATM   14  C   UNL     1      -9.711   9.506  69.549  1.00  0.00    -0.190 A  
HETATM   15  N   UNL     1     -10.092  10.635  68.872  1.00  0.00    -0.193 NA 
HETATM   16  C   UNL     1     -11.382   9.894  71.084  1.00  0.00    -0.370 A  
HETATM   17  N   UNL     1     -10.304   9.141  70.665  1.00  0.00    -0.225 NA 
HETATM   18  C   UNL     1     -11.029  11.549  69.369  1.00  0.00    -0.176 A  
HETATM   19  C   UNL     1     -11.804  11.047  70.556  1.00  0.00    -0.367 A  
HETATM   20 CL   UNL     1     -13.084  11.972  71.226  1.00  0.00    -0.307 Cl 
BRANCH  18  21
HETATM   21  N   UNL     1     -11.274  12.776  68.975  1.00  0.00    -0.278 NA 
HETATM   22  H   UNL     1     -12.170  13.213  69.192  1.00  0.00     0.000 HD 
BRANCH  21  23
HETATM   23  C   UNL     1     -10.306  13.486  68.256  1.00  0.00    -0.252 A  
HETATM   24  C   UNL     1      -9.248  14.092  68.951  1.00  0.00    -0.003 A  
HETATM   25  C   UNL     1      -8.501  15.110  68.369  1.00  0.00    -0.157 A  
HETATM   26  C   UNL     1      -8.754  15.477  67.053  1.00  0.00    -0.258 A  
HETATM   27  C   UNL     1      -9.673  14.753  66.292  1.00  0.00    -0.326 A  
HETATM   28  C   UNL     1     -10.419  13.721  66.880  1.00  0.00    -0.272 A  
BRANCH  28  29
HETATM   29  S   UNL     1     -11.131  12.502  65.763  1.00  0.00    -0.322 S  
HETATM   30  O   UNL     1     -10.098  11.502  65.542  1.00  0.00    -0.223 OA 
HETATM   31  O   UNL     1     -12.371  12.087  66.399  1.00  0.00    -0.403 OA 
BRANCH  29  32
HETATM   32  C   UNL     1     -11.515  13.193  64.161  1.00  0.00    -0.403 C  
HETATM   33  C   UNL     1     -12.228  12.196  63.242  1.00  0.00    -0.533 C  
HETATM   34  C   UNL     1     -12.406  14.432  64.347  1.00  0.00    -0.428 C  
ENDBRANCH  29  32
ENDBRANCH  28  29
ENDBRANCH  21  23
ENDBRANCH  18  21
ENDBRANCH  12  14
ENDBRANCH   6  12
BRANCH  11  35
HETATM   35  C   UNL     1      -7.628   5.783  64.340  1.00  0.00    -0.085 C  
HETATM   36  C   UNL     1      -6.214   5.188  64.189  1.00  0.00    -0.022 C  
HETATM   37  C   UNL     1      -6.082   3.853  64.905  1.00  0.00    -0.023 C  
HETATM   38  N   UNL     1      -6.996   2.887  64.314  1.00  0.00    -0.044 NA 
HETATM   39  H   UNL     1      -6.850   1.953  64.695  1.00  0.00     0.000 HD 
HETATM   40  C   UNL     1      -8.389   3.309  64.454  1.00  0.00    -0.093 C  
HETATM   41  C   UNL     1      -8.649   4.707  63.902  1.00  0.00    -0.132 C  
ENDBRANCH  11  35
ENDBRANCH   4   5
ENDBRANCH   2   4
TORSDOF 9
ENDMDL
MODEL      208
REMARK 921   NORMALIZED FREE ENERGY PREDICTED BY IDOCK:   -3.79 KCAL/MOL
REMARK 922        TOTAL FREE ENERGY PREDICTED BY IDOCK:   -7.95 KCAL/MOL
REMARK 923 INTER-LIGAND FREE ENERGY PREDICTED BY IDOCK:   -6.22 KCAL/MOL
REMARK 924 INTRA-LIGAND FREE ENERGY PREDICTED BY IDOCK:   -1.73 KCAL/MOL
REMARK 927      BINDING AFFINITY PREDICTED BY RF-SCORE:    0.00 PKD
ROOT
HETATM    1  C   UNL     1      -6.461  10.306  63.008  1.00  0.00    -0.133 C  
HETATM    2  C   UNL     1      -7.123   9.055  63.584  1.00  0.00    -0.092 C  
HETATM    3  C   UNL     1      -6.078   8.238  64.351  1.00  0.00    -0.065 C  
ENDROOT
BRANCH   2   4
HETATM    4  O   UNL     1      -8.235   9.481  64.408  1.00  0.00    -0.129 OA 
BRANCH   4   5
HETATM    5  C   UNL     1      -8.162   9.178  65.751  1.00  0.00    -0.115 A  
HETATM    6  C   UNL     1      -7.878  10.116  66.758  1.00  0.00    -0.108 A  
HETATM    7  C   UNL     1      -8.458   8.100  69.902  1.00  0.00    -0.125 C  
HETATM    8  C   UNL     1      -8.163   9.737  68.068  1.00  0.00    -0.109 A  
HETATM    9  C   UNL     1      -8.444   7.824  66.086  1.00  0.00    -0.143 A  
HETATM   10  C   UNL     1      -8.440   8.402  68.423  1.00  0.00    -0.135 A  
HETATM   11  C   UNL     1      -8.572   7.401  67.426  1.00  0.00    -0.118 A  
BRANCH   6  12
HETATM   12  N   UNL     1      -7.437  11.433  66.533  1.00  0.00    -0.293 NA 
HETATM   13  H   UNL     1      -7.456  11.715  65.552  1.00  0.00     0.000 HD 
BRANCH  12  14
HETATM   14  C   UNL     1      -6.988  12.407  67.380  1.00  0.00    -0.149 A  
HETATM   15  N   UNL     1      -7.862  13.145  68.135  1.00  0.00    -0.134 NA 
HETATM   16  C   UNL     1      -5.277  13.794  68.051  1.00  0.00    -0.105 A  
HETATM   17  N   UNL     1      -5.717  12.729  67.289  1.00  0.00    -0.331 NA 
HETATM   18  C   UNL     1      -7.514  14.356  68.748  1.00  0.00    -0.133 A  
HETATM   19  C   UNL     1      -6.036  14.631  68.765  1.00  0.00    -0.084 A  
HETATM   20 CL   UNL     1      -5.405  16.001  69.584  1.00  0.00    -0.114 Cl 
BRANCH  18  21
HETATM   21  N   UNL     1      -8.297  15.283  69.248  1.00  0.00    -0.235 NA 
HETATM   22  H   UNL     1      -8.325  15.438  70.255  1.00  0.00     0.000 HD 
BRANCH  21  23
HETATM   23  C   UNL     1      -9.094  16.058  68.397  1.00  0.00    -0.192 A  
HETATM   24  C   UNL     1      -8.496  16.710  67.308  1.00  0.00    -0.214 A  
HETATM   25  C   UNL     1      -9.128  17.777  66.680  1.00  0.00    -0.280 A  
HETATM   26  C   UNL     1     -10.403  18.152  67.086  1.00  0.00    -0.391 A  
HETATM   27  C   UNL     1     -11.083  17.391  68.038  1.00  0.00    -0.016 A  
HETATM   28  C   UNL     1     -10.446  16.309  68.663  1.00  0.00    -0.282 A  
BRANCH  28  29
HETATM   29  S   UNL     1     -11.512  15.072  69.419  1.00  0.00    -0.321 S  
HETATM   30  O   UNL     1     -10.693  14.371  70.395  1.00  0.00     0.149 OA 
HETATM   31  O   UNL     1     -12.670  15.812  69.893  1.00  0.00    -0.182 OA 
BRANCH  29  32
HETATM   32  C   UNL     1     -12.062  13.842  68.245  1.00  0.00    -0.287 C  
HETATM   33  C   UNL     1     -11.753  14.228  66.796  1.00  0.00    -0.424 C  
HETATM   34  C   UNL     1     -11.384  12.500  68.566  1.00  0.00    -0.337 C  
ENDBRANCH  29  32
ENDBRANCH  28  29
ENDBRANCH  21  23
ENDBRANCH  18  21
ENDBRANCH  12  14
ENDBRANCH   6  12
BRANCH  11  35
HETATM   35  C   UNL     1      -8.878   5.951  67.855  1.00  0.00    -0.105 C  
HETATM   36  C   UNL     1     -10.389   5.711  68.038  1.00  0.00    -0.258 C  
HETATM   37  C   UNL     1     -11.081   5.420  66.716  1.00  0.00     0.283 C  
HETATM   38  N   UNL     1     -10.541   4.198  66.138  1.00  0.00    -0.271 NA 
HETATM   39  H   UNL     1     -11.063   3.914  65.309  1.00  0.00     0.000 HD 
HETATM   40  C   UNL     1      -9.113   4.323  65.853  1.00  0.00    -0.134 C  
HETATM   41  C   UNL     1      -8.295   4.755  67.067  1.00  0.00    -0.106 C  
ENDBRANCH  11  35
ENDBRANCH   4   5
ENDBRANCH   2   4
TORSDOF 9
ENDMDL
MODEL      209
REMARK 921   NORMALIZED FREE ENERGY PREDICTED BY IDOCK:   -3.76 KCAL/MOL
REMARK 922        TOTAL FREE ENERGY PREDICTED BY IDOCK:   -7.91 KCAL/MOL
REMARK 923 INTER-LIGAND FREE ENERGY PREDICTED BY IDOCK:   -7.24 KCAL/MOL
REMARK 924 INTRA-LIGAND FREE ENERGY PREDICTED BY IDOCK:   -0.68 KCAL/MOL
REMARK 927      BINDING AFFINITY PREDICTED BY RF-SCORE:    0.00 PKD
ROOT
HETATM    1  C   UNL     1      -6.876  14.633  67.656  1.00  0.00    -0.204 C  
HETATM    2  C   UNL     1      -6.989  14.685  69.179  1.00  0.00    -0.134 C  
HETATM    3  C   UNL     1      -5.810  15.482  69.746  1.00  0.00    -0.138 C  
ENDROOT
BRANCH   2   4
HETATM    4  O   UNL     1      -8.278  15.255  69.509  1.00  0.00    -0.234 OA 
BRANCH   4   5
HETATM    5  C   UNL     1      -8.832  16.112  68.580  1.00  0.00    -0.218 A  
HETATM    6  C   UNL     1      -9.843  15.748  67.675  1.00  0.00    -0.232 A  
HETATM    7  C   UNL     1     -10.735  19.071  66.110  1.00  0.00    -0.405 C  
HETATM    8  C   UNL     1     -10.522  16.786  67.041  1.00  0.00    -0.285 A  
HETATM    9  C   UNL     1      -8.343  17.447  68.616  1.00  0.00    -0.264 A  
HETATM   10  C   UNL     1     -10.054  18.115  67.059  1.00  0.00    -0.357 A  
HETATM   11  C   UNL     1      -8.928  18.474  67.845  1.00  0.00    -0.300 A  
BRANCH   6  12
HETATM   12  N   UNL     1     -10.290  14.432  67.449  1.00  0.00    -0.251 NA 
HETATM   13  H   UNL     1     -10.408  14.200  66.462  1.00  0.00     0.000 HD 
BRANCH  12  14
HETATM   14  C   UNL     1     -10.594  13.408  68.300  1.00  0.00    -0.254 A  
HETATM   15  N   UNL     1      -9.615  12.593  68.805  1.00  0.00     0.007 NA 
HETATM   16  C   UNL     1     -12.186  12.015  69.210  1.00  0.00    -0.077 A  
HETATM   17  N   UNL     1     -11.869  13.124  68.450  1.00  0.00    -0.350 NA 
HETATM   18  C   UNL     1      -9.878  11.348  69.390  1.00  0.00     0.302 A  
HETATM   19  C   UNL     1     -11.331  11.108  69.693  1.00  0.00    -0.294 A  
HETATM   20 CL   UNL     1     -11.834   9.695  70.526  1.00  0.00    -0.307 Cl 
BRANCH  18  21
HETATM   21  N   UNL     1      -9.046  10.367  69.652  1.00  0.00    -0.399 NA 
HETATM   22  H   UNL     1      -8.325  10.486  70.364  1.00  0.00     0.000 HD 
BRANCH  21  23
HETATM   23  C   UNL     1      -9.148   9.159  68.954  1.00  0.00    -0.139 A  
HETATM   24  C   UNL     1      -9.169   9.181  67.551  1.00  0.00    -0.144 A  
HETATM   25  C   UNL     1      -9.653   8.098  66.827  1.00  0.00    -0.281 A  
HETATM   26  C   UNL     1     -10.048   6.948  67.499  1.00  0.00    -0.222 A  
HETATM   27  C   UNL     1      -9.852   6.844  68.877  1.00  0.00    -0.147 A  
HETATM   28  C   UNL     1      -9.355   7.936  69.603  1.00  0.00    -0.153 A  
BRANCH  28  29
HETATM   29  S   UNL     1      -8.614   7.571  71.203  1.00  0.00    -0.122 S  
HETATM   30  O   UNL     1      -8.763   8.776  72.004  1.00  0.00    -0.319 OA 
HETATM   31  O   UNL     1      -9.272   6.355  71.654  1.00  0.00    -0.145 OA 
BRANCH  29  32
HETATM   32  C   UNL     1      -6.859   7.258  71.082  1.00  0.00    -0.055 C  
HETATM   33  C   UNL     1      -6.441   6.759  69.696  1.00  0.00    -0.044 C  
HETATM   34  C   UNL     1      -6.094   8.553  71.404  1.00  0.00    -0.045 C  
ENDBRANCH  29  32
ENDBRANCH  28  29
ENDBRANCH  21  23
ENDBRANCH  18  21
ENDBRANCH  12  14
ENDBRANCH   6  12
BRANCH  11  35
HETATM   35  C   UNL     1      -8.446  19.939  67.840  1.00  0.00    -0.332 C  
HETATM   36  C   UNL     1      -7.660  20.292  69.118  1.00  0.00     0.229 C  
HETATM   37  C   UNL     1      -6.206  19.859  69.026  1.00  0.00    -0.298 C  
HETATM   38  N   UNL     1      -5.551  20.568  67.936  1.00  0.00    -0.210 NA 
HETATM   39  H   UNL     1      -4.548  20.384  67.921  1.00  0.00     0.000 HD 
HETATM   40  C   UNL     1      -6.169  20.261  66.647  1.00  0.00    -0.183 C  
HETATM   41  C   UNL     1      -7.674  20.513  66.629  1.00  0.00    -0.231 C  
ENDBRANCH  11  35
ENDBRANCH   4   5
ENDBRANCH   2   4
TORSDOF 9
ENDMDL
MODEL      210
REMARK 921   NORMALIZED FREE ENERGY PREDICTED BY IDOCK:   -3.74 KCAL/MOL
REMARK 922        TOTAL FREE ENERGY PREDICTED BY IDOCK:   -7.88 KCAL/MOL
REMARK 923 INTER-LIGAND FREE ENERGY PREDICTED BY IDOCK:   -9.96 KCAL/MOL
REMARK 924 INTRA-LIGAND FREE ENERGY PREDICTED BY IDOCK:    2.07 KCAL/MOL
REMARK 927      BINDING AFFINITY PREDICTED BY RF-SCORE:    0.00 PKD
ROOT
HETATM    1  C   UNL     1      -8.604  16.195  66.120  1.00  0.00    -0.331 C  
HETATM    2  C   UNL     1      -9.986  16.605  66.627  1.00  0.00    -0.283 C  
HETATM    3  C   UNL     1     -10.371  17.953  66.008  1.00  0.00    -0.318 C  
ENDROOT
BRANCH   2   4
HETATM    4  O   UNL     1     -10.911  15.540  66.303  1.00  0.00    -0.314 OA 
BRANCH   4   5
HETATM    5  C   UNL     1     -11.428  14.825  67.364  1.00  0.00    -0.363 A  
HETATM    6  C   UNL     1     -11.481  13.422  67.418  1.00  0.00    -0.333 A  
HETATM    7  C   UNL     1     -12.641  12.813  70.963  1.00  0.00    -0.362 C  
HETATM    8  C   UNL     1     -11.717  12.850  68.666  1.00  0.00    -0.359 A  
HETATM    9  C   UNL     1     -11.881  15.606  68.462  1.00  0.00    -0.252 A  
HETATM   10  C   UNL     1     -12.171  13.604  69.767  1.00  0.00    -0.350 A  
HETATM   11  C   UNL     1     -12.279  15.016  69.680  1.00  0.00    -0.293 A  
BRANCH   6  12
HETATM   12  N   UNL     1     -11.206  12.560  66.339  1.00  0.00    -0.290 NA 
HETATM   13  H   UNL     1     -11.776  12.739  65.511  1.00  0.00     0.000 HD 
BRANCH  12  14
HETATM   14  C   UNL     1     -10.321  11.530  66.190  1.00  0.00    -0.245 A  
HETATM   15  N   UNL     1      -9.946  10.760  67.260  1.00  0.00    -0.182 NA 
HETATM   16  C   UNL     1      -8.722  10.482  64.908  1.00  0.00    -0.181 A  
HETATM   17  N   UNL     1      -9.707  11.442  65.031  1.00  0.00    -0.246 NA 
HETATM   18  C   UNL     1      -8.816   9.933  67.252  1.00  0.00    -0.132 A  
HETATM   19  C   UNL     1      -8.219   9.724  65.888  1.00  0.00    -0.117 A  
HETATM   20 CL   UNL     1      -6.908   8.641  65.657  1.00  0.00    -0.070 Cl 
BRANCH  18  21
HETATM   21  N   UNL     1      -8.195   9.374  68.264  1.00  0.00    -0.117 NA 
HETATM   22  H   UNL     1      -7.180   9.277  68.250  1.00  0.00     0.000 HD 
BRANCH  21  23
HETATM   23  C   UNL     1      -8.927   8.911  69.364  1.00  0.00    -0.145 A  
HETATM   24  C   UNL     1      -9.879   9.755  69.954  1.00  0.00    -0.279 A  
HETATM   25  C   UNL     1     -10.340   9.521  71.245  1.00  0.00    -0.287 A  
HETATM   26  C   UNL     1      -9.909   8.391  71.929  1.00  0.00    -0.328 A  
HETATM   27  C   UNL     1      -9.113   7.445  71.282  1.00  0.00    -0.145 A  
HETATM   28  C   UNL     1      -8.657   7.681  69.976  1.00  0.00    -0.138 A  
BRANCH  28  29
HETATM   29  S   UNL     1      -8.141   6.240  69.029  1.00  0.00    -0.111 S  
HETATM   30  O   UNL     1      -6.714   6.396  68.797  1.00  0.00    -0.056 OA 
HETATM   31  O   UNL     1      -8.595   5.097  69.805  1.00  0.00    -0.094 OA 
BRANCH  29  32
HETATM   32  C   UNL     1      -8.910   6.176  67.418  1.00  0.00    -0.106 C  
HETATM   33  C   UNL     1      -8.327   5.075  66.527  1.00  0.00    -0.107 C  
HETATM   34  C   UNL     1     -10.420   5.939  67.589  1.00  0.00    -0.301 C  
ENDBRANCH  29  32
ENDBRANCH  28  29
ENDBRANCH  21  23
ENDBRANCH  18  21
ENDBRANCH  12  14
ENDBRANCH   6  12
BRANCH  11  35
HETATM   35  C   UNL     1     -12.779  15.807  70.907  1.00  0.00    -0.422 C  
HETATM   36  C   UNL     1     -14.157  15.312  71.389  1.00  0.00    -0.595 C  
HETATM   37  C   UNL     1     -14.040  14.087  72.281  1.00  0.00    -0.535 C  
HETATM   38  N   UNL     1     -13.286  14.423  73.480  1.00  0.00    -0.334 NA 
HETATM   39  H   UNL     1     -13.288  13.654  74.149  1.00  0.00     0.000 HD 
HETATM   40  C   UNL     1     -11.924  14.847  73.157  1.00  0.00    -0.216 C  
HETATM   41  C   UNL     1     -11.876  15.991  72.149  1.00  0.00    -0.623 C  
ENDBRANCH  11  35
ENDBRANCH   4   5
ENDBRANCH   2   4
TORSDOF 9
ENDMDL
MODEL      211
REMARK 921   NORMALIZED FREE ENERGY PREDICTED BY IDOCK:   -3.73 KCAL/MOL
REMARK 922        TOTAL FREE ENERGY PREDICTED BY IDOCK:   -7.86 KCAL/MOL
REMARK 923 INTER-LIGAND FREE ENERGY PREDICTED BY IDOCK:   -6.61 KCAL/MOL
REMARK 924 INTRA-LIGAND FREE ENERGY PREDICTED BY IDOCK:   -1.25 KCAL/MOL
REMARK 927      BINDING AFFINITY PREDICTED BY RF-SCORE:    0.00 PKD
ROOT
HETATM    1  C   UNL     1      -6.111  15.691  69.902  1.00  0.00    -0.162 C  
HETATM    2  C   UNL     1      -5.603  14.899  68.697  1.00  0.00    -0.092 C  
HETATM    3  C   UNL     1      -5.175  13.501  69.156  1.00  0.00    -0.073 C  
ENDROOT
BRANCH   2   4
HETATM    4  O   UNL     1      -6.656  14.878  67.704  1.00  0.00    -0.163 OA 
BRANCH   4   5
HETATM    5  C   UNL     1      -7.934  15.143  68.150  1.00  0.00    -0.125 A  
HETATM    6  C   UNL     1      -8.767  14.196  68.768  1.00  0.00    -0.065 A  
HETATM    7  C   UNL     1     -11.688  16.319  69.884  1.00  0.00    -0.062 C  
HETATM    8  C   UNL     1      -9.878  14.686  69.451  1.00  0.00    -0.008 A  
HETATM    9  C   UNL     1      -8.369  16.488  67.989  1.00  0.00    -0.180 A  
HETATM   10  C   UNL     1     -10.329  16.012  69.303  1.00  0.00    -0.251 A  
HETATM   11  C   UNL     1      -9.581  16.950  68.544  1.00  0.00    -0.262 A  
BRANCH   6  12
HETATM   12  N   UNL     1      -8.505  12.814  68.840  1.00  0.00    -0.339 NA 
HETATM   13  H   UNL     1      -8.034  12.527  69.699  1.00  0.00     0.000 HD 
BRANCH  12  14
HETATM   14  C   UNL     1      -8.762  11.785  67.978  1.00  0.00    -0.167 A  
HETATM   15  N   UNL     1      -9.218  10.577  68.435  1.00  0.00    -0.148 NA 
HETATM   16  C   UNL     1      -8.511  10.868  65.881  1.00  0.00    -0.158 A  
HETATM   17  N   UNL     1      -8.369  11.945  66.733  1.00  0.00    -0.175 NA 
HETATM   18  C   UNL     1      -9.176   9.402  67.674  1.00  0.00    -0.127 A  
HETATM   19  C   UNL     1      -8.872   9.626  66.218  1.00  0.00    -0.151 A  
HETATM   20 CL   UNL     1      -8.904   8.324  65.102  1.00  0.00    -0.090 Cl 
BRANCH  18  21
HETATM   21  N   UNL     1      -9.311   8.158  68.068  1.00  0.00    -0.135 NA 
HETATM   22  H   UNL     1     -10.238   7.736  68.119  1.00  0.00     0.000 HD 
BRANCH  21  23
HETATM   23  C   UNL     1      -8.182   7.410  68.420  1.00  0.00    -0.125 A  
HETATM   24  C   UNL     1      -7.244   7.965  69.305  1.00  0.00    -0.080 A  
HETATM   25  C   UNL     1      -5.950   7.462  69.383  1.00  0.00    -0.030 A  
HETATM   26  C   UNL     1      -5.605   6.345  68.632  1.00  0.00    -0.015 A  
HETATM   27  C   UNL     1      -6.580   5.672  67.895  1.00  0.00    -0.053 A  
HETATM   28  C   UNL     1      -7.887   6.177  67.826  1.00  0.00    -0.105 A  
BRANCH  28  29
HETATM   29  S   UNL     1      -9.179   5.012  67.361  1.00  0.00    -0.123 S  
HETATM   30  O   UNL     1      -9.398   4.165  68.523  1.00  0.00    -0.135 OA 
HETATM   31  O   UNL     1     -10.279   5.838  66.890  1.00  0.00    -0.172 OA 
BRANCH  29  32
HETATM   32  C   UNL     1      -8.670   3.929  66.035  1.00  0.00    -0.115 C  
HETATM   33  C   UNL     1      -8.833   2.447  66.386  1.00  0.00    -0.135 C  
HETATM   34  C   UNL     1      -9.501   4.244  64.780  1.00  0.00    -0.167 C  
ENDBRANCH  29  32
ENDBRANCH  28  29
ENDBRANCH  21  23
ENDBRANCH  18  21
ENDBRANCH  12  14
ENDBRANCH   6  12
BRANCH  11  35
HETATM   35  C   UNL     1     -10.106  18.393  68.407  1.00  0.00    -0.418 C  
HETATM   36  C   UNL     1      -9.007  19.436  68.693  1.00  0.00    -0.419 C  
HETATM   37  C   UNL     1      -8.131  19.685  67.476  1.00  0.00    -0.298 C  
HETATM   38  N   UNL     1      -8.938  20.230  66.394  1.00  0.00    -0.568 NA 
HETATM   39  H   UNL     1      -8.360  20.514  65.604  1.00  0.00     0.000 HD 
HETATM   40  C   UNL     1      -9.985  19.297  65.981  1.00  0.00    -0.337 C  
HETATM   41  C   UNL     1     -10.869  18.839  67.138  1.00  0.00    -0.375 C  
ENDBRANCH  11  35
ENDBRANCH   4   5
ENDBRANCH   2   4
TORSDOF 9
ENDMDL
MODEL      212
REMARK 921   NORMALIZED FREE ENERGY PREDICTED BY IDOCK:   -3.72 KCAL/MOL
REMARK 922        TOTAL FREE ENERGY PREDICTED BY IDOCK:   -7.85 KCAL/MOL
REMARK 923 INTER-LIGAND FREE ENERGY PREDICTED BY IDOCK:   -5.52 KCAL/MOL
REMARK 924 INTRA-LIGAND FREE ENERGY PREDICTED BY IDOCK:   -2.33 KCAL/MOL
REMARK 927      BINDING AFFINITY PREDICTED BY RF-SCORE:    0.00 PKD
ROOT
HETATM    1  C   UNL     1     -11.266   6.280  68.287  1.00  0.00    -0.251 C  
HETATM    2  C   UNL     1     -10.168   5.564  67.502  1.00  0.00    -0.199 C  
HETATM    3  C   UNL     1     -10.694   5.208  66.108  1.00  0.00    -0.247 C  
ENDROOT
BRANCH   2   4
HETATM    4  O   UNL     1      -9.007   6.428  67.473  1.00  0.00    -0.118 OA 
BRANCH   4   5
HETATM    5  C   UNL     1      -8.002   6.086  66.592  1.00  0.00    -0.102 A  
HETATM    6  C   UNL     1      -7.283   4.881  66.645  1.00  0.00    -0.080 A  
HETATM    7  C   UNL     1      -5.250   5.036  63.462  1.00  0.00    -0.009 C  
HETATM    8  C   UNL     1      -6.546   4.540  65.513  1.00  0.00    -0.044 A  
HETATM    9  C   UNL     1      -7.750   7.032  65.560  1.00  0.00    -0.105 A  
HETATM   10  C   UNL     1      -6.280   5.460  64.481  1.00  0.00    -0.022 A  
HETATM   11  C   UNL     1      -6.872   6.750  64.492  1.00  0.00    -0.043 A  
BRANCH   6  12
HETATM   12  N   UNL     1      -7.340   3.951  67.700  1.00  0.00    -0.066 NA 
HETATM   13  H   UNL     1      -7.760   3.057  67.441  1.00  0.00     0.000 HD 
BRANCH  12  14
HETATM   14  C   UNL     1      -6.940   4.018  69.005  1.00  0.00    -0.047 A  
HETATM   15  N   UNL     1      -7.678   4.699  69.937  1.00  0.00    -0.057 NA 
HETATM   16  C   UNL     1      -5.268   3.746  70.564  1.00  0.00    -0.004 A  
HETATM   17  N   UNL     1      -5.732   3.573  69.276  1.00  0.00    -0.021 NA 
HETATM   18  C   UNL     1      -7.169   5.092  71.181  1.00  0.00    -0.064 A  
HETATM   19  C   UNL     1      -5.856   4.451  71.536  1.00  0.00    -0.016 A  
HETATM   20 CL   UNL     1      -5.139   4.708  73.074  1.00  0.00    -0.007 Cl 
BRANCH  18  21
HETATM   21  N   UNL     1      -7.653   5.967  72.032  1.00  0.00    -0.096 NA 
HETATM   22  H   UNL     1      -7.066   6.731  72.367  1.00  0.00     0.000 HD 
BRANCH  21  23
HETATM   23  C   UNL     1      -8.974   5.850  72.479  1.00  0.00    -0.132 A  
HETATM   24  C   UNL     1      -9.281   4.895  73.460  1.00  0.00    -0.119 A  
HETATM   25  C   UNL     1     -10.588   4.465  73.655  1.00  0.00    -0.309 A  
HETATM   26  C   UNL     1     -11.615   5.047  72.921  1.00  0.00    -0.261 A  
HETATM   27  C   UNL     1     -11.346   6.128  72.082  1.00  0.00    -0.347 A  
HETATM   28  C   UNL     1     -10.026   6.565  71.894  1.00  0.00    -0.177 A  
BRANCH  28  29
HETATM   29  S   UNL     1      -9.812   8.246  71.286  1.00  0.00    -0.187 S  
HETATM   30  O   UNL     1      -9.350   9.032  72.419  1.00  0.00    -0.288 OA 
HETATM   31  O   UNL     1      -8.938   8.119  70.130  1.00  0.00    -0.144 OA 
BRANCH  29  32
HETATM   32  C   UNL     1     -11.353   8.978  70.758  1.00  0.00    -0.277 C  
HETATM   33  C   UNL     1     -12.165   9.553  71.922  1.00  0.00    -0.432 C  
HETATM   34  C   UNL     1     -11.059  10.098  69.747  1.00  0.00    -0.328 C  
ENDBRANCH  29  32
ENDBRANCH  28  29
ENDBRANCH  21  23
ENDBRANCH  18  21
ENDBRANCH  12  14
ENDBRANCH   6  12
BRANCH  11  35
HETATM   35  C   UNL     1      -6.557   7.730  63.343  1.00  0.00    -0.066 C  
HETATM   36  C   UNL     1      -7.832   8.173  62.598  1.00  0.00    -0.138 C  
HETATM   37  C   UNL     1      -8.542   9.310  63.316  1.00  0.00    -0.201 C  
HETATM   38  N   UNL     1      -7.673  10.477  63.366  1.00  0.00    -0.324 NA 
HETATM   39  H   UNL     1      -8.162  11.290  63.739  1.00  0.00     0.000 HD 
HETATM   40  C   UNL     1      -6.446  10.202  64.112  1.00  0.00    -0.119 C  
HETATM   41  C   UNL     1      -5.688   8.985  63.591  1.00  0.00    -0.075 C  
ENDBRANCH  11  35
ENDBRANCH   4   5
ENDBRANCH   2   4
TORSDOF 9
ENDMDL
MODEL      213
REMARK 921   NORMALIZED FREE ENERGY PREDICTED BY IDOCK:   -3.69 KCAL/MOL
REMARK 922        TOTAL FREE ENERGY PREDICTED BY IDOCK:   -7.81 KCAL/MOL
REMARK 923 INTER-LIGAND FREE ENERGY PREDICTED BY IDOCK:   -6.13 KCAL/MOL
REMARK 924 INTRA-LIGAND FREE ENERGY PREDICTED BY IDOCK:   -1.68 KCAL/MOL
REMARK 927      BINDING AFFINITY PREDICTED BY RF-SCORE:    0.00 PKD
ROOT
HETATM    1  C   UNL     1      -7.098  12.543  67.734  1.00  0.00    -0.126 C  
HETATM    2  C   UNL     1      -7.312  11.724  66.462  1.00  0.00     0.104 C  
HETATM    3  C   UNL     1      -5.963  11.185  65.975  1.00  0.00    -0.064 C  
ENDROOT
BRANCH   2   4
HETATM    4  O   UNL     1      -8.270  10.681  66.763  1.00  0.00    -0.123 OA 
BRANCH   4   5
HETATM    5  C   UNL     1      -9.285  11.006  67.639  1.00  0.00    -0.149 A  
HETATM    6  C   UNL     1      -9.505  10.361  68.867  1.00  0.00    -0.186 A  
HETATM    7  C   UNL     1     -12.209  12.502  70.412  1.00  0.00    -0.368 C  
HETATM    8  C   UNL     1     -10.343  11.005  69.775  1.00  0.00     0.112 A  
HETATM    9  C   UNL     1     -10.104  12.100  67.243  1.00  0.00    -0.214 A  
HETATM   10  C   UNL     1     -11.165  12.087  69.404  1.00  0.00    -0.263 A  
HETATM   11  C   UNL     1     -11.072  12.654  68.106  1.00  0.00    -0.285 A  
BRANCH   6  12
HETATM   12  N   UNL     1      -8.862   9.180  69.286  1.00  0.00    -0.140 NA 
HETATM   13  H   UNL     1      -7.995   9.342  69.799  1.00  0.00     0.000 HD 
BRANCH  12  14
HETATM   14  C   UNL     1      -9.181   7.860  69.137  1.00  0.00    -0.144 A  
HETATM   15  N   UNL     1      -8.907   6.951  70.125  1.00  0.00    -0.145 NA 
HETATM   16  C   UNL     1      -9.781   6.128  67.745  1.00  0.00    -0.116 A  
HETATM   17  N   UNL     1      -9.574   7.478  67.942  1.00  0.00    -0.141 NA 
HETATM   18  C   UNL     1      -8.890   5.566  69.911  1.00  0.00    -0.127 A  
HETATM   19  C   UNL     1      -9.485   5.142  68.597  1.00  0.00    -0.133 A  
HETATM   20 CL   UNL     1      -9.670   3.480  68.211  1.00  0.00    -0.144 Cl 
BRANCH  18  21
HETATM   21  N   UNL     1      -8.384   4.621  70.668  1.00  0.00    -0.089 NA 
HETATM   22  H   UNL     1      -7.618   4.044  70.320  1.00  0.00     0.000 HD 
BRANCH  21  23
HETATM   23  C   UNL     1      -8.896   4.404  71.953  1.00  0.00    -0.116 A  
HETATM   24  C   UNL     1     -10.006   3.561  72.111  1.00  0.00    -0.234 A  
HETATM   25  C   UNL     1     -10.786   3.614  73.261  1.00  0.00    -0.290 A  
HETATM   26  C   UNL     1     -10.414   4.459  74.300  1.00  0.00    -0.313 A  
HETATM   27  C   UNL     1      -9.210   5.159  74.232  1.00  0.00    -0.114 A  
HETATM   28  C   UNL     1      -8.421   5.096  73.073  1.00  0.00    -0.111 A  
BRANCH  28  29
HETATM   29  S   UNL     1      -6.684   5.533  73.255  1.00  0.00    -0.079 S  
HETATM   30  O   UNL     1      -6.326   6.278  72.058  1.00  0.00    -0.044 OA 
HETATM   31  O   UNL     1      -6.598   6.207  74.540  1.00  0.00    -0.077 OA 
BRANCH  29  32
HETATM   32  C   UNL     1      -5.623   4.096  73.292  1.00  0.00    -0.007 C  
HETATM   33  C   UNL     1      -6.281   2.893  73.975  1.00  0.00    -0.015 C  
HETATM   34  C   UNL     1      -5.244   3.713  71.853  1.00  0.00     0.000 C  
ENDBRANCH  29  32
ENDBRANCH  28  29
ENDBRANCH  21  23
ENDBRANCH  18  21
ENDBRANCH  12  14
ENDBRANCH   6  12
BRANCH  11  35
HETATM   35  C   UNL     1     -11.989  13.839  67.738  1.00  0.00    -0.391 C  
HETATM   36  C   UNL     1     -11.531  15.151  68.405  1.00  0.00    -0.347 C  
HETATM   37  C   UNL     1     -10.416  15.826  67.621  1.00  0.00    -0.282 C  
HETATM   38  N   UNL     1     -10.898  16.189  66.297  1.00  0.00    -0.203 NA 
HETATM   39  H   UNL     1     -10.210  16.745  65.789  1.00  0.00     0.000 HD 
HETATM   40  C   UNL     1     -11.305  15.011  65.531  1.00  0.00    -0.312 C  
HETATM   41  C   UNL     1     -12.328  14.146  66.261  1.00  0.00    -0.451 C  
ENDBRANCH  11  35
ENDBRANCH   4   5
ENDBRANCH   2   4
TORSDOF 9
ENDMDL
MODEL      214
REMARK 921   NORMALIZED FREE ENERGY PREDICTED BY IDOCK:   -3.58 KCAL/MOL
REMARK 922        TOTAL FREE ENERGY PREDICTED BY IDOCK:   -7.63 KCAL/MOL
REMARK 923 INTER-LIGAND FREE ENERGY PREDICTED BY IDOCK:   -6.91 KCAL/MOL
REMARK 924 INTRA-LIGAND FREE ENERGY PREDICTED BY IDOCK:   -0.72 KCAL/MOL
REMARK 927      BINDING AFFINITY PREDICTED BY RF-SCORE:    0.00 PKD
ROOT
HETATM    1  C   UNL     1      -5.223  10.967  69.175  1.00  0.00    -0.041 C  
HETATM    2  C   UNL     1      -6.092  10.096  68.269  1.00  0.00    -0.045 C  
HETATM    3  C   UNL     1      -5.971   8.633  68.707  1.00  0.00    -0.044 C  
ENDROOT
BRANCH   2   4
HETATM    4  O   UNL     1      -7.446  10.603  68.332  1.00  0.00    -0.086 OA 
BRANCH   4   5
HETATM    5  C   UNL     1      -8.460   9.669  68.288  1.00  0.00    -0.118 A  
HETATM    6  C   UNL     1      -9.141   9.298  67.116  1.00  0.00    -0.130 A  
HETATM    7  C   UNL     1     -11.249   6.398  68.313  1.00  0.00    -0.276 C  
HETATM    8  C   UNL     1      -9.893   8.126  67.171  1.00  0.00    -0.281 A  
HETATM    9  C   UNL     1      -8.764   9.041  69.527  1.00  0.00    -0.144 A  
HETATM   10  C   UNL     1     -10.210   7.490  68.387  1.00  0.00    -0.211 A  
HETATM   11  C   UNL     1      -9.657   7.951  69.610  1.00  0.00    -0.164 A  
BRANCH   6  12
HETATM   12  N   UNL     1      -9.032   9.955  65.876  1.00  0.00    -0.146 NA 
HETATM   13  H   UNL     1      -8.396   9.498  65.220  1.00  0.00     0.000 HD 
BRANCH  12  14
HETATM   14  C   UNL     1      -9.617  11.087  65.383  1.00  0.00    -0.225 A  
HETATM   15  N   UNL     1      -9.126  12.328  65.692  1.00  0.00     0.096 NA 
HETATM   16  C   UNL     1     -11.431  12.083  64.375  1.00  0.00    -0.343 A  
HETATM   17  N   UNL     1     -10.771  10.937  64.770  1.00  0.00    -0.250 NA 
HETATM   18  C   UNL     1      -9.856  13.510  65.511  1.00  0.00    -0.143 A  
HETATM   19  C   UNL     1     -11.097  13.342  64.677  1.00  0.00    -0.357 A  
HETATM   20 CL   UNL     1     -12.052  14.697  64.239  1.00  0.00    -0.481 Cl 
BRANCH  18  21
HETATM   21  N   UNL     1      -9.632  14.703  66.008  1.00  0.00    -0.405 NA 
HETATM   22  H   UNL     1      -9.187  15.420  65.434  1.00  0.00     0.000 HD 
BRANCH  21  23
HETATM   23  C   UNL     1     -10.002  14.992  67.327  1.00  0.00    -0.233 A  
HETATM   24  C   UNL     1     -11.356  14.915  67.688  1.00  0.00    -0.348 A  
HETATM   25  C   UNL     1     -11.828  15.552  68.830  1.00  0.00    -0.335 A  
HETATM   26  C   UNL     1     -10.933  16.207  69.666  1.00  0.00    -0.346 A  
HETATM   27  C   UNL     1      -9.562  16.128  69.419  1.00  0.00    -0.208 A  
HETATM   28  C   UNL     1      -9.088  15.477  68.270  1.00  0.00    -0.186 A  
BRANCH  28  29
HETATM   29  S   UNL     1      -7.373  14.930  68.302  1.00  0.00    -0.119 S  
HETATM   30  O   UNL     1      -7.288  13.923  69.348  1.00  0.00    -0.017 OA 
HETATM   31  O   UNL     1      -7.079  14.534  66.935  1.00  0.00     0.041 OA 
BRANCH  29  32
HETATM   32  C   UNL     1      -6.252  16.240  68.770  1.00  0.00    -0.122 C  
HETATM   33  C   UNL     1      -6.978  17.470  69.324  1.00  0.00    -0.172 C  
HETATM   34  C   UNL     1      -5.274  15.711  69.831  1.00  0.00    -0.110 C  
ENDBRANCH  29  32
ENDBRANCH  28  29
ENDBRANCH  21  23
ENDBRANCH  18  21
ENDBRANCH  12  14
ENDBRANCH   6  12
BRANCH  11  35
HETATM   35  C   UNL     1     -10.027   7.228  70.921  1.00  0.00    -0.186 C  
HETATM   36  C   UNL     1      -9.636   5.737  70.886  1.00  0.00    -0.205 C  
HETATM   37  C   UNL     1      -8.171   5.526  71.234  1.00  0.00    -0.125 C  
HETATM   38  N   UNL     1      -7.920   5.982  72.593  1.00  0.00    -0.104 NA 
HETATM   39  H   UNL     1      -6.974   5.749  72.896  1.00  0.00     0.000 HD 
HETATM   40  C   UNL     1      -8.191   7.411  72.740  1.00  0.00    -0.112 C  
HETATM   41  C   UNL     1      -9.595   7.803  72.290  1.00  0.00    -0.231 C  
ENDBRANCH  11  35
ENDBRANCH   4   5
ENDBRANCH   2   4
TORSDOF 9
ENDMDL
MODEL      215
REMARK 921   NORMALIZED FREE ENERGY PREDICTED BY IDOCK:   -3.49 KCAL/MOL
REMARK 922        TOTAL FREE ENERGY PREDICTED BY IDOCK:   -7.49 KCAL/MOL
REMARK 923 INTER-LIGAND FREE ENERGY PREDICTED BY IDOCK:   -6.80 KCAL/MOL
REMARK 924 INTRA-LIGAND FREE ENERGY PREDICTED BY IDOCK:   -0.70 KCAL/MOL
REMARK 927      BINDING AFFINITY PREDICTED BY RF-SCORE:    0.00 PKD
ROOT
HETATM    1  C   UNL     1      -6.073  17.870  70.801  1.00  0.00     0.678 C  
HETATM    2  C   UNL     1      -5.126  16.691  70.579  1.00  0.00    -0.219 C  
HETATM    3  C   UNL     1      -5.141  15.790  71.818  1.00  0.00     0.017 C  
ENDROOT
BRANCH   2   4
HETATM    4  O   UNL     1      -5.541  16.010  69.371  1.00  0.00    -0.113 OA 
BRANCH   4   5
HETATM    5  C   UNL     1      -6.899  15.867  69.176  1.00  0.00    -0.170 A  
HETATM    6  C   UNL     1      -7.614  14.686  69.435  1.00  0.00    -0.081 A  
HETATM    7  C   UNL     1     -11.191  15.803  68.947  1.00  0.00    -0.332 C  
HETATM    8  C   UNL     1      -9.001  14.793  69.507  1.00  0.00     0.115 A  
HETATM    9  C   UNL     1      -7.576  17.034  68.725  1.00  0.00    -0.243 A  
HETATM   10  C   UNL     1      -9.692  15.937  69.062  1.00  0.00    -0.243 A  
HETATM   11  C   UNL     1      -8.983  17.092  68.640  1.00  0.00    -0.267 A  
BRANCH   6  12
HETATM   12  N   UNL     1      -7.032  13.439  69.733  1.00  0.00    -0.327 NA 
HETATM   13  H   UNL     1      -6.604  13.393  70.658  1.00  0.00     0.000 HD 
BRANCH  12  14
HETATM   14  C   UNL     1      -6.934  12.278  69.018  1.00  0.00    -0.078 A  
HETATM   15  N   UNL     1      -8.051  11.648  68.536  1.00  0.00    -0.148 NA 
HETATM   16  C   UNL     1      -5.666  10.468  68.374  1.00  0.00    -0.036 A  
HETATM   17  N   UNL     1      -5.752  11.702  68.988  1.00  0.00    -0.050 NA 
HETATM   18  C   UNL     1      -8.055  10.315  68.105  1.00  0.00    -0.110 A  
HETATM   19  C   UNL     1      -6.684   9.723  67.932  1.00  0.00    -0.065 A  
HETATM   20 CL   UNL     1      -6.481   8.145  67.290  1.00  0.00    -0.056 Cl 
BRANCH  18  21
HETATM   21  N   UNL     1      -9.077   9.520  67.892  1.00  0.00    -0.126 NA 
HETATM   22  H   UNL     1      -8.984   8.731  67.253  1.00  0.00     0.000 HD 
BRANCH  21  23
HETATM   23  C   UNL     1     -10.294   9.757  68.540  1.00  0.00    -0.202 A  
HETATM   24  C   UNL     1     -11.206  10.661  67.973  1.00  0.00    -0.373 A  
HETATM   25  C   UNL     1     -12.220  11.227  68.736  1.00  0.00    -0.101 A  
HETATM   26  C   UNL     1     -12.382  10.831  70.058  1.00  0.00    -0.371 A  
HETATM   27  C   UNL     1     -11.604   9.795  70.576  1.00  0.00    -0.365 A  
HETATM   28  C   UNL     1     -10.587   9.221  69.800  1.00  0.00    -0.231 A  
BRANCH  28  29
HETATM   29  S   UNL     1     -10.029   7.580  70.288  1.00  0.00    -0.193 S  
HETATM   30  O   UNL     1     -10.362   6.693  69.184  1.00  0.00    -0.174 OA 
HETATM   31  O   UNL     1      -8.628   7.748  70.641  1.00  0.00    -0.125 OA 
BRANCH  29  32
HETATM   32  C   UNL     1     -10.907   6.962  71.715  1.00  0.00    -0.225 C  
HETATM   33  C   UNL     1     -10.401   5.590  72.173  1.00  0.00    -0.263 C  
HETATM   34  C   UNL     1     -10.758   7.964  72.871  1.00  0.00    -0.440 C  
ENDBRANCH  29  32
ENDBRANCH  28  29
ENDBRANCH  21  23
ENDBRANCH  18  21
ENDBRANCH  12  14
ENDBRANCH   6  12
BRANCH  11  35
HETATM   35  C   UNL     1      -9.776  18.326  68.161  1.00  0.00    -0.341 C  
HETATM   36  C   UNL     1      -9.325  19.614  68.877  1.00  0.00    -0.342 C  
HETATM   37  C   UNL     1      -8.085  20.215  68.235  1.00  0.00    -0.077 C  
HETATM   38  N   UNL     1      -8.379  20.595  66.861  1.00  0.00    -0.558 NA 
HETATM   39  H   UNL     1      -7.603  21.104  66.440  1.00  0.00     0.000 HD 
HETATM   40  C   UNL     1      -8.758  19.437  66.053  1.00  0.00    -0.165 C  
HETATM   41  C   UNL     1      -9.913  18.640  66.653  1.00  0.00    -0.394 C  
ENDBRANCH  11  35
ENDBRANCH   4   5
ENDBRANCH   2   4
TORSDOF 9
ENDMDL
MODEL      216
REMARK 921   NORMALIZED FREE ENERGY PREDICTED BY IDOCK:   -3.45 KCAL/MOL
REMARK 922        TOTAL FREE ENERGY PREDICTED BY IDOCK:   -7.43 KCAL/MOL
REMARK 923 INTER-LIGAND FREE ENERGY PREDICTED BY IDOCK:  -10.00 KCAL/MOL
REMARK 924 INTRA-LIGAND FREE ENERGY PREDICTED BY IDOCK:    2.58 KCAL/MOL
REMARK 927      BINDING AFFINITY PREDICTED BY RF-SCORE:    0.00 PKD
ROOT
HETATM    1  C   UNL     1     -12.250  13.887  65.679  1.00  0.00    -0.477 C  
HETATM    2  C   UNL     1     -10.825  14.424  65.557  1.00  0.00    -0.331 C  
HETATM    3  C   UNL     1     -10.872  15.942  65.354  1.00  0.00    -0.361 C  
ENDROOT
BRANCH   2   4
HETATM    4  O   UNL     1     -10.098  14.028  66.745  1.00  0.00    -0.254 OA 
BRANCH   4   5
HETATM    5  C   UNL     1     -10.853  13.633  67.830  1.00  0.00    -0.253 A  
HETATM    6  C   UNL     1     -11.053  12.295  68.207  1.00  0.00    -0.240 A  
HETATM    7  C   UNL     1     -12.844  12.666  71.514  1.00  0.00    -0.368 C  
HETATM    8  C   UNL     1     -11.551  12.071  69.489  1.00  0.00    -0.389 A  
HETATM    9  C   UNL     1     -11.404  14.690  68.606  1.00  0.00    -0.305 A  
HETATM   10  C   UNL     1     -12.105  13.101  70.273  1.00  0.00    -0.399 A  
HETATM   11  C   UNL     1     -12.057  14.450  69.833  1.00  0.00    -0.398 A  
BRANCH   6  12
HETATM   12  N   UNL     1     -10.689  11.175  67.435  1.00  0.00    -0.233 NA 
HETATM   13  H   UNL     1     -11.446  10.805  66.860  1.00  0.00     0.000 HD 
BRANCH  12  14
HETATM   14  C   UNL     1      -9.514  10.489  67.312  1.00  0.00    -0.158 A  
HETATM   15  N   UNL     1      -9.437   9.156  67.617  1.00  0.00    -0.138 NA 
HETATM   16  C   UNL     1      -7.224  10.540  67.074  1.00  0.00    -0.098 A  
HETATM   17  N   UNL     1      -8.435  11.204  67.080  1.00  0.00    -0.141 NA 
HETATM   18  C   UNL     1      -8.226   8.487  67.839  1.00  0.00    -0.119 A  
HETATM   19  C   UNL     1      -7.010   9.268  67.424  1.00  0.00    -0.078 A  
HETATM   20 CL   UNL     1      -5.446   8.567  67.498  1.00  0.00    -0.038 Cl 
BRANCH  18  21
HETATM   21  N   UNL     1      -8.020   7.318  68.398  1.00  0.00    -0.122 NA 
HETATM   22  H   UNL     1      -7.126   6.842  68.271  1.00  0.00     0.000 HD 
BRANCH  21  23
HETATM   23  C   UNL     1      -9.026   6.724  69.169  1.00  0.00    -0.132 A  
HETATM   24  C   UNL     1      -9.793   7.528  70.026  1.00  0.00    -0.180 A  
HETATM   25  C   UNL     1     -10.512   6.970  71.076  1.00  0.00    -0.231 A  
HETATM   26  C   UNL     1     -10.533   5.589  71.232  1.00  0.00    -0.306 A  
HETATM   27  C   UNL     1      -9.932   4.771  70.275  1.00  0.00    -0.320 A  
HETATM   28  C   UNL     1      -9.215   5.338  69.211  1.00  0.00    -0.114 A  
BRANCH  28  29
HETATM   29  S   UNL     1      -8.965   4.299  67.762  1.00  0.00    -0.126 S  
HETATM   30  O   UNL     1      -7.551   4.392  67.435  1.00  0.00    -0.080 OA 
HETATM   31  O   UNL     1      -9.506   3.001  68.131  1.00  0.00    -0.201 OA 
BRANCH  29  32
HETATM   32  C   UNL     1      -9.854   4.902  66.335  1.00  0.00    -0.209 C  
HETATM   33  C   UNL     1     -11.019   5.823  66.708  1.00  0.00    -0.239 C  
HETATM   34  C   UNL     1      -8.881   5.666  65.421  1.00  0.00    -0.112 C  
ENDBRANCH  29  32
ENDBRANCH  28  29
ENDBRANCH  21  23
ENDBRANCH  18  21
ENDBRANCH  12  14
ENDBRANCH   6  12
BRANCH  11  35
HETATM   35  C   UNL     1     -12.673  15.551  70.720  1.00  0.00    -0.511 C  
HETATM   36  C   UNL     1     -14.160  15.280  71.026  1.00  0.00    -0.320 C  
HETATM   37  C   UNL     1     -14.332  14.310  72.184  1.00  0.00    -0.522 C  
HETATM   38  N   UNL     1     -13.766  14.887  73.395  1.00  0.00    -0.423 NA 
HETATM   39  H   UNL     1     -13.967  14.311  74.212  1.00  0.00     0.000 HD 
HETATM   40  C   UNL     1     -12.331  15.131  73.254  1.00  0.00    -0.456 C  
HETATM   41  C   UNL     1     -11.985  15.983  72.036  1.00  0.00    -0.622 C  
ENDBRANCH  11  35
ENDBRANCH   4   5
ENDBRANCH   2   4
TORSDOF 9
ENDMDL
MODEL      217
REMARK 921   NORMALIZED FREE ENERGY PREDICTED BY IDOCK:   -3.42 KCAL/MOL
REMARK 922        TOTAL FREE ENERGY PREDICTED BY IDOCK:   -7.39 KCAL/MOL
REMARK 923 INTER-LIGAND FREE ENERGY PREDICTED BY IDOCK:   -5.10 KCAL/MOL
REMARK 924 INTRA-LIGAND FREE ENERGY PREDICTED BY IDOCK:   -2.29 KCAL/MOL
REMARK 927      BINDING AFFINITY PREDICTED BY RF-SCORE:    0.00 PKD
ROOT
HETATM    1  C   UNL     1     -11.320   6.444  68.074  1.00  0.00    -0.086 C  
HETATM    2  C   UNL     1      -9.797   6.413  68.192  1.00  0.00    -0.127 C  
HETATM    3  C   UNL     1      -9.323   4.956  68.244  1.00  0.00    -0.168 C  
ENDROOT
BRANCH   2   4
HETATM    4  O   UNL     1      -9.250   7.153  67.075  1.00  0.00    -0.134 OA 
BRANCH   4   5
HETATM    5  C   UNL     1      -8.210   6.561  66.389  1.00  0.00    -0.116 A  
HETATM    6  C   UNL     1      -6.852   6.793  66.662  1.00  0.00    -0.061 A  
HETATM    7  C   UNL     1      -5.155   4.246  64.443  1.00  0.00    -0.008 C  
HETATM    8  C   UNL     1      -5.939   5.889  66.121  1.00  0.00    -0.025 A  
HETATM    9  C   UNL     1      -8.595   5.633  65.382  1.00  0.00    -0.150 A  
HETATM   10  C   UNL     1      -6.297   4.965  65.120  1.00  0.00    -0.035 A  
HETATM   11  C   UNL     1      -7.649   4.828  64.712  1.00  0.00    -0.077 A  
BRANCH   6  12
HETATM   12  N   UNL     1      -6.359   7.793  67.521  1.00  0.00    -0.053 NA 
HETATM   13  H   UNL     1      -6.078   8.649  67.041  1.00  0.00     0.000 HD 
BRANCH  12  14
HETATM   14  C   UNL     1      -6.186   7.835  68.876  1.00  0.00    -0.036 A  
HETATM   15  N   UNL     1      -7.000   7.120  69.715  1.00  0.00    -0.053 NA 
HETATM   16  C   UNL     1      -5.252   8.871  70.707  1.00  0.00    -0.027 A  
HETATM   17  N   UNL     1      -5.344   8.734  69.336  1.00  0.00    -0.034 NA 
HETATM   18  C   UNL     1      -7.102   7.375  71.088  1.00  0.00    -0.059 A  
HETATM   19  C   UNL     1      -6.033   8.289  71.622  1.00  0.00    -0.040 A  
HETATM   20 CL   UNL     1      -5.915   8.617  73.302  1.00  0.00    -0.104 Cl 
BRANCH  18  21
HETATM   21  N   UNL     1      -8.018   6.972  71.937  1.00  0.00    -0.098 NA 
HETATM   22  H   UNL     1      -8.525   7.654  72.502  1.00  0.00     0.000 HD 
BRANCH  21  23
HETATM   23  C   UNL     1      -8.300   5.608  72.066  1.00  0.00    -0.122 A  
HETATM   24  C   UNL     1      -7.237   4.691  72.098  1.00  0.00    -0.071 A  
HETATM   25  C   UNL     1      -7.448   3.344  71.831  1.00  0.00    -0.052 A  
HETATM   26  C   UNL     1      -8.740   2.885  71.607  1.00  0.00    -0.113 A  
HETATM   27  C   UNL     1      -9.824   3.751  71.761  1.00  0.00    -0.244 A  
HETATM   28  C   UNL     1      -9.608   5.109  72.039  1.00  0.00    -0.151 A  
BRANCH  28  29
HETATM   29  S   UNL     1     -10.985   6.012  72.765  1.00  0.00    -0.272 S  
HETATM   30  O   UNL     1     -12.020   5.027  73.034  1.00  0.00    -0.226 OA 
HETATM   31  O   UNL     1     -10.411   6.736  73.887  1.00  0.00    -0.347 OA 
BRANCH  29  32
HETATM   32  C   UNL     1     -11.696   7.193  71.628  1.00  0.00    -0.291 C  
HETATM   33  C   UNL     1     -13.204   7.000  71.441  1.00  0.00    -0.352 C  
HETATM   34  C   UNL     1     -11.431   8.616  72.149  1.00  0.00    -0.443 C  
ENDBRANCH  29  32
ENDBRANCH  28  29
ENDBRANCH  21  23
ENDBRANCH  18  21
ENDBRANCH  12  14
ENDBRANCH   6  12
BRANCH  11  35
HETATM   35  C   UNL     1      -8.002   3.804  63.614  1.00  0.00    -0.087 C  
HETATM   36  C   UNL     1      -8.108   2.372  64.173  1.00  0.00    -0.081 C  
HETATM   37  C   UNL     1      -9.468   2.106  64.797  1.00  0.00    -0.065 C  
HETATM   38  N   UNL     1     -10.504   2.224  63.782  1.00  0.00    -0.331 NA 
HETATM   39  H   UNL     1     -11.415   1.940  64.143  1.00  0.00     0.000 HD 
HETATM   40  C   UNL     1     -10.551   3.571  63.215  1.00  0.00    -0.245 C  
HETATM   41  C   UNL     1      -9.205   4.039  62.671  1.00  0.00    -0.111 C  
ENDBRANCH  11  35
ENDBRANCH   4   5
ENDBRANCH   2   4
TORSDOF 9
ENDMDL
MODEL      218
REMARK 921   NORMALIZED FREE ENERGY PREDICTED BY IDOCK:   -3.39 KCAL/MOL
REMARK 922        TOTAL FREE ENERGY PREDICTED BY IDOCK:   -7.34 KCAL/MOL
REMARK 923 INTER-LIGAND FREE ENERGY PREDICTED BY IDOCK:   -6.94 KCAL/MOL
REMARK 924 INTRA-LIGAND FREE ENERGY PREDICTED BY IDOCK:   -0.41 KCAL/MOL
REMARK 927      BINDING AFFINITY PREDICTED BY RF-SCORE:    0.00 PKD
ROOT
HETATM    1  C   UNL     1      -5.696   9.450  70.539  1.00  0.00    -0.045 C  
HETATM    2  C   UNL     1      -6.949  10.260  70.208  1.00  0.00    -0.129 C  
HETATM    3  C   UNL     1      -6.555  11.720  69.958  1.00  0.00     0.071 C  
ENDROOT
BRANCH   2   4
HETATM    4  O   UNL     1      -7.592   9.637  69.070  1.00  0.00    -0.072 OA 
BRANCH   4   5
HETATM    5  C   UNL     1      -8.724   8.893  69.329  1.00  0.00    -0.138 A  
HETATM    6  C   UNL     1      -9.955   9.076  68.677  1.00  0.00    -0.172 A  
HETATM    7  C   UNL     1     -11.972   6.149  69.961  1.00  0.00     0.394 C  
HETATM    8  C   UNL     1     -10.891   8.052  68.803  1.00  0.00     0.019 A  
HETATM    9  C   UNL     1      -8.568   7.861  70.296  1.00  0.00    -0.137 A  
HETATM   10  C   UNL     1     -10.759   7.023  69.756  1.00  0.00    -0.265 A  
HETATM   11  C   UNL     1      -9.584   6.915  70.544  1.00  0.00    -0.171 A  
BRANCH   6  12
HETATM   12  N   UNL     1     -10.266  10.153  67.825  1.00  0.00    -0.180 NA 
HETATM   13  H   UNL     1     -10.025   9.990  66.847  1.00  0.00     0.000 HD 
BRANCH  12  14
HETATM   14  C   UNL     1     -10.830  11.375  68.060  1.00  0.00    -0.217 A  
HETATM   15  N   UNL     1     -10.523  12.458  67.277  1.00  0.00    -0.221 NA 
HETATM   16  C   UNL     1     -11.987  12.765  69.484  1.00  0.00    -0.276 A  
HETATM   17  N   UNL     1     -11.515  11.505  69.174  1.00  0.00    -0.268 NA 
HETATM   18  C   UNL     1     -10.787  13.780  67.658  1.00  0.00    -0.254 A  
HETATM   19  C   UNL     1     -11.699  13.904  68.847  1.00  0.00    -0.337 A  
HETATM   20 CL   UNL     1     -12.240  15.442  69.383  1.00  0.00    -0.296 Cl 
BRANCH  18  21
HETATM   21  N   UNL     1     -10.310  14.894  67.155  1.00  0.00    -0.257 NA 
HETATM   22  H   UNL     1     -10.793  15.354  66.383  1.00  0.00     0.000 HD 
BRANCH  21  23
HETATM   23  C   UNL     1      -9.137  15.451  67.678  1.00  0.00    -0.182 A  
HETATM   24  C   UNL     1      -8.091  14.599  68.065  1.00  0.00    -0.135 A  
HETATM   25  C   UNL     1      -7.096  15.038  68.931  1.00  0.00    -0.119 A  
HETATM   26  C   UNL     1      -7.094  16.361  69.355  1.00  0.00    -0.190 A  
HETATM   27  C   UNL     1      -8.017  17.264  68.826  1.00  0.00    -0.250 A  
HETATM   28  C   UNL     1      -9.015  16.819  67.946  1.00  0.00    -0.219 A  
BRANCH  28  29
HETATM   29  S   UNL     1      -9.780  18.066  66.897  1.00  0.00    -0.330 S  
HETATM   30  O   UNL     1      -8.813  18.365  65.852  1.00  0.00    -0.491 OA 
HETATM   31  O   UNL     1     -11.062  17.500  66.512  1.00  0.00     0.118 OA 
BRANCH  29  32
HETATM   32  C   UNL     1     -10.072  19.599  67.768  1.00  0.00    -0.413 C  
HETATM   33  C   UNL     1      -9.722  19.510  69.256  1.00  0.00    -0.322 C  
HETATM   34  C   UNL     1      -9.236  20.714  67.119  1.00  0.00    -0.429 C  
ENDBRANCH  29  32
ENDBRANCH  28  29
ENDBRANCH  21  23
ENDBRANCH  18  21
ENDBRANCH  12  14
ENDBRANCH   6  12
BRANCH  11  35
HETATM   35  C   UNL     1      -9.475   5.774  71.576  1.00  0.00    -0.171 C  
HETATM   36  C   UNL     1      -8.321   6.005  72.572  1.00  0.00    -0.116 C  
HETATM   37  C   UNL     1      -8.728   6.932  73.706  1.00  0.00    -0.147 C  
HETATM   38  N   UNL     1      -9.810   6.328  74.469  1.00  0.00    -0.290 NA 
HETATM   39  H   UNL     1     -10.028   6.873  75.303  1.00  0.00     0.000 HD 
HETATM   40  C   UNL     1     -10.998   6.118  73.644  1.00  0.00    -0.013 C  
HETATM   41  C   UNL     1     -10.715   5.313  72.379  1.00  0.00    -0.286 C  
ENDBRANCH  11  35
ENDBRANCH   4   5
ENDBRANCH   2   4
TORSDOF 9
ENDMDL
MODEL      219
REMARK 921   NORMALIZED FREE ENERGY PREDICTED BY IDOCK:   -3.36 KCAL/MOL
REMARK 922        TOTAL FREE ENERGY PREDICTED BY IDOCK:   -7.30 KCAL/MOL
REMARK 923 INTER-LIGAND FREE ENERGY PREDICTED BY IDOCK:   -6.56 KCAL/MOL
REMARK 924 INTRA-LIGAND FREE ENERGY PREDICTED BY IDOCK:   -0.74 KCAL/MOL
REMARK 927      BINDING AFFINITY PREDICTED BY RF-SCORE:    0.00 PKD
ROOT
HETATM    1  C   UNL     1      -5.572  17.724  70.417  1.00  0.00    -0.220 C  
HETATM    2  C   UNL     1      -5.129  16.278  70.202  1.00  0.00    -0.152 C  
HETATM    3  C   UNL     1      -5.688  15.404  71.330  1.00  0.00     0.246 C  
ENDROOT
BRANCH   2   4
HETATM    4  O   UNL     1      -5.575  15.869  68.886  1.00  0.00    -0.103 OA 
BRANCH   4   5
HETATM    5  C   UNL     1      -6.899  16.105  68.579  1.00  0.00    -0.135 A  
HETATM    6  C   UNL     1      -7.932  15.175  68.775  1.00  0.00    -0.162 A  
HETATM    7  C   UNL     1     -11.005  17.234  67.996  1.00  0.00    -0.194 C  
HETATM    8  C   UNL     1      -9.236  15.666  68.731  1.00  0.00    -0.211 A  
HETATM    9  C   UNL     1      -7.184  17.405  68.077  1.00  0.00    -0.193 A  
HETATM   10  C   UNL     1      -9.542  16.947  68.234  1.00  0.00    -0.258 A  
HETATM   11  C   UNL     1      -8.508  17.850  67.877  1.00  0.00    -0.251 A  
BRANCH   6  12
HETATM   12  N   UNL     1      -7.748  13.822  69.116  1.00  0.00    -0.336 NA 
HETATM   13  H   UNL     1      -7.617  13.661  70.115  1.00  0.00     0.000 HD 
BRANCH  12  14
HETATM   14  C   UNL     1      -7.712  12.682  68.363  1.00  0.00    -0.133 A  
HETATM   15  N   UNL     1      -8.840  11.930  68.164  1.00  0.00    -0.173 NA 
HETATM   16  C   UNL     1      -6.465  11.031  67.353  1.00  0.00    -0.067 A  
HETATM   17  N   UNL     1      -6.524  12.245  68.009  1.00  0.00    -0.068 NA 
HETATM   18  C   UNL     1      -8.810  10.607  67.706  1.00  0.00    -0.133 A  
HETATM   19  C   UNL     1      -7.475  10.176  67.165  1.00  0.00    -0.091 A  
HETATM   20 CL   UNL     1      -7.275   8.633  66.441  1.00  0.00    -0.079 Cl 
BRANCH  18  21
HETATM   21  N   UNL     1      -9.759   9.701  67.737  1.00  0.00    -0.143 NA 
HETATM   22  H   UNL     1     -10.299   9.498  66.896  1.00  0.00     0.000 HD 
BRANCH  21  23
HETATM   23  C   UNL     1     -10.030   9.013  68.926  1.00  0.00    -0.189 A  
HETATM   24  C   UNL     1     -10.409   9.741  70.064  1.00  0.00    -0.307 A  
HETATM   25  C   UNL     1     -10.308   9.185  71.334  1.00  0.00    -0.409 A  
HETATM   26  C   UNL     1      -9.900   7.863  71.471  1.00  0.00    -0.206 A  
HETATM   27  C   UNL     1      -9.705   7.073  70.337  1.00  0.00    -0.178 A  
HETATM   28  C   UNL     1      -9.817   7.636  69.057  1.00  0.00    -0.168 A  
BRANCH  28  29
HETATM   29  S   UNL     1     -10.111   6.493  67.697  1.00  0.00    -0.165 S  
HETATM   30  O   UNL     1     -11.519   6.136  67.765  1.00  0.00    -0.028 OA 
HETATM   31  O   UNL     1      -9.630   7.186  66.513  1.00  0.00    -0.177 OA 
BRANCH  29  32
HETATM   32  C   UNL     1      -9.193   4.972  67.879  1.00  0.00    -0.119 C  
HETATM   33  C   UNL     1      -9.568   3.925  66.825  1.00  0.00    -0.222 C  
HETATM   34  C   UNL     1      -7.690   5.274  67.777  1.00  0.00    -0.091 C  
ENDBRANCH  29  32
ENDBRANCH  28  29
ENDBRANCH  21  23
ENDBRANCH  18  21
ENDBRANCH  12  14
ENDBRANCH   6  12
BRANCH  11  35
HETATM   35  C   UNL     1      -8.883  19.246  67.337  1.00  0.00    -0.335 C  
HETATM   36  C   UNL     1      -8.318  20.376  68.220  1.00  0.00     0.123 C  
HETATM   37  C   UNL     1      -6.868  20.685  67.885  1.00  0.00    -0.293 C  
HETATM   38  N   UNL     1      -6.771  21.154  66.510  1.00  0.00    -0.540 NA 
HETATM   39  H   UNL     1      -5.829  21.478  66.292  1.00  0.00     0.000 HD 
HETATM   40  C   UNL     1      -7.220  20.136  65.562  1.00  0.00    -0.258 C  
HETATM   41  C   UNL     1      -8.624  19.618  65.859  1.00  0.00    -0.143 C  
ENDBRANCH  11  35
ENDBRANCH   4   5
ENDBRANCH   2   4
TORSDOF 9
ENDMDL
MODEL      220
REMARK 921   NORMALIZED FREE ENERGY PREDICTED BY IDOCK:   -3.27 KCAL/MOL
REMARK 922        TOTAL FREE ENERGY PREDICTED BY IDOCK:   -7.16 KCAL/MOL
REMARK 923 INTER-LIGAND FREE ENERGY PREDICTED BY IDOCK:   -6.76 KCAL/MOL
REMARK 924 INTRA-LIGAND FREE ENERGY PREDICTED BY IDOCK:   -0.40 KCAL/MOL
REMARK 927      BINDING AFFINITY PREDICTED BY RF-SCORE:    0.00 PKD
ROOT
HETATM    1  C   UNL     1      -7.816  11.399  68.311  1.00  0.00    -0.132 C  
HETATM    2  C   UNL     1      -8.052  10.661  66.994  1.00  0.00    -0.120 C  
HETATM    3  C   UNL     1      -7.139   9.431  66.933  1.00  0.00    -0.086 C  
ENDROOT
BRANCH   2   4
HETATM    4  O   UNL     1      -9.460  10.334  66.914  1.00  0.00    -0.163 OA 
BRANCH   4   5
HETATM    5  C   UNL     1     -10.324  11.140  67.626  1.00  0.00    -0.192 A  
HETATM    6  C   UNL     1     -10.806  10.838  68.911  1.00  0.00    -0.227 A  
HETATM    7  C   UNL     1     -12.622  14.021  69.839  1.00  0.00    -0.195 C  
HETATM    8  C   UNL     1     -11.392  11.883  69.623  1.00  0.00    -0.266 A  
HETATM    9  C   UNL     1     -10.681  12.361  66.990  1.00  0.00    -0.268 A  
HETATM   10  C   UNL     1     -11.758  13.099  69.013  1.00  0.00    -0.367 A  
HETATM   11  C   UNL     1     -11.420  13.360  67.660  1.00  0.00    -0.353 A  
BRANCH   6  12
HETATM   12  N   UNL     1     -10.645   9.603  69.565  1.00  0.00    -0.218 NA 
HETATM   13  H   UNL     1     -10.484   9.685  70.570  1.00  0.00     0.000 HD 
BRANCH  12  14
HETATM   14  C   UNL     1     -10.663   8.314  69.110  1.00  0.00    -0.101 A  
HETATM   15  N   UNL     1     -10.424   7.263  69.955  1.00  0.00    -0.218 NA 
HETATM   16  C   UNL     1     -10.621   6.859  67.327  1.00  0.00    -0.322 A  
HETATM   17  N   UNL     1     -10.724   8.149  67.807  1.00  0.00    -0.153 NA 
HETATM   18  C   UNL     1     -10.094   5.977  69.507  1.00  0.00    -0.193 A  
HETATM   19  C   UNL     1     -10.317   5.766  68.035  1.00  0.00    -0.206 A  
HETATM   20 CL   UNL     1     -10.092   4.220  67.324  1.00  0.00    -0.130 Cl 
BRANCH  18  21
HETATM   21  N   UNL     1      -9.578   4.976  70.180  1.00  0.00    -0.171 NA 
HETATM   22  H   UNL     1      -9.760   4.016  69.886  1.00  0.00     0.000 HD 
BRANCH  21  23
HETATM   23  C   UNL     1      -8.778   5.225  71.301  1.00  0.00    -0.129 A  
HETATM   24  C   UNL     1      -9.388   5.637  72.497  1.00  0.00    -0.151 A  
HETATM   25  C   UNL     1      -8.652   6.265  73.495  1.00  0.00    -0.125 A  
HETATM   26  C   UNL     1      -7.280   6.415  73.339  1.00  0.00    -0.082 A  
HETATM   27  C   UNL     1      -6.635   5.841  72.244  1.00  0.00    -0.062 A  
HETATM   28  C   UNL     1      -7.380   5.200  71.242  1.00  0.00    -0.078 A  
BRANCH  28  29
HETATM   29  S   UNL     1      -6.492   4.031  70.200  1.00  0.00    -0.033 S  
HETATM   30  O   UNL     1      -5.200   3.823  70.833  1.00  0.00    -0.003 OA 
HETATM   31  O   UNL     1      -7.387   2.893  70.064  1.00  0.00    -0.043 OA 
BRANCH  29  32
HETATM   32  C   UNL     1      -6.158   4.690  68.574  1.00  0.00    -0.031 C  
HETATM   33  C   UNL     1      -7.127   4.163  67.511  1.00  0.00    -0.063 C  
HETATM   34  C   UNL     1      -6.251   6.224  68.623  1.00  0.00    -0.036 C  
ENDBRANCH  29  32
ENDBRANCH  28  29
ENDBRANCH  21  23
ENDBRANCH  18  21
ENDBRANCH  12  14
ENDBRANCH   6  12
BRANCH  11  35
HETATM   35  C   UNL     1     -11.837  14.703  67.028  1.00  0.00    -0.358 C  
HETATM   36  C   UNL     1     -10.854  15.837  67.382  1.00  0.00    -0.306 C  
HETATM   37  C   UNL     1      -9.637  15.837  66.473  1.00  0.00    -0.265 C  
HETATM   38  N   UNL     1     -10.051  16.073  65.098  1.00  0.00    -0.474 NA 
HETATM   39  H   UNL     1      -9.248  16.192  64.481  1.00  0.00     0.000 HD 
HETATM   40  C   UNL     1     -10.943  15.018  64.617  1.00  0.00    -0.303 C  
HETATM   41  C   UNL     1     -12.155  14.801  65.517  1.00  0.00    -0.137 C  
ENDBRANCH  11  35
ENDBRANCH   4   5
ENDBRANCH   2   4
TORSDOF 9
ENDMDL
MODEL      221
REMARK 921   NORMALIZED FREE ENERGY PREDICTED BY IDOCK:   -3.21 KCAL/MOL
REMARK 922        TOTAL FREE ENERGY PREDICTED BY IDOCK:   -7.06 KCAL/MOL
REMARK 923 INTER-LIGAND FREE ENERGY PREDICTED BY IDOCK:   -7.71 KCAL/MOL
REMARK 924 INTRA-LIGAND FREE ENERGY PREDICTED BY IDOCK:    0.65 KCAL/MOL
REMARK 927      BINDING AFFINITY PREDICTED BY RF-SCORE:    0.00 PKD
ROOT
HETATM    1  C   UNL     1     -10.147   5.187  68.289  1.00  0.00    -0.199 C  
HETATM    2  C   UNL     1      -9.600   5.799  69.578  1.00  0.00    -0.141 C  
HETATM    3  C   UNL     1      -9.169   4.676  70.527  1.00  0.00    -0.193 C  
ENDROOT
BRANCH   2   4
HETATM    4  O   UNL     1      -8.520   6.694  69.220  1.00  0.00    -0.123 OA 
BRANCH   4   5
HETATM    5  C   UNL     1      -8.668   7.407  68.048  1.00  0.00    -0.124 A  
HETATM    6  C   UNL     1      -8.974   8.776  67.991  1.00  0.00    -0.140 A  
HETATM    7  C   UNL     1      -8.607   9.512  64.302  1.00  0.00    -0.215 C  
HETATM    8  C   UNL     1      -8.765   9.416  66.771  1.00  0.00    -0.138 A  
HETATM    9  C   UNL     1      -8.441   6.668  66.854  1.00  0.00    -0.115 A  
HETATM   10  C   UNL     1      -8.544   8.705  65.575  1.00  0.00    -0.200 A  
HETATM   11  C   UNL     1      -8.391   7.294  65.591  1.00  0.00    -0.142 A  
BRANCH   6  12
HETATM   12  N   UNL     1      -9.367   9.564  69.090  1.00  0.00    -0.156 NA 
HETATM   13  H   UNL     1      -8.883   9.332  69.958  1.00  0.00     0.000 HD 
BRANCH  12  14
HETATM   14  C   UNL     1     -10.272  10.580  69.213  1.00  0.00    -0.225 A  
HETATM   15  N   UNL     1     -10.182  11.705  68.437  1.00  0.00    -0.202 NA 
HETATM   16  C   UNL     1     -11.938  11.590  70.440  1.00  0.00    -0.368 A  
HETATM   17  N   UNL     1     -11.101  10.512  70.232  1.00  0.00    -0.303 NA 
HETATM   18  C   UNL     1     -10.848  12.900  68.738  1.00  0.00    -0.242 A  
HETATM   19  C   UNL     1     -11.900  12.765  69.804  1.00  0.00    -0.310 A  
HETATM   20 CL   UNL     1     -12.908  14.089  70.218  1.00  0.00    -0.264 Cl 
BRANCH  18  21
HETATM   21  N   UNL     1     -10.639  14.104  68.258  1.00  0.00    -0.244 NA 
HETATM   22  H   UNL     1     -11.398  14.786  68.243  1.00  0.00     0.000 HD 
BRANCH  21  23
HETATM   23  C   UNL     1      -9.375  14.452  67.769  1.00  0.00    -0.200 A  
HETATM   24  C   UNL     1      -8.386  13.462  67.667  1.00  0.00    -0.179 A  
HETATM   25  C   UNL     1      -7.041  13.801  67.573  1.00  0.00    -0.172 A  
HETATM   26  C   UNL     1      -6.679  15.141  67.498  1.00  0.00    -0.189 A  
HETATM   27  C   UNL     1      -7.663  16.125  67.406  1.00  0.00    -0.187 A  
HETATM   28  C   UNL     1      -9.019  15.778  67.493  1.00  0.00    -0.194 A  
BRANCH  28  29
HETATM   29  S   UNL     1     -10.199  16.959  66.819  1.00  0.00    -0.302 S  
HETATM   30  O   UNL     1     -10.518  16.493  65.478  1.00  0.00    -0.477 OA 
HETATM   31  O   UNL     1     -11.269  17.024  67.801  1.00  0.00    -0.186 OA 
BRANCH  29  32
HETATM   32  C   UNL     1      -9.495  18.590  66.633  1.00  0.00    -0.311 C  
HETATM   33  C   UNL     1     -10.555  19.668  66.387  1.00  0.00    -0.592 C  
HETATM   34  C   UNL     1      -8.702  18.944  67.902  1.00  0.00    -0.327 C  
ENDBRANCH  29  32
ENDBRANCH  28  29
ENDBRANCH  21  23
ENDBRANCH  18  21
ENDBRANCH  12  14
ENDBRANCH   6  12
BRANCH  11  35
HETATM   35  C   UNL     1      -8.148   6.550  64.261  1.00  0.00    -0.051 C  
HETATM   36  C   UNL     1      -6.714   6.762  63.737  1.00  0.00    -0.049 C  
HETATM   37  C   UNL     1      -5.724   5.815  64.396  1.00  0.00    -0.024 C  
HETATM   38  N   UNL     1      -6.075   4.439  64.079  1.00  0.00    -0.018 NA 
HETATM   39  H   UNL     1      -5.366   3.786  64.412  1.00  0.00     0.000 HD 
HETATM   40  C   UNL     1      -7.401   4.091  64.588  1.00  0.00    -0.071 C  
HETATM   41  C   UNL     1      -8.493   5.050  64.120  1.00  0.00    -0.136 C  
ENDBRANCH  11  35
ENDBRANCH   4   5
ENDBRANCH   2   4
TORSDOF 9
ENDMDL
MODEL      222
REMARK 921   NORMALIZED FREE ENERGY PREDICTED BY IDOCK:   -3.19 KCAL/MOL
REMARK 922        TOTAL FREE ENERGY PREDICTED BY IDOCK:   -7.04 KCAL/MOL
REMARK 923 INTER-LIGAND FREE ENERGY PREDICTED BY IDOCK:   -5.69 KCAL/MOL
REMARK 924 INTRA-LIGAND FREE ENERGY PREDICTED BY IDOCK:   -1.35 KCAL/MOL
REMARK 927      BINDING AFFINITY PREDICTED BY RF-SCORE:    0.00 PKD
ROOT
HETATM    1  C   UNL     1      -6.779  11.860  70.088  1.00  0.00     0.393 C  
HETATM    2  C   UNL     1      -5.685  10.864  69.706  1.00  0.00    -0.059 C  
HETATM    3  C   UNL     1      -6.003   9.500  70.328  1.00  0.00    -0.047 C  
ENDROOT
BRANCH   2   4
HETATM    4  O   UNL     1      -5.601  10.830  68.261  1.00  0.00    -0.044 OA 
BRANCH   4   5
HETATM    5  C   UNL     1      -6.795  10.859  67.571  1.00  0.00    -0.079 A  
HETATM    6  C   UNL     1      -7.259  11.967  66.843  1.00  0.00    -0.074 A  
HETATM    7  C   UNL     1     -10.308  10.554  65.112  1.00  0.00    -0.310 C  
HETATM    8  C   UNL     1      -8.297  11.737  65.943  1.00  0.00     0.282 A  
HETATM    9  C   UNL     1      -7.542   9.649  67.595  1.00  0.00    -0.091 A  
HETATM   10  C   UNL     1      -9.053  10.549  65.952  1.00  0.00    -0.192 A  
HETATM   11  C   UNL     1      -8.695   9.471  66.803  1.00  0.00    -0.138 A  
BRANCH   6  12
HETATM   12  N   UNL     1      -6.685  13.252  66.874  1.00  0.00    -0.314 NA 
HETATM   13  H   UNL     1      -6.312  13.560  65.975  1.00  0.00     0.000 HD 
BRANCH  12  14
HETATM   14  C   UNL     1      -6.533  14.165  67.879  1.00  0.00    -0.165 A  
HETATM   15  N   UNL     1      -7.545  15.028  68.209  1.00  0.00    -0.106 NA 
HETATM   16  C   UNL     1      -5.129  15.307  69.301  1.00  0.00    -0.092 A  
HETATM   17  N   UNL     1      -5.322  14.305  68.372  1.00  0.00    -0.100 NA 
HETATM   18  C   UNL     1      -7.349  16.186  68.972  1.00  0.00    -0.203 A  
HETATM   19  C   UNL     1      -6.008  16.252  69.651  1.00  0.00    -0.176 A  
HETATM   20 CL   UNL     1      -5.631  17.531  70.731  1.00  0.00    -0.124 Cl 
BRANCH  18  21
HETATM   21  N   UNL     1      -8.143  17.219  69.123  1.00  0.00    -0.092 NA 
HETATM   22  H   UNL     1      -8.261  17.642  70.044  1.00  0.00     0.000 HD 
BRANCH  21  23
HETATM   23  C   UNL     1      -8.829  17.741  68.020  1.00  0.00    -0.259 A  
HETATM   24  C   UNL     1      -8.127  18.519  67.086  1.00  0.00    -0.248 A  
HETATM   25  C   UNL     1      -8.799  19.369  66.216  1.00  0.00    -0.372 A  
HETATM   26  C   UNL     1     -10.188  19.390  66.218  1.00  0.00    -0.566 A  
HETATM   27  C   UNL     1     -10.898  18.484  67.006  1.00  0.00    -0.257 A  
HETATM   28  C   UNL     1     -10.216  17.621  67.877  1.00  0.00    -0.357 A  
BRANCH  28  29
HETATM   29  S   UNL     1     -11.104  16.149  68.414  1.00  0.00    -0.355 S  
HETATM   30  O   UNL     1     -10.444  15.698  69.629  1.00  0.00    -0.241 OA 
HETATM   31  O   UNL     1     -12.496  16.558  68.494  1.00  0.00     0.755 OA 
BRANCH  29  32
HETATM   32  C   UNL     1     -10.969  14.811  67.239  1.00  0.00    -0.318 C  
HETATM   33  C   UNL     1     -12.261  13.997  67.118  1.00  0.00    -0.356 C  
HETATM   34  C   UNL     1     -10.605  15.385  65.860  1.00  0.00    -0.349 C  
ENDBRANCH  29  32
ENDBRANCH  28  29
ENDBRANCH  21  23
ENDBRANCH  18  21
ENDBRANCH  12  14
ENDBRANCH   6  12
BRANCH  11  35
HETATM   35  C   UNL     1      -9.547   8.185  66.784  1.00  0.00    -0.281 C  
HETATM   36  C   UNL     1      -8.785   6.998  66.161  1.00  0.00    -0.155 C  
HETATM   37  C   UNL     1      -7.868   6.323  67.168  1.00  0.00    -0.105 C  
HETATM   38  N   UNL     1      -8.658   5.772  68.260  1.00  0.00    -0.112 NA 
HETATM   39  H   UNL     1      -8.083   5.215  68.892  1.00  0.00     0.000 HD 
HETATM   40  C   UNL     1      -9.383   6.819  68.979  1.00  0.00    -0.134 C  
HETATM   41  C   UNL     1     -10.249   7.682  68.067  1.00  0.00    -0.248 C  
ENDBRANCH  11  35
ENDBRANCH   4   5
ENDBRANCH   2   4
TORSDOF 9
ENDMDL
MODEL      223
REMARK 921   NORMALIZED FREE ENERGY PREDICTED BY IDOCK:   -3.17 KCAL/MOL
REMARK 922        TOTAL FREE ENERGY PREDICTED BY IDOCK:   -7.01 KCAL/MOL
REMARK 923 INTER-LIGAND FREE ENERGY PREDICTED BY IDOCK:   -5.91 KCAL/MOL
REMARK 924 INTRA-LIGAND FREE ENERGY PREDICTED BY IDOCK:   -1.10 KCAL/MOL
REMARK 927      BINDING AFFINITY PREDICTED BY RF-SCORE:    0.00 PKD
ROOT
HETATM    1  C   UNL     1     -12.642  15.998  69.565  1.00  0.00     0.514 C  
HETATM    2  C   UNL     1     -12.480  14.768  70.457  1.00  0.00    -0.352 C  
HETATM    3  C   UNL     1     -13.624  13.788  70.179  1.00  0.00     1.373 C  
ENDROOT
BRANCH   2   4
HETATM    4  O   UNL     1     -11.170  14.206  70.204  1.00  0.00    -0.150 OA 
BRANCH   4   5
HETATM    5  C   UNL     1     -11.097  13.207  69.255  1.00  0.00    -0.145 A  
HETATM    6  C   UNL     1     -11.330  11.847  69.522  1.00  0.00    -0.236 A  
HETATM    7  C   UNL     1     -11.282  10.344  66.054  1.00  0.00     0.544 C  
HETATM    8  C   UNL     1     -11.545  11.019  68.422  1.00  0.00    -0.372 A  
HETATM    9  C   UNL     1     -10.807  13.643  67.933  1.00  0.00    -0.264 A  
HETATM   10  C   UNL     1     -11.261  11.428  67.104  1.00  0.00    -0.363 A  
HETATM   11  C   UNL     1     -10.865  12.763  66.831  1.00  0.00    -0.278 A  
BRANCH   6  12
HETATM   12  N   UNL     1     -11.471  11.288  70.806  1.00  0.00    -0.269 NA 
HETATM   13  H   UNL     1     -11.029  11.834  71.546  1.00  0.00     0.000 HD 
BRANCH  12  14
HETATM   14  C   UNL     1     -12.088  10.152  71.249  1.00  0.00    -0.394 A  
HETATM   15  N   UNL     1     -11.362   9.045  71.601  1.00  0.00    -0.335 NA 
HETATM   16  C   UNL     1     -14.022   8.921  71.462  1.00  0.00    -0.307 A  
HETATM   17  N   UNL     1     -13.397  10.108  71.133  1.00  0.00    -0.351 NA 
HETATM   18  C   UNL     1     -11.924   7.768  71.731  1.00  0.00    -0.296 A  
HETATM   19  C   UNL     1     -13.427   7.759  71.748  1.00  0.00    -0.322 A  
HETATM   20 CL   UNL     1     -14.295   6.305  72.028  1.00  0.00     0.016 Cl 
BRANCH  18  21
HETATM   21  N   UNL     1     -11.321   6.603  71.783  1.00  0.00    -0.265 NA 
HETATM   22  H   UNL     1     -11.760   5.782  71.365  1.00  0.00     0.000 HD 
BRANCH  21  23
HETATM   23  C   UNL     1     -10.077   6.487  72.413  1.00  0.00    -0.171 A  
HETATM   24  C   UNL     1     -10.016   6.517  73.815  1.00  0.00    -0.274 A  
HETATM   25  C   UNL     1      -8.824   6.800  74.472  1.00  0.00    -0.212 A  
HETATM   26  C   UNL     1      -7.661   6.977  73.732  1.00  0.00    -0.117 A  
HETATM   27  C   UNL     1      -7.672   6.761  72.354  1.00  0.00    -0.093 A  
HETATM   28  C   UNL     1      -8.875   6.467  71.695  1.00  0.00    -0.135 A  
BRANCH  28  29
HETATM   29  S   UNL     1      -8.740   5.667  70.088  1.00  0.00    -0.139 S  
HETATM   30  O   UNL     1     -10.082   5.654  69.527  1.00  0.00    -0.185 OA 
HETATM   31  O   UNL     1      -7.705   6.406  69.385  1.00  0.00    -0.096 OA 
BRANCH  29  32
HETATM   32  C   UNL     1      -8.232   3.960  70.221  1.00  0.00    -0.057 C  
HETATM   33  C   UNL     1      -7.565   3.644  71.563  1.00  0.00    -0.056 C  
HETATM   34  C   UNL     1      -9.461   3.053  70.043  1.00  0.00    -0.195 C  
ENDBRANCH  29  32
ENDBRANCH  28  29
ENDBRANCH  21  23
ENDBRANCH  18  21
ENDBRANCH  12  14
ENDBRANCH   6  12
BRANCH  11  35
HETATM   35  C   UNL     1     -10.563  13.174  65.375  1.00  0.00    -0.311 C  
HETATM   36  C   UNL     1     -11.837  13.195  64.507  1.00  0.00    -0.427 C  
HETATM   37  C   UNL     1     -12.611  14.494  64.667  1.00  0.00    -0.200 C  
HETATM   38  N   UNL     1     -11.792  15.610  64.217  1.00  0.00    -0.750 NA 
HETATM   39  H   UNL     1     -12.323  16.481  64.205  1.00  0.00     0.000 HD 
HETATM   40  C   UNL     1     -10.573  15.739  65.014  1.00  0.00    -0.371 C  
HETATM   41  C   UNL     1      -9.753  14.454  65.066  1.00  0.00     0.137 C  
ENDBRANCH  11  35
ENDBRANCH   4   5
ENDBRANCH   2   4
TORSDOF 9
ENDMDL
MODEL      224
REMARK 921   NORMALIZED FREE ENERGY PREDICTED BY IDOCK:   -3.17 KCAL/MOL
REMARK 922        TOTAL FREE ENERGY PREDICTED BY IDOCK:   -7.00 KCAL/MOL
REMARK 923 INTER-LIGAND FREE ENERGY PREDICTED BY IDOCK:   -5.95 KCAL/MOL
REMARK 924 INTRA-LIGAND FREE ENERGY PREDICTED BY IDOCK:   -1.05 KCAL/MOL
REMARK 927      BINDING AFFINITY PREDICTED BY RF-SCORE:    0.00 PKD
ROOT
HETATM    1  C   UNL     1     -11.118   8.503  71.886  1.00  0.00    -0.395 C  
HETATM    2  C   UNL     1     -10.594   7.541  70.821  1.00  0.00    -0.220 C  
HETATM    3  C   UNL     1     -11.588   7.486  69.656  1.00  0.00     0.277 C  
ENDROOT
BRANCH   2   4
HETATM    4  O   UNL     1      -9.275   7.989  70.428  1.00  0.00    -0.153 OA 
BRANCH   4   5
HETATM    5  C   UNL     1      -8.925   7.803  69.106  1.00  0.00    -0.145 A  
HETATM    6  C   UNL     1      -8.561   8.841  68.233  1.00  0.00    -0.134 A  
HETATM    7  C   UNL     1      -7.418   6.936  65.175  1.00  0.00    -0.094 C  
HETATM    8  C   UNL     1      -7.925   8.472  67.049  1.00  0.00    -0.100 A  
HETATM    9  C   UNL     1      -8.907   6.451  68.666  1.00  0.00    -0.120 A  
HETATM   10  C   UNL     1      -7.898   7.141  66.591  1.00  0.00    -0.109 A  
HETATM   11  C   UNL     1      -8.412   6.090  67.395  1.00  0.00    -0.104 A  
BRANCH   6  12
HETATM   12  N   UNL     1      -8.689  10.215  68.512  1.00  0.00    -0.119 NA 
HETATM   13  H   UNL     1      -8.131  10.530  69.305  1.00  0.00     0.000 HD 
BRANCH  12  14
HETATM   14  C   UNL     1      -9.421  11.207  67.921  1.00  0.00    -0.175 A  
HETATM   15  N   UNL     1      -9.288  12.513  68.313  1.00  0.00    -0.207 NA 
HETATM   16  C   UNL     1     -11.208  11.811  66.601  1.00  0.00    -0.323 A  
HETATM   17  N   UNL     1     -10.383  10.827  67.109  1.00  0.00    -0.213 NA 
HETATM   18  C   UNL     1     -10.225  13.507  68.002  1.00  0.00    -0.243 A  
HETATM   19  C   UNL     1     -11.227  13.099  66.958  1.00  0.00    -0.294 A  
HETATM   20 CL   UNL     1     -12.374  14.222  66.353  1.00  0.00    -0.449 Cl 
BRANCH  18  21
HETATM   21  N   UNL     1     -10.370  14.699  68.532  1.00  0.00    -0.232 NA 
HETATM   22  H   UNL     1     -10.884  14.810  69.406  1.00  0.00     0.000 HD 
BRANCH  21  23
HETATM   23  C   UNL     1      -9.820  15.818  67.896  1.00  0.00    -0.217 A  
HETATM   24  C   UNL     1     -10.661  16.662  67.153  1.00  0.00    -0.264 A  
HETATM   25  C   UNL     1     -10.140  17.531  66.202  1.00  0.00    -0.317 A  
HETATM   26  C   UNL     1      -8.762  17.622  66.041  1.00  0.00    -0.051 A  
HETATM   27  C   UNL     1      -7.912  16.930  66.904  1.00  0.00    -0.248 A  
HETATM   28  C   UNL     1      -8.442  16.060  67.868  1.00  0.00    -0.162 A  
BRANCH  28  29
HETATM   29  S   UNL     1      -7.378  15.659  69.264  1.00  0.00    -0.216 S  
HETATM   30  O   UNL     1      -6.636  16.872  69.570  1.00  0.00    -0.233 OA 
HETATM   31  O   UNL     1      -8.272  15.121  70.277  1.00  0.00     0.299 OA 
BRANCH  29  32
HETATM   32  C   UNL     1      -6.164  14.414  68.856  1.00  0.00    -0.088 C  
HETATM   33  C   UNL     1      -6.107  13.282  69.887  1.00  0.00    -0.125 C  
HETATM   34  C   UNL     1      -6.493  13.823  67.476  1.00  0.00    -0.089 C  
ENDBRANCH  29  32
ENDBRANCH  28  29
ENDBRANCH  21  23
ENDBRANCH  18  21
ENDBRANCH  12  14
ENDBRANCH   6  12
BRANCH  11  35
HETATM   35  C   UNL     1      -8.364   4.644  66.860  1.00  0.00    -0.106 C  
HETATM   36  C   UNL     1      -6.999   3.977  67.122  1.00  0.00    -0.062 C  
HETATM   37  C   UNL     1      -6.905   3.412  68.530  1.00  0.00    -0.046 C  
HETATM   38  N   UNL     1      -7.908   2.372  68.709  1.00  0.00    -0.052 NA 
HETATM   39  H   UNL     1      -7.796   1.896  69.604  1.00  0.00     0.000 HD 
HETATM   40  C   UNL     1      -9.263   2.899  68.551  1.00  0.00    -0.181 C  
HETATM   41  C   UNL     1      -9.471   3.628  67.227  1.00  0.00    -0.235 C  
ENDBRANCH  11  35
ENDBRANCH   4   5
ENDBRANCH   2   4
TORSDOF 9
ENDMDL
MODEL      225
REMARK 921   NORMALIZED FREE ENERGY PREDICTED BY IDOCK:   -3.14 KCAL/MOL
REMARK 922        TOTAL FREE ENERGY PREDICTED BY IDOCK:   -6.97 KCAL/MOL
REMARK 923 INTER-LIGAND FREE ENERGY PREDICTED BY IDOCK:   -5.43 KCAL/MOL
REMARK 924 INTRA-LIGAND FREE ENERGY PREDICTED BY IDOCK:   -1.54 KCAL/MOL
REMARK 927      BINDING AFFINITY PREDICTED BY RF-SCORE:    0.00 PKD
ROOT
HETATM    1  C   UNL     1      -8.443   6.689  71.613  1.00  0.00    -0.119 C  
HETATM    2  C   UNL     1      -9.051   6.409  70.239  1.00  0.00    -0.155 C  
HETATM    3  C   UNL     1     -10.327   5.578  70.412  1.00  0.00    -0.346 C  
ENDROOT
BRANCH   2   4
HETATM    4  O   UNL     1      -9.280   7.681  69.587  1.00  0.00    -0.147 OA 
BRANCH   4   5
HETATM    5  C   UNL     1      -9.137   7.709  68.216  1.00  0.00    -0.136 A  
HETATM    6  C   UNL     1      -9.007   8.886  67.460  1.00  0.00    -0.133 A  
HETATM    7  C   UNL     1      -8.224   7.532  64.019  1.00  0.00     0.038 C  
HETATM    8  C   UNL     1      -8.544   8.745  66.153  1.00  0.00    -0.162 A  
HETATM    9  C   UNL     1      -9.078   6.436  67.584  1.00  0.00    -0.114 A  
HETATM   10  C   UNL     1      -8.482   7.496  65.506  1.00  0.00    -0.129 A  
HETATM   11  C   UNL     1      -8.768   6.300  66.214  1.00  0.00    -0.143 A  
BRANCH   6  12
HETATM   12  N   UNL     1      -9.202  10.190  67.954  1.00  0.00    -0.137 NA 
HETATM   13  H   UNL     1     -10.181  10.426  68.122  1.00  0.00     0.000 HD 
BRANCH  12  14
HETATM   14  C   UNL     1      -8.329  11.198  68.251  1.00  0.00    -0.143 A  
HETATM   15  N   UNL     1      -8.768  12.371  68.807  1.00  0.00     0.062 NA 
HETATM   16  C   UNL     1      -6.241  12.131  67.990  1.00  0.00    -0.065 A  
HETATM   17  N   UNL     1      -7.100  11.067  67.803  1.00  0.00    -0.084 NA 
HETATM   18  C   UNL     1      -8.005  13.547  68.820  1.00  0.00    -0.002 A  
HETATM   19  C   UNL     1      -6.562  13.345  68.449  1.00  0.00    -0.094 A  
HETATM   20 CL   UNL     1      -5.443  14.642  68.532  1.00  0.00    -0.095 Cl 
BRANCH  18  21
HETATM   21  N   UNL     1      -8.392  14.779  69.055  1.00  0.00    -0.248 NA 
HETATM   22  H   UNL     1      -7.702  15.527  69.116  1.00  0.00     0.000 HD 
BRANCH  21  23
HETATM   23  C   UNL     1      -9.752  15.064  69.223  1.00  0.00    -0.190 A  
HETATM   24  C   UNL     1     -10.298  15.046  70.516  1.00  0.00     0.140 A  
HETATM   25  C   UNL     1     -11.670  14.930  70.710  1.00  0.00    -0.364 A  
HETATM   26  C   UNL     1     -12.517  14.911  69.609  1.00  0.00    -0.174 A  
HETATM   27  C   UNL     1     -12.001  15.121  68.329  1.00  0.00    -0.187 A  
HETATM   28  C   UNL     1     -10.617  15.246  68.138  1.00  0.00    -0.254 A  
BRANCH  28  29
HETATM   29  S   UNL     1     -10.082  16.054  66.620  1.00  0.00    -0.291 S  
HETATM   30  O   UNL     1     -11.028  17.133  66.381  1.00  0.00    -0.016 OA 
HETATM   31  O   UNL     1      -8.687  16.394  66.846  1.00  0.00    -0.177 OA 
BRANCH  29  32
HETATM   32  C   UNL     1     -10.183  14.970  65.204  1.00  0.00    -0.365 C  
HETATM   33  C   UNL     1     -10.203  13.489  65.592  1.00  0.00    -0.306 C  
HETATM   34  C   UNL     1     -11.457  15.299  64.408  1.00  0.00    -0.244 C  
ENDBRANCH  29  32
ENDBRANCH  28  29
ENDBRANCH  21  23
ENDBRANCH  18  21
ENDBRANCH  12  14
ENDBRANCH   6  12
BRANCH  11  35
HETATM   35  C   UNL     1      -8.689   4.951  65.471  1.00  0.00    -0.139 C  
HETATM   36  C   UNL     1      -7.236   4.454  65.331  1.00  0.00    -0.068 C  
HETATM   37  C   UNL     1      -6.757   3.742  66.586  1.00  0.00    -0.046 C  
HETATM   38  N   UNL     1      -7.571   2.558  66.819  1.00  0.00    -0.070 NA 
HETATM   39  H   UNL     1      -7.204   1.997  67.587  1.00  0.00     0.000 HD 
HETATM   40  C   UNL     1      -8.975   2.905  67.035  1.00  0.00    -0.157 C  
HETATM   41  C   UNL     1      -9.563   3.753  65.911  1.00  0.00    -0.166 C  
ENDBRANCH  11  35
ENDBRANCH   4   5
ENDBRANCH   2   4
TORSDOF 9
ENDMDL
MODEL      226
REMARK 921   NORMALIZED FREE ENERGY PREDICTED BY IDOCK:   -3.04 KCAL/MOL
REMARK 922        TOTAL FREE ENERGY PREDICTED BY IDOCK:   -6.80 KCAL/MOL
REMARK 923 INTER-LIGAND FREE ENERGY PREDICTED BY IDOCK:   -6.27 KCAL/MOL
REMARK 924 INTRA-LIGAND FREE ENERGY PREDICTED BY IDOCK:   -0.53 KCAL/MOL
REMARK 927      BINDING AFFINITY PREDICTED BY RF-SCORE:    0.00 PKD
ROOT
HETATM    1  C   UNL     1      -8.419   8.669  68.409  1.00  0.00    -0.131 C  
HETATM    2  C   UNL     1      -7.034   8.133  68.770  1.00  0.00    -0.067 C  
HETATM    3  C   UNL     1      -7.149   6.653  69.152  1.00  0.00    -0.088 C  
ENDROOT
BRANCH   2   4
HETATM    4  O   UNL     1      -6.160   8.367  67.640  1.00  0.00    -0.049 OA 
BRANCH   4   5
HETATM    5  C   UNL     1      -6.695   8.150  66.387  1.00  0.00    -0.062 A  
HETATM    6  C   UNL     1      -6.873   9.154  65.421  1.00  0.00    -0.073 A  
HETATM    7  C   UNL     1      -7.935   7.157  62.393  1.00  0.00    -0.131 C  
HETATM    8  C   UNL     1      -7.109   8.733  64.114  1.00  0.00    -0.090 A  
HETATM    9  C   UNL     1      -7.028   6.799  66.093  1.00  0.00    -0.061 A  
HETATM   10  C   UNL     1      -7.445   7.402  63.800  1.00  0.00    -0.104 A  
HETATM   11  C   UNL     1      -7.427   6.397  64.801  1.00  0.00    -0.087 A  
BRANCH   6  12
HETATM   12  N   UNL     1      -6.724  10.535  65.653  1.00  0.00    -0.186 NA 
HETATM   13  H   UNL     1      -6.573  11.083  64.806  1.00  0.00     0.000 HD 
BRANCH  12  14
HETATM   14  C   UNL     1      -6.745  11.280  66.799  1.00  0.00    -0.140 A  
HETATM   15  N   UNL     1      -7.926  11.729  67.329  1.00  0.00    -0.153 NA 
HETATM   16  C   UNL     1      -5.599  12.557  68.333  1.00  0.00    -0.058 A  
HETATM   17  N   UNL     1      -5.584  11.703  67.249  1.00  0.00    -0.088 NA 
HETATM   18  C   UNL     1      -7.999  12.757  68.278  1.00  0.00    -0.151 A  
HETATM   19  C   UNL     1      -6.675  13.121  68.891  1.00  0.00    -0.099 A  
HETATM   20 CL   UNL     1      -6.580  14.267  70.164  1.00  0.00    -0.117 Cl 
BRANCH  18  21
HETATM   21  N   UNL     1      -9.041  13.461  68.653  1.00  0.00    -0.377 NA 
HETATM   22  H   UNL     1      -9.627  13.137  69.422  1.00  0.00     0.000 HD 
BRANCH  21  23
HETATM   23  C   UNL     1      -9.349  14.658  67.995  1.00  0.00    -0.198 A  
HETATM   24  C   UNL     1      -8.593  15.035  66.874  1.00  0.00    -0.280 A  
HETATM   25  C   UNL     1      -8.580  16.352  66.431  1.00  0.00    -0.358 A  
HETATM   26  C   UNL     1      -9.390  17.291  67.058  1.00  0.00    -0.257 A  
HETATM   27  C   UNL     1     -10.287  16.889  68.047  1.00  0.00    -0.334 A  
HETATM   28  C   UNL     1     -10.302  15.557  68.487  1.00  0.00    -0.225 A  
BRANCH  28  29
HETATM   29  S   UNL     1     -11.802  14.997  69.311  1.00  0.00    -0.305 S  
HETATM   30  O   UNL     1     -12.727  16.119  69.277  1.00  0.00     0.228 OA 
HETATM   31  O   UNL     1     -12.175  13.772  68.623  1.00  0.00    -0.347 OA 
BRANCH  29  32
HETATM   32  C   UNL     1     -11.528  14.621  71.036  1.00  0.00    -0.161 C  
HETATM   33  C   UNL     1     -11.425  15.877  71.906  1.00  0.00    -0.442 C  
HETATM   34  C   UNL     1     -12.682  13.745  71.550  1.00  0.00    -0.432 C  
ENDBRANCH  29  32
ENDBRANCH  28  29
ENDBRANCH  21  23
ENDBRANCH  18  21
ENDBRANCH  12  14
ENDBRANCH   6  12
BRANCH  11  35
HETATM   35  C   UNL     1      -7.800   4.950  64.417  1.00  0.00    -0.088 C  
HETATM   36  C   UNL     1      -7.198   3.921  65.395  1.00  0.00    -0.068 C  
HETATM   37  C   UNL     1      -8.048   3.763  66.645  1.00  0.00    -0.096 C  
HETATM   38  N   UNL     1      -9.365   3.258  66.282  1.00  0.00    -0.287 NA 
HETATM   39  H   UNL     1      -9.919   3.033  67.108  1.00  0.00     0.000 HD 
HETATM   40  C   UNL     1     -10.072   4.186  65.401  1.00  0.00    -0.197 C  
HETATM   41  C   UNL     1      -9.272   4.556  64.155  1.00  0.00    -0.109 C  
ENDBRANCH  11  35
ENDBRANCH   4   5
ENDBRANCH   2   4
TORSDOF 9
ENDMDL
MODEL      227
REMARK 921   NORMALIZED FREE ENERGY PREDICTED BY IDOCK:   -2.96 KCAL/MOL
REMARK 922        TOTAL FREE ENERGY PREDICTED BY IDOCK:   -6.68 KCAL/MOL
REMARK 923 INTER-LIGAND FREE ENERGY PREDICTED BY IDOCK:   -7.40 KCAL/MOL
REMARK 924 INTRA-LIGAND FREE ENERGY PREDICTED BY IDOCK:    0.72 KCAL/MOL
REMARK 927      BINDING AFFINITY PREDICTED BY RF-SCORE:    0.00 PKD
ROOT
HETATM    1  C   UNL     1     -11.612  12.215  66.327  1.00  0.00    -0.424 C  
HETATM    2  C   UNL     1     -10.533  11.605  67.221  1.00  0.00    -0.216 C  
HETATM    3  C   UNL     1     -10.885  10.142  67.512  1.00  0.00    -0.349 C  
ENDROOT
BRANCH   2   4
HETATM    4  O   UNL     1      -9.260  11.765  66.552  1.00  0.00    -0.192 OA 
BRANCH   4   5
HETATM    5  C   UNL     1      -8.200  11.039  67.055  1.00  0.00    -0.138 A  
HETATM    6  C   UNL     1      -7.511  11.363  68.235  1.00  0.00    -0.101 A  
HETATM    7  C   UNL     1      -5.247   8.368  68.675  1.00  0.00    -0.032 C  
HETATM    8  C   UNL     1      -6.700  10.371  68.782  1.00  0.00    -0.053 A  
HETATM    9  C   UNL     1      -7.854   9.875  66.315  1.00  0.00    -0.108 A  
HETATM   10  C   UNL     1      -6.340   9.212  68.066  1.00  0.00    -0.055 A  
HETATM   11  C   UNL     1      -6.906   8.945  66.792  1.00  0.00    -0.076 A  
BRANCH   6  12
HETATM   12  N   UNL     1      -7.664  12.562  68.958  1.00  0.00    -0.330 NA 
HETATM   13  H   UNL     1      -8.318  12.494  69.738  1.00  0.00     0.000 HD 
BRANCH  12  14
HETATM   14  C   UNL     1      -7.102  13.799  68.812  1.00  0.00    -0.106 A  
HETATM   15  N   UNL     1      -7.752  14.926  69.240  1.00  0.00    -0.172 NA 
HETATM   16  C   UNL     1      -5.507  15.128  67.817  1.00  0.00    -0.070 A  
HETATM   17  N   UNL     1      -6.015  13.870  68.074  1.00  0.00    -0.127 NA 
HETATM   18  C   UNL     1      -7.404  16.218  68.826  1.00  0.00    -0.191 A  
HETATM   19  C   UNL     1      -6.081  16.297  68.115  1.00  0.00    -0.118 A  
HETATM   20 CL   UNL     1      -5.425  17.811  67.646  1.00  0.00    -0.136 Cl 
BRANCH  18  21
HETATM   21  N   UNL     1      -8.092  17.331  68.928  1.00  0.00    -0.232 NA 
HETATM   22  H   UNL     1      -8.231  17.763  69.841  1.00  0.00     0.000 HD 
BRANCH  21  23
HETATM   23  C   UNL     1      -8.637  17.923  67.783  1.00  0.00    -0.242 A  
HETATM   24  C   UNL     1      -7.934  18.963  67.153  1.00  0.00    -0.254 A  
HETATM   25  C   UNL     1      -8.577  19.834  66.282  1.00  0.00    -0.397 A  
HETATM   26  C   UNL     1      -9.915  19.625  65.970  1.00  0.00    -0.508 A  
HETATM   27  C   UNL     1     -10.571  18.486  66.439  1.00  0.00    -0.365 A  
HETATM   28  C   UNL     1      -9.916  17.604  67.312  1.00  0.00    -0.322 A  
BRANCH  28  29
HETATM   29  S   UNL     1     -10.579  15.934  67.418  1.00  0.00    -0.313 S  
HETATM   30  O   UNL     1     -11.543  15.810  66.336  1.00  0.00     0.142 OA 
HETATM   31  O   UNL     1      -9.413  15.064  67.408  1.00  0.00    -0.198 OA 
BRANCH  29  32
HETATM   32  C   UNL     1     -11.482  15.658  68.934  1.00  0.00    -0.361 C  
HETATM   33  C   UNL     1     -11.421  14.201  69.404  1.00  0.00    -0.337 C  
HETATM   34  C   UNL     1     -10.910  16.567  70.034  1.00  0.00    -0.258 C  
ENDBRANCH  29  32
ENDBRANCH  28  29
ENDBRANCH  21  23
ENDBRANCH  18  21
ENDBRANCH  12  14
ENDBRANCH   6  12
BRANCH  11  35
HETATM   35  C   UNL     1      -6.488   7.665  66.039  1.00  0.00    -0.042 C  
HETATM   36  C   UNL     1      -7.339   6.449  66.454  1.00  0.00    -0.081 C  
HETATM   37  C   UNL     1      -8.664   6.403  65.709  1.00  0.00    -0.127 C  
HETATM   38  N   UNL     1      -8.419   6.260  64.281  1.00  0.00    -0.344 NA 
HETATM   39  H   UNL     1      -9.286   6.111  63.767  1.00  0.00     0.000 HD 
HETATM   40  C   UNL     1      -7.669   7.397  63.749  1.00  0.00    -0.125 C  
HETATM   41  C   UNL     1      -6.366   7.659  64.497  1.00  0.00    -0.044 C  
ENDBRANCH  11  35
ENDBRANCH   4   5
ENDBRANCH   2   4
TORSDOF 9
ENDMDL
MODEL      228
REMARK 921   NORMALIZED FREE ENERGY PREDICTED BY IDOCK:   -2.95 KCAL/MOL
REMARK 922        TOTAL FREE ENERGY PREDICTED BY IDOCK:   -6.66 KCAL/MOL
REMARK 923 INTER-LIGAND FREE ENERGY PREDICTED BY IDOCK:   -6.21 KCAL/MOL
REMARK 924 INTRA-LIGAND FREE ENERGY PREDICTED BY IDOCK:   -0.45 KCAL/MOL
REMARK 927      BINDING AFFINITY PREDICTED BY RF-SCORE:    0.00 PKD
ROOT
HETATM    1  C   UNL     1      -7.302   3.468  65.933  1.00  0.00    -0.076 C  
HETATM    2  C   UNL     1      -7.724   3.619  67.394  1.00  0.00    -0.078 C  
HETATM    3  C   UNL     1      -7.270   2.385  68.181  1.00  0.00    -0.048 C  
ENDROOT
BRANCH   2   4
HETATM    4  O   UNL     1      -7.160   4.856  67.892  1.00  0.00    -0.060 OA 
BRANCH   4   5
HETATM    5  C   UNL     1      -7.960   5.609  68.727  1.00  0.00    -0.097 A  
HETATM    6  C   UNL     1      -8.104   7.003  68.635  1.00  0.00    -0.121 A  
HETATM    7  C   UNL     1     -10.868   7.677  71.123  1.00  0.00    -0.251 C  
HETATM    8  C   UNL     1      -9.179   7.570  69.316  1.00  0.00    -0.144 A  
HETATM    9  C   UNL     1      -8.696   4.871  69.694  1.00  0.00    -0.109 A  
HETATM   10  C   UNL     1      -9.919   6.860  70.281  1.00  0.00    -0.189 A  
HETATM   11  C   UNL     1      -9.678   5.479  70.505  1.00  0.00    -0.241 A  
BRANCH   6  12
HETATM   12  N   UNL     1      -7.317   7.846  67.827  1.00  0.00    -0.094 NA 
HETATM   13  H   UNL     1      -6.824   7.358  67.078  1.00  0.00     0.000 HD 
BRANCH  12  14
HETATM   14  C   UNL     1      -7.089   9.193  67.855  1.00  0.00    -0.079 A  
HETATM   15  N   UNL     1      -8.117  10.087  67.713  1.00  0.00    -0.109 NA 
HETATM   16  C   UNL     1      -5.590  10.936  67.732  1.00  0.00    -0.042 A  
HETATM   17  N   UNL     1      -5.833   9.580  67.827  1.00  0.00    -0.044 NA 
HETATM   18  C   UNL     1      -7.922  11.437  67.395  1.00  0.00    -0.139 A  
HETATM   19  C   UNL     1      -6.495  11.895  67.517  1.00  0.00    -0.111 A  
HETATM   20 CL   UNL     1      -6.079  13.545  67.293  1.00  0.00     0.123 Cl 
BRANCH  18  21
HETATM   21  N   UNL     1      -8.795  12.318  66.963  1.00  0.00    -0.200 NA 
HETATM   22  H   UNL     1      -8.703  12.709  66.026  1.00  0.00     0.000 HD 
BRANCH  21  23
HETATM   23  C   UNL     1      -9.851  12.719  67.789  1.00  0.00    -0.220 A  
HETATM   24  C   UNL     1     -10.502  11.759  68.579  1.00  0.00    -0.233 A  
HETATM   25  C   UNL     1     -11.768  12.002  69.100  1.00  0.00    -0.389 A  
HETATM   26  C   UNL     1     -12.362  13.242  68.901  1.00  0.00     0.046 A  
HETATM   27  C   UNL     1     -11.646  14.267  68.282  1.00  0.00    -0.358 A  
HETATM   28  C   UNL     1     -10.365  14.021  67.765  1.00  0.00    -0.236 A  
BRANCH  28  29
HETATM   29  S   UNL     1      -9.309  15.456  67.508  1.00  0.00    -0.205 S  
HETATM   30  O   UNL     1      -8.475  15.564  68.694  1.00  0.00    -0.155 OA 
HETATM   31  O   UNL     1      -8.663  15.223  66.227  1.00  0.00    -0.283 OA 
BRANCH  29  32
HETATM   32  C   UNL     1     -10.244  16.975  67.407  1.00  0.00    -0.314 C  
HETATM   33  C   UNL     1      -9.955  17.926  68.573  1.00  0.00    -0.379 C  
HETATM   34  C   UNL     1      -9.911  17.685  66.084  1.00  0.00    -0.281 C  
ENDBRANCH  29  32
ENDBRANCH  28  29
ENDBRANCH  21  23
ENDBRANCH  18  21
ENDBRANCH  12  14
ENDBRANCH   6  12
BRANCH  11  35
HETATM   35  C   UNL     1     -10.510   4.735  71.569  1.00  0.00    -0.142 C  
HETATM   36  C   UNL     1      -9.886   3.375  71.942  1.00  0.00    -0.238 C  
HETATM   37  C   UNL     1      -8.778   3.523  72.973  1.00  0.00    -0.093 C  
HETATM   38  N   UNL     1      -9.326   4.071  74.205  1.00  0.00    -0.105 NA 
HETATM   39  H   UNL     1      -8.632   4.075  74.952  1.00  0.00     0.000 HD 
HETATM   40  C   UNL     1      -9.894   5.402  73.996  1.00  0.00    -0.183 C  
HETATM   41  C   UNL     1     -10.932   5.442  72.878  1.00  0.00    -0.338 C  
ENDBRANCH  11  35
ENDBRANCH   4   5
ENDBRANCH   2   4
TORSDOF 9
ENDMDL
MODEL      229
REMARK 921   NORMALIZED FREE ENERGY PREDICTED BY IDOCK:   -2.76 KCAL/MOL
REMARK 922        TOTAL FREE ENERGY PREDICTED BY IDOCK:   -6.38 KCAL/MOL
REMARK 923 INTER-LIGAND FREE ENERGY PREDICTED BY IDOCK:   -6.05 KCAL/MOL
REMARK 924 INTRA-LIGAND FREE ENERGY PREDICTED BY IDOCK:   -0.32 KCAL/MOL
REMARK 927      BINDING AFFINITY PREDICTED BY RF-SCORE:    0.00 PKD
ROOT
HETATM    1  C   UNL     1     -12.400  11.550  69.531  1.00  0.00    -0.190 C  
HETATM    2  C   UNL     1     -11.203  10.815  70.135  1.00  0.00    -0.267 C  
HETATM    3  C   UNL     1     -11.630  10.146  71.445  1.00  0.00    -0.315 C  
ENDROOT
BRANCH   2   4
HETATM    4  O   UNL     1     -10.713   9.878  69.146  1.00  0.00    -0.210 OA 
BRANCH   4   5
HETATM    5  C   UNL     1     -10.374  10.398  67.914  1.00  0.00    -0.190 A  
HETATM    6  C   UNL     1     -10.432   9.677  66.710  1.00  0.00    -0.186 A  
HETATM    7  C   UNL     1      -9.728  12.364  64.146  1.00  0.00    -0.025 C  
HETATM    8  C   UNL     1     -10.381  10.418  65.531  1.00  0.00    -0.265 A  
HETATM    9  C   UNL     1      -9.990  11.768  67.916  1.00  0.00    -0.187 A  
HETATM   10  C   UNL     1     -10.000  11.774  65.509  1.00  0.00    -0.273 A  
HETATM   11  C   UNL     1      -9.777  12.482  66.718  1.00  0.00    -0.234 A  
BRANCH   6  12
HETATM   12  N   UNL     1     -10.647   8.290  66.608  1.00  0.00    -0.339 NA 
HETATM   13  H   UNL     1     -11.470   8.038  66.060  1.00  0.00     0.000 HD 
BRANCH  12  14
HETATM   14  C   UNL     1      -9.961   7.217  67.105  1.00  0.00    -0.209 A  
HETATM   15  N   UNL     1      -8.867   7.388  67.911  1.00  0.00    -0.133 NA 
HETATM   16  C   UNL     1      -9.513   4.960  67.020  1.00  0.00    -0.148 A  
HETATM   17  N   UNL     1     -10.279   6.037  66.619  1.00  0.00    -0.194 NA 
HETATM   18  C   UNL     1      -7.936   6.374  68.169  1.00  0.00    -0.109 A  
HETATM   19  C   UNL     1      -8.387   5.005  67.739  1.00  0.00    -0.105 A  
HETATM   20 CL   UNL     1      -7.440   3.617  68.085  1.00  0.00    -0.061 Cl 
BRANCH  18  21
HETATM   21  N   UNL     1      -6.729   6.470  68.675  1.00  0.00    -0.065 NA 
HETATM   22  H   UNL     1      -5.989   6.931  68.145  1.00  0.00     0.000 HD 
BRANCH  21  23
HETATM   23  C   UNL     1      -6.458   5.941  69.941  1.00  0.00    -0.038 A  
HETATM   24  C   UNL     1      -5.654   4.795  70.044  1.00  0.00    -0.012 A  
HETATM   25  C   UNL     1      -5.671   4.011  71.192  1.00  0.00    -0.013 A  
HETATM   26  C   UNL     1      -6.435   4.411  72.281  1.00  0.00    -0.022 A  
HETATM   27  C   UNL     1      -7.086   5.645  72.261  1.00  0.00    -0.087 A  
HETATM   28  C   UNL     1      -7.060   6.438  71.104  1.00  0.00    -0.077 A  
BRANCH  28  29
HETATM   29  S   UNL     1      -7.410   8.191  71.318  1.00  0.00    -0.079 S  
HETATM   30  O   UNL     1      -8.550   8.484  70.463  1.00  0.00    -0.130 OA 
HETATM   31  O   UNL     1      -7.557   8.372  72.753  1.00  0.00    -0.207 OA 
BRANCH  29  32
HETATM   32  C   UNL     1      -6.071   9.225  70.747  1.00  0.00    -0.062 C  
HETATM   33  C   UNL     1      -6.560  10.529  70.110  1.00  0.00    -0.149 C  
HETATM   34  C   UNL     1      -5.150   9.558  71.932  1.00  0.00    -0.073 C  
ENDBRANCH  29  32
ENDBRANCH  28  29
ENDBRANCH  21  23
ENDBRANCH  18  21
ENDBRANCH  12  14
ENDBRANCH   6  12
BRANCH  11  35
HETATM   35  C   UNL     1      -9.361  13.966  66.653  1.00  0.00    -0.282 C  
HETATM   36  C   UNL     1     -10.527  14.908  67.016  1.00  0.00    -0.272 C  
HETATM   37  C   UNL     1     -10.683  15.063  68.520  1.00  0.00    -0.244 C  
HETATM   38  N   UNL     1      -9.483  15.667  69.078  1.00  0.00    -0.225 NA 
HETATM   39  H   UNL     1      -9.601  15.889  70.066  1.00  0.00     0.000 HD 
HETATM   40  C   UNL     1      -8.306  14.829  68.856  1.00  0.00    -0.163 C  
HETATM   41  C   UNL     1      -8.096  14.466  67.389  1.00  0.00    -0.217 C  
ENDBRANCH  11  35
ENDBRANCH   4   5
ENDBRANCH   2   4
TORSDOF 9
ENDMDL
MODEL      230
REMARK 921   NORMALIZED FREE ENERGY PREDICTED BY IDOCK:   -2.75 KCAL/MOL
REMARK 922        TOTAL FREE ENERGY PREDICTED BY IDOCK:   -6.36 KCAL/MOL
REMARK 923 INTER-LIGAND FREE ENERGY PREDICTED BY IDOCK:   -6.08 KCAL/MOL
REMARK 924 INTRA-LIGAND FREE ENERGY PREDICTED BY IDOCK:   -0.28 KCAL/MOL
REMARK 927      BINDING AFFINITY PREDICTED BY RF-SCORE:    0.00 PKD
ROOT
HETATM    1  C   UNL     1      -8.475   5.541  73.433  1.00  0.00    -0.116 C  
HETATM    2  C   UNL     1      -9.981   5.658  73.207  1.00  0.00    -0.177 C  
HETATM    3  C   UNL     1     -10.535   6.797  74.071  1.00  0.00    -0.302 C  
ENDROOT
BRANCH   2   4
HETATM    4  O   UNL     1     -10.204   5.854  71.790  1.00  0.00    -0.193 OA 
BRANCH   4   5
HETATM    5  C   UNL     1      -9.093   5.794  70.975  1.00  0.00    -0.146 A  
HETATM    6  C   UNL     1      -8.217   6.870  70.754  1.00  0.00    -0.122 A  
HETATM    7  C   UNL     1      -5.441   5.236  68.778  1.00  0.00    -0.007 C  
HETATM    8  C   UNL     1      -6.982   6.568  70.184  1.00  0.00    -0.063 A  
HETATM    9  C   UNL     1      -8.841   4.527  70.380  1.00  0.00    -0.129 A  
HETATM   10  C   UNL     1      -6.712   5.322  69.586  1.00  0.00    -0.051 A  
HETATM   11  C   UNL     1      -7.657   4.266  69.659  1.00  0.00    -0.054 A  
BRANCH   6  12
HETATM   12  N   UNL     1      -8.449   8.198  71.161  1.00  0.00    -0.120 NA 
HETATM   13  H   UNL     1      -8.831   8.280  72.104  1.00  0.00     0.000 HD 
BRANCH  12  14
HETATM   14  C   UNL     1      -8.259   9.397  70.534  1.00  0.00    -0.189 A  
HETATM   15  N   UNL     1      -9.276  10.003  69.844  1.00  0.00    -0.200 NA 
HETATM   16  C   UNL     1      -6.799  10.981  69.722  1.00  0.00    -0.116 A  
HETATM   17  N   UNL     1      -7.021   9.834  70.458  1.00  0.00    -0.163 NA 
HETATM   18  C   UNL     1      -9.068  11.030  68.915  1.00  0.00    -0.123 A  
HETATM   19  C   UNL     1      -7.685  11.619  68.952  1.00  0.00    -0.065 A  
HETATM   20 CL   UNL     1      -7.278  12.971  67.977  1.00  0.00    -0.103 Cl 
BRANCH  18  21
HETATM   21  N   UNL     1      -9.888  11.495  68.002  1.00  0.00    -0.182 NA 
HETATM   22  H   UNL     1     -10.019  10.987  67.127  1.00  0.00     0.000 HD 
BRANCH  21  23
HETATM   23  C   UNL     1     -10.583  12.688  68.229  1.00  0.00    -0.237 A  
HETATM   24  C   UNL     1     -10.882  13.063  69.548  1.00  0.00     0.139 A  
HETATM   25  C   UNL     1     -11.879  13.993  69.818  1.00  0.00    -0.385 A  
HETATM   26  C   UNL     1     -12.534  14.618  68.763  1.00  0.00     0.109 A  
HETATM   27  C   UNL     1     -12.115  14.395  67.452  1.00  0.00    -0.348 A  
HETATM   28  C   UNL     1     -11.102  13.462  67.184  1.00  0.00    -0.286 A  
BRANCH  28  29
HETATM   29  S   UNL     1     -10.245  13.631  65.610  1.00  0.00    -0.294 S  
HETATM   30  O   UNL     1      -9.438  14.837  65.715  1.00  0.00    -0.290 OA 
HETATM   31  O   UNL     1      -9.567  12.361  65.411  1.00  0.00    -0.163 OA 
BRANCH  29  32
HETATM   32  C   UNL     1     -11.371  13.896  64.249  1.00  0.00    -0.294 C  
HETATM   33  C   UNL     1     -12.480  12.841  64.185  1.00  0.00    -0.450 C  
HETATM   34  C   UNL     1     -12.008  15.289  64.385  1.00  0.00    -0.285 C  
ENDBRANCH  29  32
ENDBRANCH  28  29
ENDBRANCH  21  23
ENDBRANCH  18  21
ENDBRANCH  12  14
ENDBRANCH   6  12
BRANCH  11  35
HETATM   35  C   UNL     1      -7.324   2.915  68.993  1.00  0.00    -0.048 C  
HETATM   36  C   UNL     1      -8.229   1.779  69.510  1.00  0.00    -0.064 C  
HETATM   37  C   UNL     1      -9.570   1.752  68.795  1.00  0.00    -0.079 C  
HETATM   38  N   UNL     1      -9.365   1.495  67.377  1.00  0.00    -0.321 NA 
HETATM   39  H   UNL     1     -10.251   1.358  66.891  1.00  0.00     0.000 HD 
HETATM   40  C   UNL     1      -8.569   2.549  66.750  1.00  0.00    -0.112 C  
HETATM   41  C   UNL     1      -7.237   2.793  67.454  1.00  0.00    -0.053 C  
ENDBRANCH  11  35
ENDBRANCH   4   5
ENDBRANCH   2   4
TORSDOF 9
ENDMDL
MODEL      231
REMARK 921   NORMALIZED FREE ENERGY PREDICTED BY IDOCK:   -2.65 KCAL/MOL
REMARK 922        TOTAL FREE ENERGY PREDICTED BY IDOCK:   -6.22 KCAL/MOL
REMARK 923 INTER-LIGAND FREE ENERGY PREDICTED BY IDOCK:   -4.46 KCAL/MOL
REMARK 924 INTRA-LIGAND FREE ENERGY PREDICTED BY IDOCK:   -1.76 KCAL/MOL
REMARK 927      BINDING AFFINITY PREDICTED BY RF-SCORE:    0.00 PKD
ROOT
HETATM    1  C   UNL     1     -11.601   9.542  71.359  1.00  0.00    -0.466 C  
HETATM    2  C   UNL     1     -10.531   8.466  71.540  1.00  0.00    -0.239 C  
HETATM    3  C   UNL     1     -11.148   7.255  72.248  1.00  0.00    -0.298 C  
ENDROOT
BRANCH   2   4
HETATM    4  O   UNL     1      -9.992   8.153  70.234  1.00  0.00    -0.187 OA 
BRANCH   4   5
HETATM    5  C   UNL     1      -8.761   7.532  70.205  1.00  0.00    -0.142 A  
HETATM    6  C   UNL     1      -7.570   8.117  70.667  1.00  0.00    -0.073 A  
HETATM    7  C   UNL     1      -5.138   5.231  70.454  1.00  0.00    -0.004 C  
HETATM    8  C   UNL     1      -6.490   7.261  70.878  1.00  0.00    -0.043 A  
HETATM    9  C   UNL     1      -8.763   6.199  69.706  1.00  0.00    -0.135 A  
HETATM   10  C   UNL     1      -6.469   5.941  70.389  1.00  0.00    -0.036 A  
HETATM   11  C   UNL     1      -7.616   5.380  69.770  1.00  0.00    -0.070 A  
BRANCH   6  12
HETATM   12  N   UNL     1      -7.423   9.468  71.034  1.00  0.00    -0.327 NA 
HETATM   13  H   UNL     1      -7.563   9.644  72.030  1.00  0.00     0.000 HD 
BRANCH  12  14
HETATM   14  C   UNL     1      -7.127  10.588  70.310  1.00  0.00     0.030 A  
HETATM   15  N   UNL     1      -7.581  10.740  69.026  1.00  0.00    -0.116 NA 
HETATM   16  C   UNL     1      -5.838  12.478  70.051  1.00  0.00    -0.150 A  
HETATM   17  N   UNL     1      -6.237  11.407  70.826  1.00  0.00    -0.292 NA 
HETATM   18  C   UNL     1      -7.047  11.674  68.129  1.00  0.00    -0.078 A  
HETATM   19  C   UNL     1      -6.149  12.696  68.770  1.00  0.00    -0.071 A  
HETATM   20 CL   UNL     1      -5.503  13.997  67.856  1.00  0.00    -0.110 Cl 
BRANCH  18  21
HETATM   21  N   UNL     1      -7.184  11.737  66.825  1.00  0.00    -0.326 NA 
HETATM   22  H   UNL     1      -6.373  11.926  66.235  1.00  0.00     0.000 HD 
BRANCH  21  23
HETATM   23  C   UNL     1      -8.443  11.545  66.244  1.00  0.00    -0.108 A  
HETATM   24  C   UNL     1      -9.301  12.646  66.096  1.00  0.00    -0.117 A  
HETATM   25  C   UNL     1     -10.666  12.467  65.904  1.00  0.00    -0.299 A  
HETATM   26  C   UNL     1     -11.175  11.180  65.778  1.00  0.00    -0.001 A  
HETATM   27  C   UNL     1     -10.307  10.088  65.731  1.00  0.00    -0.191 A  
HETATM   28  C   UNL     1      -8.929  10.274  65.917  1.00  0.00    -0.158 A  
BRANCH  28  29
HETATM   29  S   UNL     1      -7.849   8.972  65.301  1.00  0.00    -0.107 S  
HETATM   30  O   UNL     1      -7.503   8.153  66.451  1.00  0.00    -0.084 OA 
HETATM   31  O   UNL     1      -8.587   8.356  64.210  1.00  0.00    -0.079 OA 
BRANCH  29  32
HETATM   32  C   UNL     1      -6.312   9.615  64.657  1.00  0.00    -0.091 C  
HETATM   33  C   UNL     1      -5.307   8.511  64.313  1.00  0.00    -0.048 C  
HETATM   34  C   UNL     1      -6.601  10.443  63.394  1.00  0.00    -0.055 C  
ENDBRANCH  29  32
ENDBRANCH  28  29
ENDBRANCH  21  23
ENDBRANCH  18  21
ENDBRANCH  12  14
ENDBRANCH   6  12
BRANCH  11  35
HETATM   35  C   UNL     1      -7.554   3.930  69.248  1.00  0.00    -0.053 C  
HETATM   36  C   UNL     1      -7.273   2.922  70.381  1.00  0.00    -0.033 C  
HETATM   37  C   UNL     1      -8.539   2.550  71.136  1.00  0.00    -0.063 C  
HETATM   38  N   UNL     1      -9.475   1.897  70.232  1.00  0.00    -0.100 NA 
HETATM   39  H   UNL     1     -10.286   1.534  70.733  1.00  0.00     0.000 HD 
HETATM   40  C   UNL     1      -9.875   2.784  69.140  1.00  0.00     0.396 C  
HETATM   41  C   UNL     1      -8.689   3.357  68.369  1.00  0.00    -0.137 C  
ENDBRANCH  11  35
ENDBRANCH   4   5
ENDBRANCH   2   4
TORSDOF 9
ENDMDL
MODEL      232
REMARK 921   NORMALIZED FREE ENERGY PREDICTED BY IDOCK:   -2.57 KCAL/MOL
REMARK 922        TOTAL FREE ENERGY PREDICTED BY IDOCK:   -6.09 KCAL/MOL
REMARK 923 INTER-LIGAND FREE ENERGY PREDICTED BY IDOCK:   -5.35 KCAL/MOL
REMARK 924 INTRA-LIGAND FREE ENERGY PREDICTED BY IDOCK:   -0.73 KCAL/MOL
REMARK 927      BINDING AFFINITY PREDICTED BY RF-SCORE:    0.00 PKD
ROOT
HETATM    1  C   UNL     1     -12.268  14.297  65.242  1.00  0.00    -0.414 C  
HETATM    2  C   UNL     1     -12.418  12.776  65.219  1.00  0.00    -0.465 C  
HETATM    3  C   UNL     1     -11.721  12.218  63.974  1.00  0.00    -0.506 C  
ENDROOT
BRANCH   2   4
HETATM    4  O   UNL     1     -11.879  12.259  66.459  1.00  0.00    -0.539 OA 
BRANCH   4   5
HETATM    5  C   UNL     1     -11.229  13.160  67.276  1.00  0.00    -0.287 A  
HETATM    6  C   UNL     1      -9.886  13.543  67.118  1.00  0.00    -0.245 A  
HETATM    7  C   UNL     1      -9.559  16.336  69.643  1.00  0.00     0.007 C  
HETATM    8  C   UNL     1      -9.475  14.687  67.798  1.00  0.00    -0.205 A  
HETATM    9  C   UNL     1     -12.028  13.742  68.299  1.00  0.00    -0.392 A  
HETATM   10  C   UNL     1     -10.248  15.277  68.817  1.00  0.00    -0.227 A  
HETATM   11  C   UNL     1     -11.553  14.798  69.104  1.00  0.00    -0.330 A  
BRANCH   6  12
HETATM   12  N   UNL     1      -8.967  12.927  66.247  1.00  0.00    -0.439 NA 
HETATM   13  H   UNL     1      -8.827  13.429  65.371  1.00  0.00     0.000 HD 
BRANCH  12  14
HETATM   14  C   UNL     1      -8.227  11.783  66.355  1.00  0.00    -0.006 A  
HETATM   15  N   UNL     1      -8.630  10.754  67.165  1.00  0.00    -0.128 NA 
HETATM   16  C   UNL     1      -6.227  10.696  66.010  1.00  0.00    -0.134 A  
HETATM   17  N   UNL     1      -7.033  11.798  65.805  1.00  0.00     0.815 NA 
HETATM   18  C   UNL     1      -7.775   9.725  67.581  1.00  0.00    -0.094 A  
HETATM   19  C   UNL     1      -6.473   9.670  66.831  1.00  0.00    -0.067 A  
HETATM   20 CL   UNL     1      -5.351   8.402  67.109  1.00  0.00    -0.036 Cl 
BRANCH  18  21
HETATM   21  N   UNL     1      -7.939   8.857  68.552  1.00  0.00    -0.103 NA 
HETATM   22  H   UNL     1      -8.410   7.971  68.371  1.00  0.00     0.000 HD 
BRANCH  21  23
HETATM   23  C   UNL     1      -7.468   9.150  69.837  1.00  0.00    -0.070 A  
HETATM   24  C   UNL     1      -7.188  10.483  70.174  1.00  0.00    -0.025 A  
HETATM   25  C   UNL     1      -6.370  10.790  71.255  1.00  0.00     0.767 A  
HETATM   26  C   UNL     1      -5.887   9.765  72.060  1.00  0.00     0.188 A  
HETATM   27  C   UNL     1      -6.314   8.454  71.848  1.00  0.00    -0.064 A  
HETATM   28  C   UNL     1      -7.146   8.149  70.761  1.00  0.00    -0.049 A  
BRANCH  28  29
HETATM   29  S   UNL     1      -8.087   6.617  70.870  1.00  0.00    -0.120 S  
HETATM   30  O   UNL     1      -8.066   6.227  72.271  1.00  0.00    -0.108 OA 
HETATM   31  O   UNL     1      -9.369   6.918  70.254  1.00  0.00    -0.162 OA 
BRANCH  29  32
HETATM   32  C   UNL     1      -7.318   5.284  69.964  1.00  0.00    -0.064 C  
HETATM   33  C   UNL     1      -6.470   4.373  70.856  1.00  0.00    -0.030 C  
HETATM   34  C   UNL     1      -8.409   4.444  69.279  1.00  0.00    -0.083 C  
ENDBRANCH  29  32
ENDBRANCH  28  29
ENDBRANCH  21  23
ENDBRANCH  18  21
ENDBRANCH  12  14
ENDBRANCH   6  12
BRANCH  11  35
HETATM   35  C   UNL     1     -12.369  15.471  70.227  1.00  0.00    -0.431 C  
HETATM   36  C   UNL     1     -13.528  14.577  70.710  1.00  0.00    -0.160 C  
HETATM   37  C   UNL     1     -13.064  13.546  71.725  1.00  0.00    -0.387 C  
HETATM   38  N   UNL     1     -12.547  14.219  72.908  1.00  0.00    -0.266 NA 
HETATM   39  H   UNL     1     -12.334  13.555  73.652  1.00  0.00     0.000 HD 
HETATM   40  C   UNL     1     -11.390  15.054  72.589  1.00  0.00     0.056 C  
HETATM   41  C   UNL     1     -11.665  16.057  71.473  1.00  0.00    -0.554 C  
ENDBRANCH  11  35
ENDBRANCH   4   5
ENDBRANCH   2   4
TORSDOF 9
ENDMDL
MODEL      233
REMARK 921   NORMALIZED FREE ENERGY PREDICTED BY IDOCK:   -2.55 KCAL/MOL
REMARK 922        TOTAL FREE ENERGY PREDICTED BY IDOCK:   -6.06 KCAL/MOL
REMARK 923 INTER-LIGAND FREE ENERGY PREDICTED BY IDOCK:   -6.42 KCAL/MOL
REMARK 924 INTRA-LIGAND FREE ENERGY PREDICTED BY IDOCK:    0.36 KCAL/MOL
REMARK 927      BINDING AFFINITY PREDICTED BY RF-SCORE:    0.00 PKD
ROOT
HETATM    1  C   UNL     1     -10.740   9.955  67.057  1.00  0.00    -0.237 C  
HETATM    2  C   UNL     1      -9.361   9.307  66.949  1.00  0.00    -0.151 C  
HETATM    3  C   UNL     1      -9.078   8.964  65.482  1.00  0.00    -0.248 C  
ENDROOT
BRANCH   2   4
HETATM    4  O   UNL     1      -8.395  10.221  67.520  1.00  0.00    -0.114 OA 
BRANCH   4   5
HETATM    5  C   UNL     1      -7.768   9.814  68.680  1.00  0.00    -0.080 A  
HETATM    6  C   UNL     1      -6.809  10.577  69.367  1.00  0.00    -0.088 A  
HETATM    7  C   UNL     1      -6.306   8.554  72.520  1.00  0.00    -0.090 C  
HETATM    8  C   UNL     1      -6.518  10.190  70.674  1.00  0.00    -0.086 A  
HETATM    9  C   UNL     1      -8.189   8.556  69.190  1.00  0.00    -0.119 A  
HETATM   10  C   UNL     1      -6.921   8.947  71.199  1.00  0.00    -0.089 A  
HETATM   11  C   UNL     1      -7.763   8.084  70.450  1.00  0.00    -0.085 A  
BRANCH   6  12
HETATM   12  N   UNL     1      -6.210  11.754  68.879  1.00  0.00    -0.054 NA 
HETATM   13  H   UNL     1      -5.590  11.603  68.082  1.00  0.00     0.000 HD 
BRANCH  12  14
HETATM   14  C   UNL     1      -6.303  13.060  69.269  1.00  0.00    -0.107 A  
HETATM   15  N   UNL     1      -7.521  13.668  69.422  1.00  0.00     0.188 NA 
HETATM   16  C   UNL     1      -5.277  15.099  69.571  1.00  0.00    -0.089 A  
HETATM   17  N   UNL     1      -5.183  13.749  69.298  1.00  0.00    -0.081 NA 
HETATM   18  C   UNL     1      -7.684  15.058  69.482  1.00  0.00    -0.168 A  
HETATM   19  C   UNL     1      -6.400  15.817  69.667  1.00  0.00    -0.178 A  
HETATM   20 CL   UNL     1      -6.408  17.518  69.892  1.00  0.00    -0.131 Cl 
BRANCH  18  21
HETATM   21  N   UNL     1      -8.780  15.767  69.346  1.00  0.00    -0.258 NA 
HETATM   22  H   UNL     1      -9.357  15.975  70.161  1.00  0.00     0.000 HD 
BRANCH  21  23
HETATM   23  C   UNL     1      -9.157  16.236  68.083  1.00  0.00    -0.188 A  
HETATM   24  C   UNL     1      -8.643  17.460  67.628  1.00  0.00    -0.217 A  
HETATM   25  C   UNL     1      -9.261  18.156  66.596  1.00  0.00    -0.295 A  
HETATM   26  C   UNL     1     -10.357  17.593  65.953  1.00  0.00    -0.261 A  
HETATM   27  C   UNL     1     -10.759  16.295  66.268  1.00  0.00    -0.185 A  
HETATM   28  C   UNL     1     -10.127  15.592  67.305  1.00  0.00    -0.255 A  
BRANCH  28  29
HETATM   29  S   UNL     1     -10.291  13.800  67.283  1.00  0.00    -0.254 S  
HETATM   30  O   UNL     1     -11.383  13.504  66.368  1.00  0.00    -0.303 OA 
HETATM   31  O   UNL     1      -8.964  13.304  66.958  1.00  0.00    -0.220 OA 
BRANCH  29  32
HETATM   32  C   UNL     1     -10.772  13.143  68.873  1.00  0.00    -0.169 C  
HETATM   33  C   UNL     1     -11.994  13.855  69.462  1.00  0.00    -0.396 C  
HETATM   34  C   UNL     1     -11.085  11.645  68.725  1.00  0.00    -0.283 C  
ENDBRANCH  29  32
ENDBRANCH  28  29
ENDBRANCH  21  23
ENDBRANCH  18  21
ENDBRANCH  12  14
ENDBRANCH   6  12
BRANCH  11  35
HETATM   35  C   UNL     1      -8.184   6.731  71.060  1.00  0.00    -0.119 C  
HETATM   36  C   UNL     1      -9.116   6.912  72.275  1.00  0.00    -0.143 C  
HETATM   37  C   UNL     1     -10.562   7.122  71.853  1.00  0.00    -0.213 C  
HETATM   38  N   UNL     1     -11.042   5.946  71.143  1.00  0.00    -0.264 NA 
HETATM   39  H   UNL     1     -12.041   6.009  70.947  1.00  0.00     0.000 HD 
HETATM   40  C   UNL     1     -10.273   5.704  69.922  1.00  0.00    -0.250 C  
HETATM   41  C   UNL     1      -8.770   5.611  70.169  1.00  0.00    -0.140 C  
ENDBRANCH  11  35
ENDBRANCH   4   5
ENDBRANCH   2   4
TORSDOF 9
ENDMDL
MODEL      234
REMARK 921   NORMALIZED FREE ENERGY PREDICTED BY IDOCK:   -2.46 KCAL/MOL
REMARK 922        TOTAL FREE ENERGY PREDICTED BY IDOCK:   -5.92 KCAL/MOL
REMARK 923 INTER-LIGAND FREE ENERGY PREDICTED BY IDOCK:   -6.43 KCAL/MOL
REMARK 924 INTRA-LIGAND FREE ENERGY PREDICTED BY IDOCK:    0.51 KCAL/MOL
REMARK 927      BINDING AFFINITY PREDICTED BY RF-SCORE:    0.00 PKD
ROOT
HETATM    1  C   UNL     1      -5.409   8.626  70.070  1.00  0.00    -0.028 C  
HETATM    2  C   UNL     1      -6.129   9.717  70.862  1.00  0.00    -0.089 C  
HETATM    3  C   UNL     1      -5.130  10.822  71.222  1.00  0.00    -0.096 C  
ENDROOT
BRANCH   2   4
HETATM    4  O   UNL     1      -7.239  10.188  70.060  1.00  0.00    -0.136 OA 
BRANCH   4   5
HETATM    5  C   UNL     1      -8.280   9.304  69.864  1.00  0.00    -0.145 A  
HETATM    6  C   UNL     1      -9.560   9.678  69.423  1.00  0.00    -0.191 A  
HETATM    7  C   UNL     1     -11.215   6.326  68.870  1.00  0.00    -0.387 C  
HETATM    8  C   UNL     1     -10.388   8.657  68.961  1.00  0.00    -0.226 A  
HETATM    9  C   UNL     1      -7.969   7.936  70.096  1.00  0.00    -0.107 A  
HETATM   10  C   UNL     1     -10.103   7.296  69.183  1.00  0.00    -0.183 A  
HETATM   11  C   UNL     1      -8.876   6.903  69.779  1.00  0.00    -0.141 A  
BRANCH   6  12
HETATM   12  N   UNL     1     -10.021  11.004  69.311  1.00  0.00    -0.406 NA 
HETATM   13  H   UNL     1     -10.012  11.520  70.191  1.00  0.00     0.000 HD 
BRANCH  12  14
HETATM   14  C   UNL     1     -10.478  11.729  68.247  1.00  0.00    -0.206 A  
HETATM   15  N   UNL     1      -9.608  12.320  67.369  1.00  0.00    -0.177 NA 
HETATM   16  C   UNL     1     -12.221  12.826  67.220  1.00  0.00     0.026 A  
HETATM   17  N   UNL     1     -11.766  11.993  68.221  1.00  0.00    -0.344 NA 
HETATM   18  C   UNL     1      -9.986  13.335  66.481  1.00  0.00    -0.280 A  
HETATM   19  C   UNL     1     -11.473  13.517  66.354  1.00  0.00    -0.331 A  
HETATM   20 CL   UNL     1     -12.131  14.623  65.219  1.00  0.00    -0.318 Cl 
BRANCH  18  21
HETATM   21  N   UNL     1      -9.226  14.164  65.803  1.00  0.00    -0.474 NA 
HETATM   22  H   UNL     1      -8.726  13.837  64.976  1.00  0.00     0.000 HD 
BRANCH  21  23
HETATM   23  C   UNL     1      -9.101  15.495  66.216  1.00  0.00    -0.334 A  
HETATM   24  C   UNL     1     -10.157  16.387  65.973  1.00  0.00    -0.373 A  
HETATM   25  C   UNL     1      -9.951  17.761  65.994  1.00  0.00    -0.219 A  
HETATM   26  C   UNL     1      -8.700  18.259  66.338  1.00  0.00    -0.260 A  
HETATM   27  C   UNL     1      -7.697  17.390  66.766  1.00  0.00    -0.273 A  
HETATM   28  C   UNL     1      -7.912  16.003  66.752  1.00  0.00    -0.267 A  
BRANCH  28  29
HETATM   29  S   UNL     1      -6.845  15.011  67.810  1.00  0.00    -0.181 S  
HETATM   30  O   UNL     1      -6.487  13.834  67.035  1.00  0.00    -0.036 OA 
HETATM   31  O   UNL     1      -5.784  15.913  68.227  1.00  0.00    -0.099 OA 
BRANCH  29  32
HETATM   32  C   UNL     1      -7.695  14.419  69.265  1.00  0.00    -0.002 C  
HETATM   33  C   UNL     1      -6.738  13.863  70.325  1.00  0.00     0.189 C  
HETATM   34  C   UNL     1      -8.510  15.570  69.877  1.00  0.00     0.196 C  
ENDBRANCH  29  32
ENDBRANCH  28  29
ENDBRANCH  21  23
ENDBRANCH  18  21
ENDBRANCH  12  14
ENDBRANCH   6  12
BRANCH  11  35
HETATM   35  C   UNL     1      -8.599   5.402  70.005  1.00  0.00    -0.124 C  
HETATM   36  C   UNL     1      -9.139   4.536  68.849  1.00  0.00    -0.171 C  
HETATM   37  C   UNL     1      -8.175   4.493  67.675  1.00  0.00    -0.099 C  
HETATM   38  N   UNL     1      -6.922   3.881  68.091  1.00  0.00    -0.050 NA 
HETATM   39  H   UNL     1      -6.297   3.734  67.299  1.00  0.00     0.000 HD 
HETATM   40  C   UNL     1      -6.271   4.654  69.148  1.00  0.00    -0.031 C  
HETATM   41  C   UNL     1      -7.176   4.905  70.351  1.00  0.00    -0.054 C  
ENDBRANCH  11  35
ENDBRANCH   4   5
ENDBRANCH   2   4
TORSDOF 9
ENDMDL
MODEL      235
REMARK 921   NORMALIZED FREE ENERGY PREDICTED BY IDOCK:   -2.41 KCAL/MOL
REMARK 922        TOTAL FREE ENERGY PREDICTED BY IDOCK:   -5.85 KCAL/MOL
REMARK 923 INTER-LIGAND FREE ENERGY PREDICTED BY IDOCK:   -7.28 KCAL/MOL
REMARK 924 INTRA-LIGAND FREE ENERGY PREDICTED BY IDOCK:    1.43 KCAL/MOL
REMARK 927      BINDING AFFINITY PREDICTED BY RF-SCORE:    0.00 PKD
ROOT
HETATM    1  C   UNL     1      -9.028   5.885  73.297  1.00  0.00    -0.130 C  
HETATM    2  C   UNL     1      -9.972   6.447  72.234  1.00  0.00    -0.164 C  
HETATM    3  C   UNL     1     -10.855   7.529  72.863  1.00  0.00    -0.425 C  
ENDROOT
BRANCH   2   4
HETATM    4  O   UNL     1      -9.164   6.933  71.136  1.00  0.00    -0.154 OA 
BRANCH   4   5
HETATM    5  C   UNL     1      -9.483   6.467  69.878  1.00  0.00    -0.155 A  
HETATM    6  C   UNL     1      -9.908   7.285  68.818  1.00  0.00    -0.161 A  
HETATM    7  C   UNL     1      -9.962   4.858  65.921  1.00  0.00    -0.222 C  
HETATM    8  C   UNL     1      -9.873   6.727  67.541  1.00  0.00    -0.164 A  
HETATM    9  C   UNL     1      -9.311   5.068  69.685  1.00  0.00    -0.184 A  
HETATM   10  C   UNL     1      -9.708   5.345  67.327  1.00  0.00    -0.157 A  
HETATM   11  C   UNL     1      -9.436   4.473  68.412  1.00  0.00    -0.209 A  
BRANCH   6  12
HETATM   12  N   UNL     1     -10.258   8.643  68.935  1.00  0.00    -0.204 NA 
HETATM   13  H   UNL     1     -11.263   8.808  68.997  1.00  0.00     0.000 HD 
BRANCH  12  14
HETATM   14  C   UNL     1      -9.506   9.783  68.982  1.00  0.00    -0.173 A  
HETATM   15  N   UNL     1      -9.971  10.960  68.456  1.00  0.00    -0.175 NA 
HETATM   16  C   UNL     1      -7.452  10.771  69.307  1.00  0.00    -0.135 A  
HETATM   17  N   UNL     1      -8.257   9.651  69.371  1.00  0.00    -0.119 NA 
HETATM   18  C   UNL     1      -9.143  12.052  68.166  1.00  0.00    -0.191 A  
HETATM   19  C   UNL     1      -7.763  11.947  68.752  1.00  0.00    -0.074 A  
HETATM   20 CL   UNL     1      -6.647  13.243  68.614  1.00  0.00    -0.084 Cl 
BRANCH  18  21
HETATM   21  N   UNL     1      -9.395  13.104  67.423  1.00  0.00    -0.205 NA 
HETATM   22  H   UNL     1      -8.638  13.734  67.157  1.00  0.00     0.000 HD 
BRANCH  21  23
HETATM   23  C   UNL     1     -10.703  13.361  66.995  1.00  0.00    -0.268 A  
HETATM   24  C   UNL     1     -11.411  12.354  66.321  1.00  0.00    -0.388 A  
HETATM   25  C   UNL     1     -12.522  12.660  65.544  1.00  0.00    -0.345 A  
HETATM   26  C   UNL     1     -12.985  13.969  65.499  1.00  0.00    -0.353 A  
HETATM   27  C   UNL     1     -12.405  14.942  66.315  1.00  0.00     0.214 A  
HETATM   28  C   UNL     1     -11.289  14.628  67.104  1.00  0.00    -0.356 A  
BRANCH  28  29
HETATM   29  S   UNL     1     -10.958  15.712  68.502  1.00  0.00    -0.322 S  
HETATM   30  O   UNL     1     -12.121  15.619  69.371  1.00  0.00    -0.356 OA 
HETATM   31  O   UNL     1      -9.672  15.277  69.020  1.00  0.00    -0.210 OA 
BRANCH  29  32
HETATM   32  C   UNL     1     -10.828  17.426  68.016  1.00  0.00    -0.281 C  
HETATM   33  C   UNL     1      -9.981  18.254  68.987  1.00  0.00    -0.293 C  
HETATM   34  C   UNL     1     -10.207  17.505  66.612  1.00  0.00    -0.332 C  
ENDBRANCH  29  32
ENDBRANCH  28  29
ENDBRANCH  21  23
ENDBRANCH  18  21
ENDBRANCH  12  14
ENDBRANCH   6  12
BRANCH  11  35
HETATM   35  C   UNL     1      -9.261   2.965  68.137  1.00  0.00    -0.248 C  
HETATM   36  C   UNL     1      -9.295   2.647  66.629  1.00  0.00    -0.026 C  
HETATM   37  C   UNL     1      -7.945   2.880  65.970  1.00  0.00    -0.082 C  
HETATM   38  N   UNL     1      -6.954   1.986  66.553  1.00  0.00    -0.043 NA 
HETATM   39  H   UNL     1      -6.066   2.038  66.054  1.00  0.00     0.000 HD 
HETATM   40  C   UNL     1      -6.779   2.237  67.982  1.00  0.00    -0.036 C  
HETATM   41  C   UNL     1      -8.088   2.178  68.766  1.00  0.00    -0.066 C  
ENDBRANCH  11  35
ENDBRANCH   4   5
ENDBRANCH   2   4
TORSDOF 9
ENDMDL
MODEL      236
REMARK 921   NORMALIZED FREE ENERGY PREDICTED BY IDOCK:   -2.40 KCAL/MOL
REMARK 922        TOTAL FREE ENERGY PREDICTED BY IDOCK:   -5.83 KCAL/MOL
REMARK 923 INTER-LIGAND FREE ENERGY PREDICTED BY IDOCK:   -6.79 KCAL/MOL
REMARK 924 INTRA-LIGAND FREE ENERGY PREDICTED BY IDOCK:    0.96 KCAL/MOL
REMARK 927      BINDING AFFINITY PREDICTED BY RF-SCORE:    0.00 PKD
ROOT
HETATM    1  C   UNL     1      -8.426   5.812  72.732  1.00  0.00    -0.119 C  
HETATM    2  C   UNL     1      -8.718   5.501  71.265  1.00  0.00    -0.131 C  
HETATM    3  C   UNL     1      -9.802   4.422  71.183  1.00  0.00    -0.258 C  
ENDROOT
BRANCH   2   4
HETATM    4  O   UNL     1      -9.091   6.739  70.614  1.00  0.00    -0.154 OA 
BRANCH   4   5
HETATM    5  C   UNL     1      -8.821   6.837  69.265  1.00  0.00    -0.137 A  
HETATM    6  C   UNL     1      -8.828   8.043  68.544  1.00  0.00    -0.134 A  
HETATM    7  C   UNL     1      -7.483   6.960  65.182  1.00  0.00    -0.094 C  
HETATM    8  C   UNL     1      -8.221   8.028  67.290  1.00  0.00    -0.122 A  
HETATM    9  C   UNL     1      -8.476   5.615  68.623  1.00  0.00    -0.105 A  
HETATM   10  C   UNL     1      -7.876   6.831  66.634  1.00  0.00    -0.107 A  
HETATM   11  C   UNL     1      -8.014   5.580  67.291  1.00  0.00    -0.101 A  
BRANCH   6  12
HETATM   12  N   UNL     1      -9.298   9.275  69.035  1.00  0.00    -0.149 NA 
HETATM   13  H   UNL     1     -10.118   9.195  69.638  1.00  0.00     0.000 HD 
BRANCH  12  14
HETATM   14  C   UNL     1      -8.864  10.559  68.858  1.00  0.00    -0.165 A  
HETATM   15  N   UNL     1      -9.719  11.620  69.002  1.00  0.00    -0.002 NA 
HETATM   16  C   UNL     1      -7.253  11.997  68.060  1.00  0.00    -0.096 A  
HETATM   17  N   UNL     1      -7.658  10.711  68.358  1.00  0.00    -0.095 NA 
HETATM   18  C   UNL     1      -9.439  12.903  68.514  1.00  0.00    -0.096 A  
HETATM   19  C   UNL     1      -8.010  13.098  68.087  1.00  0.00    -0.154 A  
HETATM   20 CL   UNL     1      -7.446  14.637  67.582  1.00  0.00    -0.185 Cl 
BRANCH  18  21
HETATM   21  N   UNL     1     -10.257  13.914  68.334  1.00  0.00    -0.239 NA 
HETATM   22  H   UNL     1     -10.847  14.235  69.101  1.00  0.00     0.000 HD 
BRANCH  21  23
HETATM   23  C   UNL     1     -10.318  14.551  67.089  1.00  0.00    -0.265 A  
HETATM   24  C   UNL     1      -9.636  15.764  66.909  1.00  0.00    -0.243 A  
HETATM   25  C   UNL     1      -9.967  16.622  65.867  1.00  0.00    -0.320 A  
HETATM   26  C   UNL     1     -10.932  16.236  64.945  1.00  0.00    -0.321 A  
HETATM   27  C   UNL     1     -11.479  14.954  65.004  1.00  0.00    -0.379 A  
HETATM   28  C   UNL     1     -11.136  14.088  66.052  1.00  0.00    -0.303 A  
BRANCH  28  29
HETATM   29  S   UNL     1     -11.412  12.331  65.770  1.00  0.00    -0.368 S  
HETATM   30  O   UNL     1     -11.839  11.778  67.046  1.00  0.00    -0.599 OA 
HETATM   31  O   UNL     1     -12.333  12.270  64.647  1.00  0.00    -0.424 OA 
BRANCH  29  32
HETATM   32  C   UNL     1      -9.911  11.472  65.324  1.00  0.00    -0.250 C  
HETATM   33  C   UNL     1     -10.063   9.949  65.373  1.00  0.00    -0.270 C  
HETATM   34  C   UNL     1      -9.493  11.891  63.905  1.00  0.00    -0.003 C  
ENDBRANCH  29  32
ENDBRANCH  28  29
ENDBRANCH  21  23
ENDBRANCH  18  21
ENDBRANCH  12  14
ENDBRANCH   6  12
BRANCH  11  35
HETATM   35  C   UNL     1      -7.624   4.291  66.540  1.00  0.00    -0.089 C  
HETATM   36  C   UNL     1      -6.263   3.739  67.009  1.00  0.00    -0.035 C  
HETATM   37  C   UNL     1      -6.394   2.910  68.276  1.00  0.00    -0.029 C  
HETATM   38  N   UNL     1      -7.236   1.751  68.018  1.00  0.00    -0.043 NA 
HETATM   39  H   UNL     1      -7.251   1.115  68.816  1.00  0.00     0.000 HD 
HETATM   40  C   UNL     1      -8.588   2.145  67.625  1.00  0.00    -0.091 C  
HETATM   41  C   UNL     1      -8.612   3.105  66.439  1.00  0.00    -0.119 C  
ENDBRANCH  11  35
ENDBRANCH   4   5
ENDBRANCH   2   4
TORSDOF 9
ENDMDL
MODEL      237
REMARK 921   NORMALIZED FREE ENERGY PREDICTED BY IDOCK:   -2.31 KCAL/MOL
REMARK 922        TOTAL FREE ENERGY PREDICTED BY IDOCK:   -5.70 KCAL/MOL
REMARK 923 INTER-LIGAND FREE ENERGY PREDICTED BY IDOCK:   -5.67 KCAL/MOL
REMARK 924 INTRA-LIGAND FREE ENERGY PREDICTED BY IDOCK:   -0.03 KCAL/MOL
REMARK 927      BINDING AFFINITY PREDICTED BY RF-SCORE:    0.00 PKD
ROOT
HETATM    1  C   UNL     1     -11.073  12.406  65.635  1.00  0.00    -0.343 C  
HETATM    2  C   UNL     1      -9.712  11.736  65.826  1.00  0.00    -0.237 C  
HETATM    3  C   UNL     1      -9.425  10.826  64.627  1.00  0.00    -0.297 C  
ENDROOT
BRANCH   2   4
HETATM    4  O   UNL     1      -8.725  12.780  66.002  1.00  0.00     0.228 OA 
BRANCH   4   5
HETATM    5  C   UNL     1      -8.022  12.774  67.189  1.00  0.00    -0.108 A  
HETATM    6  C   UNL     1      -8.112  11.757  68.154  1.00  0.00    -0.150 A  
HETATM    7  C   UNL     1      -5.387  12.733  70.585  1.00  0.00    -0.157 C  
HETATM    8  C   UNL     1      -7.114  11.723  69.125  1.00  0.00    -0.071 A  
HETATM    9  C   UNL     1      -7.134  13.869  67.377  1.00  0.00    -0.091 A  
HETATM   10  C   UNL     1      -6.226  12.797  69.332  1.00  0.00    -0.112 A  
HETATM   11  C   UNL     1      -6.230  13.916  68.459  1.00  0.00    -0.093 A  
BRANCH   6  12
HETATM   12  N   UNL     1      -9.060  10.716  68.146  1.00  0.00    -0.143 NA 
HETATM   13  H   UNL     1      -9.235  10.323  67.221  1.00  0.00     0.000 HD 
BRANCH  12  14
HETATM   14  C   UNL     1      -9.791  10.134  69.143  1.00  0.00    -0.214 A  
HETATM   15  N   UNL     1      -9.624   8.812  69.462  1.00  0.00    -0.165 NA 
HETATM   16  C   UNL     1     -11.604  10.220  70.559  1.00  0.00    -0.338 A  
HETATM   17  N   UNL     1     -10.783  10.840  69.639  1.00  0.00    -0.234 NA 
HETATM   18  C   UNL     1     -10.552   8.080  70.214  1.00  0.00    -0.231 A  
HETATM   19  C   UNL     1     -11.591   8.926  70.896  1.00  0.00    -0.283 A  
HETATM   20 CL   UNL     1     -12.735   8.224  71.965  1.00  0.00    -0.360 Cl 
BRANCH  18  21
HETATM   21  N   UNL     1     -10.660   6.779  70.352  1.00  0.00    -0.219 NA 
HETATM   22  H   UNL     1     -11.143   6.229  69.642  1.00  0.00     0.000 HD 
BRANCH  21  23
HETATM   23  C   UNL     1     -10.113   6.147  71.475  1.00  0.00    -0.192 A  
HETATM   24  C   UNL     1     -10.974   5.634  72.456  1.00  0.00    -0.313 A  
HETATM   25  C   UNL     1     -10.514   5.361  73.739  1.00  0.00    -0.305 A  
HETATM   26  C   UNL     1      -9.166   5.526  74.030  1.00  0.00    -0.126 A  
HETATM   27  C   UNL     1      -8.267   5.852  73.014  1.00  0.00    -0.117 A  
HETATM   28  C   UNL     1      -8.735   6.118  71.718  1.00  0.00    -0.137 A  
BRANCH  28  29
HETATM   29  S   UNL     1      -7.536   5.972  70.383  1.00  0.00    -0.092 S  
HETATM   30  O   UNL     1      -8.301   5.998  69.146  1.00  0.00    -0.112 OA 
HETATM   31  O   UNL     1      -6.573   7.035  70.623  1.00  0.00    -0.049 OA 
BRANCH  29  32
HETATM   32  C   UNL     1      -6.676   4.407  70.411  1.00  0.00    -0.036 C  
HETATM   33  C   UNL     1      -7.051   3.504  69.232  1.00  0.00    -0.045 C  
HETATM   34  C   UNL     1      -5.160   4.664  70.387  1.00  0.00     0.000 C  
ENDBRANCH  29  32
ENDBRANCH  28  29
ENDBRANCH  21  23
ENDBRANCH  18  21
ENDBRANCH  12  14
ENDBRANCH   6  12
BRANCH  11  35
HETATM   35  C   UNL     1      -5.241  15.072  68.716  1.00  0.00    -0.089 C  
HETATM   36  C   UNL     1      -5.377  16.191  67.665  1.00  0.00    -0.159 C  
HETATM   37  C   UNL     1      -6.513  17.146  67.996  1.00  0.00    -0.146 C  
HETATM   38  N   UNL     1      -6.243  17.808  69.264  1.00  0.00    -0.229 NA 
HETATM   39  H   UNL     1      -6.929  18.537  69.458  1.00  0.00     0.000 HD 
HETATM   40  C   UNL     1      -6.157  16.849  70.364  1.00  0.00     0.226 C  
HETATM   41  C   UNL     1      -5.147  15.734  70.111  1.00  0.00    -0.129 C  
ENDBRANCH  11  35
ENDBRANCH   4   5
ENDBRANCH   2   4
TORSDOF 9
ENDMDL
MODEL      238
REMARK 921   NORMALIZED FREE ENERGY PREDICTED BY IDOCK:   -2.31 KCAL/MOL
REMARK 922        TOTAL FREE ENERGY PREDICTED BY IDOCK:   -5.70 KCAL/MOL
REMARK 923 INTER-LIGAND FREE ENERGY PREDICTED BY IDOCK:   -5.89 KCAL/MOL
REMARK 924 INTRA-LIGAND FREE ENERGY PREDICTED BY IDOCK:    0.19 KCAL/MOL
REMARK 927      BINDING AFFINITY PREDICTED BY RF-SCORE:    0.00 PKD
ROOT
HETATM    1  C   UNL     1     -12.179  11.033  69.669  1.00  0.00    -0.370 C  
HETATM    2  C   UNL     1     -11.094  10.182  70.329  1.00  0.00    -0.317 C  
HETATM    3  C   UNL     1     -11.566   9.755  71.723  1.00  0.00    -0.212 C  
ENDROOT
BRANCH   2   4
HETATM    4  O   UNL     1     -10.812   9.065  69.452  1.00  0.00    -0.217 OA 
BRANCH   4   5
HETATM    5  C   UNL     1     -10.374   9.371  68.181  1.00  0.00    -0.211 A  
HETATM    6  C   UNL     1     -10.468   8.500  67.083  1.00  0.00    -0.299 A  
HETATM    7  C   UNL     1      -9.381  10.717  64.221  1.00  0.00    -0.281 C  
HETATM    8  C   UNL     1     -10.294   9.061  65.819  1.00  0.00     0.560 A  
HETATM    9  C   UNL     1      -9.842  10.681  68.018  1.00  0.00    -0.177 A  
HETATM   10  C   UNL     1      -9.765  10.353  65.635  1.00  0.00    -0.294 A  
HETATM   11  C   UNL     1      -9.509  11.195  66.748  1.00  0.00    -0.203 A  
BRANCH   6  12
HETATM   12  N   UNL     1     -10.831   7.142  67.157  1.00  0.00    -0.472 NA 
HETATM   13  H   UNL     1     -11.801   6.958  66.898  1.00  0.00     0.000 HD 
BRANCH  12  14
HETATM   14  C   UNL     1     -10.130   6.023  67.510  1.00  0.00    -0.159 A  
HETATM   15  N   UNL     1      -9.253   6.042  68.563  1.00  0.00    -0.115 NA 
HETATM   16  C   UNL     1      -9.389   3.913  66.963  1.00  0.00    -0.190 A  
HETATM   17  N   UNL     1     -10.188   5.004  66.682  1.00  0.00    -0.242 NA 
HETATM   18  C   UNL     1      -8.272   5.062  68.763  1.00  0.00    -0.084 A  
HETATM   19  C   UNL     1      -8.448   3.836  67.909  1.00  0.00    -0.094 A  
HETATM   20 CL   UNL     1      -7.421   2.475  68.102  1.00  0.00    -0.055 Cl 
BRANCH  18  21
HETATM   21  N   UNL     1      -7.215   5.098  69.540  1.00  0.00    -0.056 NA 
HETATM   22  H   UNL     1      -6.451   5.741  69.332  1.00  0.00     0.000 HD 
BRANCH  21  23
HETATM   23  C   UNL     1      -7.137   4.254  70.654  1.00  0.00    -0.041 A  
HETATM   24  C   UNL     1      -6.204   3.206  70.651  1.00  0.00    -0.023 A  
HETATM   25  C   UNL     1      -6.339   2.127  71.517  1.00  0.00    -0.018 A  
HETATM   26  C   UNL     1      -7.368   2.125  72.451  1.00  0.00    -0.038 A  
HETATM   27  C   UNL     1      -8.185   3.247  72.590  1.00  0.00    -0.076 A  
HETATM   28  C   UNL     1      -8.040   4.338  71.720  1.00  0.00    -0.092 A  
BRANCH  28  29
HETATM   29  S   UNL     1      -8.698   5.915  72.287  1.00  0.00    -0.127 S  
HETATM   30  O   UNL     1      -8.083   6.171  73.579  1.00  0.00    -0.109 OA 
HETATM   31  O   UNL     1      -8.437   6.845  71.200  1.00  0.00    -0.122 OA 
BRANCH  29  32
HETATM   32  C   UNL     1     -10.461   5.851  72.571  1.00  0.00    -0.204 C  
HETATM   33  C   UNL     1     -10.922   6.835  73.650  1.00  0.00    -0.046 C  
HETATM   34  C   UNL     1     -11.195   6.164  71.257  1.00  0.00    -0.348 C  
ENDBRANCH  29  32
ENDBRANCH  28  29
ENDBRANCH  21  23
ENDBRANCH  18  21
ENDBRANCH  12  14
ENDBRANCH   6  12
BRANCH  11  35
HETATM   35  C   UNL     1      -8.930  12.605  66.505  1.00  0.00    -0.115 C  
HETATM   36  C   UNL     1      -9.784  13.414  65.509  1.00  0.00    -0.065 C  
HETATM   37  C   UNL     1     -10.977  14.068  66.186  1.00  0.00    -0.295 C  
HETATM   38  N   UNL     1     -10.514  15.016  67.190  1.00  0.00    -0.272 NA 
HETATM   39  H   UNL     1     -11.287  15.553  67.581  1.00  0.00     0.000 HD 
HETATM   40  C   UNL     1      -9.740  14.353  68.238  1.00  0.00    -0.222 C  
HETATM   41  C   UNL     1      -8.576  13.529  67.693  1.00  0.00    -0.185 C  
ENDBRANCH  11  35
ENDBRANCH   4   5
ENDBRANCH   2   4
TORSDOF 9
ENDMDL
MODEL      239
REMARK 921   NORMALIZED FREE ENERGY PREDICTED BY IDOCK:   -2.28 KCAL/MOL
REMARK 922        TOTAL FREE ENERGY PREDICTED BY IDOCK:   -5.65 KCAL/MOL
REMARK 923 INTER-LIGAND FREE ENERGY PREDICTED BY IDOCK:   -5.76 KCAL/MOL
REMARK 924 INTRA-LIGAND FREE ENERGY PREDICTED BY IDOCK:    0.11 KCAL/MOL
REMARK 927      BINDING AFFINITY PREDICTED BY RF-SCORE:    0.00 PKD
ROOT
HETATM    1  C   UNL     1      -6.635   8.980  69.742  1.00  0.00    -0.045 C  
HETATM    2  C   UNL     1      -7.622  10.012  69.197  1.00  0.00    -0.096 C  
HETATM    3  C   UNL     1      -7.011  11.411  69.323  1.00  0.00    -0.115 C  
ENDROOT
BRANCH   2   4
HETATM    4  O   UNL     1      -7.939   9.645  67.833  1.00  0.00    -0.097 OA 
BRANCH   4   5
HETATM    5  C   UNL     1      -8.574   8.435  67.649  1.00  0.00    -0.130 A  
HETATM    6  C   UNL     1      -9.922   8.299  67.276  1.00  0.00    -0.224 A  
HETATM    7  C   UNL     1     -10.203   4.579  66.670  1.00  0.00    -0.200 C  
HETATM    8  C   UNL     1     -10.322   7.048  66.812  1.00  0.00    -0.291 A  
HETATM    9  C   UNL     1      -7.754   7.285  67.817  1.00  0.00    -0.112 A  
HETATM   10  C   UNL     1      -9.529   5.895  66.972  1.00  0.00    -0.134 A  
HETATM   11  C   UNL     1      -8.215   5.990  67.501  1.00  0.00    -0.106 A  
BRANCH   6  12
HETATM   12  N   UNL     1     -10.858   9.350  67.233  1.00  0.00    -0.346 NA 
HETATM   13  H   UNL     1     -11.790   9.061  66.933  1.00  0.00     0.000 HD 
BRANCH  12  14
HETATM   14  C   UNL     1     -10.755  10.683  67.517  1.00  0.00    -0.272 A  
HETATM   15  N   UNL     1     -10.126  11.542  66.655  1.00  0.00    -0.206 NA 
HETATM   16  C   UNL     1     -10.894  12.378  69.067  1.00  0.00    -0.148 A  
HETATM   17  N   UNL     1     -11.108  11.058  68.726  1.00  0.00    -0.217 NA 
HETATM   18  C   UNL     1      -9.691  12.821  67.027  1.00  0.00    -0.224 A  
HETATM   19  C   UNL     1     -10.231  13.291  68.350  1.00  0.00    -0.249 A  
HETATM   20 CL   UNL     1      -9.914  14.879  68.915  1.00  0.00    -0.229 Cl 
BRANCH  18  21
HETATM   21  N   UNL     1      -8.851  13.619  66.411  1.00  0.00    -0.455 NA 
HETATM   22  H   UNL     1      -7.900  13.305  66.215  1.00  0.00     0.000 HD 
BRANCH  21  23
HETATM   23  C   UNL     1      -9.259  14.900  66.023  1.00  0.00    -0.175 A  
HETATM   24  C   UNL     1      -8.464  16.004  66.368  1.00  0.00    -0.363 A  
HETATM   25  C   UNL     1      -8.989  17.291  66.367  1.00  0.00    -0.282 A  
HETATM   26  C   UNL     1     -10.296  17.495  65.941  1.00  0.00    -0.265 A  
HETATM   27  C   UNL     1     -11.032  16.433  65.415  1.00  0.00    -0.167 A  
HETATM   28  C   UNL     1     -10.496  15.136  65.411  1.00  0.00    -0.393 A  
BRANCH  28  29
HETATM   29  S   UNL     1     -11.222  13.967  64.250  1.00  0.00    -0.173 S  
HETATM   30  O   UNL     1     -12.038  14.753  63.339  1.00  0.00    -0.111 OA 
HETATM   31  O   UNL     1     -10.095  13.227  63.706  1.00  0.00    -0.162 OA 
BRANCH  29  32
HETATM   32  C   UNL     1     -12.327  12.814  65.051  1.00  0.00    -0.499 C  
HETATM   33  C   UNL     1     -13.201  13.477  66.120  1.00  0.00     0.904 C  
HETATM   34  C   UNL     1     -13.233  12.166  63.991  1.00  0.00     0.027 C  
ENDBRANCH  29  32
ENDBRANCH  28  29
ENDBRANCH  21  23
ENDBRANCH  18  21
ENDBRANCH  12  14
ENDBRANCH   6  12
BRANCH  11  35
HETATM   35  C   UNL     1      -7.376   4.705  67.659  1.00  0.00    -0.074 C  
HETATM   36  C   UNL     1      -5.863   4.999  67.638  1.00  0.00    -0.022 C  
HETATM   37  C   UNL     1      -5.354   5.447  68.998  1.00  0.00     0.000 C  
HETATM   38  N   UNL     1      -5.548   4.382  69.971  1.00  0.00    -0.012 NA 
HETATM   39  H   UNL     1      -5.114   4.608  70.865  1.00  0.00     0.000 HD 
HETATM   40  C   UNL     1      -6.964   4.054  70.133  1.00  0.00    -0.041 C  
HETATM   41  C   UNL     1      -7.655   3.716  68.815  1.00  0.00    -0.053 C  
ENDBRANCH  11  35
ENDBRANCH   4   5
ENDBRANCH   2   4
TORSDOF 9
ENDMDL
MODEL      240
REMARK 921   NORMALIZED FREE ENERGY PREDICTED BY IDOCK:   -2.10 KCAL/MOL
REMARK 922        TOTAL FREE ENERGY PREDICTED BY IDOCK:   -5.38 KCAL/MOL
REMARK 923 INTER-LIGAND FREE ENERGY PREDICTED BY IDOCK:   -5.93 KCAL/MOL
REMARK 924 INTRA-LIGAND FREE ENERGY PREDICTED BY IDOCK:    0.55 KCAL/MOL
REMARK 927      BINDING AFFINITY PREDICTED BY RF-SCORE:    0.00 PKD
ROOT
HETATM    1  C   UNL     1      -6.546   9.701  69.650  1.00  0.00    -0.048 C  
HETATM    2  C   UNL     1      -7.894   9.961  68.979  1.00  0.00    -0.095 C  
HETATM    3  C   UNL     1      -8.348  11.391  69.294  1.00  0.00     0.243 C  
ENDROOT
BRANCH   2   4
HETATM    4  O   UNL     1      -7.740   9.709  67.562  1.00  0.00    -0.094 OA 
BRANCH   4   5
HETATM    5  C   UNL     1      -8.007   8.426  67.129  1.00  0.00    -0.104 A  
HETATM    6  C   UNL     1      -9.150   8.063  66.397  1.00  0.00    -0.183 A  
HETATM    7  C   UNL     1      -8.391   4.475  65.480  1.00  0.00    -0.116 C  
HETATM    8  C   UNL     1      -9.118   6.826  65.756  1.00  0.00     0.017 A  
HETATM    9  C   UNL     1      -7.008   7.460  67.432  1.00  0.00    -0.079 A  
HETATM   10  C   UNL     1      -8.141   5.853  66.044  1.00  0.00    -0.115 A  
HETATM   11  C   UNL     1      -7.060   6.150  66.914  1.00  0.00    -0.073 A  
BRANCH   6  12
HETATM   12  N   UNL     1     -10.265   8.892  66.175  1.00  0.00    -0.369 NA 
HETATM   13  H   UNL     1     -10.865   8.583  65.410  1.00  0.00     0.000 HD 
BRANCH  12  14
HETATM   14  C   UNL     1     -10.697  10.034  66.790  1.00  0.00    -0.101 A  
HETATM   15  N   UNL     1     -10.241  11.265  66.397  1.00  0.00    -0.223 NA 
HETATM   16  C   UNL     1     -11.743  11.023  68.586  1.00  0.00    -0.296 A  
HETATM   17  N   UNL     1     -11.405   9.881  67.888  1.00  0.00    -0.095 NA 
HETATM   18  C   UNL     1     -10.369  12.418  67.182  1.00  0.00    -0.219 A  
HETATM   19  C   UNL     1     -11.305  12.263  68.349  1.00  0.00    -0.292 A  
HETATM   20 CL   UNL     1     -11.690  13.602  69.351  1.00  0.00    -0.355 Cl 
BRANCH  18  21
HETATM   21  N   UNL     1      -9.751  13.569  67.063  1.00  0.00    -0.243 NA 
HETATM   22  H   UNL     1      -8.802  13.678  67.421  1.00  0.00     0.000 HD 
BRANCH  21  23
HETATM   23  C   UNL     1     -10.394  14.648  66.447  1.00  0.00    -0.289 A  
HETATM   24  C   UNL     1     -11.354  14.394  65.454  1.00  0.00    -0.339 A  
HETATM   25  C   UNL     1     -11.728  15.383  64.552  1.00  0.00    -0.277 A  
HETATM   26  C   UNL     1     -11.202  16.662  64.684  1.00  0.00    -0.023 A  
HETATM   27  C   UNL     1     -10.397  16.976  65.779  1.00  0.00    -0.275 A  
HETATM   28  C   UNL     1     -10.028  15.977  66.693  1.00  0.00    -0.267 A  
BRANCH  28  29
HETATM   29  S   UNL     1      -9.494  16.530  68.321  1.00  0.00    -0.226 S  
HETATM   30  O   UNL     1      -9.812  17.947  68.392  1.00  0.00    -0.316 OA 
HETATM   31  O   UNL     1     -10.144  15.628  69.257  1.00  0.00    -0.222 OA 
BRANCH  29  32
HETATM   32  C   UNL     1      -7.726  16.398  68.535  1.00  0.00    -0.195 C  
HETATM   33  C   UNL     1      -7.018  15.854  67.291  1.00  0.00    -0.241 C  
HETATM   34  C   UNL     1      -7.154  17.784  68.875  1.00  0.00    -0.262 C  
ENDBRANCH  29  32
ENDBRANCH  28  29
ENDBRANCH  21  23
ENDBRANCH  18  21
ENDBRANCH  12  14
ENDBRANCH   6  12
BRANCH  11  35
HETATM   35  C   UNL     1      -6.009   5.058  67.204  1.00  0.00    -0.026 C  
HETATM   36  C   UNL     1      -5.148   5.399  68.437  1.00  0.00     0.000 C  
HETATM   37  C   UNL     1      -5.841   5.017  69.735  1.00  0.00    -0.017 C  
HETATM   38  N   UNL     1      -6.052   3.577  69.772  1.00  0.00    -0.023 NA 
HETATM   39  H   UNL     1      -6.411   3.276  70.678  1.00  0.00     0.000 HD 
HETATM   40  C   UNL     1      -6.918   3.133  68.680  1.00  0.00    -0.049 C  
HETATM   41  C   UNL     1      -6.422   3.571  67.306  1.00  0.00    -0.037 C  
ENDBRANCH  11  35
ENDBRANCH   4   5
ENDBRANCH   2   4
TORSDOF 9
ENDMDL
MODEL      241
REMARK 921   NORMALIZED FREE ENERGY PREDICTED BY IDOCK:   -2.08 KCAL/MOL
REMARK 922        TOTAL FREE ENERGY PREDICTED BY IDOCK:   -5.34 KCAL/MOL
REMARK 923 INTER-LIGAND FREE ENERGY PREDICTED BY IDOCK:   -4.88 KCAL/MOL
REMARK 924 INTRA-LIGAND FREE ENERGY PREDICTED BY IDOCK:   -0.46 KCAL/MOL
REMARK 927      BINDING AFFINITY PREDICTED BY RF-SCORE:    0.00 PKD
ROOT
HETATM    1  C   UNL     1      -8.885   8.581  69.167  1.00  0.00    -0.142 C  
HETATM    2  C   UNL     1      -7.879   7.942  70.123  1.00  0.00    -0.097 C  
HETATM    3  C   UNL     1      -8.504   6.694  70.754  1.00  0.00    -0.134 C  
ENDROOT
BRANCH   2   4
HETATM    4  O   UNL     1      -6.671   7.663  69.375  1.00  0.00    -0.039 OA 
BRANCH   4   5
HETATM    5  C   UNL     1      -6.824   6.983  68.184  1.00  0.00    -0.074 A  
HETATM    6  C   UNL     1      -6.373   7.457  66.941  1.00  0.00    -0.048 A  
HETATM    7  C   UNL     1      -6.984   4.482  64.692  1.00  0.00    -0.050 C  
HETATM    8  C   UNL     1      -6.301   6.530  65.903  1.00  0.00    -0.039 A  
HETATM    9  C   UNL     1      -7.444   5.707  68.287  1.00  0.00    -0.077 A  
HETATM   10  C   UNL     1      -6.912   5.263  65.981  1.00  0.00    -0.067 A  
HETATM   11  C   UNL     1      -7.518   4.826  67.187  1.00  0.00    -0.086 A  
BRANCH   6  12
HETATM   12  N   UNL     1      -5.890   8.757  66.699  1.00  0.00    -0.051 NA 
HETATM   13  H   UNL     1      -5.129   8.796  66.020  1.00  0.00     0.000 HD 
BRANCH  12  14
HETATM   14  C   UNL     1      -6.248   9.977  67.201  1.00  0.00    -0.066 A  
HETATM   15  N   UNL     1      -7.339  10.649  66.716  1.00  0.00    -0.113 NA 
HETATM   16  C   UNL     1      -5.684  11.836  68.437  1.00  0.00    -0.049 A  
HETATM   17  N   UNL     1      -5.394  10.552  68.019  1.00  0.00    -0.037 NA 
HETATM   18  C   UNL     1      -7.559  12.015  66.934  1.00  0.00    -0.060 A  
HETATM   19  C   UNL     1      -6.670  12.618  67.986  1.00  0.00    -0.095 A  
HETATM   20 CL   UNL     1      -6.876  14.247  68.483  1.00  0.00    -0.092 Cl 
BRANCH  18  21
HETATM   21  N   UNL     1      -8.384  12.827  66.315  1.00  0.00    -0.195 NA 
HETATM   22  H   UNL     1      -8.124  13.802  66.166  1.00  0.00     0.000 HD 
BRANCH  21  23
HETATM   23  C   UNL     1      -9.620  12.354  65.860  1.00  0.00    -0.187 A  
HETATM   24  C   UNL     1      -9.731  11.016  65.453  1.00  0.00    -0.279 A  
HETATM   25  C   UNL     1     -10.783  10.600  64.645  1.00  0.00    -0.031 A  
HETATM   26  C   UNL     1     -11.779  11.505  64.301  1.00  0.00    -0.164 A  
HETATM   27  C   UNL     1     -11.780  12.785  64.856  1.00  0.00    -0.394 A  
HETATM   28  C   UNL     1     -10.722  13.199  65.678  1.00  0.00    -0.280 A  
BRANCH  28  29
HETATM   29  S   UNL     1     -11.049  14.586  66.778  1.00  0.00    -0.332 S  
HETATM   30  O   UNL     1     -12.482  14.578  67.025  1.00  0.00    -0.198 OA 
HETATM   31  O   UNL     1     -10.151  14.393  67.905  1.00  0.00    -0.223 OA 
BRANCH  29  32
HETATM   32  C   UNL     1     -10.677  16.158  66.015  1.00  0.00    -0.241 C  
HETATM   33  C   UNL     1      -9.240  16.618  66.277  1.00  0.00    -0.328 C  
HETATM   34  C   UNL     1     -10.902  16.048  64.498  1.00  0.00    -0.045 C  
ENDBRANCH  29  32
ENDBRANCH  28  29
ENDBRANCH  21  23
ENDBRANCH  18  21
ENDBRANCH  12  14
ENDBRANCH   6  12
BRANCH  11  35
HETATM   35  C   UNL     1      -8.175   3.431  67.234  1.00  0.00    -0.086 C  
HETATM   36  C   UNL     1      -7.175   2.336  67.655  1.00  0.00    -0.051 C  
HETATM   37  C   UNL     1      -7.016   2.264  69.165  1.00  0.00    -0.040 C  
HETATM   38  N   UNL     1      -8.289   1.909  69.776  1.00  0.00    -0.044 NA 
HETATM   39  H   UNL     1      -8.189   1.742  70.777  1.00  0.00     0.000 HD 
HETATM   40  C   UNL     1      -9.315   2.915  69.502  1.00  0.00    -0.129 C  
HETATM   41  C   UNL     1      -9.491   3.202  68.014  1.00  0.00    -0.218 C  
ENDBRANCH  11  35
ENDBRANCH   4   5
ENDBRANCH   2   4
TORSDOF 9
ENDMDL
MODEL      242
REMARK 921   NORMALIZED FREE ENERGY PREDICTED BY IDOCK:   -2.02 KCAL/MOL
REMARK 922        TOTAL FREE ENERGY PREDICTED BY IDOCK:   -5.25 KCAL/MOL
REMARK 923 INTER-LIGAND FREE ENERGY PREDICTED BY IDOCK:   -4.37 KCAL/MOL
REMARK 924 INTRA-LIGAND FREE ENERGY PREDICTED BY IDOCK:   -0.88 KCAL/MOL
REMARK 927      BINDING AFFINITY PREDICTED BY RF-SCORE:    0.00 PKD
ROOT
HETATM    1  C   UNL     1      -7.555  10.084  69.713  1.00  0.00    -0.167 C  
HETATM    2  C   UNL     1      -6.209   9.369  69.612  1.00  0.00    -0.039 C  
HETATM    3  C   UNL     1      -6.382   7.904  70.025  1.00  0.00    -0.033 C  
ENDROOT
BRANCH   2   4
HETATM    4  O   UNL     1      -5.723   9.528  68.257  1.00  0.00    -0.037 OA 
BRANCH   4   5
HETATM    5  C   UNL     1      -6.671   9.539  67.256  1.00  0.00    -0.072 A  
HETATM    6  C   UNL     1      -6.844  10.593  66.344  1.00  0.00    -0.129 A  
HETATM    7  C   UNL     1      -9.366   9.143  63.931  1.00  0.00     0.484 C  
HETATM    8  C   UNL     1      -7.601  10.321  65.206  1.00  0.00    -0.143 A  
HETATM    9  C   UNL     1      -7.467   8.364  67.159  1.00  0.00    -0.089 A  
HETATM   10  C   UNL     1      -8.400   9.167  65.090  1.00  0.00    -0.160 A  
HETATM   11  C   UNL     1      -8.361   8.158  66.087  1.00  0.00    -0.126 A  
BRANCH   6  12
HETATM   12  N   UNL     1      -6.225  11.854  66.439  1.00  0.00    -0.475 NA 
HETATM   13  H   UNL     1      -5.673  12.106  65.619  1.00  0.00     0.000 HD 
BRANCH  12  14
HETATM   14  C   UNL     1      -6.224  12.804  67.421  1.00  0.00    -0.129 A  
HETATM   15  N   UNL     1      -7.342  13.039  68.177  1.00  0.00    -0.105 NA 
HETATM   16  C   UNL     1      -5.221  14.641  68.378  1.00  0.00    -0.105 A  
HETATM   17  N   UNL     1      -5.180  13.601  67.471  1.00  0.00    -0.334 NA 
HETATM   18  C   UNL     1      -7.520  14.197  68.945  1.00  0.00    -0.112 A  
HETATM   19  C   UNL     1      -6.271  15.017  69.115  1.00  0.00    -0.105 A  
HETATM   20 CL   UNL     1      -6.258  16.402  70.127  1.00  0.00    -0.105 Cl 
BRANCH  18  21
HETATM   21  N   UNL     1      -8.621  14.674  69.477  1.00  0.00    -0.400 NA 
HETATM   22  H   UNL     1      -9.028  14.224  70.297  1.00  0.00     0.000 HD 
BRANCH  21  23
HETATM   23  C   UNL     1      -9.237  15.800  68.918  1.00  0.00    -0.227 A  
HETATM   24  C   UNL     1      -8.857  16.218  67.633  1.00  0.00    -0.195 A  
HETATM   25  C   UNL     1      -9.126  17.509  67.193  1.00  0.00    -0.247 A  
HETATM   26  C   UNL     1      -9.849  18.371  68.008  1.00  0.00    -0.359 A  
HETATM   27  C   UNL     1     -10.395  17.906  69.205  1.00  0.00    -0.113 A  
HETATM   28  C   UNL     1     -10.129  16.600  69.641  1.00  0.00    -0.068 A  
BRANCH  28  29
HETATM   29  S   UNL     1     -11.275  15.901  70.841  1.00  0.00    -0.304 S  
HETATM   30  O   UNL     1     -10.621  14.723  71.389  1.00  0.00     0.411 OA 
HETATM   31  O   UNL     1     -11.593  16.997  71.741  1.00  0.00     0.087 OA 
BRANCH  29  32
HETATM   32  C   UNL     1     -12.788  15.331  70.081  1.00  0.00    -0.177 C  
HETATM   33  C   UNL     1     -12.538  14.454  68.851  1.00  0.00     0.289 C  
HETATM   34  C   UNL     1     -13.600  14.531  71.113  1.00  0.00    -0.368 C  
ENDBRANCH  29  32
ENDBRANCH  28  29
ENDBRANCH  21  23
ENDBRANCH  18  21
ENDBRANCH  12  14
ENDBRANCH   6  12
BRANCH  11  35
HETATM   35  C   UNL     1      -9.250   6.908  65.924  1.00  0.00     0.004 C  
HETATM   36  C   UNL     1      -8.441   5.684  65.449  1.00  0.00    -0.147 C  
HETATM   37  C   UNL     1      -7.743   4.983  66.603  1.00  0.00    -0.092 C  
HETATM   38  N   UNL     1      -8.734   4.478  67.542  1.00  0.00    -0.103 NA 
HETATM   39  H   UNL     1      -8.302   3.905  68.267  1.00  0.00     0.000 HD 
HETATM   40  C   UNL     1      -9.529   5.560  68.120  1.00  0.00    -0.114 C  
HETATM   41  C   UNL     1     -10.185   6.449  67.067  1.00  0.00    -0.264 C  
ENDBRANCH  11  35
ENDBRANCH   4   5
ENDBRANCH   2   4
TORSDOF 9
ENDMDL
MODEL      243
REMARK 921   NORMALIZED FREE ENERGY PREDICTED BY IDOCK:   -2.02 KCAL/MOL
REMARK 922        TOTAL FREE ENERGY PREDICTED BY IDOCK:   -5.25 KCAL/MOL
REMARK 923 INTER-LIGAND FREE ENERGY PREDICTED BY IDOCK:   -4.56 KCAL/MOL
REMARK 924 INTRA-LIGAND FREE ENERGY PREDICTED BY IDOCK:   -0.69 KCAL/MOL
REMARK 927      BINDING AFFINITY PREDICTED BY RF-SCORE:    0.00 PKD
ROOT
HETATM    1  C   UNL     1      -6.695   8.567  63.801  1.00  0.00    -0.080 C  
HETATM    2  C   UNL     1      -6.733   7.215  64.513  1.00  0.00    -0.046 C  
HETATM    3  C   UNL     1      -5.356   6.925  65.120  1.00  0.00    -0.027 C  
ENDROOT
BRANCH   2   4
HETATM    4  O   UNL     1      -7.794   7.260  65.495  1.00  0.00    -0.101 OA 
BRANCH   4   5
HETATM    5  C   UNL     1      -7.425   7.094  66.814  1.00  0.00    -0.089 A  
HETATM    6  C   UNL     1      -7.271   8.149  67.729  1.00  0.00    -0.091 A  
HETATM    7  C   UNL     1      -6.736   6.302  70.982  1.00  0.00    -0.058 C  
HETATM    8  C   UNL     1      -7.223   7.808  69.079  1.00  0.00    -0.080 A  
HETATM    9  C   UNL     1      -7.245   5.747  67.232  1.00  0.00    -0.076 A  
HETATM   10  C   UNL     1      -7.041   6.482  69.515  1.00  0.00    -0.073 A  
HETATM   11  C   UNL     1      -7.031   5.410  68.585  1.00  0.00    -0.060 A  
BRANCH   6  12
HETATM   12  N   UNL     1      -7.273   9.517  67.393  1.00  0.00    -0.086 NA 
HETATM   13  H   UNL     1      -7.601   9.710  66.447  1.00  0.00     0.000 HD 
BRANCH  12  14
HETATM   14  C   UNL     1      -6.920  10.634  68.096  1.00  0.00    -0.073 A  
HETATM   15  N   UNL     1      -7.867  11.518  68.541  1.00  0.00    -0.135 NA 
HETATM   16  C   UNL     1      -5.274  12.105  68.752  1.00  0.00    -0.050 A  
HETATM   17  N   UNL     1      -5.636  10.916  68.151  1.00  0.00    -0.039 NA 
HETATM   18  C   UNL     1      -7.565  12.822  68.955  1.00  0.00     0.149 A  
HETATM   19  C   UNL     1      -6.097  13.077  69.158  1.00  0.00    -0.095 A  
HETATM   20 CL   UNL     1      -5.542  14.574  69.786  1.00  0.00    -0.095 Cl 
BRANCH  18  21
HETATM   21  N   UNL     1      -8.375  13.840  69.132  1.00  0.00    -0.319 NA 
HETATM   22  H   UNL     1      -8.940  13.902  69.980  1.00  0.00     0.000 HD 
BRANCH  21  23
HETATM   23  C   UNL     1      -8.465  14.840  68.157  1.00  0.00    -0.149 A  
HETATM   24  C   UNL     1      -7.318  15.182  67.423  1.00  0.00    -0.235 A  
HETATM   25  C   UNL     1      -7.238  16.393  66.746  1.00  0.00    -0.245 A  
HETATM   26  C   UNL     1      -8.339  17.242  66.732  1.00  0.00    -0.276 A  
HETATM   27  C   UNL     1      -9.546  16.828  67.296  1.00  0.00    -0.234 A  
HETATM   28  C   UNL     1      -9.625  15.600  67.971  1.00  0.00    -0.203 A  
BRANCH  28  29
HETATM   29  S   UNL     1     -11.268  14.891  68.164  1.00  0.00    -0.312 S  
HETATM   30  O   UNL     1     -12.108  15.533  67.165  1.00  0.00     0.254 OA 
HETATM   31  O   UNL     1     -11.070  13.454  68.081  1.00  0.00    -0.240 OA 
BRANCH  29  32
HETATM   32  C   UNL     1     -11.990  15.276  69.752  1.00  0.00    -0.347 C  
HETATM   33  C   UNL     1     -12.586  14.047  70.445  1.00  0.00    -0.374 C  
HETATM   34  C   UNL     1     -10.913  15.893  70.659  1.00  0.00    -0.312 C  
ENDBRANCH  29  32
ENDBRANCH  28  29
ENDBRANCH  21  23
ENDBRANCH  18  21
ENDBRANCH  12  14
ENDBRANCH   6  12
BRANCH  11  35
HETATM   35  C   UNL     1      -6.831   3.970  69.101  1.00  0.00    -0.046 C  
HETATM   36  C   UNL     1      -8.170   3.288  69.443  1.00  0.00    -0.074 C  
HETATM   37  C   UNL     1      -8.841   2.706  68.209  1.00  0.00    -0.120 C  
HETATM   38  N   UNL     1      -7.993   1.672  67.632  1.00  0.00    -0.059 NA 
HETATM   39  H   UNL     1      -8.465   1.184  66.871  1.00  0.00     0.000 HD 
HETATM   40  C   UNL     1      -6.704   2.213  67.202  1.00  0.00    -0.039 C  
HETATM   41  C   UNL     1      -5.968   2.960  68.310  1.00  0.00    -0.024 C  
ENDBRANCH  11  35
ENDBRANCH   4   5
ENDBRANCH   2   4
TORSDOF 9
ENDMDL
MODEL      244
REMARK 921   NORMALIZED FREE ENERGY PREDICTED BY IDOCK:   -1.74 KCAL/MOL
REMARK 922        TOTAL FREE ENERGY PREDICTED BY IDOCK:   -4.83 KCAL/MOL
REMARK 923 INTER-LIGAND FREE ENERGY PREDICTED BY IDOCK:   -6.63 KCAL/MOL
REMARK 924 INTRA-LIGAND FREE ENERGY PREDICTED BY IDOCK:    1.80 KCAL/MOL
REMARK 927      BINDING AFFINITY PREDICTED BY RF-SCORE:    0.00 PKD
ROOT
HETATM    1  C   UNL     1      -9.507   9.724  62.347  1.00  0.00    -0.099 C  
HETATM    2  C   UNL     1      -9.259  11.143  62.856  1.00  0.00    -0.340 C  
HETATM    3  C   UNL     1     -10.604  11.820  63.142  1.00  0.00    -0.341 C  
ENDROOT
BRANCH   2   4
HETATM    4  O   UNL     1      -8.404  11.054  64.021  1.00  0.00     0.086 OA 
BRANCH   4   5
HETATM    5  C   UNL     1      -8.891  10.337  65.094  1.00  0.00    -0.184 A  
HETATM    6  C   UNL     1      -9.617  10.903  66.156  1.00  0.00    -0.202 A  
HETATM    7  C   UNL     1     -10.717   7.840  68.079  1.00  0.00    -0.130 C  
HETATM    8  C   UNL     1     -10.316  10.022  66.978  1.00  0.00    -0.305 A  
HETATM    9  C   UNL     1      -8.654   8.936  65.050  1.00  0.00    -0.202 A  
HETATM   10  C   UNL     1     -10.094   8.631  66.955  1.00  0.00    -0.355 A  
HETATM   11  C   UNL     1      -9.232   8.053  65.986  1.00  0.00    -0.179 A  
BRANCH   6  12
HETATM   12  N   UNL     1      -9.778  12.283  66.381  1.00  0.00    -0.230 NA 
HETATM   13  H   UNL     1     -10.496  12.716  65.799  1.00  0.00     0.000 HD 
BRANCH  12  14
HETATM   14  C   UNL     1      -9.154  13.153  67.231  1.00  0.00    -0.217 A  
HETATM   15  N   UNL     1      -8.433  14.215  66.752  1.00  0.00    -0.088 NA 
HETATM   16  C   UNL     1      -8.385  13.619  69.350  1.00  0.00     0.774 A  
HETATM   17  N   UNL     1      -9.116  12.813  68.500  1.00  0.00    -0.110 NA 
HETATM   18  C   UNL     1      -7.508  14.927  67.526  1.00  0.00    -0.200 A  
HETATM   19  C   UNL     1      -7.587  14.632  68.999  1.00  0.00    -0.136 A  
HETATM   20 CL   UNL     1      -6.623  15.500  70.122  1.00  0.00    -0.073 Cl 
BRANCH  18  21
HETATM   21  N   UNL     1      -6.570  15.757  67.135  1.00  0.00    -0.291 NA 
HETATM   22  H   UNL     1      -5.971  15.515  66.346  1.00  0.00     0.000 HD 
BRANCH  21  23
HETATM   23  C   UNL     1      -6.392  16.975  67.802  1.00  0.00    -0.142 A  
HETATM   24  C   UNL     1      -5.233  17.169  68.570  1.00  0.00    -0.125 A  
HETATM   25  C   UNL     1      -5.180  18.159  69.545  1.00  0.00    -0.186 A  
HETATM   26  C   UNL     1      -6.260  19.018  69.706  1.00  0.00    -0.266 A  
HETATM   27  C   UNL     1      -7.338  18.957  68.822  1.00  0.00    -0.356 A  
HETATM   28  C   UNL     1      -7.384  17.962  67.834  1.00  0.00    -0.222 A  
BRANCH  28  29
HETATM   29  S   UNL     1      -8.461  18.274  66.425  1.00  0.00    -0.204 S  
HETATM   30  O   UNL     1      -7.608  18.806  65.373  1.00  0.00    -0.419 OA 
HETATM   31  O   UNL     1      -9.146  17.014  66.188  1.00  0.00    -0.391 OA 
BRANCH  29  32
HETATM   32  C   UNL     1      -9.682  19.531  66.770  1.00  0.00    -0.366 C  
HETATM   33  C   UNL     1     -10.205  20.212  65.501  1.00  0.00    -0.184 C  
HETATM   34  C   UNL     1     -10.861  18.895  67.524  1.00  0.00    -0.440 C  
ENDBRANCH  29  32
ENDBRANCH  28  29
ENDBRANCH  21  23
ENDBRANCH  18  21
ENDBRANCH  12  14
ENDBRANCH   6  12
BRANCH  11  35
HETATM   35  C   UNL     1      -9.015   6.526  65.991  1.00  0.00    -0.139 C  
HETATM   36  C   UNL     1      -8.176   6.059  64.784  1.00  0.00    -0.123 C  
HETATM   37  C   UNL     1      -6.686   6.229  65.031  1.00  0.00    -0.043 C  
HETATM   38  N   UNL     1      -6.278   5.400  66.156  1.00  0.00    -0.033 NA 
HETATM   39  H   UNL     1      -5.265   5.404  66.274  1.00  0.00     0.000 HD 
HETATM   40  C   UNL     1      -6.961   5.792  67.388  1.00  0.00    -0.065 C  
HETATM   41  C   UNL     1      -8.480   5.808  67.251  1.00  0.00    -0.107 C  
ENDBRANCH  11  35
ENDBRANCH   4   5
ENDBRANCH   2   4
TORSDOF 9
ENDMDL
MODEL      245
REMARK 921   NORMALIZED FREE ENERGY PREDICTED BY IDOCK:   -1.67 KCAL/MOL
REMARK 922        TOTAL FREE ENERGY PREDICTED BY IDOCK:   -4.71 KCAL/MOL
REMARK 923 INTER-LIGAND FREE ENERGY PREDICTED BY IDOCK:   -4.84 KCAL/MOL
REMARK 924 INTRA-LIGAND FREE ENERGY PREDICTED BY IDOCK:    0.12 KCAL/MOL
REMARK 927      BINDING AFFINITY PREDICTED BY RF-SCORE:    0.00 PKD
ROOT
HETATM    1  C   UNL     1     -10.680   9.704  65.547  1.00  0.00     0.973 C  
HETATM    2  C   UNL     1     -10.293  11.149  65.234  1.00  0.00    -0.277 C  
HETATM    3  C   UNL     1     -10.939  11.571  63.911  1.00  0.00    -0.474 C  
ENDROOT
BRANCH   2   4
HETATM    4  O   UNL     1     -10.697  11.969  66.357  1.00  0.00    -0.242 OA 
BRANCH   4   5
HETATM    5  C   UNL     1      -9.751  12.835  66.864  1.00  0.00    -0.234 A  
HETATM    6  C   UNL     1      -8.768  12.471  67.799  1.00  0.00    -0.178 A  
HETATM    7  C   UNL     1      -6.620  15.577  67.938  1.00  0.00    -0.175 C  
HETATM    8  C   UNL     1      -7.699  13.349  67.961  1.00  0.00    -0.147 A  
HETATM    9  C   UNL     1      -9.792  14.157  66.340  1.00  0.00    -0.308 A  
HETATM   10  C   UNL     1      -7.719  14.663  67.455  1.00  0.00    -0.216 A  
HETATM   11  C   UNL     1      -8.790  15.105  66.636  1.00  0.00    -0.321 A  
BRANCH   6  12
HETATM   12  N   UNL     1      -8.728  11.247  68.494  1.00  0.00    -0.155 NA 
HETATM   13  H   UNL     1      -9.550  10.660  68.346  1.00  0.00     0.000 HD 
BRANCH  12  14
HETATM   14  C   UNL     1      -7.797  10.696  69.329  1.00  0.00    -0.138 A  
HETATM   15  N   UNL     1      -7.737   9.341  69.526  1.00  0.00    -0.079 NA 
HETATM   16  C   UNL     1      -6.247  10.983  71.006  1.00  0.00     0.433 A  
HETATM   17  N   UNL     1      -7.103  11.530  70.072  1.00  0.00     0.153 NA 
HETATM   18  C   UNL     1      -7.057   8.751  70.598  1.00  0.00    -0.063 A  
HETATM   19  C   UNL     1      -6.151   9.692  71.342  1.00  0.00     0.001 A  
HETATM   20 CL   UNL     1      -5.137   9.125  72.605  1.00  0.00    -0.064 Cl 
BRANCH  18  21
HETATM   21  N   UNL     1      -7.147   7.525  71.058  1.00  0.00    -0.058 NA 
HETATM   22  H   UNL     1      -7.296   7.364  72.054  1.00  0.00     0.000 HD 
BRANCH  21  23
HETATM   23  C   UNL     1      -7.040   6.439  70.181  1.00  0.00    -0.074 A  
HETATM   24  C   UNL     1      -5.779   6.099  69.668  1.00  0.00    -0.017 A  
HETATM   25  C   UNL     1      -5.660   5.316  68.526  1.00  0.00    -0.015 A  
HETATM   26  C   UNL     1      -6.804   4.799  67.930  1.00  0.00    -0.056 A  
HETATM   27  C   UNL     1      -8.047   4.971  68.540  1.00  0.00    -0.085 A  
HETATM   28  C   UNL     1      -8.162   5.755  69.698  1.00  0.00    -0.108 A  
BRANCH  28  29
HETATM   29  S   UNL     1      -9.620   5.479  70.717  1.00  0.00    -0.177 S  
HETATM   30  O   UNL     1     -10.371   4.414  70.072  1.00  0.00    -0.065 OA 
HETATM   31  O   UNL     1      -9.105   5.248  72.057  1.00  0.00    -0.136 OA 
BRANCH  29  32
HETATM   32  C   UNL     1     -10.697   6.904  70.759  1.00  0.00    -0.233 C  
HETATM   33  C   UNL     1     -11.133   7.357  69.362  1.00  0.00    -0.052 C  
HETATM   34  C   UNL     1     -11.946   6.567  71.591  1.00  0.00    -0.387 C  
ENDBRANCH  29  32
ENDBRANCH  28  29
ENDBRANCH  21  23
ENDBRANCH  18  21
ENDBRANCH  12  14
ENDBRANCH   6  12
BRANCH  11  35
HETATM   35  C   UNL     1      -8.776  16.552  66.099  1.00  0.00    -0.335 C  
HETATM   36  C   UNL     1     -10.078  17.305  66.439  1.00  0.00    -0.321 C  
HETATM   37  C   UNL     1     -10.051  17.874  67.849  1.00  0.00    -0.349 C  
HETATM   38  N   UNL     1      -8.975  18.847  67.965  1.00  0.00    -0.297 NA 
HETATM   39  H   UNL     1      -9.003  19.329  68.863  1.00  0.00     0.000 HD 
HETATM   40  C   UNL     1      -7.668  18.234  67.728  1.00  0.00    -0.235 C  
HETATM   41  C   UNL     1      -7.586  17.494  66.396  1.00  0.00    -0.329 C  
ENDBRANCH  11  35
ENDBRANCH   4   5
ENDBRANCH   2   4
TORSDOF 9
ENDMDL
MODEL      246
REMARK 921   NORMALIZED FREE ENERGY PREDICTED BY IDOCK:   -1.51 KCAL/MOL
REMARK 922        TOTAL FREE ENERGY PREDICTED BY IDOCK:   -4.48 KCAL/MOL
REMARK 923 INTER-LIGAND FREE ENERGY PREDICTED BY IDOCK:   -6.35 KCAL/MOL
REMARK 924 INTRA-LIGAND FREE ENERGY PREDICTED BY IDOCK:    1.87 KCAL/MOL
REMARK 927      BINDING AFFINITY PREDICTED BY RF-SCORE:    0.00 PKD
ROOT
HETATM    1  C   UNL     1     -12.777  12.950  70.344  1.00  0.00    -0.021 C  
HETATM    2  C   UNL     1     -12.522  14.455  70.263  1.00  0.00    -0.354 C  
HETATM    3  C   UNL     1     -12.965  15.114  71.574  1.00  0.00    -0.458 C  
ENDROOT
BRANCH   2   4
HETATM    4  O   UNL     1     -11.119  14.652  69.968  1.00  0.00    -0.235 OA 
BRANCH   4   5
HETATM    5  C   UNL     1     -10.803  15.018  68.676  1.00  0.00    -0.249 A  
HETATM    6  C   UNL     1     -10.559  14.107  67.635  1.00  0.00    -0.253 A  
HETATM    7  C   UNL     1     -10.306  16.388  64.632  1.00  0.00     0.760 C  
HETATM    8  C   UNL     1     -10.581  14.614  66.338  1.00  0.00    -0.301 A  
HETATM    9  C   UNL     1     -10.779  16.418  68.428  1.00  0.00    -0.327 A  
HETATM   10  C   UNL     1     -10.553  15.997  66.069  1.00  0.00    -0.324 A  
HETATM   11  C   UNL     1     -10.636  16.940  67.126  1.00  0.00    -0.249 A  
BRANCH   6  12
HETATM   12  N   UNL     1     -10.405  12.717  67.797  1.00  0.00    -0.216 NA 
HETATM   13  H   UNL     1     -11.276  12.225  68.000  1.00  0.00     0.000 HD 
BRANCH  12  14
HETATM   14  C   UNL     1      -9.311  11.901  67.734  1.00  0.00    -0.184 A  
HETATM   15  N   UNL     1      -9.032  11.177  66.604  1.00  0.00    -0.164 NA 
HETATM   16  C   UNL     1      -7.628  10.781  68.835  1.00  0.00    -0.121 A  
HETATM   17  N   UNL     1      -8.660  11.697  68.859  1.00  0.00    -0.004 NA 
HETATM   18  C   UNL     1      -8.150  10.090  66.587  1.00  0.00    -0.118 A  
HETATM   19  C   UNL     1      -7.307   9.965  67.826  1.00  0.00    -0.089 A  
HETATM   20 CL   UNL     1      -6.078   8.773  67.938  1.00  0.00    -0.050 Cl 
BRANCH  18  21
HETATM   21  N   UNL     1      -8.007   9.158  65.674  1.00  0.00    -0.105 NA 
HETATM   22  H   UNL     1      -8.143   9.383  64.689  1.00  0.00     0.000 HD 
BRANCH  21  23
HETATM   23  C   UNL     1      -7.667   7.854  66.054  1.00  0.00    -0.092 A  
HETATM   24  C   UNL     1      -6.320   7.463  66.020  1.00  0.00    -0.042 A  
HETATM   25  C   UNL     1      -5.966   6.118  65.998  1.00  0.00    -0.029 A  
HETATM   26  C   UNL     1      -6.959   5.150  66.091  1.00  0.00    -0.067 A  
HETATM   27  C   UNL     1      -8.282   5.527  66.317  1.00  0.00    -0.111 A  
HETATM   28  C   UNL     1      -8.634   6.885  66.347  1.00  0.00    -0.134 A  
BRANCH  28  29
HETATM   29  S   UNL     1     -10.176   7.301  67.178  1.00  0.00    -0.299 S  
HETATM   30  O   UNL     1     -10.551   8.623  66.699  1.00  0.00    -0.240 OA 
HETATM   31  O   UNL     1     -11.067   6.187  66.899  1.00  0.00    -0.334 OA 
BRANCH  29  32
HETATM   32  C   UNL     1      -9.976   7.443  68.947  1.00  0.00    -0.169 C  
HETATM   33  C   UNL     1     -10.913   8.483  69.567  1.00  0.00    -0.057 C  
HETATM   34  C   UNL     1     -10.242   6.074  69.595  1.00  0.00    -0.268 C  
ENDBRANCH  29  32
ENDBRANCH  28  29
ENDBRANCH  21  23
ENDBRANCH  18  21
ENDBRANCH  12  14
ENDBRANCH   6  12
BRANCH  11  35
HETATM   35  C   UNL     1     -10.604  18.446  66.791  1.00  0.00    -0.367 C  
HETATM   36  C   UNL     1     -10.961  19.316  68.013  1.00  0.00    -0.053 C  
HETATM   37  C   UNL     1      -9.762  19.536  68.921  1.00  0.00    -0.426 C  
HETATM   38  N   UNL     1      -8.725  20.257  68.198  1.00  0.00    -0.091 NA 
HETATM   39  H   UNL     1      -7.955  20.520  68.812  1.00  0.00     0.000 HD 
HETATM   40  C   UNL     1      -8.250  19.497  67.042  1.00  0.00    -0.281 C  
HETATM   41  C   UNL     1      -9.373  19.076  66.099  1.00  0.00    -0.232 C  
ENDBRANCH  11  35
ENDBRANCH   4   5
ENDBRANCH   2   4
TORSDOF 9
ENDMDL
MODEL      247
REMARK 921   NORMALIZED FREE ENERGY PREDICTED BY IDOCK:   -1.48 KCAL/MOL
REMARK 922        TOTAL FREE ENERGY PREDICTED BY IDOCK:   -4.42 KCAL/MOL
REMARK 923 INTER-LIGAND FREE ENERGY PREDICTED BY IDOCK:   -4.64 KCAL/MOL
REMARK 924 INTRA-LIGAND FREE ENERGY PREDICTED BY IDOCK:    0.22 KCAL/MOL
REMARK 927      BINDING AFFINITY PREDICTED BY RF-SCORE:    0.00 PKD
ROOT
HETATM    1  C   UNL     1      -5.125   9.683  69.192  1.00  0.00    -0.036 C  
HETATM    2  C   UNL     1      -6.043   8.564  68.703  1.00  0.00    -0.045 C  
HETATM    3  C   UNL     1      -5.970   7.386  69.681  1.00  0.00    -0.024 C  
ENDROOT
BRANCH   2   4
HETATM    4  O   UNL     1      -7.376   9.111  68.563  1.00  0.00    -0.075 OA 
BRANCH   4   5
HETATM    5  C   UNL     1      -8.416   8.207  68.527  1.00  0.00    -0.127 A  
HETATM    6  C   UNL     1      -9.188   7.938  67.384  1.00  0.00    -0.140 A  
HETATM    7  C   UNL     1     -11.289   5.010  68.522  1.00  0.00     2.434 C  
HETATM    8  C   UNL     1      -9.968   6.784  67.410  1.00  0.00    -0.192 A  
HETATM    9  C   UNL     1      -8.651   7.498  69.738  1.00  0.00    -0.140 A  
HETATM   10  C   UNL     1     -10.217   6.069  68.598  1.00  0.00    -0.233 A  
HETATM   11  C   UNL     1      -9.566   6.427  69.807  1.00  0.00    -0.163 A  
BRANCH   6  12
HETATM   12  N   UNL     1      -9.148   8.680  66.188  1.00  0.00    -0.187 NA 
HETATM   13  H   UNL     1      -8.832   8.144  65.379  1.00  0.00     0.000 HD 
BRANCH  12  14
HETATM   14  C   UNL     1      -9.452   9.982  65.906  1.00  0.00    -0.205 A  
HETATM   15  N   UNL     1      -8.798  11.012  66.529  1.00  0.00    -0.163 NA 
HETATM   16  C   UNL     1     -10.908  11.503  64.976  1.00  0.00    -0.274 A  
HETATM   17  N   UNL     1     -10.519  10.192  65.167  1.00  0.00    -0.058 NA 
HETATM   18  C   UNL     1      -9.278  12.328  66.546  1.00  0.00    -0.219 A  
HETATM   19  C   UNL     1     -10.402  12.582  65.581  1.00  0.00    -0.271 A  
HETATM   20 CL   UNL     1     -11.036  14.162  65.366  1.00  0.00    -0.309 Cl 
BRANCH  18  21
HETATM   21  N   UNL     1      -8.917  13.328  67.316  1.00  0.00    -0.208 NA 
HETATM   22  H   UNL     1      -7.938  13.611  67.360  1.00  0.00     0.000 HD 
BRANCH  21  23
HETATM   23  C   UNL     1      -9.877  14.005  68.078  1.00  0.00    -0.228 A  
HETATM   24  C   UNL     1     -10.855  13.264  68.758  1.00  0.00    -0.273 A  
HETATM   25  C   UNL     1     -12.033  13.863  69.190  1.00  0.00    -0.404 A  
HETATM   26  C   UNL     1     -12.208  15.230  69.015  1.00  0.00    -0.158 A  
HETATM   27  C   UNL     1     -11.165  16.008  68.513  1.00  0.00    -0.374 A  
HETATM   28  C   UNL     1      -9.974  15.401  68.086  1.00  0.00    -0.221 A  
BRANCH  28  29
HETATM   29  S   UNL     1      -8.519  16.457  67.995  1.00  0.00    -0.187 S  
HETATM   30  O   UNL     1      -8.489  17.216  69.235  1.00  0.00    -0.061 OA 
HETATM   31  O   UNL     1      -7.416  15.554  67.710  1.00  0.00    -0.127 OA 
BRANCH  29  32
HETATM   32  C   UNL     1      -8.631  17.654  66.674  1.00  0.00    -0.257 C  
HETATM   33  C   UNL     1      -9.935  17.538  65.879  1.00  0.00    -0.155 C  
HETATM   34  C   UNL     1      -8.527  19.069  67.266  1.00  0.00    -0.297 C  
ENDBRANCH  29  32
ENDBRANCH  28  29
ENDBRANCH  21  23
ENDBRANCH  18  21
ENDBRANCH  12  14
ENDBRANCH   6  12
BRANCH  11  35
HETATM   35  C   UNL     1      -9.864   5.620  71.087  1.00  0.00    -0.229 C  
HETATM   36  C   UNL     1      -8.740   5.762  72.133  1.00  0.00    -0.133 C  
HETATM   37  C   UNL     1      -8.886   7.033  72.953  1.00  0.00    -0.125 C  
HETATM   38  N   UNL     1     -10.135   6.994  73.700  1.00  0.00    -0.301 NA 
HETATM   39  H   UNL     1     -10.208   7.779  74.347  1.00  0.00     0.000 HD 
HETATM   40  C   UNL     1     -11.292   6.926  72.809  1.00  0.00    -0.199 C  
HETATM   41  C   UNL     1     -11.218   5.768  71.818  1.00  0.00    -0.275 C  
ENDBRANCH  11  35
ENDBRANCH   4   5
ENDBRANCH   2   4
TORSDOF 9
ENDMDL
MODEL      248
REMARK 921   NORMALIZED FREE ENERGY PREDICTED BY IDOCK:   -1.07 KCAL/MOL
REMARK 922        TOTAL FREE ENERGY PREDICTED BY IDOCK:   -3.81 KCAL/MOL
REMARK 923 INTER-LIGAND FREE ENERGY PREDICTED BY IDOCK:   -6.44 KCAL/MOL
REMARK 924 INTRA-LIGAND FREE ENERGY PREDICTED BY IDOCK:    2.63 KCAL/MOL
REMARK 927      BINDING AFFINITY PREDICTED BY RF-SCORE:    0.00 PKD
ROOT
HETATM    1  C   UNL     1      -6.203  11.115  66.340  1.00  0.00    -0.127 C  
HETATM    2  C   UNL     1      -5.912  10.086  65.248  1.00  0.00    -0.097 C  
HETATM    3  C   UNL     1      -5.156   8.901  65.858  1.00  0.00    -0.029 C  
ENDROOT
BRANCH   2   4
HETATM    4  O   UNL     1      -7.173   9.711  64.644  1.00  0.00    -0.111 OA 
BRANCH   4   5
HETATM    5  C   UNL     1      -8.304   9.883  65.414  1.00  0.00    -0.146 A  
HETATM    6  C   UNL     1      -8.680   9.032  66.466  1.00  0.00    -0.129 A  
HETATM    7  C   UNL     1     -11.607  10.886  67.976  1.00  0.00    -0.295 C  
HETATM    8  C   UNL     1      -9.645   9.512  67.349  1.00  0.00    -0.178 A  
HETATM    9  C   UNL     1      -9.079  11.036  65.108  1.00  0.00    -0.199 A  
HETATM   10  C   UNL     1     -10.427  10.649  67.065  1.00  0.00    -0.295 A  
HETATM   11  C   UNL     1     -10.167  11.436  65.913  1.00  0.00    -0.292 A  
BRANCH   6  12
HETATM   12  N   UNL     1      -8.080   7.791  66.756  1.00  0.00    -0.113 NA 
HETATM   13  H   UNL     1      -7.068   7.839  66.877  1.00  0.00     0.000 HD 
BRANCH  12  14
HETATM   14  C   UNL     1      -8.598   6.535  66.905  1.00  0.00    -0.114 A  
HETATM   15  N   UNL     1      -9.404   6.225  67.968  1.00  0.00    -0.116 NA 
HETATM   16  C   UNL     1      -8.554   4.309  66.320  1.00  0.00    -0.113 A  
HETATM   17  N   UNL     1      -8.132   5.605  66.101  1.00  0.00    -0.106 NA 
HETATM   18  C   UNL     1      -9.682   4.910  68.363  1.00  0.00    -0.151 A  
HETATM   19  C   UNL     1      -9.275   3.869  67.356  1.00  0.00    -0.172 A  
HETATM   20 CL   UNL     1      -9.649   2.213  67.603  1.00  0.00    -0.089 Cl 
BRANCH  18  21
HETATM   21  N   UNL     1     -10.189   4.477  69.493  1.00  0.00    -0.073 NA 
HETATM   22  H   UNL     1     -11.195   4.328  69.578  1.00  0.00     0.000 HD 
BRANCH  21  23
HETATM   23  C   UNL     1      -9.350   4.220  70.584  1.00  0.00    -0.143 A  
HETATM   24  C   UNL     1      -8.810   2.934  70.741  1.00  0.00    -0.147 A  
HETATM   25  C   UNL     1      -8.312   2.514  71.969  1.00  0.00    -0.063 A  
HETATM   26  C   UNL     1      -8.277   3.406  73.033  1.00  0.00    -0.081 A  
HETATM   27  C   UNL     1      -8.633   4.741  72.837  1.00  0.00    -0.111 A  
HETATM   28  C   UNL     1      -9.127   5.163  71.594  1.00  0.00    -0.141 A  
BRANCH  28  29
HETATM   29  S   UNL     1      -9.028   6.927  71.244  1.00  0.00    -0.141 S  
HETATM   30  O   UNL     1      -7.699   7.158  70.699  1.00  0.00    -0.091 OA 
HETATM   31  O   UNL     1     -10.179   7.209  70.402  1.00  0.00    -0.192 OA 
BRANCH  29  32
HETATM   32  C   UNL     1      -9.147   7.920  72.724  1.00  0.00    -0.211 C  
HETATM   33  C   UNL     1     -10.540   8.526  72.919  1.00  0.00     0.098 C  
HETATM   34  C   UNL     1      -8.801   7.049  73.943  1.00  0.00    -0.207 C  
ENDBRANCH  29  32
ENDBRANCH  28  29
ENDBRANCH  21  23
ENDBRANCH  18  21
ENDBRANCH  12  14
ENDBRANCH   6  12
BRANCH  11  35
HETATM   35  C   UNL     1     -11.045  12.674  65.636  1.00  0.00    -0.327 C  
HETATM   36  C   UNL     1     -11.847  13.101  66.881  1.00  0.00    -0.444 C  
HETATM   37  C   UNL     1     -11.017  13.954  67.826  1.00  0.00    -0.256 C  
HETATM   38  N   UNL     1     -10.620  15.184  67.156  1.00  0.00    -0.289 NA 
HETATM   39  H   UNL     1     -10.159  15.828  67.799  1.00  0.00     0.000 HD 
HETATM   40  C   UNL     1      -9.789  14.913  65.984  1.00  0.00    -0.318 C  
HETATM   41  C   UNL     1     -10.438  13.946  64.999  1.00  0.00    -0.428 C  
ENDBRANCH  11  35
ENDBRANCH   4   5
ENDBRANCH   2   4
TORSDOF 9
ENDMDL
MODEL      249
REMARK 921   NORMALIZED FREE ENERGY PREDICTED BY IDOCK:   -0.71 KCAL/MOL
REMARK 922        TOTAL FREE ENERGY PREDICTED BY IDOCK:   -3.25 KCAL/MOL
REMARK 923 INTER-LIGAND FREE ENERGY PREDICTED BY IDOCK:   -4.99 KCAL/MOL
REMARK 924 INTRA-LIGAND FREE ENERGY PREDICTED BY IDOCK:    1.75 KCAL/MOL
REMARK 927      BINDING AFFINITY PREDICTED BY RF-SCORE:    0.00 PKD
ROOT
HETATM    1  C   UNL     1      -9.754  12.543  68.934  1.00  0.00     0.169 C  
HETATM    2  C   UNL     1     -10.847  11.523  69.249  1.00  0.00    -0.167 C  
HETATM    3  C   UNL     1     -12.107  12.260  69.716  1.00  0.00    -0.298 C  
ENDROOT
BRANCH   2   4
HETATM    4  O   UNL     1     -11.060  10.721  68.063  1.00  0.00    -0.254 OA 
BRANCH   4   5
HETATM    5  C   UNL     1      -9.960  10.064  67.553  1.00  0.00    -0.190 A  
HETATM    6  C   UNL     1      -9.287   9.022  68.213  1.00  0.00    -0.139 A  
HETATM    7  C   UNL     1      -6.856   7.851  65.567  1.00  0.00    -0.055 C  
HETATM    8  C   UNL     1      -8.419   8.249  67.445  1.00  0.00    -0.125 A  
HETATM    9  C   UNL     1      -9.549  10.479  66.256  1.00  0.00    -0.232 A  
HETATM   10  C   UNL     1      -7.996   8.642  66.160  1.00  0.00    -0.106 A  
HETATM   11  C   UNL     1      -8.549   9.791  65.537  1.00  0.00    -0.158 A  
BRANCH   6  12
HETATM   12  N   UNL     1      -9.506   8.637  69.549  1.00  0.00    -0.161 NA 
HETATM   13  H   UNL     1     -10.471   8.756  69.861  1.00  0.00     0.000 HD 
BRANCH  12  14
HETATM   14  C   UNL     1      -8.672   8.133  70.507  1.00  0.00    -0.135 A  
HETATM   15  N   UNL     1      -8.191   6.853  70.424  1.00  0.00    -0.123 NA 
HETATM   16  C   UNL     1      -7.775   8.306  72.621  1.00  0.00    -0.117 A  
HETATM   17  N   UNL     1      -8.516   8.857  71.594  1.00  0.00    -0.336 NA 
HETATM   18  C   UNL     1      -7.627   6.172  71.511  1.00  0.00    -0.099 A  
HETATM   19  C   UNL     1      -7.317   7.052  72.690  1.00  0.00    -0.080 A  
HETATM   20 CL   UNL     1      -6.506   6.425  74.066  1.00  0.00    -0.070 Cl 
BRANCH  18  21
HETATM   21  N   UNL     1      -7.391   4.889  71.648  1.00  0.00    -0.072 NA 
HETATM   22  H   UNL     1      -6.439   4.559  71.808  1.00  0.00     0.000 HD 
BRANCH  21  23
HETATM   23  C   UNL     1      -8.446   3.972  71.572  1.00  0.00    -0.092 A  
HETATM   24  C   UNL     1      -9.536   4.113  72.445  1.00  0.00    -0.179 A  
HETATM   25  C   UNL     1     -10.396   3.049  72.691  1.00  0.00    -0.211 A  
HETATM   26  C   UNL     1     -10.220   1.855  72.003  1.00  0.00    -0.198 A  
HETATM   27  C   UNL     1      -9.260   1.766  70.995  1.00  0.00    -0.169 A  
HETATM   28  C   UNL     1      -8.398   2.844  70.744  1.00  0.00    -0.053 A  
BRANCH  28  29
HETATM   29  S   UNL     1      -7.606   2.884  69.128  1.00  0.00    -0.047 S  
HETATM   30  O   UNL     1      -6.186   3.073  69.377  1.00  0.00    -0.027 OA 
HETATM   31  O   UNL     1      -8.036   1.663  68.467  1.00  0.00    -0.052 OA 
BRANCH  29  32
HETATM   32  C   UNL     1      -8.136   4.280  68.147  1.00  0.00    -0.089 C  
HETATM   33  C   UNL     1      -7.392   4.383  66.812  1.00  0.00    -0.080 C  
HETATM   34  C   UNL     1      -9.645   4.161  67.875  1.00  0.00    -0.203 C  
ENDBRANCH  29  32
ENDBRANCH  28  29
ENDBRANCH  21  23
ENDBRANCH  18  21
ENDBRANCH  12  14
ENDBRANCH   6  12
BRANCH  11  35
HETATM   35  C   UNL     1      -8.061  10.189  64.129  1.00  0.00    -0.158 C  
HETATM   36  C   UNL     1      -6.542   9.984  63.966  1.00  0.00    -0.130 C  
HETATM   37  C   UNL     1      -6.197   8.542  63.631  1.00  0.00    -0.073 C  
HETATM   38  N   UNL     1      -6.796   8.179  62.355  1.00  0.00    -0.087 NA 
HETATM   39  H   UNL     1      -6.489   7.256  62.048  1.00  0.00     0.000 HD 
HETATM   40  C   UNL     1      -8.255   8.268  62.401  1.00  0.00    -0.171 C  
HETATM   41  C   UNL     1      -8.757   9.632  62.865  1.00  0.00    -0.227 C  
ENDBRANCH  11  35
ENDBRANCH   4   5
ENDBRANCH   2   4
TORSDOF 9
ENDMDL
MODEL      250
REMARK 921   NORMALIZED FREE ENERGY PREDICTED BY IDOCK:   -0.13 KCAL/MOL
REMARK 922        TOTAL FREE ENERGY PREDICTED BY IDOCK:   -2.36 KCAL/MOL
REMARK 923 INTER-LIGAND FREE ENERGY PREDICTED BY IDOCK:   -2.32 KCAL/MOL
REMARK 924 INTRA-LIGAND FREE ENERGY PREDICTED BY IDOCK:   -0.04 KCAL/MOL
REMARK 927      BINDING AFFINITY PREDICTED BY RF-SCORE:    0.00 PKD
ROOT
HETATM    1  C   UNL     1      -7.746  12.488  69.933  1.00  0.00     1.723 C  
HETATM    2  C   UNL     1      -8.160  11.084  69.496  1.00  0.00     0.195 C  
HETATM    3  C   UNL     1      -7.642  10.064  70.516  1.00  0.00     0.086 C  
ENDROOT
BRANCH   2   4
HETATM    4  O   UNL     1      -9.601  11.070  69.354  1.00  0.00    -0.060 OA 
BRANCH   4   5
HETATM    5  C   UNL     1     -10.106  11.450  68.128  1.00  0.00    -0.189 A  
HETATM    6  C   UNL     1     -10.951  10.651  67.341  1.00  0.00    -0.298 A  
HETATM    7  C   UNL     1     -11.936  13.029  64.573  1.00  0.00    -0.450 C  
HETATM    8  C   UNL     1     -11.635  11.287  66.307  1.00  0.00     0.250 A  
HETATM    9  C   UNL     1      -9.752  12.761  67.703  1.00  0.00    -0.205 A  
HETATM   10  C   UNL     1     -11.299  12.582  65.866  1.00  0.00    -0.380 A  
HETATM   11  C   UNL     1     -10.324  13.350  66.556  1.00  0.00    -0.284 A  
BRANCH   6  12
HETATM   12  N   UNL     1     -11.240   9.295  67.585  1.00  0.00    -0.366 NA 
HETATM   13  H   UNL     1     -11.890   8.882  66.915  1.00  0.00     0.000 HD 
BRANCH  12  14
HETATM   14  C   UNL     1     -10.814   8.426  68.551  1.00  0.00     0.081 A  
HETATM   15  N   UNL     1      -9.497   8.058  68.640  1.00  0.00    -0.146 NA 
HETATM   16  C   UNL     1     -11.336   6.849  70.145  1.00  0.00    -0.314 A  
HETATM   17  N   UNL     1     -11.746   7.819  69.252  1.00  0.00     0.754 NA 
HETATM   18  C   UNL     1      -9.059   6.940  69.362  1.00  0.00    -0.141 A  
HETATM   19  C   UNL     1     -10.101   6.353  70.273  1.00  0.00    -0.181 A  
HETATM   20 CL   UNL     1      -9.715   5.060  71.333  1.00  0.00    -0.220 Cl 
BRANCH  18  21
HETATM   21  N   UNL     1      -7.902   6.323  69.306  1.00  0.00    -0.103 NA 
HETATM   22  H   UNL     1      -7.307   6.280  70.133  1.00  0.00     0.000 HD 
BRANCH  21  23
HETATM   23  C   UNL     1      -7.486   5.726  68.111  1.00  0.00    -0.078 A  
HETATM   24  C   UNL     1      -7.506   6.480  66.927  1.00  0.00    -0.084 A  
HETATM   25  C   UNL     1      -7.489   5.860  65.684  1.00  0.00    -0.081 A  
HETATM   26  C   UNL     1      -7.370   4.477  65.612  1.00  0.00    -0.080 A  
HETATM   27  C   UNL     1      -7.157   3.734  66.774  1.00  0.00    -0.063 A  
HETATM   28  C   UNL     1      -7.167   4.366  68.027  1.00  0.00    -0.064 A  
BRANCH  28  29
HETATM   29  S   UNL     1      -6.351   3.495  69.375  1.00  0.00    -0.029 S  
HETATM   30  O   UNL     1      -5.378   2.609  68.756  1.00  0.00    -0.012 OA 
HETATM   31  O   UNL     1      -5.868   4.541  70.261  1.00  0.00    -0.012 OA 
BRANCH  29  32
HETATM   32  C   UNL     1      -7.476   2.450  70.287  1.00  0.00    -0.043 C  
HETATM   33  C   UNL     1      -7.312   2.586  71.804  1.00  0.00    -0.040 C  
HETATM   34  C   UNL     1      -8.921   2.809  69.902  1.00  0.00    -0.167 C  
ENDBRANCH  29  32
ENDBRANCH  28  29
ENDBRANCH  21  23
ENDBRANCH  18  21
ENDBRANCH  12  14
ENDBRANCH   6  12
BRANCH  11  35
HETATM   35  C   UNL     1      -9.984  14.765  66.044  1.00  0.00    -0.336 C  
HETATM   36  C   UNL     1     -11.161  15.744  66.231  1.00  0.00    -0.073 C  
HETATM   37  C   UNL     1     -11.207  16.312  67.640  1.00  0.00    -0.111 C  
HETATM   38  N   UNL     1      -9.996  17.076  67.901  1.00  0.00    -0.271 NA 
HETATM   39  H   UNL     1     -10.048  17.564  68.795  1.00  0.00     0.000 HD 
HETATM   40  C   UNL     1      -8.802  16.236  67.819  1.00  0.00    -0.188 C  
HETATM   41  C   UNL     1      -8.691  15.480  66.499  1.00  0.00    -0.340 C  
ENDBRANCH  11  35
ENDBRANCH   4   5
ENDBRANCH   2   4
TORSDOF 9
ENDMDL
MODEL      251
REMARK 921   NORMALIZED FREE ENERGY PREDICTED BY IDOCK:    0.10 KCAL/MOL
REMARK 922        TOTAL FREE ENERGY PREDICTED BY IDOCK:   -2.01 KCAL/MOL
REMARK 923 INTER-LIGAND FREE ENERGY PREDICTED BY IDOCK:   -4.57 KCAL/MOL
REMARK 924 INTRA-LIGAND FREE ENERGY PREDICTED BY IDOCK:    2.56 KCAL/MOL
REMARK 927      BINDING AFFINITY PREDICTED BY RF-SCORE:    0.00 PKD
ROOT
HETATM    1  C   UNL     1      -8.410   7.976  65.786  1.00  0.00    -0.142 C  
HETATM    2  C   UNL     1      -7.789   7.029  66.813  1.00  0.00    -0.107 C  
HETATM    3  C   UNL     1      -6.351   7.471  67.103  1.00  0.00    -0.053 C  
ENDROOT
BRANCH   2   4
HETATM    4  O   UNL     1      -8.637   7.030  67.987  1.00  0.00    -0.124 OA 
BRANCH   4   5
HETATM    5  C   UNL     1      -8.054   7.431  69.171  1.00  0.00    -0.120 A  
HETATM    6  C   UNL     1      -7.844   8.772  69.532  1.00  0.00    -0.091 A  
HETATM    7  C   UNL     1      -6.661   8.450  73.107  1.00  0.00    -0.113 C  
HETATM    8  C   UNL     1      -7.559   9.024  70.873  1.00  0.00    -0.141 A  
HETATM    9  C   UNL     1      -7.703   6.381  70.063  1.00  0.00    -0.102 A  
HETATM   10  C   UNL     1      -7.204   8.001  71.773  1.00  0.00    -0.079 A  
HETATM   11  C   UNL     1      -7.254   6.639  71.375  1.00  0.00    -0.082 A  
BRANCH   6  12
HETATM   12  N   UNL     1      -8.009   9.876  68.674  1.00  0.00    -0.085 NA 
HETATM   13  H   UNL     1      -8.671   9.715  67.915  1.00  0.00     0.000 HD 
BRANCH  12  14
HETATM   14  C   UNL     1      -7.450  11.123  68.666  1.00  0.00    -0.119 A  
HETATM   15  N   UNL     1      -8.159  12.218  69.087  1.00  0.00     0.302 NA 
HETATM   16  C   UNL     1      -5.772  12.521  67.937  1.00  0.00    -0.093 A  
HETATM   17  N   UNL     1      -6.290  11.247  68.060  1.00  0.00    -0.053 NA 
HETATM   18  C   UNL     1      -7.783  13.535  68.792  1.00  0.00    -0.044 A  
HETATM   19  C   UNL     1      -6.391  13.666  68.239  1.00  0.00    -0.107 A  
HETATM   20 CL   UNL     1      -5.706  15.210  67.937  1.00  0.00    -0.153 Cl 
BRANCH  18  21
HETATM   21  N   UNL     1      -8.493  14.635  68.884  1.00  0.00    -0.235 NA 
HETATM   22  H   UNL     1      -8.815  14.960  69.796  1.00  0.00     0.000 HD 
BRANCH  21  23
HETATM   23  C   UNL     1      -8.808  15.362  67.730  1.00  0.00    -0.168 A  
HETATM   24  C   UNL     1      -7.768  15.907  66.961  1.00  0.00    -0.268 A  
HETATM   25  C   UNL     1      -8.009  16.938  66.061  1.00  0.00    -0.147 A  
HETATM   26  C   UNL     1      -9.312  17.381  65.863  1.00  0.00     0.008 A  
HETATM   27  C   UNL     1     -10.374  16.719  66.479  1.00  0.00    -0.301 A  
HETATM   28  C   UNL     1     -10.127  15.673  67.380  1.00  0.00    -0.251 A  
BRANCH  28  29
HETATM   29  S   UNL     1     -11.487  14.532  67.684  1.00  0.00    -0.368 S  
HETATM   30  O   UNL     1     -12.547  15.318  68.294  1.00  0.00     0.392 OA 
HETATM   31  O   UNL     1     -11.744  13.902  66.399  1.00  0.00    -0.346 OA 
BRANCH  29  32
HETATM   32  C   UNL     1     -11.056  13.263  68.865  1.00  0.00    -0.261 C  
HETATM   33  C   UNL     1     -11.889  13.341  70.147  1.00  0.00    -0.333 C  
HETATM   34  C   UNL     1     -11.255  11.883  68.217  1.00  0.00    -0.317 C  
ENDBRANCH  29  32
ENDBRANCH  28  29
ENDBRANCH  21  23
ENDBRANCH  18  21
ENDBRANCH  12  14
ENDBRANCH   6  12
BRANCH  11  35
HETATM   35  C   UNL     1      -6.859   5.546  72.390  1.00  0.00    -0.076 C  
HETATM   36  C   UNL     1      -7.696   5.630  73.682  1.00  0.00    -0.101 C  
HETATM   37  C   UNL     1      -9.043   4.942  73.531  1.00  0.00    -0.120 C  
HETATM   38  N   UNL     1      -8.843   3.525  73.266  1.00  0.00    -0.088 NA 
HETATM   39  H   UNL     1      -9.726   3.015  73.273  1.00  0.00     0.000 HD 
HETATM   40  C   UNL     1      -8.111   3.309  72.019  1.00  0.00    -0.063 C  
HETATM   41  C   UNL     1      -6.785   4.062  71.964  1.00  0.00    -0.026 C  
ENDBRANCH  11  35
ENDBRANCH   4   5
ENDBRANCH   2   4
TORSDOF 9
ENDMDL
MODEL      252
REMARK 921   NORMALIZED FREE ENERGY PREDICTED BY IDOCK:    0.67 KCAL/MOL
REMARK 922        TOTAL FREE ENERGY PREDICTED BY IDOCK:   -1.15 KCAL/MOL
REMARK 923 INTER-LIGAND FREE ENERGY PREDICTED BY IDOCK:   -5.22 KCAL/MOL
REMARK 924 INTRA-LIGAND FREE ENERGY PREDICTED BY IDOCK:    4.07 KCAL/MOL
REMARK 927      BINDING AFFINITY PREDICTED BY RF-SCORE:    0.00 PKD
ROOT
HETATM    1  C   UNL     1     -12.122  11.706  69.066  1.00  0.00    -0.288 C  
HETATM    2  C   UNL     1     -11.157  10.521  69.030  1.00  0.00    -0.249 C  
HETATM    3  C   UNL     1     -10.928  10.099  67.575  1.00  0.00    -0.319 C  
ENDROOT
BRANCH   2   4
HETATM    4  O   UNL     1      -9.942  10.918  69.710  1.00  0.00     0.010 OA 
BRANCH   4   5
HETATM    5  C   UNL     1      -9.225   9.917  70.332  1.00  0.00     0.019 A  
HETATM    6  C   UNL     1      -7.834   9.944  70.523  1.00  0.00     0.082 A  
HETATM    7  C   UNL     1      -7.278   6.917  72.717  1.00  0.00    -0.074 C  
HETATM    8  C   UNL     1      -7.308   9.040  71.444  1.00  0.00    -0.066 A  
HETATM    9  C   UNL     1     -10.000   8.834  70.833  1.00  0.00    -0.279 A  
HETATM   10  C   UNL     1      -8.055   7.959  71.949  1.00  0.00    -0.138 A  
HETATM   11  C   UNL     1      -9.433   7.823  71.635  1.00  0.00    -0.179 A  
BRANCH   6  12
HETATM   12  N   UNL     1      -6.957  10.880  69.942  1.00  0.00    -0.280 NA 
HETATM   13  H   UNL     1      -5.974  10.721  70.167  1.00  0.00     0.000 HD 
BRANCH  12  14
HETATM   14  C   UNL     1      -7.172  11.959  69.132  1.00  0.00    -0.020 A  
HETATM   15  N   UNL     1      -7.297  13.220  69.654  1.00  0.00     0.426 NA 
HETATM   16  C   UNL     1      -7.786  12.779  67.070  1.00  0.00     0.012 A  
HETATM   17  N   UNL     1      -7.446  11.707  67.871  1.00  0.00    -0.099 NA 
HETATM   18  C   UNL     1      -7.846  14.295  68.942  1.00  0.00    -0.097 A  
HETATM   19  C   UNL     1      -8.010  14.035  67.470  1.00  0.00    -0.187 A  
HETATM   20 CL   UNL     1      -8.546  15.275  66.413  1.00  0.00    -0.273 Cl 
BRANCH  18  21
HETATM   21  N   UNL     1      -8.275  15.450  69.394  1.00  0.00    -0.249 NA 
HETATM   22  H   UNL     1      -8.122  15.706  70.369  1.00  0.00     0.000 HD 
BRANCH  21  23
HETATM   23  C   UNL     1      -8.945  16.331  68.536  1.00  0.00    -0.219 A  
HETATM   24  C   UNL     1      -8.196  17.122  67.651  1.00  0.00    -0.194 A  
HETATM   25  C   UNL     1      -8.743  18.263  67.076  1.00  0.00    -0.265 A  
HETATM   26  C   UNL     1     -10.074  18.580  67.319  1.00  0.00    -0.376 A  
HETATM   27  C   UNL     1     -10.879  17.699  68.042  1.00  0.00    -0.240 A  
HETATM   28  C   UNL     1     -10.326  16.544  68.613  1.00  0.00    -0.287 A  
BRANCH  28  29
HETATM   29  S   UNL     1     -11.472  15.216  69.020  1.00  0.00    -0.329 S  
HETATM   30  O   UNL     1     -12.779  15.651  68.552  1.00  0.00     0.594 OA 
HETATM   31  O   UNL     1     -10.889  14.022  68.432  1.00  0.00    -0.235 OA 
BRANCH  29  32
HETATM   32  C   UNL     1     -11.624  14.968  70.783  1.00  0.00    -0.317 C  
HETATM   33  C   UNL     1     -11.485  16.269  71.578  1.00  0.00    -0.344 C  
HETATM   34  C   UNL     1     -12.992  14.336  71.086  1.00  0.00    -0.423 C  
ENDBRANCH  29  32
ENDBRANCH  28  29
ENDBRANCH  21  23
ENDBRANCH  18  21
ENDBRANCH  12  14
ENDBRANCH   6  12
BRANCH  11  35
HETATM   35  C   UNL     1     -10.218   6.625  72.209  1.00  0.00    -0.206 C  
HETATM   36  C   UNL     1     -11.433   6.260  71.333  1.00  0.00    -0.352 C  
HETATM   37  C   UNL     1     -11.040   5.383  70.155  1.00  0.00     0.198 C  
HETATM   38  N   UNL     1     -10.496   4.124  70.641  1.00  0.00     0.339 NA 
HETATM   39  H   UNL     1     -10.329   3.469  69.877  1.00  0.00     0.000 HD 
HETATM   40  C   UNL     1      -9.288   4.332  71.439  1.00  0.00    -0.147 C  
HETATM   41  C   UNL     1      -9.492   5.313  72.589  1.00  0.00    -0.164 C  
ENDBRANCH  11  35
ENDBRANCH   4   5
ENDBRANCH   2   4
TORSDOF 9
ENDMDL
MODEL      253
REMARK 921   NORMALIZED FREE ENERGY PREDICTED BY IDOCK:    0.83 KCAL/MOL
REMARK 922        TOTAL FREE ENERGY PREDICTED BY IDOCK:   -0.90 KCAL/MOL
REMARK 923 INTER-LIGAND FREE ENERGY PREDICTED BY IDOCK:   -5.43 KCAL/MOL
REMARK 924 INTRA-LIGAND FREE ENERGY PREDICTED BY IDOCK:    4.53 KCAL/MOL
REMARK 927      BINDING AFFINITY PREDICTED BY RF-SCORE:    0.00 PKD
ROOT
HETATM    1  C   UNL     1     -11.213   8.615  71.739  1.00  0.00    -0.396 C  
HETATM    2  C   UNL     1     -11.745   7.194  71.553  1.00  0.00    -0.290 C  
HETATM    3  C   UNL     1     -12.580   7.131  70.269  1.00  0.00     0.296 C  
ENDROOT
BRANCH   2   4
HETATM    4  O   UNL     1     -10.611   6.294  71.543  1.00  0.00    -0.224 OA 
BRANCH   4   5
HETATM    5  C   UNL     1      -9.815   6.312  70.417  1.00  0.00    -0.176 A  
HETATM    6  C   UNL     1      -9.442   7.481  69.733  1.00  0.00    -0.156 A  
HETATM    7  C   UNL     1      -6.944   6.163  67.221  1.00  0.00    -0.069 C  
HETATM    8  C   UNL     1      -8.385   7.371  68.832  1.00  0.00    -0.129 A  
HETATM    9  C   UNL     1      -9.333   5.043  69.991  1.00  0.00    -0.208 A  
HETATM   10  C   UNL     1      -7.895   6.126  68.392  1.00  0.00    -0.104 A  
HETATM   11  C   UNL     1      -8.379   4.918  68.960  1.00  0.00    -0.082 A  
BRANCH   6  12
HETATM   12  N   UNL     1      -9.976   8.762  69.970  1.00  0.00    -0.182 NA 
HETATM   13  H   UNL     1     -10.167   8.955  70.954  1.00  0.00     0.000 HD 
BRANCH  12  14
HETATM   14  C   UNL     1     -10.288   9.795  69.132  1.00  0.00    -0.211 A  
HETATM   15  N   UNL     1      -9.900  11.078  69.417  1.00  0.00    -0.037 NA 
HETATM   16  C   UNL     1     -11.550  10.592  67.379  1.00  0.00     0.283 A  
HETATM   17  N   UNL     1     -11.132   9.532  68.159  1.00  0.00    -0.078 NA 
HETATM   18  C   UNL     1     -10.461  12.204  68.801  1.00  0.00    -0.176 A  
HETATM   19  C   UNL     1     -11.303  11.888  67.596  1.00  0.00    -0.304 A  
HETATM   20 CL   UNL     1     -11.970  13.144  66.635  1.00  0.00    -0.454 Cl 
BRANCH  18  21
HETATM   21  N   UNL     1     -10.393  13.463  69.165  1.00  0.00    -0.431 NA 
HETATM   22  H   UNL     1     -10.682  13.740  70.104  1.00  0.00     0.000 HD 
BRANCH  21  23
HETATM   23  C   UNL     1      -9.923  14.427  68.265  1.00  0.00    -0.232 A  
HETATM   24  C   UNL     1     -10.700  15.570  68.022  1.00  0.00    -0.283 A  
HETATM   25  C   UNL     1     -10.497  16.344  66.885  1.00  0.00    -0.289 A  
HETATM   26  C   UNL     1      -9.458  16.025  66.019  1.00  0.00    -0.384 A  
HETATM   27  C   UNL     1      -8.562  15.008  66.349  1.00  0.00    -0.083 A  
HETATM   28  C   UNL     1      -8.765  14.235  67.502  1.00  0.00    -0.199 A  
BRANCH  28  29
HETATM   29  S   UNL     1      -7.330  13.364  68.153  1.00  0.00    -0.135 S  
HETATM   30  O   UNL     1      -6.236  14.322  68.144  1.00  0.00    -0.109 OA 
HETATM   31  O   UNL     1      -7.765  12.824  69.430  1.00  0.00     0.353 OA 
BRANCH  29  32
HETATM   32  C   UNL     1      -6.825  12.010  67.103  1.00  0.00    -0.136 C  
HETATM   33  C   UNL     1      -6.107  10.899  67.875  1.00  0.00    -0.050 C  
HETATM   34  C   UNL     1      -8.063  11.422  66.408  1.00  0.00    -0.106 C  
ENDBRANCH  29  32
ENDBRANCH  28  29
ENDBRANCH  21  23
ENDBRANCH  18  21
ENDBRANCH  12  14
ENDBRANCH   6  12
BRANCH  11  35
HETATM   35  C   UNL     1      -7.817   3.574  68.453  1.00  0.00    -0.063 C  
HETATM   36  C   UNL     1      -8.388   2.377  69.241  1.00  0.00    -0.079 C  
HETATM   37  C   UNL     1      -9.751   1.954  68.719  1.00  0.00     0.060 C  
HETATM   38  N   UNL     1      -9.633   1.513  67.337  1.00  0.00    -0.388 NA 
HETATM   39  H   UNL     1     -10.508   1.116  66.996  1.00  0.00     0.000 HD 
HETATM   40  C   UNL     1      -9.159   2.589  66.468  1.00  0.00    -0.096 C  
HETATM   41  C   UNL     1      -7.855   3.218  66.949  1.00  0.00    -0.080 C  
ENDBRANCH  11  35
ENDBRANCH   4   5
ENDBRANCH   2   4
TORSDOF 9
ENDMDL
MODEL      254
REMARK 921   NORMALIZED FREE ENERGY PREDICTED BY IDOCK:    0.92 KCAL/MOL
REMARK 922        TOTAL FREE ENERGY PREDICTED BY IDOCK:   -0.77 KCAL/MOL
REMARK 923 INTER-LIGAND FREE ENERGY PREDICTED BY IDOCK:   -3.03 KCAL/MOL
REMARK 924 INTRA-LIGAND FREE ENERGY PREDICTED BY IDOCK:    2.26 KCAL/MOL
REMARK 927      BINDING AFFINITY PREDICTED BY RF-SCORE:    0.00 PKD
ROOT
HETATM    1  C   UNL     1      -5.127   9.662  68.627  1.00  0.00    -0.033 C  
HETATM    2  C   UNL     1      -6.166   8.592  68.290  1.00  0.00    -0.054 C  
HETATM    3  C   UNL     1      -6.079   7.461  69.320  1.00  0.00    -0.031 C  
ENDROOT
BRANCH   2   4
HETATM    4  O   UNL     1      -7.464   9.231  68.249  1.00  0.00    -0.078 OA 
BRANCH   4   5
HETATM    5  C   UNL     1      -8.510   8.478  67.760  1.00  0.00    -0.130 A  
HETATM    6  C   UNL     1      -9.019   8.588  66.455  1.00  0.00    -0.161 A  
HETATM    7  C   UNL     1     -11.452   5.699  66.310  1.00  0.00     0.890 C  
HETATM    8  C   UNL     1      -9.837   7.551  66.010  1.00  0.00     0.229 A  
HETATM    9  C   UNL     1      -9.040   7.513  68.661  1.00  0.00    -0.134 A  
HETATM   10  C   UNL     1     -10.377   6.588  66.885  1.00  0.00    -0.311 A  
HETATM   11  C   UNL     1      -9.996   6.560  68.252  1.00  0.00    -0.145 A  
BRANCH   6  12
HETATM   12  N   UNL     1      -8.680   9.600  65.538  1.00  0.00    -0.144 NA 
HETATM   13  H   UNL     1      -8.227   9.256  64.690  1.00  0.00     0.000 HD 
BRANCH  12  14
HETATM   14  C   UNL     1      -8.842  10.957  65.567  1.00  0.00    -0.188 A  
HETATM   15  N   UNL     1      -8.449  11.693  66.654  1.00  0.00    -0.173 NA 
HETATM   16  C   UNL     1      -9.835  12.837  64.685  1.00  0.00    -0.028 A  
HETATM   17  N   UNL     1      -9.561  11.487  64.602  1.00  0.00    -0.202 NA 
HETATM   18  C   UNL     1      -8.885  13.002  66.893  1.00  0.00    -0.180 A  
HETATM   19  C   UNL     1      -9.573  13.643  65.719  1.00  0.00    -0.061 A  
HETATM   20 CL   UNL     1     -10.063  15.286  65.776  1.00  0.00    -0.352 Cl 
BRANCH  18  21
HETATM   21  N   UNL     1      -8.819  13.705  68.000  1.00  0.00    -0.179 NA 
HETATM   22  H   UNL     1      -7.931  13.798  68.493  1.00  0.00     0.000 HD 
BRANCH  21  23
HETATM   23  C   UNL     1      -9.968  14.326  68.502  1.00  0.00    -0.235 A  
HETATM   24  C   UNL     1     -10.037  15.728  68.512  1.00  0.00    -0.215 A  
HETATM   25  C   UNL     1     -10.941  16.394  69.332  1.00  0.00    -0.325 A  
HETATM   26  C   UNL     1     -11.841  15.659  70.093  1.00  0.00    -0.381 A  
HETATM   27  C   UNL     1     -11.909  14.273  69.948  1.00  0.00    -0.382 A  
HETATM   28  C   UNL     1     -11.001  13.605  69.113  1.00  0.00    -0.194 A  
BRANCH  28  29
HETATM   29  S   UNL     1     -11.483  11.967  68.543  1.00  0.00    -0.321 S  
HETATM   30  O   UNL     1     -12.789  11.703  69.126  1.00  0.00     0.239 OA 
HETATM   31  O   UNL     1     -11.371  12.024  67.095  1.00  0.00    -0.294 OA 
BRANCH  29  32
HETATM   32  C   UNL     1     -10.391  10.690  69.150  1.00  0.00    -0.221 C  
HETATM   33  C   UNL     1      -9.499  11.170  70.298  1.00  0.00     2.110 C  
HETATM   34  C   UNL     1     -11.232   9.496  69.631  1.00  0.00    -0.138 C  
ENDBRANCH  29  32
ENDBRANCH  28  29
ENDBRANCH  21  23
ENDBRANCH  18  21
ENDBRANCH  12  14
ENDBRANCH   6  12
BRANCH  11  35
HETATM   35  C   UNL     1     -10.608   5.489  69.179  1.00  0.00    -0.300 C  
HETATM   36  C   UNL     1      -9.540   4.519  69.722  1.00  0.00    -0.270 C  
HETATM   37  C   UNL     1      -8.818   5.091  70.932  1.00  0.00    -0.133 C  
HETATM   38  N   UNL     1      -9.767   5.301  72.015  1.00  0.00    -0.157 NA 
HETATM   39  H   UNL     1      -9.295   5.576  72.876  1.00  0.00     0.000 HD 
HETATM   40  C   UNL     1     -10.803   6.264  71.643  1.00  0.00    -0.251 C  
HETATM   41  C   UNL     1     -11.529   5.894  70.353  1.00  0.00    -0.096 C  
ENDBRANCH  11  35
ENDBRANCH   4   5
ENDBRANCH   2   4
TORSDOF 9
ENDMDL
MODEL      255
REMARK 921   NORMALIZED FREE ENERGY PREDICTED BY IDOCK:    1.89 KCAL/MOL
REMARK 922        TOTAL FREE ENERGY PREDICTED BY IDOCK:    0.71 KCAL/MOL
REMARK 923 INTER-LIGAND FREE ENERGY PREDICTED BY IDOCK:    0.78 KCAL/MOL
REMARK 924 INTRA-LIGAND FREE ENERGY PREDICTED BY IDOCK:   -0.06 KCAL/MOL
REMARK 927      BINDING AFFINITY PREDICTED BY RF-SCORE:    0.00 PKD
ROOT
HETATM    1  C   UNL     1     -10.058   9.696  63.279  1.00  0.00     1.658 C  
HETATM    2  C   UNL     1     -10.021  11.081  63.922  1.00  0.00    -0.341 C  
HETATM    3  C   UNL     1      -9.725  12.131  62.845  1.00  0.00     0.511 C  
ENDROOT
BRANCH   2   4
HETATM    4  O   UNL     1     -11.285  11.292  64.595  1.00  0.00    -0.219 OA 
BRANCH   4   5
HETATM    5  C   UNL     1     -11.235  11.485  65.960  1.00  0.00    -0.178 A  
HETATM    6  C   UNL     1     -10.783  10.522  66.877  1.00  0.00    -0.219 A  
HETATM    7  C   UNL     1     -10.721  12.479  70.111  1.00  0.00     1.380 C  
HETATM    8  C   UNL     1     -10.482  10.970  68.162  1.00  0.00    -0.216 A  
HETATM    9  C   UNL     1     -11.637  12.774  66.408  1.00  0.00    -0.435 A  
HETATM   10  C   UNL     1     -10.874  12.240  68.628  1.00  0.00    -0.268 A  
HETATM   11  C   UNL     1     -11.484  13.175  67.752  1.00  0.00    -0.352 A  
BRANCH   6  12
HETATM   12  N   UNL     1     -10.509   9.176  66.567  1.00  0.00    -0.188 NA 
HETATM   13  H   UNL     1     -11.334   8.575  66.569  1.00  0.00     0.000 HD 
BRANCH  12  14
HETATM   14  C   UNL     1      -9.348   8.522  66.264  1.00  0.00    -0.224 A  
HETATM   15  N   UNL     1      -9.255   7.160  66.374  1.00  0.00    -0.168 NA 
HETATM   16  C   UNL     1      -7.082   8.621  65.871  1.00  0.00    -0.076 A  
HETATM   17  N   UNL     1      -8.286   9.270  66.057  1.00  0.00    -0.110 NA 
HETATM   18  C   UNL     1      -8.034   6.475  66.412  1.00  0.00    -0.110 A  
HETATM   19  C   UNL     1      -6.848   7.314  66.023  1.00  0.00    -0.057 A  
HETATM   20 CL   UNL     1      -5.285   6.619  65.886  1.00  0.00    -0.017 Cl 
BRANCH  18  21
HETATM   21  N   UNL     1      -7.791   5.240  66.786  1.00  0.00    -0.100 NA 
HETATM   22  H   UNL     1      -7.103   4.680  66.284  1.00  0.00     0.000 HD 
BRANCH  21  23
HETATM   23  C   UNL     1      -8.479   4.692  67.875  1.00  0.00    -0.102 A  
HETATM   24  C   UNL     1      -9.660   3.971  67.644  1.00  0.00    -0.210 A  
HETATM   25  C   UNL     1     -10.574   3.750  68.667  1.00  0.00     2.018 A  
HETATM   26  C   UNL     1     -10.277   4.181  69.954  1.00  0.00     0.283 A  
HETATM   27  C   UNL     1      -9.024   4.728  70.234  1.00  0.00    -0.147 A  
HETATM   28  C   UNL     1      -8.100   4.942  69.200  1.00  0.00    -0.079 A  
BRANCH  28  29
HETATM   29  S   UNL     1      -6.373   5.103  69.682  1.00  0.00    -0.031 S  
HETATM   30  O   UNL     1      -6.261   4.498  70.999  1.00  0.00    -0.017 OA 
HETATM   31  O   UNL     1      -5.620   4.517  68.585  1.00  0.00    -0.011 OA 
BRANCH  29  32
HETATM   32  C   UNL     1      -5.877   6.809  69.865  1.00  0.00    -0.023 C  
HETATM   33  C   UNL     1      -7.009   7.792  69.553  1.00  0.00    -0.058 C  
HETATM   34  C   UNL     1      -5.392   7.041  71.306  1.00  0.00    -0.027 C  
ENDBRANCH  29  32
ENDBRANCH  28  29
ENDBRANCH  21  23
ENDBRANCH  18  21
ENDBRANCH  12  14
ENDBRANCH   6  12
BRANCH  11  35
HETATM   35  C   UNL     1     -11.898  14.557  68.299  1.00  0.00    -0.347 C  
HETATM   36  C   UNL     1     -11.169  14.898  69.614  1.00  0.00    -0.300 C  
HETATM   37  C   UNL     1      -9.780  15.463  69.361  1.00  0.00    -0.273 C  
HETATM   38  N   UNL     1      -9.886  16.710  68.618  1.00  0.00    -0.241 NA 
HETATM   39  H   UNL     1      -8.980  17.171  68.533  1.00  0.00     0.000 HD 
HETATM   40  C   UNL     1     -10.507  16.506  67.310  1.00  0.00    -0.304 C  
HETATM   41  C   UNL     1     -11.862  15.809  67.393  1.00  0.00     0.374 C  
ENDBRANCH  11  35
ENDBRANCH   4   5
ENDBRANCH   2   4
TORSDOF 9
ENDMDL
MODEL      256
REMARK 921   NORMALIZED FREE ENERGY PREDICTED BY IDOCK:    2.05 KCAL/MOL
REMARK 922        TOTAL FREE ENERGY PREDICTED BY IDOCK:    0.96 KCAL/MOL
REMARK 923 INTER-LIGAND FREE ENERGY PREDICTED BY IDOCK:   -2.69 KCAL/MOL
REMARK 924 INTRA-LIGAND FREE ENERGY PREDICTED BY IDOCK:    3.65 KCAL/MOL
REMARK 927      BINDING AFFINITY PREDICTED BY RF-SCORE:    0.00 PKD
ROOT
HETATM    1  C   UNL     1      -9.744   9.702  62.336  1.00  0.00     0.454 C  
HETATM    2  C   UNL     1      -8.923  10.951  62.655  1.00  0.00    -0.319 C  
HETATM    3  C   UNL     1      -9.861  12.157  62.771  1.00  0.00     0.720 C  
ENDROOT
BRANCH   2   4
HETATM    4  O   UNL     1      -8.173  10.691  63.866  1.00  0.00    -0.112 OA 
BRANCH   4   5
HETATM    5  C   UNL     1      -8.781   9.892  64.812  1.00  0.00    -0.189 A  
HETATM    6  C   UNL     1     -10.051  10.142  65.358  1.00  0.00    -0.272 A  
HETATM    7  C   UNL     1     -10.668   7.013  67.386  1.00  0.00    -0.383 C  
HETATM    8  C   UNL     1     -10.660   9.090  66.038  1.00  0.00     0.663 A  
HETATM    9  C   UNL     1      -8.049   8.732  65.190  1.00  0.00    -0.133 A  
HETATM   10  C   UNL     1      -9.955   7.935  66.427  1.00  0.00    -0.192 A  
HETATM   11  C   UNL     1      -8.610   7.737  66.018  1.00  0.00    -0.166 A  
BRANCH   6  12
HETATM   12  N   UNL     1     -10.790  11.326  65.175  1.00  0.00    -0.241 NA 
HETATM   13  H   UNL     1     -11.120  11.465  64.219  1.00  0.00     0.000 HD 
BRANCH  12  14
HETATM   14  C   UNL     1     -11.151  12.325  66.035  1.00  0.00    -0.309 A  
HETATM   15  N   UNL     1     -10.623  12.395  67.298  1.00  0.00    -0.221 NA 
HETATM   16  C   UNL     1     -12.612  14.018  66.580  1.00  0.00    -0.174 A  
HETATM   17  N   UNL     1     -12.159  13.085  65.669  1.00  0.00    -0.431 NA 
HETATM   18  C   UNL     1     -11.186  13.164  68.324  1.00  0.00    -0.274 A  
HETATM   19  C   UNL     1     -12.233  14.137  67.856  1.00  0.00    -0.155 A  
HETATM   20 CL   UNL     1     -12.945  15.254  68.946  1.00  0.00     0.846 Cl 
BRANCH  18  21
HETATM   21  N   UNL     1     -10.961  13.108  69.616  1.00  0.00    -0.456 NA 
HETATM   22  H   UNL     1     -10.801  12.208  70.067  1.00  0.00     0.000 HD 
BRANCH  21  23
HETATM   23  C   UNL     1     -10.941  14.285  70.374  1.00  0.00     0.282 A  
HETATM   24  C   UNL     1     -11.709  14.354  71.547  1.00  0.00    -0.082 A  
HETATM   25  C   UNL     1     -12.040  15.580  72.113  1.00  0.00    -0.509 A  
HETATM   26  C   UNL     1     -11.538  16.748  71.553  1.00  0.00     0.278 A  
HETATM   27  C   UNL     1     -10.621  16.681  70.504  1.00  0.00     0.391 A  
HETATM   28  C   UNL     1     -10.282  15.442  69.941  1.00  0.00    -0.266 A  
BRANCH  28  29
HETATM   29  S   UNL     1      -8.735  15.368  69.024  1.00  0.00    -0.247 S  
HETATM   30  O   UNL     1      -7.833  16.306  69.674  1.00  0.00    -0.061 OA 
HETATM   31  O   UNL     1      -8.373  13.960  69.007  1.00  0.00     0.015 OA 
BRANCH  29  32
HETATM   32  C   UNL     1      -8.918  15.929  67.338  1.00  0.00    -0.192 C  
HETATM   33  C   UNL     1      -9.574  17.310  67.242  1.00  0.00    -0.254 C  
HETATM   34  C   UNL     1      -7.534  15.982  66.671  1.00  0.00    -0.158 C  
ENDBRANCH  29  32
ENDBRANCH  28  29
ENDBRANCH  21  23
ENDBRANCH  18  21
ENDBRANCH  12  14
ENDBRANCH   6  12
BRANCH  11  35
HETATM   35  C   UNL     1      -7.871   6.458  66.463  1.00  0.00    -0.104 C  
HETATM   36  C   UNL     1      -8.805   5.232  66.488  1.00  0.00    -0.116 C  
HETATM   37  C   UNL     1      -8.962   4.611  65.110  1.00  0.00    -0.150 C  
HETATM   38  N   UNL     1      -7.671   4.130  64.639  1.00  0.00    -0.080 NA 
HETATM   39  H   UNL     1      -7.763   3.606  63.769  1.00  0.00     0.000 HD 
HETATM   40  C   UNL     1      -6.706   5.220  64.508  1.00  0.00    -0.047 C  
HETATM   41  C   UNL     1      -6.546   6.036  65.787  1.00  0.00    -0.047 C  
ENDBRANCH  11  35
ENDBRANCH   4   5
ENDBRANCH   2   4
TORSDOF 9
ENDMDL
MODEL      257
REMARK 921   NORMALIZED FREE ENERGY PREDICTED BY IDOCK:    4.67 KCAL/MOL
REMARK 922        TOTAL FREE ENERGY PREDICTED BY IDOCK:    4.95 KCAL/MOL
REMARK 923 INTER-LIGAND FREE ENERGY PREDICTED BY IDOCK:    3.28 KCAL/MOL
REMARK 924 INTRA-LIGAND FREE ENERGY PREDICTED BY IDOCK:    1.68 KCAL/MOL
REMARK 927      BINDING AFFINITY PREDICTED BY RF-SCORE:    0.00 PKD
ROOT
HETATM    1  C   UNL     1      -8.673  11.526  70.274  1.00  0.00     3.354 C  
HETATM    2  C   UNL     1     -10.006  10.796  70.111  1.00  0.00     0.658 C  
HETATM    3  C   UNL     1     -11.154  11.780  70.358  1.00  0.00     0.767 C  
ENDROOT
BRANCH   2   4
HETATM    4  O   UNL     1     -10.030  10.207  68.789  1.00  0.00    -0.165 OA 
BRANCH   4   5
HETATM    5  C   UNL     1      -8.835   9.715  68.308  1.00  0.00    -0.120 A  
HETATM    6  C   UNL     1      -7.979   8.871  69.035  1.00  0.00    -0.106 A  
HETATM    7  C   UNL     1      -5.406   7.925  66.434  1.00  0.00    -0.025 C  
HETATM    8  C   UNL     1      -6.995   8.201  68.312  1.00  0.00    -0.076 A  
HETATM    9  C   UNL     1      -8.521  10.080  66.969  1.00  0.00    -0.125 A  
HETATM   10  C   UNL     1      -6.663   8.548  66.988  1.00  0.00    -0.062 A  
HETATM   11  C   UNL     1      -7.421   9.521  66.285  1.00  0.00    -0.097 A  
BRANCH   6  12
HETATM   12  N   UNL     1      -8.111   8.573  70.405  1.00  0.00    -0.102 NA 
HETATM   13  H   UNL     1      -8.951   8.961  70.834  1.00  0.00     0.000 HD 
BRANCH  12  14
HETATM   14  C   UNL     1      -7.326   7.860  71.267  1.00  0.00    -0.068 A  
HETATM   15  N   UNL     1      -7.086   6.526  71.067  1.00  0.00    -0.068 NA 
HETATM   16  C   UNL     1      -6.294   7.712  73.320  1.00  0.00    -0.063 A  
HETATM   17  N   UNL     1      -6.982   8.460  72.386  1.00  0.00    -0.106 NA 
HETATM   18  C   UNL     1      -6.592   5.676  72.065  1.00  0.00    -0.058 A  
HETATM   19  C   UNL     1      -6.063   6.396  73.275  1.00  0.00    -0.058 A  
HETATM   20 CL   UNL     1      -5.300   5.534  74.548  1.00  0.00    -0.027 Cl 
BRANCH  18  21
HETATM   21  N   UNL     1      -6.581   4.364  72.101  1.00  0.00    -0.022 NA 
HETATM   22  H   UNL     1      -5.747   3.853  71.813  1.00  0.00     0.000 HD 
BRANCH  21  23
HETATM   23  C   UNL     1      -7.714   3.667  72.535  1.00  0.00    -0.067 A  
HETATM   24  C   UNL     1      -7.831   3.331  73.892  1.00  0.00    -0.066 A  
HETATM   25  C   UNL     1      -8.700   2.329  74.308  1.00  0.00    -0.073 A  
HETATM   26  C   UNL     1      -9.523   1.708  73.376  1.00  0.00    -0.086 A  
HETATM   27  C   UNL     1      -9.553   2.166  72.059  1.00  0.00    -0.189 A  
HETATM   28  C   UNL     1      -8.680   3.183  71.644  1.00  0.00    -0.074 A  
BRANCH  28  29
HETATM   29  S   UNL     1      -9.142   4.088  70.158  1.00  0.00    -0.133 S  
HETATM   30  O   UNL     1      -7.940   4.773  69.710  1.00  0.00    -0.065 OA 
HETATM   31  O   UNL     1      -9.739   3.093  69.282  1.00  0.00    -0.093 OA 
BRANCH  29  32
HETATM   32  C   UNL     1     -10.354   5.359  70.488  1.00  0.00    -0.274 C  
HETATM   33  C   UNL     1     -11.478   5.388  69.448  1.00  0.00     1.564 C  
HETATM   34  C   UNL     1     -10.962   5.126  71.881  1.00  0.00    -0.112 C  
ENDBRANCH  29  32
ENDBRANCH  28  29
ENDBRANCH  21  23
ENDBRANCH  18  21
ENDBRANCH  12  14
ENDBRANCH   6  12
BRANCH  11  35
HETATM   35  C   UNL     1      -7.028   9.874  64.836  1.00  0.00    -0.131 C  
HETATM   36  C   UNL     1      -6.852   8.615  63.964  1.00  0.00    -0.082 C  
HETATM   37  C   UNL     1      -8.180   8.102  63.433  1.00  0.00    -0.062 C  
HETATM   38  N   UNL     1      -8.788   9.110  62.575  1.00  0.00    -0.349 NA 
HETATM   39  H   UNL     1      -9.623   8.752  62.113  1.00  0.00     0.000 HD 
HETATM   40  C   UNL     1      -9.069  10.342  63.310  1.00  0.00    -0.263 C  
HETATM   41  C   UNL     1      -7.845  10.907  64.025  1.00  0.00     0.402 C  
ENDBRANCH  11  35
ENDBRANCH   4   5
ENDBRANCH   2   4
TORSDOF 9
ENDMDL
MODEL      258
REMARK 921   NORMALIZED FREE ENERGY PREDICTED BY IDOCK:    4.69 KCAL/MOL
REMARK 922        TOTAL FREE ENERGY PREDICTED BY IDOCK:    4.99 KCAL/MOL
REMARK 923 INTER-LIGAND FREE ENERGY PREDICTED BY IDOCK:   -1.82 KCAL/MOL
REMARK 924 INTRA-LIGAND FREE ENERGY PREDICTED BY IDOCK:    6.81 KCAL/MOL
REMARK 927      BINDING AFFINITY PREDICTED BY RF-SCORE:    0.00 PKD
ROOT
HETATM    1  C   UNL     1      -6.104  10.376  65.995  1.00  0.00    -0.105 C  
HETATM    2  C   UNL     1      -5.840   9.087  65.217  1.00  0.00    -0.055 C  
HETATM    3  C   UNL     1      -5.215   8.049  66.156  1.00  0.00    -0.025 C  
ENDROOT
BRANCH   2   4
HETATM    4  O   UNL     1      -7.093   8.654  64.637  1.00  0.00    -0.079 OA 
BRANCH   4   5
HETATM    5  C   UNL     1      -8.245   9.170  65.193  1.00  0.00    -0.145 A  
HETATM    6  C   UNL     1      -8.813   8.716  66.395  1.00  0.00    -0.140 A  
HETATM    7  C   UNL     1     -11.562  11.245  66.973  1.00  0.00    -0.059 C  
HETATM    8  C   UNL     1      -9.767   9.540  66.989  1.00  0.00    -0.229 A  
HETATM    9  C   UNL     1      -8.828  10.258  64.486  1.00  0.00    -0.223 A  
HETATM   10  C   UNL     1     -10.361  10.620  66.307  1.00  0.00    -0.296 A  
HETATM   11  C   UNL     1      -9.908  10.996  65.016  1.00  0.00    -0.321 A  
BRANCH   6  12
HETATM   12  N   UNL     1      -8.414   7.560  67.091  1.00  0.00    -0.120 NA 
HETATM   13  H   UNL     1      -7.423   7.340  66.994  1.00  0.00     0.000 HD 
BRANCH  12  14
HETATM   14  C   UNL     1      -9.104   6.676  67.873  1.00  0.00    -0.114 A  
HETATM   15  N   UNL     1      -9.498   7.013  69.142  1.00  0.00    -0.143 NA 
HETATM   16  C   UNL     1      -9.783   4.512  68.263  1.00  0.00    -0.123 A  
HETATM   17  N   UNL     1      -9.197   5.442  67.429  1.00  0.00    -0.111 NA 
HETATM   18  C   UNL     1      -9.893   6.069  70.099  1.00  0.00    -0.173 A  
HETATM   19  C   UNL     1     -10.140   4.695  69.539  1.00  0.00    -0.142 A  
HETATM   20 CL   UNL     1     -10.753   3.438  70.532  1.00  0.00     1.842 Cl 
BRANCH  18  21
HETATM   21  N   UNL     1     -10.020   6.213  71.397  1.00  0.00    -0.185 NA 
HETATM   22  H   UNL     1     -10.906   6.530  71.791  1.00  0.00     0.000 HD 
BRANCH  21  23
HETATM   23  C   UNL     1      -8.938   5.934  72.240  1.00  0.00    -0.142 A  
HETATM   24  C   UNL     1      -9.064   4.913  73.195  1.00  0.00    -0.119 A  
HETATM   25  C   UNL     1      -8.211   4.850  74.291  1.00  0.00    -0.099 A  
HETATM   26  C   UNL     1      -7.170   5.765  74.399  1.00  0.00    -0.088 A  
HETATM   27  C   UNL     1      -6.920   6.663  73.361  1.00  0.00    -0.076 A  
HETATM   28  C   UNL     1      -7.778   6.717  72.253  1.00  0.00    -0.094 A  
BRANCH  28  29
HETATM   29  S   UNL     1      -7.111   7.453  70.751  1.00  0.00    -0.064 S  
HETATM   30  O   UNL     1      -6.186   6.477  70.198  1.00  0.00    -0.033 OA 
HETATM   31  O   UNL     1      -8.276   7.826  69.965  1.00  0.00    -0.117 OA 
BRANCH  29  32
HETATM   32  C   UNL     1      -6.154   8.924  71.084  1.00  0.00    -0.053 C  
HETATM   33  C   UNL     1      -5.562   9.544  69.815  1.00  0.00    -0.033 C  
HETATM   34  C   UNL     1      -7.049   9.961  71.782  1.00  0.00     1.228 C  
ENDBRANCH  29  32
ENDBRANCH  28  29
ENDBRANCH  21  23
ENDBRANCH  18  21
ENDBRANCH  12  14
ENDBRANCH   6  12
BRANCH  11  35
HETATM   35  C   UNL     1     -10.582  12.185  64.301  1.00  0.00    -0.385 C  
HETATM   36  C   UNL     1     -11.834  11.749  63.514  1.00  0.00    -0.481 C  
HETATM   37  C   UNL     1     -13.059  11.648  64.408  1.00  0.00     0.989 C  
HETATM   38  N   UNL     1     -13.366  12.955  64.969  1.00  0.00    -0.509 NA 
HETATM   39  H   UNL     1     -14.247  12.944  65.482  1.00  0.00     0.000 HD 
HETATM   40  C   UNL     1     -12.271  13.453  65.801  1.00  0.00    -0.458 C  
HETATM   41  C   UNL     1     -10.930  13.478  65.074  1.00  0.00    -0.342 C  
ENDBRANCH  11  35
ENDBRANCH   4   5
ENDBRANCH   2   4
TORSDOF 9
ENDMDL
MODEL      259
REMARK 921   NORMALIZED FREE ENERGY PREDICTED BY IDOCK:    4.93 KCAL/MOL
REMARK 922        TOTAL FREE ENERGY PREDICTED BY IDOCK:    5.35 KCAL/MOL
REMARK 923 INTER-LIGAND FREE ENERGY PREDICTED BY IDOCK:   -0.64 KCAL/MOL
REMARK 924 INTRA-LIGAND FREE ENERGY PREDICTED BY IDOCK:    5.99 KCAL/MOL
REMARK 927      BINDING AFFINITY PREDICTED BY RF-SCORE:    0.00 PKD
ROOT
HETATM    1  C   UNL     1      -8.024   8.976  65.799  1.00  0.00    -0.103 C  
HETATM    2  C   UNL     1      -6.897   8.407  66.659  1.00  0.00    -0.068 C  
HETATM    3  C   UNL     1      -5.853   9.499  66.912  1.00  0.00    -0.055 C  
ENDROOT
BRANCH   2   4
HETATM    4  O   UNL     1      -7.487   7.886  67.875  1.00  0.00    -0.099 OA 
BRANCH   4   5
HETATM    5  C   UNL     1      -6.914   8.289  69.063  1.00  0.00    -0.061 A  
HETATM    6  C   UNL     1      -6.906   9.615  69.526  1.00  0.00    -0.056 A  
HETATM    7  C   UNL     1      -5.495   9.226  73.011  1.00  0.00    -0.056 C  
HETATM    8  C   UNL     1      -6.593   9.809  70.869  1.00  0.00    -0.048 A  
HETATM    9  C   UNL     1      -6.350   7.247  69.851  1.00  0.00    -0.035 A  
HETATM   10  C   UNL     1      -6.029   8.794  71.667  1.00  0.00    -0.059 A  
HETATM   11  C   UNL     1      -5.879   7.477  71.160  1.00  0.00    -0.035 A  
BRANCH   6  12
HETATM   12  N   UNL     1      -7.293  10.737  68.769  1.00  0.00    -0.095 NA 
HETATM   13  H   UNL     1      -8.141  10.594  68.221  1.00  0.00     0.000 HD 
BRANCH  12  14
HETATM   14  C   UNL     1      -6.748  11.983  68.631  1.00  0.00    -0.080 A  
HETATM   15  N   UNL     1      -6.689  12.850  69.690  1.00  0.00     0.018 NA 
HETATM   16  C   UNL     1      -6.031  13.671  67.240  1.00  0.00     0.408 A  
HETATM   17  N   UNL     1      -6.468  12.372  67.407  1.00  0.00    -0.146 NA 
HETATM   18  C   UNL     1      -6.467  14.226  69.544  1.00  0.00    -0.132 A  
HETATM   19  C   UNL     1      -6.000  14.629  68.172  1.00  0.00    -0.139 A  
HETATM   20 CL   UNL     1      -5.553  16.251  67.837  1.00  0.00    -0.124 Cl 
BRANCH  18  21
HETATM   21  N   UNL     1      -6.660  15.190  70.413  1.00  0.00    -0.031 NA 
HETATM   22  H   UNL     1      -6.620  14.991  71.413  1.00  0.00     0.000 HD 
BRANCH  21  23
HETATM   23  C   UNL     1      -6.923  16.490  69.968  1.00  0.00     0.508 A  
HETATM   24  C   UNL     1      -5.958  17.489  70.173  1.00  0.00    -0.118 A  
HETATM   25  C   UNL     1      -6.302  18.835  70.121  1.00  0.00     0.006 A  
HETATM   26  C   UNL     1      -7.600  19.196  69.782  1.00  0.00     0.323 A  
HETATM   27  C   UNL     1      -8.516  18.219  69.390  1.00  0.00     0.431 A  
HETATM   28  C   UNL     1      -8.163  16.862  69.436  1.00  0.00     0.231 A  
BRANCH  28  29
HETATM   29  S   UNL     1      -9.137  15.740  68.420  1.00  0.00    -0.194 S  
HETATM   30  O   UNL     1      -8.623  15.871  67.065  1.00  0.00    -0.183 OA 
HETATM   31  O   UNL     1      -9.031  14.448  69.077  1.00  0.00    -0.117 OA 
BRANCH  29  32
HETATM   32  C   UNL     1     -10.860  16.208  68.354  1.00  0.00    -0.318 C  
HETATM   33  C   UNL     1     -11.373  16.376  66.921  1.00  0.00     0.394 C  
HETATM   34  C   UNL     1     -11.700  15.136  69.068  1.00  0.00    -0.358 C  
ENDBRANCH  29  32
ENDBRANCH  28  29
ENDBRANCH  21  23
ENDBRANCH  18  21
ENDBRANCH  12  14
ENDBRANCH   6  12
BRANCH  11  35
HETATM   35  C   UNL     1      -5.259   6.392  72.065  1.00  0.00    -0.027 C  
HETATM   36  C   UNL     1      -5.715   6.533  73.530  1.00  0.00    -0.050 C  
HETATM   37  C   UNL     1      -7.072   5.892  73.766  1.00  0.00    -0.082 C  
HETATM   38  N   UNL     1      -6.992   4.463  73.500  1.00  0.00    -0.063 NA 
HETATM   39  H   UNL     1      -7.856   3.986  73.759  1.00  0.00     0.000 HD 
HETATM   40  C   UNL     1      -6.630   4.194  72.110  1.00  0.00    -0.022 C  
HETATM   41  C   UNL     1      -5.346   4.897  71.679  1.00  0.00    -0.004 C  
ENDBRANCH  11  35
ENDBRANCH   4   5
ENDBRANCH   2   4
TORSDOF 9
ENDMDL
MODEL      260
REMARK 921   NORMALIZED FREE ENERGY PREDICTED BY IDOCK:    5.54 KCAL/MOL
REMARK 922        TOTAL FREE ENERGY PREDICTED BY IDOCK:    6.29 KCAL/MOL
REMARK 923 INTER-LIGAND FREE ENERGY PREDICTED BY IDOCK:    3.34 KCAL/MOL
REMARK 924 INTRA-LIGAND FREE ENERGY PREDICTED BY IDOCK:    2.94 KCAL/MOL
REMARK 927      BINDING AFFINITY PREDICTED BY RF-SCORE:    0.00 PKD
ROOT
HETATM    1  C   UNL     1      -9.566  12.227  64.734  1.00  0.00     0.072 C  
HETATM    2  C   UNL     1      -8.251  11.493  64.994  1.00  0.00     0.782 C  
HETATM    3  C   UNL     1      -7.672  11.007  63.662  1.00  0.00     0.563 C  
ENDROOT
BRANCH   2   4
HETATM    4  O   UNL     1      -7.372  12.396  65.706  1.00  0.00     1.555 OA 
BRANCH   4   5
HETATM    5  C   UNL     1      -6.984  12.013  66.973  1.00  0.00    -0.095 A  
HETATM    6  C   UNL     1      -7.098  10.705  67.471  1.00  0.00    -0.089 A  
HETATM    7  C   UNL     1      -5.271  10.954  70.771  1.00  0.00    -0.102 C  
HETATM    8  C   UNL     1      -6.371  10.405  68.622  1.00  0.00    -0.051 A  
HETATM    9  C   UNL     1      -6.397  13.038  67.766  1.00  0.00    -0.149 A  
HETATM   10  C   UNL     1      -5.786  11.403  69.425  1.00  0.00    -0.058 A  
HETATM   11  C   UNL     1      -5.801  12.762  69.015  1.00  0.00    -0.076 A  
BRANCH   6  12
HETATM   12  N   UNL     1      -7.795   9.657  66.840  1.00  0.00    -0.102 NA 
HETATM   13  H   UNL     1      -7.619   9.589  65.836  1.00  0.00     0.000 HD 
BRANCH  12  14
HETATM   14  C   UNL     1      -8.661   8.714  67.316  1.00  0.00    -0.129 A  
HETATM   15  N   UNL     1      -8.277   7.828  68.288  1.00  0.00    -0.123 NA 
HETATM   16  C   UNL     1     -10.627   7.543  67.061  1.00  0.00    -0.339 A  
HETATM   17  N   UNL     1      -9.796   8.573  66.667  1.00  0.00    -0.249 NA 
HETATM   18  C   UNL     1      -8.977   6.648  68.571  1.00  0.00    -0.120 A  
HETATM   19  C   UNL     1     -10.339   6.576  67.938  1.00  0.00    -0.189 A  
HETATM   20 CL   UNL     1     -11.397   5.268  68.272  1.00  0.00     1.129 Cl 
BRANCH  18  21
HETATM   21  N   UNL     1      -8.584   5.599  69.256  1.00  0.00    -0.105 NA 
HETATM   22  H   UNL     1      -7.844   4.999  68.891  1.00  0.00     0.000 HD 
BRANCH  21  23
HETATM   23  C   UNL     1      -9.181   5.305  70.488  1.00  0.00    -0.146 A  
HETATM   24  C   UNL     1      -9.218   3.973  70.927  1.00  0.00    -0.203 A  
HETATM   25  C   UNL     1     -10.113   3.569  71.910  1.00  0.00    -0.168 A  
HETATM   26  C   UNL     1     -10.927   4.515  72.522  1.00  0.00    -0.084 A  
HETATM   27  C   UNL     1     -10.765   5.869  72.229  1.00  0.00    -0.279 A  
HETATM   28  C   UNL     1      -9.854   6.273  71.242  1.00  0.00    -0.175 A  
BRANCH  28  29
HETATM   29  S   UNL     1      -9.295   7.983  71.312  1.00  0.00    -0.156 S  
HETATM   30  O   UNL     1      -7.999   8.014  70.651  1.00  0.00    -0.091 OA 
HETATM   31  O   UNL     1     -10.382   8.759  70.737  1.00  0.00    -0.194 OA 
BRANCH  29  32
HETATM   32  C   UNL     1      -9.021   8.539  72.987  1.00  0.00    -0.054 C  
HETATM   33  C   UNL     1      -9.452   7.506  74.032  1.00  0.00    -0.212 C  
HETATM   34  C   UNL     1      -7.528   8.854  73.176  1.00  0.00     0.333 C  
ENDBRANCH  29  32
ENDBRANCH  28  29
ENDBRANCH  21  23
ENDBRANCH  18  21
ENDBRANCH  12  14
ENDBRANCH   6  12
BRANCH  11  35
HETATM   35  C   UNL     1      -5.149  13.826  69.921  1.00  0.00    -0.089 C  
HETATM   36  C   UNL     1      -5.280  15.244  69.331  1.00  0.00    -0.092 C  
HETATM   37  C   UNL     1      -6.630  15.867  69.646  1.00  0.00    -0.180 C  
HETATM   38  N   UNL     1      -6.780  16.010  71.087  1.00  0.00     1.776 NA 
HETATM   39  H   UNL     1      -7.625  16.528  71.325  1.00  0.00     0.000 HD 
HETATM   40  C   UNL     1      -6.740  14.714  71.763  1.00  0.00     1.452 C  
HETATM   41  C   UNL     1      -5.493  13.901  71.427  1.00  0.00    -0.218 C  
ENDBRANCH  11  35
ENDBRANCH   4   5
ENDBRANCH   2   4
TORSDOF 9
ENDMDL
MODEL      261
REMARK 921   NORMALIZED FREE ENERGY PREDICTED BY IDOCK:    5.66 KCAL/MOL
REMARK 922        TOTAL FREE ENERGY PREDICTED BY IDOCK:    6.46 KCAL/MOL
REMARK 923 INTER-LIGAND FREE ENERGY PREDICTED BY IDOCK:    5.07 KCAL/MOL
REMARK 924 INTRA-LIGAND FREE ENERGY PREDICTED BY IDOCK:    1.40 KCAL/MOL
REMARK 927      BINDING AFFINITY PREDICTED BY RF-SCORE:    0.00 PKD
ROOT
HETATM    1  C   UNL     1      -9.531  11.749  65.362  1.00  0.00    -0.157 C  
HETATM    2  C   UNL     1      -8.282  10.961  65.755  1.00  0.00    -0.113 C  
HETATM    3  C   UNL     1      -7.629  10.386  64.493  1.00  0.00    -0.034 C  
ENDROOT
BRANCH   2   4
HETATM    4  O   UNL     1      -7.412  11.849  66.496  1.00  0.00    -0.004 OA 
BRANCH   4   5
HETATM    5  C   UNL     1      -7.019  11.428  67.750  1.00  0.00    -0.076 A  
HETATM    6  C   UNL     1      -7.144  10.108  68.214  1.00  0.00    -0.075 A  
HETATM    7  C   UNL     1      -5.294  10.250  71.506  1.00  0.00    -0.038 C  
HETATM    8  C   UNL     1      -6.414   9.770  69.351  1.00  0.00    -0.048 A  
HETATM    9  C   UNL     1      -6.416  12.425  68.566  1.00  0.00    -0.068 A  
HETATM   10  C   UNL     1      -5.812  10.740  70.176  1.00  0.00    -0.093 A  
HETATM   11  C   UNL     1      -5.816  12.109  69.803  1.00  0.00    -0.123 A  
BRANCH   6  12
HETATM   12  N   UNL     1      -7.857   9.085  67.559  1.00  0.00    -0.100 NA 
HETATM   13  H   UNL     1      -7.651   9.009  66.563  1.00  0.00     0.000 HD 
BRANCH  12  14
HETATM   14  C   UNL     1      -8.773   8.174  68.007  1.00  0.00    -0.128 A  
HETATM   15  N   UNL     1      -8.469   7.307  69.023  1.00  0.00    -0.129 NA 
HETATM   16  C   UNL     1     -10.746   7.041  67.663  1.00  0.00    -0.261 A  
HETATM   17  N   UNL     1      -9.869   8.041  67.294  1.00  0.00    -0.178 NA 
HETATM   18  C   UNL     1      -9.212   6.151  69.294  1.00  0.00    -0.132 A  
HETATM   19  C   UNL     1     -10.535   6.092  68.581  1.00  0.00    -0.236 A  
HETATM   20 CL   UNL     1     -11.641   4.817  68.884  1.00  0.00     4.179 Cl 
BRANCH  18  21
HETATM   21  N   UNL     1      -8.885   5.114  70.029  1.00  0.00    -0.109 NA 
HETATM   22  H   UNL     1      -8.133   4.494  69.730  1.00  0.00     0.000 HD 
BRANCH  21  23
HETATM   23  C   UNL     1      -9.571   4.859  71.222  1.00  0.00    -0.168 A  
HETATM   24  C   UNL     1     -10.871   5.364  71.383  1.00  0.00    -0.210 A  
HETATM   25  C   UNL     1     -11.437   5.487  72.646  1.00  0.00    -0.331 A  
HETATM   26  C   UNL     1     -10.737   5.031  73.757  1.00  0.00    -0.358 A  
HETATM   27  C   UNL     1      -9.529   4.355  73.589  1.00  0.00    -0.128 A  
HETATM   28  C   UNL     1      -8.964   4.225  72.312  1.00  0.00    -0.116 A  
BRANCH  28  29
HETATM   29  S   UNL     1      -7.758   2.906  72.094  1.00  0.00    -0.054 S  
HETATM   30  O   UNL     1      -7.865   2.059  73.272  1.00  0.00    -0.041 OA 
HETATM   31  O   UNL     1      -8.063   2.327  70.796  1.00  0.00    -0.048 OA 
BRANCH  29  32
HETATM   32  C   UNL     1      -6.080   3.520  72.064  1.00  0.00    -0.013 C  
HETATM   33  C   UNL     1      -5.994   5.021  72.353  1.00  0.00    -0.025 C  
HETATM   34  C   UNL     1      -5.246   2.757  73.107  1.00  0.00     0.000 C  
ENDBRANCH  29  32
ENDBRANCH  28  29
ENDBRANCH  21  23
ENDBRANCH  18  21
ENDBRANCH  12  14
ENDBRANCH   6  12
BRANCH  11  35
HETATM   35  C   UNL     1      -5.145  13.142  70.732  1.00  0.00    -0.128 C  
HETATM   36  C   UNL     1      -5.193  14.565  70.141  1.00  0.00    -0.093 C  
HETATM   37  C   UNL     1      -6.523  15.248  70.415  1.00  0.00     0.045 C  
HETATM   38  N   UNL     1      -6.713  15.396  71.850  1.00  0.00     2.029 NA 
HETATM   39  H   UNL     1      -7.541  15.952  72.062  1.00  0.00     0.000 HD 
HETATM   40  C   UNL     1      -6.754  14.099  72.524  1.00  0.00     2.498 C  
HETATM   41  C   UNL     1      -5.534  13.231  72.226  1.00  0.00     0.131 C  
ENDBRANCH  11  35
ENDBRANCH   4   5
ENDBRANCH   2   4
TORSDOF 9
ENDMDL
MODEL      262
REMARK 921   NORMALIZED FREE ENERGY PREDICTED BY IDOCK:    6.30 KCAL/MOL
REMARK 922        TOTAL FREE ENERGY PREDICTED BY IDOCK:    7.45 KCAL/MOL
REMARK 923 INTER-LIGAND FREE ENERGY PREDICTED BY IDOCK:   -6.71 KCAL/MOL
REMARK 924 INTRA-LIGAND FREE ENERGY PREDICTED BY IDOCK:   14.16 KCAL/MOL
REMARK 927      BINDING AFFINITY PREDICTED BY RF-SCORE:    0.00 PKD
ROOT
HETATM    1  C   UNL     1      -8.800   7.777  66.192  1.00  0.00    -0.192 C  
HETATM    2  C   UNL     1      -7.356   8.075  65.788  1.00  0.00    -0.079 C  
HETATM    3  C   UNL     1      -7.350   9.118  64.666  1.00  0.00    -0.099 C  
ENDROOT
BRANCH   2   4
HETATM    4  O   UNL     1      -6.644   8.504  66.973  1.00  0.00    -0.057 OA 
BRANCH   4   5
HETATM    5  C   UNL     1      -7.411   8.921  68.041  1.00  0.00    -0.092 A  
HETATM    6  C   UNL     1      -8.411   9.904  67.957  1.00  0.00    -0.117 A  
HETATM    7  C   UNL     1      -9.992   9.715  71.385  1.00  0.00     0.189 C  
HETATM    8  C   UNL     1      -9.309   9.979  69.020  1.00  0.00    -0.183 A  
HETATM    9  C   UNL     1      -7.162   8.249  69.269  1.00  0.00    -0.064 A  
HETATM   10  C   UNL     1      -9.081   9.325  70.247  1.00  0.00    -0.271 A  
HETATM   11  C   UNL     1      -7.977   8.447  70.404  1.00  0.00    -0.099 A  
BRANCH   6  12
HETATM   12  N   UNL     1      -8.637  10.735  66.843  1.00  0.00    -0.130 NA 
HETATM   13  H   UNL     1      -7.855  10.770  66.188  1.00  0.00     0.000 HD 
BRANCH  12  14
HETATM   14  C   UNL     1      -9.705  11.503  66.473  1.00  0.00    -0.203 A  
HETATM   15  N   UNL     1      -9.526  12.703  65.837  1.00  0.00    -0.154 NA 
HETATM   16  C   UNL     1     -11.952  11.966  66.662  1.00  0.00     0.114 A  
HETATM   17  N   UNL     1     -10.883  11.133  66.926  1.00  0.00    -0.275 NA 
HETATM   18  C   UNL     1     -10.529  13.676  65.739  1.00  0.00    -0.293 A  
HETATM   19  C   UNL     1     -11.898  13.186  66.119  1.00  0.00    -0.401 A  
HETATM   20 CL   UNL     1     -13.275  14.195  65.942  1.00  0.00    -0.026 Cl 
BRANCH  18  21
HETATM   21  N   UNL     1     -10.419  14.944  65.418  1.00  0.00    -0.353 NA 
HETATM   22  H   UNL     1     -10.505  15.233  64.443  1.00  0.00     0.000 HD 
BRANCH  21  23
HETATM   23  C   UNL     1     -10.183  15.900  66.413  1.00  0.00    -0.301 A  
HETATM   24  C   UNL     1      -9.850  17.210  66.036  1.00  0.00    -0.239 A  
HETATM   25  C   UNL     1      -9.234  18.076  66.931  1.00  0.00    -0.271 A  
HETATM   26  C   UNL     1      -9.017  17.665  68.240  1.00  0.00    -0.276 A  
HETATM   27  C   UNL     1      -9.515  16.437  68.677  1.00  0.00    -0.239 A  
HETATM   28  C   UNL     1     -10.144  15.568  67.772  1.00  0.00    -0.232 A  
BRANCH  28  29
HETATM   29  S   UNL     1     -11.228  14.315  68.477  1.00  0.00    -0.282 S  
HETATM   30  O   UNL     1     -12.483  14.408  67.749  1.00  0.00    -0.105 OA 
HETATM   31  O   UNL     1     -10.472  13.076  68.398  1.00  0.00    -0.242 OA 
BRANCH  29  32
HETATM   32  C   UNL     1     -11.614  14.639  70.191  1.00  0.00    -0.282 C  
HETATM   33  C   UNL     1     -12.529  15.854  70.373  1.00  0.00    -0.194 C  
HETATM   34  C   UNL     1     -12.294  13.401  70.797  1.00  0.00    -0.433 C  
ENDBRANCH  29  32
ENDBRANCH  28  29
ENDBRANCH  21  23
ENDBRANCH  18  21
ENDBRANCH  12  14
ENDBRANCH   6  12
BRANCH  11  35
HETATM   35  C   UNL     1      -7.762   7.749  71.762  1.00  0.00    -0.095 C  
HETATM   36  C   UNL     1      -9.030   7.785  72.637  1.00  0.00    -0.224 C  
HETATM   37  C   UNL     1     -10.003   6.676  72.271  1.00  0.00    -0.166 C  
HETATM   38  N   UNL     1      -9.382   5.381  72.508  1.00  0.00    -0.142 NA 
HETATM   39  H   UNL     1     -10.048   4.619  72.380  1.00  0.00     0.000 HD 
HETATM   40  C   UNL     1      -8.193   5.196  71.678  1.00  0.00    -0.116 C  
HETATM   41  C   UNL     1      -7.173   6.321  71.832  1.00  0.00    -0.087 C  
ENDBRANCH  11  35
ENDBRANCH   4   5
ENDBRANCH   2   4
TORSDOF 9
ENDMDL
MODEL      263
REMARK 921   NORMALIZED FREE ENERGY PREDICTED BY IDOCK:    6.51 KCAL/MOL
REMARK 922        TOTAL FREE ENERGY PREDICTED BY IDOCK:    7.76 KCAL/MOL
REMARK 923 INTER-LIGAND FREE ENERGY PREDICTED BY IDOCK:    7.24 KCAL/MOL
REMARK 924 INTRA-LIGAND FREE ENERGY PREDICTED BY IDOCK:    0.52 KCAL/MOL
REMARK 927      BINDING AFFINITY PREDICTED BY RF-SCORE:    0.00 PKD
ROOT
HETATM    1  C   UNL     1     -12.786  14.922  63.938  1.00  0.00     0.840 C  
HETATM    2  C   UNL     1     -12.228  13.673  64.619  1.00  0.00    -0.409 C  
HETATM    3  C   UNL     1     -11.980  12.590  63.564  1.00  0.00    -0.629 C  
ENDROOT
BRANCH   2   4
HETATM    4  O   UNL     1     -11.031  14.057  65.337  1.00  0.00    -0.302 OA 
BRANCH   4   5
HETATM    5  C   UNL     1     -10.596  13.195  66.322  1.00  0.00    -0.284 A  
HETATM    6  C   UNL     1     -11.218  13.046  67.573  1.00  0.00    -0.284 A  
HETATM    7  C   UNL     1      -9.347  10.108  69.040  1.00  0.00    -0.192 C  
HETATM    8  C   UNL     1     -10.871  11.921  68.317  1.00  0.00    -0.261 A  
HETATM    9  C   UNL     1      -9.468  12.398  65.979  1.00  0.00    -0.168 A  
HETATM   10  C   UNL     1      -9.756  11.120  67.998  1.00  0.00    -0.183 A  
HETATM   11  C   UNL     1      -9.012  11.357  66.814  1.00  0.00    -0.177 A  
BRANCH   6  12
HETATM   12  N   UNL     1     -12.234  13.881  68.074  1.00  0.00    -0.489 NA 
HETATM   13  H   UNL     1     -13.178  13.571  67.840  1.00  0.00     0.000 HD 
BRANCH  12  14
HETATM   14  C   UNL     1     -12.196  15.028  68.816  1.00  0.00    -0.082 A  
HETATM   15  N   UNL     1     -11.635  16.174  68.318  1.00  0.00    -0.269 NA 
HETATM   16  C   UNL     1     -12.391  16.047  70.871  1.00  0.00    -0.192 A  
HETATM   17  N   UNL     1     -12.541  14.925  70.081  1.00  0.00    -0.297 NA 
HETATM   18  C   UNL     1     -11.260  17.258  69.122  1.00  0.00     0.530 A  
HETATM   19  C   UNL     1     -11.794  17.193  70.526  1.00  0.00     2.334 A  
HETATM   20 CL   UNL     1     -11.550  18.490  71.622  1.00  0.00     4.926 Cl 
BRANCH  18  21
HETATM   21  N   UNL     1     -10.479  18.271  68.830  1.00  0.00    -0.402 NA 
HETATM   22  H   UNL     1     -10.243  18.958  69.547  1.00  0.00     0.000 HD 
BRANCH  21  23
HETATM   23  C   UNL     1      -9.968  18.410  67.534  1.00  0.00    -0.335 A  
HETATM   24  C   UNL     1     -10.450  19.445  66.718  1.00  0.00    -0.569 A  
HETATM   25  C   UNL     1     -10.289  19.401  65.338  1.00  0.00     0.158 A  
HETATM   26  C   UNL     1      -9.573  18.356  64.767  1.00  0.00     4.191 A  
HETATM   27  C   UNL     1      -8.928  17.425  65.582  1.00  0.00     0.481 A  
HETATM   28  C   UNL     1      -9.086  17.478  66.975  1.00  0.00    -0.248 A  
BRANCH  28  29
HETATM   29  S   UNL     1      -7.828  16.649  67.961  1.00  0.00    -0.175 S  
HETATM   30  O   UNL     1      -7.366  17.626  68.934  1.00  0.00    -0.258 OA 
HETATM   31  O   UNL     1      -8.469  15.439  68.448  1.00  0.00    -0.151 OA 
BRANCH  29  32
HETATM   32  C   UNL     1      -6.401  16.187  66.991  1.00  0.00    -0.040 C  
HETATM   33  C   UNL     1      -6.205  17.082  65.764  1.00  0.00     0.803 C  
HETATM   34  C   UNL     1      -5.145  16.262  67.875  1.00  0.00    -0.129 C  
ENDBRANCH  29  32
ENDBRANCH  28  29
ENDBRANCH  21  23
ENDBRANCH  18  21
ENDBRANCH  12  14
ENDBRANCH   6  12
BRANCH  11  35
HETATM   35  C   UNL     1      -7.798  10.458  66.498  1.00  0.00    -0.124 C  
HETATM   36  C   UNL     1      -6.465  11.218  66.645  1.00  0.00    -0.128 C  
HETATM   37  C   UNL     1      -5.997  11.269  68.090  1.00  0.00    -0.045 C  
HETATM   38  N   UNL     1      -5.751   9.918  68.573  1.00  0.00    -0.042 NA 
HETATM   39  H   UNL     1      -5.328   9.925  69.501  1.00  0.00     0.000 HD 
HETATM   40  C   UNL     1      -6.968   9.108  68.548  1.00  0.00    -0.067 C  
HETATM   41  C   UNL     1      -7.639   9.078  67.177  1.00  0.00    -0.091 C  
ENDBRANCH  11  35
ENDBRANCH   4   5
ENDBRANCH   2   4
TORSDOF 9
ENDMDL
MODEL      264
REMARK 921   NORMALIZED FREE ENERGY PREDICTED BY IDOCK:    8.17 KCAL/MOL
REMARK 922        TOTAL FREE ENERGY PREDICTED BY IDOCK:   10.30 KCAL/MOL
REMARK 923 INTER-LIGAND FREE ENERGY PREDICTED BY IDOCK:    9.29 KCAL/MOL
REMARK 924 INTRA-LIGAND FREE ENERGY PREDICTED BY IDOCK:    1.01 KCAL/MOL
REMARK 927      BINDING AFFINITY PREDICTED BY RF-SCORE:    0.00 PKD
ROOT
HETATM    1  C   UNL     1     -12.913  14.924  63.898  1.00  0.00     1.160 C  
HETATM    2  C   UNL     1     -12.464  13.467  64.007  1.00  0.00    -0.229 C  
HETATM    3  C   UNL     1     -12.242  12.900  62.601  1.00  0.00     1.114 C  
ENDROOT
BRANCH   2   4
HETATM    4  O   UNL     1     -11.277  13.430  64.834  1.00  0.00    -0.311 OA 
BRANCH   4   5
HETATM    5  C   UNL     1     -10.703  12.192  65.039  1.00  0.00    -0.297 A  
HETATM    6  C   UNL     1     -11.284  11.170  65.808  1.00  0.00     0.069 A  
HETATM    7  C   UNL     1      -8.962   8.263  65.143  1.00  0.00     0.057 C  
HETATM    8  C   UNL     1     -10.758   9.889  65.651  1.00  0.00     0.422 A  
HETATM    9  C   UNL     1      -9.466  11.976  64.370  1.00  0.00     0.125 A  
HETATM   10  C   UNL     1      -9.534   9.652  64.997  1.00  0.00    -0.312 A  
HETATM   11  C   UNL     1      -8.845  10.709  64.348  1.00  0.00    -0.185 A  
BRANCH   6  12
HETATM   12  N   UNL     1     -12.416  11.323  66.631  1.00  0.00     1.838 NA 
HETATM   13  H   UNL     1     -13.303  11.270  66.129  1.00  0.00     0.000 HD 
BRANCH  12  14
HETATM   14  C   UNL     1     -12.552  11.527  67.976  1.00  0.00     1.737 A  
HETATM   15  N   UNL     1     -12.154  12.703  68.555  1.00  0.00    -0.192 NA 
HETATM   16  C   UNL     1     -12.914  10.645  70.071  1.00  0.00     0.110 A  
HETATM   17  N   UNL     1     -12.893  10.484  68.700  1.00  0.00     1.341 NA 
HETATM   18  C   UNL     1     -11.949  12.849  69.933  1.00  0.00    -0.307 A  
HETATM   19  C   UNL     1     -12.484  11.709  70.756  1.00  0.00    -0.330 A  
HETATM   20 CL   UNL     1     -12.441  11.766  72.471  1.00  0.00     1.343 Cl 
BRANCH  18  21
HETATM   21  N   UNL     1     -11.317  13.802  70.577  1.00  0.00    -0.463 NA 
HETATM   22  H   UNL     1     -11.104  13.693  71.569  1.00  0.00     0.000 HD 
BRANCH  21  23
HETATM   23  C   UNL     1     -10.935  14.967  69.903  1.00  0.00    -0.261 A  
HETATM   24  C   UNL     1     -11.478  16.198  70.306  1.00  0.00    -0.319 A  
HETATM   25  C   UNL     1     -11.455  17.300  69.459  1.00  0.00     1.271 A  
HETATM   26  C   UNL     1     -10.817  17.203  68.229  1.00  0.00    -0.314 A  
HETATM   27  C   UNL     1     -10.111  16.046  67.898  1.00  0.00    -0.241 A  
HETATM   28  C   UNL     1     -10.129  14.939  68.759  1.00  0.00    -0.241 A  
BRANCH  28  29
HETATM   29  S   UNL     1      -8.794  13.746  68.567  1.00  0.00    -0.060 S  
HETATM   30  O   UNL     1      -8.207  13.577  69.887  1.00  0.00     1.344 OA 
HETATM   31  O   UNL     1      -9.408  12.593  67.930  1.00  0.00    -0.190 OA 
BRANCH  29  32
HETATM   32  C   UNL     1      -7.489  14.354  67.508  1.00  0.00    -0.186 C  
HETATM   33  C   UNL     1      -6.397  13.310  67.257  1.00  0.00     0.149 C  
HETATM   34  C   UNL     1      -8.093  14.786  66.162  1.00  0.00     1.267 C  
ENDBRANCH  29  32
ENDBRANCH  28  29
ENDBRANCH  21  23
ENDBRANCH  18  21
ENDBRANCH  12  14
ENDBRANCH   6  12
BRANCH  11  35
HETATM   35  C   UNL     1      -7.507  10.410  63.640  1.00  0.00    -0.024 C  
HETATM   36  C   UNL     1      -6.314  11.072  64.359  1.00  0.00     0.704 C  
HETATM   37  C   UNL     1      -5.829  10.240  65.535  1.00  0.00    -0.102 C  
HETATM   38  N   UNL     1      -5.353   8.949  65.060  1.00  0.00    -0.038 NA 
HETATM   39  H   UNL     1      -4.916   8.413  65.809  1.00  0.00     0.000 HD 
HETATM   40  C   UNL     1      -6.420   8.188  64.411  1.00  0.00    -0.065 C  
HETATM   41  C   UNL     1      -7.107   8.958  63.287  1.00  0.00    -0.089 C  
ENDBRANCH  11  35
ENDBRANCH   4   5
ENDBRANCH   2   4
TORSDOF 9
ENDMDL
MODEL      265
REMARK 921   NORMALIZED FREE ENERGY PREDICTED BY IDOCK:   12.79 KCAL/MOL
REMARK 922        TOTAL FREE ENERGY PREDICTED BY IDOCK:   17.35 KCAL/MOL
REMARK 923 INTER-LIGAND FREE ENERGY PREDICTED BY IDOCK:   16.06 KCAL/MOL
REMARK 924 INTRA-LIGAND FREE ENERGY PREDICTED BY IDOCK:    1.29 KCAL/MOL
REMARK 927      BINDING AFFINITY PREDICTED BY RF-SCORE:    0.00 PKD
ROOT
HETATM    1  C   UNL     1     -11.597   6.147  64.400  1.00  0.00     8.207 C  
HETATM    2  C   UNL     1     -11.829   6.785  65.769  1.00  0.00     5.474 C  
HETATM    3  C   UNL     1     -12.347   5.721  66.741  1.00  0.00     5.186 C  
ENDROOT
BRANCH   2   4
HETATM    4  O   UNL     1     -10.584   7.391  66.192  1.00  0.00     0.424 OA 
BRANCH   4   5
HETATM    5  C   UNL     1      -9.460   6.593  66.145  1.00  0.00    -0.009 A  
HETATM    6  C   UNL     1      -8.168   7.028  66.486  1.00  0.00    -0.114 A  
HETATM    7  C   UNL     1      -6.195   3.806  66.380  1.00  0.00    -0.032 C  
HETATM    8  C   UNL     1      -7.210   6.041  66.706  1.00  0.00    -0.071 A  
HETATM    9  C   UNL     1      -9.687   5.242  65.764  1.00  0.00    -0.081 A  
HETATM   10  C   UNL     1      -7.412   4.698  66.332  1.00  0.00    -0.082 A  
HETATM   11  C   UNL     1      -8.668   4.269  65.831  1.00  0.00    -0.115 A  
BRANCH   6  12
HETATM   12  N   UNL     1      -7.804   8.367  66.726  1.00  0.00    -0.094 NA 
HETATM   13  H   UNL     1      -8.164   9.024  66.034  1.00  0.00     0.000 HD 
BRANCH  12  14
HETATM   14  C   UNL     1      -7.059   8.952  67.712  1.00  0.00    -0.079 A  
HETATM   15  N   UNL     1      -6.714   8.260  68.843  1.00  0.00    -0.052 NA 
HETATM   16  C   UNL     1      -6.217  10.873  68.661  1.00  0.00    -0.043 A  
HETATM   17  N   UNL     1      -6.862  10.248  67.612  1.00  0.00    -0.075 NA 
HETATM   18  C   UNL     1      -6.261   8.880  70.014  1.00  0.00    -0.037 A  
HETATM   19  C   UNL     1      -5.898  10.328  69.839  1.00  0.00    -0.051 A  
HETATM   20 CL   UNL     1      -5.203  11.223  71.128  1.00  0.00    -0.115 Cl 
BRANCH  18  21
HETATM   21  N   UNL     1      -6.168   8.385  71.226  1.00  0.00    -0.037 NA 
HETATM   22  H   UNL     1      -5.948   8.998  72.012  1.00  0.00     0.000 HD 
BRANCH  21  23
HETATM   23  C   UNL     1      -6.369   7.017  71.441  1.00  0.00    -0.041 A  
HETATM   24  C   UNL     1      -5.258   6.160  71.472  1.00  0.00    -0.021 A  
HETATM   25  C   UNL     1      -5.407   4.791  71.287  1.00  0.00    -0.004 A  
HETATM   26  C   UNL     1      -6.681   4.254  71.148  1.00  0.00    -0.031 A  
HETATM   27  C   UNL     1      -7.802   5.070  71.306  1.00  0.00    -0.101 A  
HETATM   28  C   UNL     1      -7.648   6.451  71.501  1.00  0.00    -0.098 A  
BRANCH  28  29
HETATM   29  S   UNL     1      -9.040   7.321  72.241  1.00  0.00    -0.132 S  
HETATM   30  O   UNL     1      -9.802   6.320  72.971  1.00  0.00    -0.164 OA 
HETATM   31  O   UNL     1      -8.445   8.417  72.987  1.00  0.00    -0.283 OA 
BRANCH  29  32
HETATM   32  C   UNL     1     -10.145   8.001  71.013  1.00  0.00    -0.186 C  
HETATM   33  C   UNL     1     -11.602   7.584  71.233  1.00  0.00    -0.305 C  
HETATM   34  C   UNL     1     -10.049   9.535  71.043  1.00  0.00    -0.299 C  
ENDBRANCH  29  32
ENDBRANCH  28  29
ENDBRANCH  21  23
ENDBRANCH  18  21
ENDBRANCH  12  14
ENDBRANCH   6  12
BRANCH  11  35
HETATM   35  C   UNL     1      -8.851   2.789  65.433  1.00  0.00    -0.131 C  
HETATM   36  C   UNL     1      -9.493   2.642  64.040  1.00  0.00    -0.125 C  
HETATM   37  C   UNL     1      -8.466   2.769  62.926  1.00  0.00    -0.078 C  
HETATM   38  N   UNL     1      -7.486   1.699  63.038  1.00  0.00    -0.044 NA 
HETATM   39  H   UNL     1      -6.851   1.689  62.240  1.00  0.00     0.000 HD 
HETATM   40  C   UNL     1      -6.755   1.770  64.302  1.00  0.00    -0.026 C  
HETATM   41  C   UNL     1      -7.670   1.795  65.523  1.00  0.00    -0.071 C  
ENDBRANCH  11  35
ENDBRANCH   4   5
ENDBRANCH   2   4
TORSDOF 9
ENDMDL
MODEL      266
REMARK 921   NORMALIZED FREE ENERGY PREDICTED BY IDOCK:   13.65 KCAL/MOL
REMARK 922        TOTAL FREE ENERGY PREDICTED BY IDOCK:   18.67 KCAL/MOL
REMARK 923 INTER-LIGAND FREE ENERGY PREDICTED BY IDOCK:    5.39 KCAL/MOL
REMARK 924 INTRA-LIGAND FREE ENERGY PREDICTED BY IDOCK:   13.28 KCAL/MOL
REMARK 927      BINDING AFFINITY PREDICTED BY RF-SCORE:    0.00 PKD
ROOT
HETATM    1  C   UNL     1     -12.418  11.733  69.068  1.00  0.00     0.313 C  
HETATM    2  C   UNL     1     -11.649  10.479  68.655  1.00  0.00    -0.171 C  
HETATM    3  C   UNL     1     -11.862  10.226  67.159  1.00  0.00     1.832 C  
ENDROOT
BRANCH   2   4
HETATM    4  O   UNL     1     -10.260  10.673  69.012  1.00  0.00    -0.196 OA 
BRANCH   4   5
HETATM    5  C   UNL     1      -9.423   9.587  68.856  1.00  0.00    -0.155 A  
HETATM    6  C   UNL     1      -8.080   9.677  68.456  1.00  0.00    -0.104 A  
HETATM    7  C   UNL     1      -6.883   6.120  68.903  1.00  0.00    -0.066 C  
HETATM    8  C   UNL     1      -7.286   8.551  68.663  1.00  0.00    -0.080 A  
HETATM    9  C   UNL     1      -9.997   8.326  69.178  1.00  0.00    -0.196 A  
HETATM   10  C   UNL     1      -7.832   7.291  68.977  1.00  0.00    -0.118 A  
HETATM   11  C   UNL     1      -9.222   7.148  69.228  1.00  0.00    -0.140 A  
BRANCH   6  12
HETATM   12  N   UNL     1      -7.457  10.842  67.970  1.00  0.00    -0.088 NA 
HETATM   13  H   UNL     1      -6.458  10.735  67.794  1.00  0.00     0.000 HD 
BRANCH  12  14
HETATM   14  C   UNL     1      -7.938  12.090  67.689  1.00  0.00    -0.150 A  
HETATM   15  N   UNL     1      -7.950  13.075  68.642  1.00  0.00    -0.080 NA 
HETATM   16  C   UNL     1      -9.158  13.459  66.296  1.00  0.00     0.036 A  
HETATM   17  N   UNL     1      -8.560  12.238  66.540  1.00  0.00    -0.102 NA 
HETATM   18  C   UNL     1      -8.721  14.239  68.534  1.00  0.00    -0.175 A  
HETATM   19  C   UNL     1      -9.300  14.466  67.164  1.00  0.00    -0.220 A  
HETATM   20 CL   UNL     1     -10.166  15.902  66.802  1.00  0.00    -0.274 Cl 
BRANCH  18  21
HETATM   21  N   UNL     1      -9.041  15.107  69.465  1.00  0.00    -0.420 NA 
HETATM   22  H   UNL     1      -8.692  14.986  70.416  1.00  0.00     0.000 HD 
BRANCH  21  23
HETATM   23  C   UNL     1      -9.861  16.197  69.153  1.00  0.00    -0.250 A  
HETATM   24  C   UNL     1     -11.140  16.275  69.725  1.00  0.00    -0.337 A  
HETATM   25  C   UNL     1     -12.122  17.087  69.171  1.00  0.00     1.976 A  
HETATM   26  C   UNL     1     -11.809  17.893  68.083  1.00  0.00     2.129 A  
HETATM   27  C   UNL     1     -10.493  17.967  67.626  1.00  0.00    -0.406 A  
HETATM   28  C   UNL     1      -9.502  17.152  68.194  1.00  0.00    -0.269 A  
BRANCH  28  29
HETATM   29  S   UNL     1      -7.796  17.682  67.971  1.00  0.00    -0.242 S  
HETATM   30  O   UNL     1      -7.823  18.717  66.950  1.00  0.00    -0.225 OA 
HETATM   31  O   UNL     1      -7.335  18.037  69.303  1.00  0.00    -0.170 OA 
BRANCH  29  32
HETATM   32  C   UNL     1      -6.757  16.374  67.338  1.00  0.00    -0.169 C  
HETATM   33  C   UNL     1      -7.515  15.405  66.427  1.00  0.00     0.949 C  
HETATM   34  C   UNL     1      -5.589  16.994  66.554  1.00  0.00    -0.133 C  
ENDBRANCH  29  32
ENDBRANCH  28  29
ENDBRANCH  21  23
ENDBRANCH  18  21
ENDBRANCH  12  14
ENDBRANCH   6  12
BRANCH  11  35
HETATM   35  C   UNL     1      -9.782   5.752  69.571  1.00  0.00    -0.199 C  
HETATM   36  C   UNL     1     -11.279   5.631  69.223  1.00  0.00     0.127 C  
HETATM   37  C   UNL     1     -11.495   5.310  67.753  1.00  0.00     2.319 C  
HETATM   38  N   UNL     1     -10.898   4.019  67.440  1.00  0.00     1.202 NA 
HETATM   39  H   UNL     1     -11.125   3.723  66.491  1.00  0.00     0.000 HD 
HETATM   40  C   UNL     1      -9.454   4.025  67.667  1.00  0.00    -0.183 C  
HETATM   41  C   UNL     1      -9.071   4.472  69.075  1.00  0.00    -0.172 C  
ENDBRANCH  11  35
ENDBRANCH   4   5
ENDBRANCH   2   4
TORSDOF 9
ENDMDL
MODEL      267
REMARK 921   NORMALIZED FREE ENERGY PREDICTED BY IDOCK:   23.31 KCAL/MOL
REMARK 922        TOTAL FREE ENERGY PREDICTED BY IDOCK:   33.41 KCAL/MOL
REMARK 923 INTER-LIGAND FREE ENERGY PREDICTED BY IDOCK:   25.97 KCAL/MOL
REMARK 924 INTRA-LIGAND FREE ENERGY PREDICTED BY IDOCK:    7.44 KCAL/MOL
REMARK 927      BINDING AFFINITY PREDICTED BY RF-SCORE:    0.00 PKD
ROOT
HETATM    1  C   UNL     1     -11.440  13.841  67.160  1.00  0.00    -0.365 C  
HETATM    2  C   UNL     1     -11.391  13.235  68.563  1.00  0.00    -0.284 C  
HETATM    3  C   UNL     1     -12.624  13.689  69.352  1.00  0.00     0.183 C  
ENDROOT
BRANCH   2   4
HETATM    4  O   UNL     1     -11.298  11.798  68.422  1.00  0.00    -0.224 OA 
BRANCH   4   5
HETATM    5  C   UNL     1     -10.032  11.271  68.270  1.00  0.00    -0.195 A  
HETATM    6  C   UNL     1      -8.984  11.459  69.186  1.00  0.00     0.215 A  
HETATM    7  C   UNL     1      -6.323   9.143  67.828  1.00  0.00    -0.055 C  
HETATM    8  C   UNL     1      -7.887  10.608  69.069  1.00  0.00    -0.137 A  
HETATM    9  C   UNL     1      -9.845  10.458  67.118  1.00  0.00    -0.221 A  
HETATM   10  C   UNL     1      -7.679   9.798  67.936  1.00  0.00    -0.087 A  
HETATM   11  C   UNL     1      -8.661   9.719  66.914  1.00  0.00    -0.128 A  
BRANCH   6  12
HETATM   12  N   UNL     1      -9.009  12.358  70.269  1.00  0.00     3.537 NA 
HETATM   13  H   UNL     1      -8.635  11.972  71.136  1.00  0.00     0.000 HD 
BRANCH  12  14
HETATM   14  C   UNL     1      -9.438  13.651  70.378  1.00  0.00     3.801 A  
HETATM   15  N   UNL     1      -9.888  14.341  69.283  1.00  0.00     0.022 NA 
HETATM   16  C   UNL     1      -9.533  15.594  71.610  1.00  0.00     4.090 A  
HETATM   17  N   UNL     1      -9.216  14.253  71.526  1.00  0.00     5.193 NA 
HETATM   18  C   UNL     1     -10.016  15.736  69.254  1.00  0.00    -0.262 A  
HETATM   19  C   UNL     1      -9.908  16.389  70.604  1.00  0.00     1.713 A  
HETATM   20 CL   UNL     1     -10.165  18.076  70.788  1.00  0.00     2.071 Cl 
BRANCH  18  21
HETATM   21  N   UNL     1     -10.159  16.530  68.219  1.00  0.00    -0.249 NA 
HETATM   22  H   UNL     1     -11.067  16.614  67.762  1.00  0.00     0.000 HD 
BRANCH  21  23
HETATM   23  C   UNL     1      -9.064  17.260  67.741  1.00  0.00    -0.235 A  
HETATM   24  C   UNL     1      -7.774  16.917  68.173  1.00  0.00    -0.187 A  
HETATM   25  C   UNL     1      -6.720  17.815  68.059  1.00  0.00    -0.193 A  
HETATM   26  C   UNL     1      -6.930  19.040  67.436  1.00  0.00    -0.217 A  
HETATM   27  C   UNL     1      -8.158  19.313  66.833  1.00  0.00    -0.285 A  
HETATM   28  C   UNL     1      -9.218  18.400  66.943  1.00  0.00    -0.287 A  
BRANCH  28  29
HETATM   29  S   UNL     1     -10.529  18.533  65.717  1.00  0.00    -0.054 S  
HETATM   30  O   UNL     1     -11.768  18.226  66.413  1.00  0.00     1.675 OA 
HETATM   31  O   UNL     1     -10.370  19.858  65.139  1.00  0.00    -0.170 OA 
BRANCH  29  32
HETATM   32  C   UNL     1     -10.366  17.321  64.415  1.00  0.00     3.144 C  
HETATM   33  C   UNL     1      -9.565  16.090  64.850  1.00  0.00     1.209 C  
HETATM   34  C   UNL     1     -11.767  16.877  63.962  1.00  0.00     1.876 C  
ENDBRANCH  29  32
ENDBRANCH  28  29
ENDBRANCH  21  23
ENDBRANCH  18  21
ENDBRANCH  12  14
ENDBRANCH   6  12
BRANCH  11  35
HETATM   35  C   UNL     1      -8.397   8.820  65.689  1.00  0.00    -0.144 C  
HETATM   36  C   UNL     1      -7.183   7.894  65.903  1.00  0.00    -0.072 C  
HETATM   37  C   UNL     1      -7.554   6.645  66.685  1.00  0.00    -0.094 C  
HETATM   38  N   UNL     1      -8.530   5.868  65.935  1.00  0.00    -0.136 NA 
HETATM   39  H   UNL     1      -8.713   4.969  66.380  1.00  0.00     0.000 HD 
HETATM   40  C   UNL     1      -9.766   6.620  65.723  1.00  0.00     0.472 C  
HETATM   41  C   UNL     1      -9.536   7.978  65.066  1.00  0.00     1.044 C  
ENDBRANCH  11  35
ENDBRANCH   4   5
ENDBRANCH   2   4
TORSDOF 9
ENDMDL
MODEL      268
REMARK 921   NORMALIZED FREE ENERGY PREDICTED BY IDOCK:   23.58 KCAL/MOL
REMARK 922        TOTAL FREE ENERGY PREDICTED BY IDOCK:   33.82 KCAL/MOL
REMARK 923 INTER-LIGAND FREE ENERGY PREDICTED BY IDOCK:   30.36 KCAL/MOL
REMARK 924 INTRA-LIGAND FREE ENERGY PREDICTED BY IDOCK:    3.46 KCAL/MOL
REMARK 927      BINDING AFFINITY PREDICTED BY RF-SCORE:    0.00 PKD
ROOT
HETATM    1  C   UNL     1     -13.611   9.787  65.102  1.00  0.00    18.362 C  
HETATM    2  C   UNL     1     -12.788  10.754  64.251  1.00  0.00     4.387 C  
HETATM    3  C   UNL     1     -13.482  12.120  64.225  1.00  0.00     0.779 C  
ENDROOT
BRANCH   2   4
HETATM    4  O   UNL     1     -11.450  10.802  64.803  1.00  0.00     0.412 OA 
BRANCH   4   5
HETATM    5  C   UNL     1     -11.347  11.028  66.160  1.00  0.00     0.246 A  
HETATM    6  C   UNL     1     -11.774  12.205  66.798  1.00  0.00    -0.305 A  
HETATM    7  C   UNL     1     -11.364  11.316  70.449  1.00  0.00    -0.068 C  
HETATM    8  C   UNL     1     -11.909  12.154  68.184  1.00  0.00    -0.362 A  
HETATM    9  C   UNL     1     -10.808   9.952  66.918  1.00  0.00    -0.137 A  
HETATM   10  C   UNL     1     -11.380  11.101  68.955  1.00  0.00    -0.344 A  
HETATM   11  C   UNL     1     -10.795   9.970  68.328  1.00  0.00    -0.286 A  
BRANCH   6  12
HETATM   12  N   UNL     1     -12.175  13.382  66.138  1.00  0.00    -0.423 NA 
HETATM   13  H   UNL     1     -13.052  13.290  65.624  1.00  0.00     0.000 HD 
BRANCH  12  14
HETATM   14  C   UNL     1     -11.613  14.625  66.057  1.00  0.00    -0.328 A  
HETATM   15  N   UNL     1     -10.733  15.067  67.009  1.00  0.00    -0.298 NA 
HETATM   16  C   UNL     1     -11.630  16.733  65.131  1.00  0.00     0.774 A  
HETATM   17  N   UNL     1     -12.102  15.436  65.144  1.00  0.00     0.134 NA 
HETATM   18  C   UNL     1     -10.393  16.416  67.174  1.00  0.00    -0.290 A  
HETATM   19  C   UNL     1     -10.832  17.301  66.041  1.00  0.00     0.011 A  
HETATM   20 CL   UNL     1     -10.396  18.960  66.000  1.00  0.00    -0.496 Cl 
BRANCH  18  21
HETATM   21  N   UNL     1      -9.803  17.000  68.190  1.00  0.00    -0.262 NA 
HETATM   22  H   UNL     1     -10.075  16.761  69.144  1.00  0.00     0.000 HD 
BRANCH  21  23
HETATM   23  C   UNL     1      -8.801  17.951  67.965  1.00  0.00    -0.268 A  
HETATM   24  C   UNL     1      -8.032  17.867  66.794  1.00  0.00    -0.259 A  
HETATM   25  C   UNL     1      -6.803  18.511  66.699  1.00  0.00    -0.221 A  
HETATM   26  C   UNL     1      -6.369  19.312  67.748  1.00  0.00    -0.226 A  
HETATM   27  C   UNL     1      -7.209  19.555  68.834  1.00  0.00    -0.397 A  
HETATM   28  C   UNL     1      -8.452  18.910  68.923  1.00  0.00    -0.234 A  
BRANCH  28  29
HETATM   29  S   UNL     1      -9.679  19.668  70.000  1.00  0.00     0.842 S  
HETATM   30  O   UNL     1     -10.023  20.942  69.389  1.00  0.00     0.705 OA 
HETATM   31  O   UNL     1     -10.723  18.667  70.146  1.00  0.00     1.182 OA 
BRANCH  29  32
HETATM   32  C   UNL     1      -9.021  20.046  71.618  1.00  0.00     2.656 C  
HETATM   33  C   UNL     1      -7.529  20.390  71.584  1.00  0.00     1.599 C  
HETATM   34  C   UNL     1      -9.799  21.231  72.214  1.00  0.00     4.407 C  
ENDBRANCH  29  32
ENDBRANCH  28  29
ENDBRANCH  21  23
ENDBRANCH  18  21
ENDBRANCH  12  14
ENDBRANCH   6  12
BRANCH  11  35
HETATM   35  C   UNL     1     -10.227   8.836  69.207  1.00  0.00    -0.215 C  
HETATM   36  C   UNL     1      -9.163   8.007  68.460  1.00  0.00    -0.135 C  
HETATM   37  C   UNL     1      -7.795   8.668  68.505  1.00  0.00    -0.108 C  
HETATM   38  N   UNL     1      -7.342   8.764  69.885  1.00  0.00    -0.051 NA 
HETATM   39  H   UNL     1      -6.380   9.099  69.939  1.00  0.00     0.000 HD 
HETATM   40  C   UNL     1      -8.240   9.591  70.689  1.00  0.00    -0.112 C  
HETATM   41  C   UNL     1      -9.694   9.130  70.628  1.00  0.00    -0.314 C  
ENDBRANCH  11  35
ENDBRANCH   4   5
ENDBRANCH   2   4
TORSDOF 9
ENDMDL
MODEL      269
REMARK 921   NORMALIZED FREE ENERGY PREDICTED BY IDOCK:   24.44 KCAL/MOL
REMARK 922        TOTAL FREE ENERGY PREDICTED BY IDOCK:   35.13 KCAL/MOL
REMARK 923 INTER-LIGAND FREE ENERGY PREDICTED BY IDOCK:   34.17 KCAL/MOL
REMARK 924 INTRA-LIGAND FREE ENERGY PREDICTED BY IDOCK:    0.97 KCAL/MOL
REMARK 927      BINDING AFFINITY PREDICTED BY RF-SCORE:    0.00 PKD
ROOT
HETATM    1  C   UNL     1     -11.700   5.109  62.897  1.00  0.00     3.125 C  
HETATM    2  C   UNL     1     -12.375   6.151  63.788  1.00  0.00    10.861 C  
HETATM    3  C   UNL     1     -13.188   5.437  64.873  1.00  0.00     7.842 C  
ENDROOT
BRANCH   2   4
HETATM    4  O   UNL     1     -11.343   7.015  64.320  1.00  0.00    11.943 OA 
BRANCH   4   5
HETATM    5  C   UNL     1     -10.145   6.418  64.652  1.00  0.00     3.377 A  
HETATM    6  C   UNL     1      -9.029   7.110  65.150  1.00  0.00     0.398 A  
HETATM    7  C   UNL     1      -6.689   4.285  66.063  1.00  0.00    -0.049 C  
HETATM    8  C   UNL     1      -8.027   6.344  65.742  1.00  0.00    -0.117 A  
HETATM    9  C   UNL     1     -10.107   5.003  64.502  1.00  0.00     0.617 A  
HETATM   10  C   UNL     1      -7.967   4.944  65.604  1.00  0.00    -0.103 A  
HETATM   11  C   UNL     1      -9.014   4.236  64.957  1.00  0.00    -0.141 A  
BRANCH   6  12
HETATM   12  N   UNL     1      -8.900   8.511  65.194  1.00  0.00    -0.382 NA 
HETATM   13  H   UNL     1      -9.291   8.988  64.380  1.00  0.00     0.000 HD 
BRANCH  12  14
HETATM   14  C   UNL     1      -8.352   9.354  66.120  1.00  0.00    -0.115 A  
HETATM   15  N   UNL     1      -7.834   8.874  67.294  1.00  0.00    -0.096 NA 
HETATM   16  C   UNL     1      -8.082  11.500  66.908  1.00  0.00    -0.164 A  
HETATM   17  N   UNL     1      -8.523  10.642  65.920  1.00  0.00    -0.162 NA 
HETATM   18  C   UNL     1      -7.577   9.683  68.408  1.00  0.00    -0.081 A  
HETATM   19  C   UNL     1      -7.629  11.158  68.118  1.00  0.00    -0.103 A  
HETATM   20 CL   UNL     1      -7.217  12.306  69.324  1.00  0.00     0.046 Cl 
BRANCH  18  21
HETATM   21  N   UNL     1      -7.356   9.329  69.652  1.00  0.00    -0.064 NA 
HETATM   22  H   UNL     1      -7.207  10.041  70.366  1.00  0.00     0.000 HD 
BRANCH  21  23
HETATM   23  C   UNL     1      -7.323   7.973  69.997  1.00  0.00    -0.062 A  
HETATM   24  C   UNL     1      -6.087   7.369  70.277  1.00  0.00    -0.027 A  
HETATM   25  C   UNL     1      -5.941   5.988  70.236  1.00  0.00    -0.025 A  
HETATM   26  C   UNL     1      -7.053   5.190  69.993  1.00  0.00    -0.058 A  
HETATM   27  C   UNL     1      -8.320   5.768  69.904  1.00  0.00    -0.119 A  
HETATM   28  C   UNL     1      -8.464   7.163  69.954  1.00  0.00    -0.140 A  
BRANCH  28  29
HETATM   29  S   UNL     1     -10.093   7.790  70.395  1.00  0.00    -0.195 S  
HETATM   30  O   UNL     1      -9.870   9.059  71.070  1.00  0.00    -0.232 OA 
HETATM   31  O   UNL     1     -10.845   7.791  69.151  1.00  0.00    -0.171 OA 
BRANCH  29  32
HETATM   32  C   UNL     1     -10.931   6.735  71.567  1.00  0.00    -0.240 C  
HETATM   33  C   UNL     1     -10.503   6.999  73.013  1.00  0.00    -0.307 C  
HETATM   34  C   UNL     1     -12.449   6.950  71.444  1.00  0.00    -0.413 C  
ENDBRANCH  29  32
ENDBRANCH  28  29
ENDBRANCH  21  23
ENDBRANCH  18  21
ENDBRANCH  12  14
ENDBRANCH   6  12
BRANCH  11  35
HETATM   35  C   UNL     1      -8.914   2.703  64.825  1.00  0.00    -0.124 C  
HETATM   36  C   UNL     1      -9.791   2.164  63.678  1.00  0.00    -0.128 C  
HETATM   37  C   UNL     1      -9.096   2.281  62.331  1.00  0.00    -0.080 C  
HETATM   38  N   UNL     1      -7.885   1.474  62.331  1.00  0.00    -0.045 NA 
HETATM   39  H   UNL     1      -7.458   1.441  61.406  1.00  0.00     0.000 HD 
HETATM   40  C   UNL     1      -6.934   1.933  63.342  1.00  0.00    -0.035 C  
HETATM   41  C   UNL     1      -7.536   2.005  64.742  1.00  0.00    -0.063 C  
ENDBRANCH  11  35
ENDBRANCH   4   5
ENDBRANCH   2   4
TORSDOF 9
ENDMDL
MODEL      270
REMARK 921   NORMALIZED FREE ENERGY PREDICTED BY IDOCK:   42.55 KCAL/MOL
REMARK 922        TOTAL FREE ENERGY PREDICTED BY IDOCK:   62.77 KCAL/MOL
REMARK 923 INTER-LIGAND FREE ENERGY PREDICTED BY IDOCK:   46.43 KCAL/MOL
REMARK 924 INTRA-LIGAND FREE ENERGY PREDICTED BY IDOCK:   16.34 KCAL/MOL
REMARK 927      BINDING AFFINITY PREDICTED BY RF-SCORE:    0.00 PKD
ROOT
HETATM    1  C   UNL     1      -8.753   8.041  66.513  1.00  0.00    -0.161 C  
HETATM    2  C   UNL     1      -7.296   8.229  66.092  1.00  0.00    -0.077 C  
HETATM    3  C   UNL     1      -7.249   8.962  64.747  1.00  0.00    -0.092 C  
ENDROOT
BRANCH   2   4
HETATM    4  O   UNL     1      -6.615   8.936  67.155  1.00  0.00    -0.060 OA 
BRANCH   4   5
HETATM    5  C   UNL     1      -7.321   9.942  67.781  1.00  0.00    -0.089 A  
HETATM    6  C   UNL     1      -8.251  10.774  67.136  1.00  0.00    -0.123 A  
HETATM    7  C   UNL     1      -9.745  12.686  70.033  1.00  0.00     2.977 C  
HETATM    8  C   UNL     1      -9.111  11.506  67.951  1.00  0.00    -0.167 A  
HETATM    9  C   UNL     1      -7.086  10.072  69.178  1.00  0.00    -0.069 A  
HETATM   10  C   UNL     1      -8.896  11.652  69.335  1.00  0.00     0.735 A  
HETATM   11  C   UNL     1      -7.853  10.940  69.984  1.00  0.00     0.636 A  
BRANCH   6  12
HETATM   12  N   UNL     1      -8.448  10.837  65.743  1.00  0.00    -0.175 NA 
HETATM   13  H   UNL     1      -7.623  10.588  65.197  1.00  0.00     0.000 HD 
BRANCH  12  14
HETATM   14  C   UNL     1      -9.536  11.169  64.985  1.00  0.00    -0.227 A  
HETATM   15  N   UNL     1      -9.541  12.300  64.213  1.00  0.00     0.023 NA 
HETATM   16  C   UNL     1     -11.770  10.868  64.516  1.00  0.00     1.219 A  
HETATM   17  N   UNL     1     -10.630  10.467  65.184  1.00  0.00    -0.154 NA 
HETATM   18  C   UNL     1     -10.711  12.870  63.694  1.00  0.00    -0.191 A  
HETATM   19  C   UNL     1     -11.922  11.985  63.797  1.00  0.00    -0.490 A  
HETATM   20 CL   UNL     1     -13.418  12.457  63.102  1.00  0.00     0.896 Cl 
BRANCH  18  21
HETATM   21  N   UNL     1     -10.891  14.069  63.192  1.00  0.00     1.598 NA 
HETATM   22  H   UNL     1     -10.733  14.235  62.198  1.00  0.00     0.000 HD 
BRANCH  21  23
HETATM   23  C   UNL     1     -11.301  15.120  64.020  1.00  0.00     0.311 A  
HETATM   24  C   UNL     1     -11.661  16.346  63.440  1.00  0.00     3.217 A  
HETATM   25  C   UNL     1     -11.692  17.512  64.196  1.00  0.00     3.953 A  
HETATM   26  C   UNL     1     -11.440  17.449  65.561  1.00  0.00     1.289 A  
HETATM   27  C   UNL     1     -11.269  16.211  66.181  1.00  0.00     0.225 A  
HETATM   28  C   UNL     1     -11.247  15.035  65.417  1.00  0.00    -0.356 A  
BRANCH  28  29
HETATM   29  S   UNL     1     -11.588  13.498  66.290  1.00  0.00    -0.362 S  
HETATM   30  O   UNL     1     -12.413  12.699  65.398  1.00  0.00    -0.601 OA 
HETATM   31  O   UNL     1     -10.283  12.984  66.671  1.00  0.00    -0.248 OA 
BRANCH  29  32
HETATM   32  C   UNL     1     -12.552  13.760  67.771  1.00  0.00     0.533 C  
HETATM   33  C   UNL     1     -14.054  13.863  67.489  1.00  0.00    10.834 C  
HETATM   34  C   UNL     1     -12.302  12.599  68.747  1.00  0.00     0.222 C  
ENDBRANCH  29  32
ENDBRANCH  28  29
ENDBRANCH  21  23
ENDBRANCH  18  21
ENDBRANCH  12  14
ENDBRANCH   6  12
BRANCH  11  35
HETATM   35  C   UNL     1      -7.649  11.125  71.502  1.00  0.00     6.225 C  
HETATM   36  C   UNL     1      -6.411  10.362  72.014  1.00  0.00     1.349 C  
HETATM   37  C   UNL     1      -5.128  11.147  71.790  1.00  0.00     0.044 C  
HETATM   38  N   UNL     1      -5.178  12.393  72.540  1.00  0.00    -0.318 NA 
HETATM   39  H   UNL     1      -4.287  12.888  72.502  1.00  0.00     0.000 HD 
HETATM   40  C   UNL     1      -6.281  13.244  72.097  1.00  0.00     1.880 C  
HETATM   41  C   UNL     1      -7.634  12.538  72.130  1.00  0.00    12.226 C  
ENDBRANCH  11  35
ENDBRANCH   4   5
ENDBRANCH   2   4
TORSDOF 9
ENDMDL
MODEL      271
REMARK 921   NORMALIZED FREE ENERGY PREDICTED BY IDOCK:   68.99 KCAL/MOL
REMARK 922        TOTAL FREE ENERGY PREDICTED BY IDOCK:  103.12 KCAL/MOL
REMARK 923 INTER-LIGAND FREE ENERGY PREDICTED BY IDOCK:  100.55 KCAL/MOL
REMARK 924 INTRA-LIGAND FREE ENERGY PREDICTED BY IDOCK:    2.58 KCAL/MOL
REMARK 927      BINDING AFFINITY PREDICTED BY RF-SCORE:    0.00 PKD
ROOT
HETATM    1  C   UNL     1      -8.774   8.050  66.518  1.00  0.00    -0.161 C  
HETATM    2  C   UNL     1      -7.299   8.360  66.266  1.00  0.00    -0.086 C  
HETATM    3  C   UNL     1      -7.157   9.086  64.924  1.00  0.00    -0.091 C  
ENDROOT
BRANCH   2   4
HETATM    4  O   UNL     1      -6.808   9.130  67.389  1.00  0.00    -0.075 OA 
BRANCH   4   5
HETATM    5  C   UNL     1      -7.659  10.088  67.902  1.00  0.00    -0.089 A  
HETATM    6  C   UNL     1      -8.532  10.866  67.124  1.00  0.00    -0.128 A  
HETATM    7  C   UNL     1     -10.551  12.665  69.765  1.00  0.00     0.786 C  
HETATM    8  C   UNL     1      -9.547  11.539  67.802  1.00  0.00    -0.177 A  
HETATM    9  C   UNL     1      -7.641  10.222  69.318  1.00  0.00    -0.125 A  
HETATM   10  C   UNL     1      -9.547  11.688  69.202  1.00  0.00     0.218 A  
HETATM   11  C   UNL     1      -8.569  11.037  69.999  1.00  0.00     1.290 A  
BRANCH   6  12
HETATM   12  N   UNL     1      -8.526  10.926  65.717  1.00  0.00    -0.206 NA 
HETATM   13  H   UNL     1      -7.614  10.739  65.299  1.00  0.00     0.000 HD 
BRANCH  12  14
HETATM   14  C   UNL     1      -9.510  11.188  64.806  1.00  0.00    -0.218 A  
HETATM   15  N   UNL     1      -9.477  12.321  64.036  1.00  0.00     0.118 NA 
HETATM   16  C   UNL     1     -11.625  10.741  64.014  1.00  0.00     1.525 A  
HETATM   17  N   UNL     1     -10.572  10.413  64.845  1.00  0.00    -0.063 NA 
HETATM   18  C   UNL     1     -10.594  12.814  63.349  1.00  0.00     0.032 A  
HETATM   19  C   UNL     1     -11.744  11.849  63.276  1.00  0.00    -0.302 A  
HETATM   20 CL   UNL     1     -13.150  12.223  62.366  1.00  0.00     1.820 Cl 
BRANCH  18  21
HETATM   21  N   UNL     1     -10.779  14.001  62.820  1.00  0.00     3.564 NA 
HETATM   22  H   UNL     1     -10.484  14.185  61.861  1.00  0.00     0.000 HD 
BRANCH  21  23
HETATM   23  C   UNL     1     -11.382  15.016  63.573  1.00  0.00     1.705 A  
HETATM   24  C   UNL     1     -12.766  14.969  63.796  1.00  0.00     0.808 A  
HETATM   25  C   UNL     1     -13.467  16.107  64.179  1.00  0.00     3.748 A  
HETATM   26  C   UNL     1     -12.775  17.287  64.419  1.00  0.00     6.870 A  
HETATM   27  C   UNL     1     -11.380  17.296  64.387  1.00  0.00     1.487 A  
HETATM   28  C   UNL     1     -10.675  16.143  64.009  1.00  0.00     1.724 A  
BRANCH  28  29
HETATM   29  S   UNL     1      -8.952  16.047  64.520  1.00  0.00     6.588 S  
HETATM   30  O   UNL     1      -8.864  14.925  65.441  1.00  0.00     0.806 OA 
HETATM   31  O   UNL     1      -8.194  15.985  63.281  1.00  0.00    17.111 OA 
BRANCH  29  32
HETATM   32  C   UNL     1      -8.434  17.492  65.433  1.00  0.00     1.453 C  
HETATM   33  C   UNL     1      -8.795  17.414  66.920  1.00  0.00    -0.259 C  
HETATM   34  C   UNL     1      -6.912  17.658  65.293  1.00  0.00     0.936 C  
ENDBRANCH  29  32
ENDBRANCH  28  29
ENDBRANCH  21  23
ENDBRANCH  18  21
ENDBRANCH  12  14
ENDBRANCH   6  12
BRANCH  11  35
HETATM   35  C   UNL     1      -8.603  11.224  71.530  1.00  0.00    10.064 C  
HETATM   36  C   UNL     1      -7.399  10.552  72.219  1.00  0.00     5.040 C  
HETATM   37  C   UNL     1      -6.160  11.433  72.182  1.00  0.00     2.292 C  
HETATM   38  N   UNL     1      -6.413  12.665  72.915  1.00  0.00     3.029 NA 
HETATM   39  H   UNL     1      -5.566  13.226  73.005  1.00  0.00     0.000 HD 
HETATM   40  C   UNL     1      -7.501  13.434  72.313  1.00  0.00     8.326 C  
HETATM   41  C   UNL     1      -8.787  12.628  72.151  1.00  0.00    21.187 C  
ENDBRANCH  11  35
ENDBRANCH   4   5
ENDBRANCH   2   4
TORSDOF 9
ENDMDL
MODEL      272
REMARK 921   NORMALIZED FREE ENERGY PREDICTED BY IDOCK:   77.92 KCAL/MOL
REMARK 922        TOTAL FREE ENERGY PREDICTED BY IDOCK:  116.75 KCAL/MOL
REMARK 923 INTER-LIGAND FREE ENERGY PREDICTED BY IDOCK:   99.01 KCAL/MOL
REMARK 924 INTRA-LIGAND FREE ENERGY PREDICTED BY IDOCK:   17.75 KCAL/MOL
REMARK 927      BINDING AFFINITY PREDICTED BY RF-SCORE:    0.00 PKD
ROOT
HETATM    1  C   UNL     1      -8.101   8.560  68.632  1.00  0.00    -0.121 C  
HETATM    2  C   UNL     1      -6.809   9.298  68.982  1.00  0.00    -0.055 C  
HETATM    3  C   UNL     1      -5.972   9.481  67.712  1.00  0.00    -0.052 C  
ENDROOT
BRANCH   2   4
HETATM    4  O   UNL     1      -7.170  10.548  69.616  1.00  0.00    -0.121 OA 
BRANCH   4   5
HETATM    5  C   UNL     1      -8.355  10.566  70.322  1.00  0.00     0.877 A  
HETATM    6  C   UNL     1      -9.508   9.858  69.945  1.00  0.00    -0.220 A  
HETATM    7  C   UNL     1     -11.771  10.391  72.925  1.00  0.00     4.718 C  
HETATM    8  C   UNL     1     -10.499   9.709  70.913  1.00  0.00    -0.359 A  
HETATM    9  C   UNL     1      -8.338  11.329  71.522  1.00  0.00     9.497 A  
HETATM   10  C   UNL     1     -10.505  10.458  72.106  1.00  0.00     4.776 A  
HETATM   11  C   UNL     1      -9.416  11.308  72.432  1.00  0.00    16.126 A  
BRANCH   6  12
HETATM   12  N   UNL     1      -9.687   9.202  68.712  1.00  0.00    -0.159 NA 
HETATM   13  H   UNL     1     -10.276   8.370  68.768  1.00  0.00     0.000 HD 
BRANCH  12  14
HETATM   14  C   UNL     1      -9.222   9.468  67.455  1.00  0.00    -0.126 A  
HETATM   15  N   UNL     1      -9.518   8.643  66.402  1.00  0.00    -0.212 NA 
HETATM   16  C   UNL     1      -7.762  10.626  66.104  1.00  0.00    -0.145 A  
HETATM   17  N   UNL     1      -8.330  10.428  67.346  1.00  0.00    -0.121 NA 
HETATM   18  C   UNL     1      -8.814   8.661  65.191  1.00  0.00    -0.103 A  
HETATM   19  C   UNL     1      -7.911   9.851  65.025  1.00  0.00    -0.131 A  
HETATM   20 CL   UNL     1      -7.064  10.116  63.556  1.00  0.00    -0.130 Cl 
BRANCH  18  21
HETATM   21  N   UNL     1      -8.801   7.766  64.231  1.00  0.00    -0.085 NA 
HETATM   22  H   UNL     1      -9.659   7.549  63.725  1.00  0.00     0.000 HD 
BRANCH  21  23
HETATM   23  C   UNL     1      -7.609   7.110  63.902  1.00  0.00    -0.109 A  
HETATM   24  C   UNL     1      -6.636   7.796  63.158  1.00  0.00    -0.071 A  
HETATM   25  C   UNL     1      -5.639   7.106  62.478  1.00  0.00    -0.037 A  
HETATM   26  C   UNL     1      -5.559   5.724  62.602  1.00  0.00    -0.014 A  
HETATM   27  C   UNL     1      -6.401   5.053  63.489  1.00  0.00    -0.026 A  
HETATM   28  C   UNL     1      -7.401   5.754  64.180  1.00  0.00    -0.063 A  
BRANCH  28  29
HETATM   29  S   UNL     1      -8.046   4.979  65.671  1.00  0.00    -0.117 S  
HETATM   30  O   UNL     1      -7.335   5.587  66.785  1.00  0.00    -0.080 OA 
HETATM   31  O   UNL     1      -9.487   5.153  65.593  1.00  0.00    -0.160 OA 
BRANCH  29  32
HETATM   32  C   UNL     1      -7.686   3.231  65.737  1.00  0.00    -0.081 C  
HETATM   33  C   UNL     1      -6.283   2.935  66.275  1.00  0.00    -0.024 C  
HETATM   34  C   UNL     1      -8.725   2.535  66.631  1.00  0.00    -0.130 C  
ENDBRANCH  29  32
ENDBRANCH  28  29
ENDBRANCH  21  23
ENDBRANCH  18  21
ENDBRANCH  12  14
ENDBRANCH   6  12
BRANCH  11  35
HETATM   35  C   UNL     1      -9.458  12.111  73.748  1.00  0.00    23.432 C  
HETATM   36  C   UNL     1      -8.145  11.981  74.545  1.00  0.00    11.701 C  
HETATM   37  C   UNL     1      -7.080  12.943  74.043  1.00  0.00     6.073 C  
HETATM   38  N   UNL     1      -7.532  14.314  74.225  1.00  0.00     3.592 NA 
HETATM   39  H   UNL     1      -6.795  14.983  74.004  1.00  0.00     0.000 HD 
HETATM   40  C   UNL     1      -8.747  14.585  73.458  1.00  0.00     9.748 C  
HETATM   41  C   UNL     1      -9.874  13.600  73.752  1.00  0.00    11.521 C  
ENDBRANCH  11  35
ENDBRANCH   4   5
ENDBRANCH   2   4
TORSDOF 9
ENDMDL
