MODEL        1
REMARK 921   NORMALIZED FREE ENERGY PREDICTED BY IDOCK:   -4.81 KCAL/MOL
REMARK 922        TOTAL FREE ENERGY PREDICTED BY IDOCK:  -12.44 KCAL/MOL
REMARK 923 INTER-LIGAND FREE ENERGY PREDICTED BY IDOCK:   -9.60 KCAL/MOL
REMARK 924 INTRA-LIGAND FREE ENERGY PREDICTED BY IDOCK:   -2.84 KCAL/MOL
REMARK 927      BINDING AFFINITY PREDICTED BY RF-SCORE:    0.00 PKD
ROOT
HETATM    1  C   UNL     1     -12.798  15.540  71.084  1.00  0.00    -0.551 C  
HETATM    2  C   UNL     1     -14.094  14.843  71.463  1.00  0.00    -0.593 C  
ENDROOT
BRANCH   2   3
HETATM    3  C   UNL     1     -13.818  13.561  72.244  1.00  0.00    -0.680 C  
BRANCH   3   4
HETATM    4  C   UNL     1     -12.900  12.630  71.458  1.00  0.00    -0.368 C  
BRANCH   4   5
HETATM    5  C   UNL     1     -13.161  11.177  71.836  1.00  0.00    -0.513 C  
BRANCH   5   6
HETATM    6  C   UNL     1     -12.717  10.239  70.722  1.00  0.00    -0.434 C  
BRANCH   6   7
HETATM    7  C   UNL     1     -11.285   9.779  70.957  1.00  0.00    -0.451 C  
BRANCH   7   8
HETATM    8  C   UNL     1     -11.165   8.278  70.742  1.00  0.00    -0.284 C  
BRANCH   8   9
HETATM    9  C   UNL     1     -10.222   7.985  69.581  1.00  0.00    -0.208 C  
BRANCH   9  10
HETATM   10  C   UNL     1      -9.870   9.272  68.853  1.00  0.00    -0.170 C  
BRANCH  10  11
HETATM   11  C   UNL     1     -10.564   9.336  67.503  1.00  0.00    -0.329 C  
BRANCH  11  12
HETATM   12  C   UNL     1     -11.142  10.723  67.285  1.00  0.00    -0.339 C  
BRANCH  12  13
HETATM   13  C   UNL     1     -10.205  11.806  67.807  1.00  0.00    -0.205 C  
BRANCH  13  14
HETATM   14  C   UNL     1     -10.962  12.969  68.449  1.00  0.00    -0.288 C  
BRANCH  14  15
HETATM   15  C   UNL     1     -10.168  14.274  68.554  1.00  0.00    -0.245 C  
BRANCH  15  16
HETATM   16  C   UNL     1     -10.827  15.439  67.810  1.00  0.00    -0.302 C  
BRANCH  16  17
HETATM   17  N   UNL     1      -9.927  16.076  66.736  1.00  0.00    -0.250 N  
HETATM   18  C   UNL     1      -9.737  17.564  67.005  1.00  0.00    -0.284 C  
HETATM   19  C   UNL     1      -8.563  15.388  66.709  1.00  0.00    -0.273 C  
BRANCH  17  20
HETATM   20  C   UNL     1     -10.638  15.865  65.353  1.00  0.00    -0.419 C  
BRANCH  20  21
HETATM   21  C   UNL     1     -11.086  14.448  65.093  1.00  0.00    -0.365 A  
HETATM   22  C   UNL     1     -10.202  13.512  64.531  1.00  0.00    -0.296 A  
HETATM   23  C   UNL     1     -10.681  12.298  64.041  1.00  0.00    -0.438 A  
HETATM   24  C   UNL     1     -12.038  11.995  64.140  1.00  0.00    -0.458 A  
HETATM   25  C   UNL     1     -12.905  12.874  64.780  1.00  0.00    -0.359 A  
HETATM   26  C   UNL     1     -12.428  14.085  65.279  1.00  0.00    -0.495 A  
ENDBRANCH  20  21
ENDBRANCH  17  20
ENDBRANCH  16  17
ENDBRANCH  15  16
ENDBRANCH  14  15
ENDBRANCH  13  14
ENDBRANCH  12  13
ENDBRANCH  11  12
ENDBRANCH  10  11
ENDBRANCH   9  10
ENDBRANCH   8   9
ENDBRANCH   7   8
ENDBRANCH   6   7
ENDBRANCH   5   6
ENDBRANCH   4   5
ENDBRANCH   3   4
ENDBRANCH   2   3
TORSDOF 17
ENDMDL
MODEL        2
REMARK 921   NORMALIZED FREE ENERGY PREDICTED BY IDOCK:   -4.78 KCAL/MOL
REMARK 922        TOTAL FREE ENERGY PREDICTED BY IDOCK:  -12.37 KCAL/MOL
REMARK 923 INTER-LIGAND FREE ENERGY PREDICTED BY IDOCK:  -10.10 KCAL/MOL
REMARK 924 INTRA-LIGAND FREE ENERGY PREDICTED BY IDOCK:   -2.27 KCAL/MOL
REMARK 927      BINDING AFFINITY PREDICTED BY RF-SCORE:    0.00 PKD
ROOT
HETATM    1  C   UNL     1     -13.400   8.255  71.630  1.00  0.00    -0.353 C  
HETATM    2  C   UNL     1     -13.197   9.739  71.883  1.00  0.00    -0.545 C  
ENDROOT
BRANCH   2   3
HETATM    3  C   UNL     1     -11.944  10.249  71.176  1.00  0.00    -0.472 C  
BRANCH   3   4
HETATM    4  C   UNL     1     -12.274  10.753  69.774  1.00  0.00    -0.359 C  
BRANCH   4   5
HETATM    5  C   UNL     1     -11.143  10.422  68.808  1.00  0.00    -0.298 C  
BRANCH   5   6
HETATM    6  C   UNL     1     -11.133  11.393  67.635  1.00  0.00    -0.325 C  
BRANCH   6   7
HETATM    7  C   UNL     1      -9.719  11.893  67.374  1.00  0.00    -0.189 C  
BRANCH   7   8
HETATM    8  C   UNL     1      -9.167  11.285  66.093  1.00  0.00    -0.222 C  
BRANCH   8   9
HETATM    9  C   UNL     1     -10.283  10.614  65.303  1.00  0.00    -0.351 C  
BRANCH   9  10
HETATM   10  C   UNL     1     -10.106  10.879  63.817  1.00  0.00    -0.413 C  
BRANCH  10  11
HETATM   11  C   UNL     1     -10.406  12.331  63.488  1.00  0.00    -0.443 C  
BRANCH  11  12
HETATM   12  C   UNL     1     -11.897  12.592  63.617  1.00  0.00    -0.610 C  
BRANCH  12  13
HETATM   13  C   UNL     1     -12.173  13.945  64.262  1.00  0.00    -0.447 C  
BRANCH  13  14
HETATM   14  C   UNL     1     -10.960  14.485  65.019  1.00  0.00    -0.408 C  
BRANCH  14  15
HETATM   15  C   UNL     1     -11.258  14.984  66.437  1.00  0.00    -0.310 C  
BRANCH  15  16
HETATM   16  C   UNL     1     -10.126  15.830  67.025  1.00  0.00    -0.261 C  
BRANCH  16  17
HETATM   17  N   UNL     1     -10.315  16.165  68.516  1.00  0.00    -0.243 N  
HETATM   18  C   UNL     1      -9.362  15.346  69.378  1.00  0.00    -0.266 C  
HETATM   19  C   UNL     1     -10.067  17.653  68.762  1.00  0.00    -0.377 C  
BRANCH  17  20
HETATM   20  C   UNL     1     -11.802  15.823  68.881  1.00  0.00    -0.341 C  
BRANCH  20  21
HETATM   21  C   UNL     1     -12.001  15.341  70.297  1.00  0.00    -0.367 A  
HETATM   22  C   UNL     1     -12.550  14.073  70.548  1.00  0.00    -0.399 A  
HETATM   23  C   UNL     1     -12.985  13.737  71.830  1.00  0.00    -0.441 A  
HETATM   24  C   UNL     1     -12.844  14.648  72.874  1.00  0.00    -0.556 A  
HETATM   25  C   UNL     1     -12.215  15.870  72.654  1.00  0.00    -0.603 A  
HETATM   26  C   UNL     1     -11.771  16.206  71.377  1.00  0.00    -0.506 A  
ENDBRANCH  20  21
ENDBRANCH  17  20
ENDBRANCH  16  17
ENDBRANCH  15  16
ENDBRANCH  14  15
ENDBRANCH  13  14
ENDBRANCH  12  13
ENDBRANCH  11  12
ENDBRANCH  10  11
ENDBRANCH   9  10
ENDBRANCH   8   9
ENDBRANCH   7   8
ENDBRANCH   6   7
ENDBRANCH   5   6
ENDBRANCH   4   5
ENDBRANCH   3   4
ENDBRANCH   2   3
TORSDOF 17
ENDMDL
MODEL        3
REMARK 921   NORMALIZED FREE ENERGY PREDICTED BY IDOCK:   -4.69 KCAL/MOL
REMARK 922        TOTAL FREE ENERGY PREDICTED BY IDOCK:  -12.20 KCAL/MOL
REMARK 923 INTER-LIGAND FREE ENERGY PREDICTED BY IDOCK:   -9.44 KCAL/MOL
REMARK 924 INTRA-LIGAND FREE ENERGY PREDICTED BY IDOCK:   -2.76 KCAL/MOL
REMARK 927      BINDING AFFINITY PREDICTED BY RF-SCORE:    0.00 PKD
ROOT
HETATM    1  C   UNL     1     -10.769  19.679  66.626  1.00  0.00    -0.552 C  
HETATM    2  C   UNL     1     -10.212  19.467  68.024  1.00  0.00    -0.552 C  
ENDROOT
BRANCH   2   3
HETATM    3  C   UNL     1      -9.770  18.020  68.223  1.00  0.00    -0.332 C  
BRANCH   3   4
HETATM    4  C   UNL     1     -10.390  17.109  67.167  1.00  0.00    -0.307 C  
BRANCH   4   5
HETATM    5  C   UNL     1      -9.416  16.006  66.774  1.00  0.00    -0.250 C  
BRANCH   5   6
HETATM    6  C   UNL     1      -9.976  15.172  65.629  1.00  0.00    -0.387 C  
BRANCH   6   7
HETATM    7  C   UNL     1     -11.145  15.893  64.972  1.00  0.00    -0.370 C  
BRANCH   7   8
HETATM    8  C   UNL     1     -12.099  14.894  64.337  1.00  0.00    -0.417 C  
BRANCH   8   9
HETATM    9  C   UNL     1     -12.650  13.944  65.393  1.00  0.00    -0.538 C  
BRANCH   9  10
HETATM   10  C   UNL     1     -12.515  12.504  64.926  1.00  0.00    -0.524 C  
BRANCH  10  11
HETATM   11  C   UNL     1     -11.786  12.435  63.595  1.00  0.00    -0.610 C  
BRANCH  11  12
HETATM   12  C   UNL     1     -10.589  11.507  63.710  1.00  0.00    -0.465 C  
BRANCH  12  13
HETATM   13  C   UNL     1     -10.179  11.303  65.164  1.00  0.00    -0.344 C  
BRANCH  13  14
HETATM   14  C   UNL     1      -9.711   9.875  65.440  1.00  0.00    -0.375 C  
BRANCH  14  15
HETATM   15  C   UNL     1     -10.430   9.175  66.597  1.00  0.00    -0.237 C  
BRANCH  15  16
HETATM   16  C   UNL     1      -9.554   9.023  67.844  1.00  0.00    -0.147 C  
BRANCH  16  17
HETATM   17  N   UNL     1      -9.832  10.080  68.928  1.00  0.00    -0.175 N  
HETATM   18  C   UNL     1      -9.779   9.456  70.317  1.00  0.00    -0.246 C  
HETATM   19  C   UNL     1      -8.809  11.212  68.843  1.00  0.00    -0.079 C  
BRANCH  17  20
HETATM   20  C   UNL     1     -11.265  10.659  68.652  1.00  0.00    -0.278 C  
BRANCH  20  21
HETATM   21  C   UNL     1     -11.550  11.971  69.339  1.00  0.00    -0.393 A  
HETATM   22  C   UNL     1     -12.145  11.995  70.611  1.00  0.00    -0.369 A  
HETATM   23  C   UNL     1     -12.655  13.186  71.126  1.00  0.00    -0.403 A  
HETATM   24  C   UNL     1     -12.544  14.366  70.392  1.00  0.00    -0.405 A  
HETATM   25  C   UNL     1     -11.873  14.369  69.174  1.00  0.00    -0.359 A  
HETATM   26  C   UNL     1     -11.354  13.182  68.659  1.00  0.00    -0.327 A  
ENDBRANCH  20  21
ENDBRANCH  17  20
ENDBRANCH  16  17
ENDBRANCH  15  16
ENDBRANCH  14  15
ENDBRANCH  13  14
ENDBRANCH  12  13
ENDBRANCH  11  12
ENDBRANCH  10  11
ENDBRANCH   9  10
ENDBRANCH   8   9
ENDBRANCH   7   8
ENDBRANCH   6   7
ENDBRANCH   5   6
ENDBRANCH   4   5
ENDBRANCH   3   4
ENDBRANCH   2   3
TORSDOF 17
ENDMDL
MODEL        4
REMARK 921   NORMALIZED FREE ENERGY PREDICTED BY IDOCK:   -4.69 KCAL/MOL
REMARK 922        TOTAL FREE ENERGY PREDICTED BY IDOCK:  -12.18 KCAL/MOL
REMARK 923 INTER-LIGAND FREE ENERGY PREDICTED BY IDOCK:   -9.66 KCAL/MOL
REMARK 924 INTRA-LIGAND FREE ENERGY PREDICTED BY IDOCK:   -2.52 KCAL/MOL
REMARK 927      BINDING AFFINITY PREDICTED BY RF-SCORE:    0.00 PKD
ROOT
HETATM    1  C   UNL     1      -9.208   8.522  67.521  1.00  0.00    -0.151 C  
HETATM    2  C   UNL     1     -10.595   8.023  67.151  1.00  0.00    -0.367 C  
ENDROOT
BRANCH   2   3
HETATM    3  C   UNL     1     -10.732   6.529  67.431  1.00  0.00    -0.412 C  
BRANCH   3   4
HETATM    4  C   UNL     1     -11.282   6.284  68.833  1.00  0.00    -0.387 C  
BRANCH   4   5
HETATM    5  C   UNL     1     -10.278   5.504  69.672  1.00  0.00    -0.336 C  
BRANCH   5   6
HETATM    6  C   UNL     1     -10.212   6.057  71.090  1.00  0.00    -0.257 C  
BRANCH   6   7
HETATM    7  C   UNL     1      -9.472   7.387  71.105  1.00  0.00    -0.157 C  
BRANCH   7   8
HETATM    8  C   UNL     1     -10.317   8.460  71.776  1.00  0.00    -0.333 C  
BRANCH   8   9
HETATM    9  C   UNL     1     -11.401   7.819  72.633  1.00  0.00    -0.449 C  
BRANCH   9  10
HETATM   10  C   UNL     1     -12.736   8.504  72.389  1.00  0.00    -0.394 C  
BRANCH  10  11
HETATM   11  C   UNL     1     -12.660   9.417  71.177  1.00  0.00    -0.357 C  
BRANCH  11  12
HETATM   12  C   UNL     1     -12.935  10.851  71.594  1.00  0.00    -0.569 C  
BRANCH  12  13
HETATM   13  C   UNL     1     -12.306  11.845  70.625  1.00  0.00    -0.405 C  
BRANCH  13  14
HETATM   14  C   UNL     1     -11.750  11.164  69.375  1.00  0.00    -0.402 C  
BRANCH  14  15
HETATM   15  C   UNL     1     -11.534  12.095  68.178  1.00  0.00    -0.375 C  
BRANCH  15  16
HETATM   16  C   UNL     1     -12.125  13.491  68.389  1.00  0.00    -0.258 C  
BRANCH  16  17
HETATM   17  N   UNL     1     -11.111  14.630  68.180  1.00  0.00    -0.264 N  
HETATM   18  C   UNL     1      -9.708  14.182  68.573  1.00  0.00    -0.219 C  
HETATM   19  C   UNL     1     -11.108  15.079  66.719  1.00  0.00    -0.326 C  
BRANCH  17  20
HETATM   20  C   UNL     1     -11.568  15.827  69.086  1.00  0.00    -0.392 C  
BRANCH  20  21
HETATM   21  C   UNL     1     -12.120  15.417  70.429  1.00  0.00    -0.408 A  
HETATM   22  C   UNL     1     -13.496  15.193  70.595  1.00  0.00    -0.243 A  
HETATM   23  C   UNL     1     -14.041  15.084  71.874  1.00  0.00    -0.627 A  
HETATM   24  C   UNL     1     -13.214  15.163  72.992  1.00  0.00    -0.604 A  
HETATM   25  C   UNL     1     -11.837  15.291  72.835  1.00  0.00    -0.510 A  
HETATM   26  C   UNL     1     -11.288  15.391  71.558  1.00  0.00    -0.461 A  
ENDBRANCH  20  21
ENDBRANCH  17  20
ENDBRANCH  16  17
ENDBRANCH  15  16
ENDBRANCH  14  15
ENDBRANCH  13  14
ENDBRANCH  12  13
ENDBRANCH  11  12
ENDBRANCH  10  11
ENDBRANCH   9  10
ENDBRANCH   8   9
ENDBRANCH   7   8
ENDBRANCH   6   7
ENDBRANCH   5   6
ENDBRANCH   4   5
ENDBRANCH   3   4
ENDBRANCH   2   3
TORSDOF 17
ENDMDL
MODEL        5
REMARK 921   NORMALIZED FREE ENERGY PREDICTED BY IDOCK:   -4.62 KCAL/MOL
REMARK 922        TOTAL FREE ENERGY PREDICTED BY IDOCK:  -12.04 KCAL/MOL
REMARK 923 INTER-LIGAND FREE ENERGY PREDICTED BY IDOCK:   -9.37 KCAL/MOL
REMARK 924 INTRA-LIGAND FREE ENERGY PREDICTED BY IDOCK:   -2.67 KCAL/MOL
REMARK 927      BINDING AFFINITY PREDICTED BY RF-SCORE:    0.00 PKD
ROOT
HETATM    1  C   UNL     1     -12.482  15.119  73.866  1.00  0.00    -0.715 C  
HETATM    2  C   UNL     1     -13.512  15.905  73.072  1.00  0.00    -0.653 C  
ENDROOT
BRANCH   2   3
HETATM    3  C   UNL     1     -13.923  15.150  71.811  1.00  0.00    -0.627 C  
BRANCH   3   4
HETATM    4  C   UNL     1     -12.847  15.257  70.735  1.00  0.00    -0.494 C  
BRANCH   4   5
HETATM    5  C   UNL     1     -12.297  13.880  70.390  1.00  0.00    -0.433 C  
BRANCH   5   6
HETATM    6  C   UNL     1     -11.862  13.820  68.931  1.00  0.00    -0.396 C  
BRANCH   6   7
HETATM    7  C   UNL     1     -10.397  14.211  68.800  1.00  0.00    -0.230 C  
BRANCH   7   8
HETATM    8  C   UNL     1     -10.184  15.075  67.566  1.00  0.00    -0.234 C  
BRANCH   8   9
HETATM    9  C   UNL     1     -11.400  14.996  66.650  1.00  0.00    -0.289 C  
BRANCH   9  10
HETATM   10  C   UNL     1     -10.958  14.922  65.197  1.00  0.00    -0.410 C  
BRANCH  10  11
HETATM   11  C   UNL     1     -10.673  13.485  64.793  1.00  0.00    -0.412 C  
BRANCH  11  12
HETATM   12  C   UNL     1     -11.669  12.554  65.463  1.00  0.00    -0.457 C  
BRANCH  12  13
HETATM   13  C   UNL     1     -10.968  11.386  66.146  1.00  0.00    -0.294 C  
BRANCH  13  14
HETATM   14  C   UNL     1      -9.452  11.570  66.200  1.00  0.00    -0.239 C  
BRANCH  14  15
HETATM   15  C   UNL     1      -8.806  11.199  67.538  1.00  0.00    -0.139 C  
BRANCH  15  16
HETATM   16  C   UNL     1      -8.331   9.744  67.592  1.00  0.00    -0.114 C  
BRANCH  16  17
HETATM   17  N   UNL     1      -8.978   8.925  68.724  1.00  0.00    -0.134 N  
HETATM   18  C   UNL     1     -10.194   8.162  68.211  1.00  0.00    -0.206 C  
HETATM   19  C   UNL     1      -7.970   7.936  69.308  1.00  0.00    -0.117 C  
BRANCH  17  20
HETATM   20  C   UNL     1      -9.410   9.940  69.840  1.00  0.00    -0.216 C  
BRANCH  20  21
HETATM   21  C   UNL     1     -10.732   9.622  70.494  1.00  0.00    -0.374 A  
HETATM   22  C   UNL     1     -11.879  10.369  70.181  1.00  0.00    -0.379 A  
HETATM   23  C   UNL     1     -13.024  10.263  70.971  1.00  0.00    -0.488 A  
HETATM   24  C   UNL     1     -13.043   9.387  72.054  1.00  0.00    -0.516 A  
HETATM   25  C   UNL     1     -11.945   8.574  72.314  1.00  0.00    -0.454 A  
HETATM   26  C   UNL     1     -10.802   8.671  71.522  1.00  0.00    -0.352 A  
ENDBRANCH  20  21
ENDBRANCH  17  20
ENDBRANCH  16  17
ENDBRANCH  15  16
ENDBRANCH  14  15
ENDBRANCH  13  14
ENDBRANCH  12  13
ENDBRANCH  11  12
ENDBRANCH  10  11
ENDBRANCH   9  10
ENDBRANCH   8   9
ENDBRANCH   7   8
ENDBRANCH   6   7
ENDBRANCH   5   6
ENDBRANCH   4   5
ENDBRANCH   3   4
ENDBRANCH   2   3
TORSDOF 17
ENDMDL
MODEL        6
REMARK 921   NORMALIZED FREE ENERGY PREDICTED BY IDOCK:   -4.61 KCAL/MOL
REMARK 922        TOTAL FREE ENERGY PREDICTED BY IDOCK:  -12.02 KCAL/MOL
REMARK 923 INTER-LIGAND FREE ENERGY PREDICTED BY IDOCK:   -9.94 KCAL/MOL
REMARK 924 INTRA-LIGAND FREE ENERGY PREDICTED BY IDOCK:   -2.08 KCAL/MOL
REMARK 927      BINDING AFFINITY PREDICTED BY RF-SCORE:    0.00 PKD
ROOT
HETATM    1  C   UNL     1     -12.138  12.278  63.749  1.00  0.00    -0.624 C  
HETATM    2  C   UNL     1     -10.786  11.914  64.339  1.00  0.00    -0.373 C  
ENDROOT
BRANCH   2   3
HETATM    3  C   UNL     1     -10.884  11.710  65.848  1.00  0.00    -0.339 C  
BRANCH   3   4
HETATM    4  C   UNL     1     -11.735  12.799  66.493  1.00  0.00    -0.463 C  
BRANCH   4   5
HETATM    5  C   UNL     1     -11.854  12.567  67.994  1.00  0.00    -0.382 C  
BRANCH   5   6
HETATM    6  C   UNL     1     -11.451  11.143  68.355  1.00  0.00    -0.377 C  
BRANCH   6   7
HETATM    7  C   UNL     1     -11.839  10.833  69.794  1.00  0.00    -0.409 C  
BRANCH   7   8
HETATM    8  C   UNL     1     -12.137  12.116  70.554  1.00  0.00    -0.383 C  
BRANCH   8   9
HETATM    9  C   UNL     1     -13.086  11.836  71.712  1.00  0.00    -0.480 C  
BRANCH   9  10
HETATM   10  C   UNL     1     -13.592  13.142  72.303  1.00  0.00    -0.677 C  
BRANCH  10  11
HETATM   11  C   UNL     1     -13.524  14.261  71.278  1.00  0.00    -0.378 C  
BRANCH  11  12
HETATM   12  C   UNL     1     -13.222  15.578  71.972  1.00  0.00    -0.549 C  
BRANCH  12  13
HETATM   13  C   UNL     1     -11.789  16.028  71.716  1.00  0.00    -0.599 C  
BRANCH  13  14
HETATM   14  C   UNL     1     -11.400  15.915  70.242  1.00  0.00    -0.381 C  
BRANCH  14  15
HETATM   15  C   UNL     1     -10.059  15.221  69.983  1.00  0.00    -0.178 C  
BRANCH  15  16
HETATM   16  C   UNL     1      -9.662  15.216  68.504  1.00  0.00    -0.214 C  
BRANCH  16  17
HETATM   17  N   UNL     1      -8.140  15.211  68.273  1.00  0.00    -0.134 N  
HETATM   18  C   UNL     1      -7.393  15.231  69.601  1.00  0.00    -0.188 C  
HETATM   19  C   UNL     1      -7.726  13.974  67.478  1.00  0.00    -0.182 C  
BRANCH  17  20
HETATM   20  C   UNL     1      -7.795  16.497  67.442  1.00  0.00    -0.157 C  
BRANCH  20  21
HETATM   21  C   UNL     1      -8.867  17.558  67.463  1.00  0.00    -0.229 A  
HETATM   22  C   UNL     1      -9.683  17.769  66.339  1.00  0.00    -0.315 A  
HETATM   23  C   UNL     1     -10.478  18.912  66.252  1.00  0.00    -0.510 A  
HETATM   24  C   UNL     1     -10.492  19.831  67.299  1.00  0.00    -0.579 A  
HETATM   25  C   UNL     1      -9.760  19.583  68.456  1.00  0.00    -0.503 A  
HETATM   26  C   UNL     1      -8.970  18.438  68.550  1.00  0.00    -0.336 A  
ENDBRANCH  20  21
ENDBRANCH  17  20
ENDBRANCH  16  17
ENDBRANCH  15  16
ENDBRANCH  14  15
ENDBRANCH  13  14
ENDBRANCH  12  13
ENDBRANCH  11  12
ENDBRANCH  10  11
ENDBRANCH   9  10
ENDBRANCH   8   9
ENDBRANCH   7   8
ENDBRANCH   6   7
ENDBRANCH   5   6
ENDBRANCH   4   5
ENDBRANCH   3   4
ENDBRANCH   2   3
TORSDOF 17
ENDMDL
MODEL        7
REMARK 921   NORMALIZED FREE ENERGY PREDICTED BY IDOCK:   -4.59 KCAL/MOL
REMARK 922        TOTAL FREE ENERGY PREDICTED BY IDOCK:  -11.99 KCAL/MOL
REMARK 923 INTER-LIGAND FREE ENERGY PREDICTED BY IDOCK:   -9.99 KCAL/MOL
REMARK 924 INTRA-LIGAND FREE ENERGY PREDICTED BY IDOCK:   -2.01 KCAL/MOL
REMARK 927      BINDING AFFINITY PREDICTED BY RF-SCORE:    0.00 PKD
ROOT
HETATM    1  C   UNL     1     -12.630  15.711  74.025  1.00  0.00    -0.767 C  
HETATM    2  C   UNL     1     -11.949  15.513  72.682  1.00  0.00    -0.562 C  
ENDROOT
BRANCH   2   3
HETATM    3  C   UNL     1     -12.978  15.315  71.571  1.00  0.00    -0.488 C  
BRANCH   3   4
HETATM    4  C   UNL     1     -12.314  15.364  70.198  1.00  0.00    -0.395 C  
BRANCH   4   5
HETATM    5  C   UNL     1     -12.149  13.958  69.634  1.00  0.00    -0.404 C  
BRANCH   5   6
HETATM    6  C   UNL     1     -10.869  13.850  68.815  1.00  0.00    -0.282 C  
BRANCH   6   7
HETATM    7  C   UNL     1     -11.138  14.220  67.363  1.00  0.00    -0.314 C  
BRANCH   7   8
HETATM    8  C   UNL     1     -12.267  13.372  66.798  1.00  0.00    -0.367 C  
BRANCH   8   9
HETATM    9  C   UNL     1     -12.783  13.978  65.499  1.00  0.00    -0.517 C  
BRANCH   9  10
HETATM   10  C   UNL     1     -11.830  13.662  64.358  1.00  0.00    -0.460 C  
BRANCH  10  11
HETATM   11  C   UNL     1     -12.064  12.256  63.832  1.00  0.00    -0.598 C  
BRANCH  11  12
HETATM   12  C   UNL     1     -10.732  11.570  63.583  1.00  0.00    -0.491 C  
BRANCH  12  13
HETATM   13  C   UNL     1     -10.333  10.684  64.757  1.00  0.00    -0.353 C  
BRANCH  13  14
HETATM   14  C   UNL     1      -9.270  11.337  65.641  1.00  0.00    -0.231 C  
BRANCH  14  15
HETATM   15  C   UNL     1      -9.373  10.993  67.130  1.00  0.00    -0.177 C  
BRANCH  15  16
HETATM   16  C   UNL     1     -10.169   9.713  67.397  1.00  0.00    -0.227 C  
BRANCH  16  17
HETATM   17  N   UNL     1      -9.544   8.810  68.476  1.00  0.00    -0.148 N  
HETATM   18  C   UNL     1     -10.423   7.592  68.735  1.00  0.00    -0.189 C  
HETATM   19  C   UNL     1      -8.154   8.347  68.043  1.00  0.00    -0.123 C  
BRANCH  17  20
HETATM   20  C   UNL     1      -9.418   9.670  69.782  1.00  0.00    -0.220 C  
BRANCH  20  21
HETATM   21  C   UNL     1     -10.671   9.719  70.620  1.00  0.00    -0.394 A  
HETATM   22  C   UNL     1     -10.837   8.845  71.707  1.00  0.00    -0.436 A  
HETATM   23  C   UNL     1     -12.087   8.698  72.307  1.00  0.00    -0.443 A  
HETATM   24  C   UNL     1     -13.170   9.448  71.851  1.00  0.00    -0.507 A  
HETATM   25  C   UNL     1     -12.993  10.386  70.838  1.00  0.00    -0.475 A  
HETATM   26  C   UNL     1     -11.743  10.541  70.242  1.00  0.00    -0.420 A  
ENDBRANCH  20  21
ENDBRANCH  17  20
ENDBRANCH  16  17
ENDBRANCH  15  16
ENDBRANCH  14  15
ENDBRANCH  13  14
ENDBRANCH  12  13
ENDBRANCH  11  12
ENDBRANCH  10  11
ENDBRANCH   9  10
ENDBRANCH   8   9
ENDBRANCH   7   8
ENDBRANCH   6   7
ENDBRANCH   5   6
ENDBRANCH   4   5
ENDBRANCH   3   4
ENDBRANCH   2   3
TORSDOF 17
ENDMDL
MODEL        8
REMARK 921   NORMALIZED FREE ENERGY PREDICTED BY IDOCK:   -4.57 KCAL/MOL
REMARK 922        TOTAL FREE ENERGY PREDICTED BY IDOCK:  -11.94 KCAL/MOL
REMARK 923 INTER-LIGAND FREE ENERGY PREDICTED BY IDOCK:   -8.95 KCAL/MOL
REMARK 924 INTRA-LIGAND FREE ENERGY PREDICTED BY IDOCK:   -2.99 KCAL/MOL
REMARK 927      BINDING AFFINITY PREDICTED BY RF-SCORE:    0.00 PKD
ROOT
HETATM    1  C   UNL     1      -9.416  13.897  66.792  1.00  0.00    -0.287 C  
HETATM    2  C   UNL     1     -10.164  12.963  67.727  1.00  0.00    -0.224 C  
ENDROOT
BRANCH   2   3
HETATM    3  C   UNL     1     -11.633  12.847  67.326  1.00  0.00    -0.416 C  
BRANCH   3   4
HETATM    4  C   UNL     1     -12.117  14.126  66.649  1.00  0.00    -0.480 C  
BRANCH   4   5
HETATM    5  C   UNL     1     -12.862  13.799  65.361  1.00  0.00    -0.455 C  
BRANCH   5   6
HETATM    6  C   UNL     1     -12.417  12.453  64.805  1.00  0.00    -0.480 C  
BRANCH   6   7
HETATM    7  C   UNL     1     -11.727  12.638  63.461  1.00  0.00    -0.604 C  
BRANCH   7   8
HETATM    8  C   UNL     1     -10.375  11.941  63.455  1.00  0.00    -0.495 C  
BRANCH   8   9
HETATM    9  C   UNL     1     -10.351  10.828  64.495  1.00  0.00    -0.401 C  
BRANCH   9  10
HETATM   10  C   UNL     1      -8.927  10.585  64.971  1.00  0.00    -0.223 C  
BRANCH  10  11
HETATM   11  C   UNL     1      -8.921   9.886  66.320  1.00  0.00    -0.169 C  
BRANCH  11  12
HETATM   12  C   UNL     1     -10.323   9.413  66.661  1.00  0.00    -0.284 C  
BRANCH  12  13
HETATM   13  C   UNL     1     -10.324   7.962  67.128  1.00  0.00    -0.398 C  
BRANCH  13  14
HETATM   14  C   UNL     1      -8.926   7.474  67.508  1.00  0.00    -0.127 C  
BRANCH  14  15
HETATM   15  C   UNL     1      -8.637   7.457  69.012  1.00  0.00    -0.133 C  
BRANCH  15  16
HETATM   16  C   UNL     1      -9.110   6.174  69.700  1.00  0.00    -0.137 C  
BRANCH  16  17
HETATM   17  N   UNL     1     -10.249   6.398  70.712  1.00  0.00    -0.187 N  
HETATM   18  C   UNL     1     -11.601   6.405  70.009  1.00  0.00    -0.377 C  
HETATM   19  C   UNL     1     -10.237   5.303  71.778  1.00  0.00    -0.210 C  
BRANCH  17  20
HETATM   20  C   UNL     1      -9.991   7.787  71.397  1.00  0.00    -0.178 C  
BRANCH  20  21
HETATM   21  C   UNL     1     -11.123   8.773  71.253  1.00  0.00    -0.348 A  
HETATM   22  C   UNL     1     -11.003   9.875  70.391  1.00  0.00    -0.379 A  
HETATM   23  C   UNL     1     -11.921  10.923  70.458  1.00  0.00    -0.466 A  
HETATM   24  C   UNL     1     -12.982  10.862  71.360  1.00  0.00    -0.527 A  
HETATM   25  C   UNL     1     -13.162   9.732  72.150  1.00  0.00    -0.530 A  
HETATM   26  C   UNL     1     -12.252   8.678  72.080  1.00  0.00    -0.439 A  
ENDBRANCH  20  21
ENDBRANCH  17  20
ENDBRANCH  16  17
ENDBRANCH  15  16
ENDBRANCH  14  15
ENDBRANCH  13  14
ENDBRANCH  12  13
ENDBRANCH  11  12
ENDBRANCH  10  11
ENDBRANCH   9  10
ENDBRANCH   8   9
ENDBRANCH   7   8
ENDBRANCH   6   7
ENDBRANCH   5   6
ENDBRANCH   4   5
ENDBRANCH   3   4
ENDBRANCH   2   3
TORSDOF 17
ENDMDL
MODEL        9
REMARK 921   NORMALIZED FREE ENERGY PREDICTED BY IDOCK:   -4.56 KCAL/MOL
REMARK 922        TOTAL FREE ENERGY PREDICTED BY IDOCK:  -11.94 KCAL/MOL
REMARK 923 INTER-LIGAND FREE ENERGY PREDICTED BY IDOCK:   -9.51 KCAL/MOL
REMARK 924 INTRA-LIGAND FREE ENERGY PREDICTED BY IDOCK:   -2.43 KCAL/MOL
REMARK 927      BINDING AFFINITY PREDICTED BY RF-SCORE:    0.00 PKD
ROOT
HETATM    1  C   UNL     1     -10.883   6.780  67.122  1.00  0.00    -0.462 C  
HETATM    2  C   UNL     1      -9.625   6.954  67.955  1.00  0.00    -0.125 C  
ENDROOT
BRANCH   2   3
HETATM    3  C   UNL     1      -9.967   7.146  69.430  1.00  0.00    -0.164 C  
BRANCH   3   4
HETATM    4  C   UNL     1     -11.355   6.595  69.745  1.00  0.00    -0.412 C  
BRANCH   4   5
HETATM    5  C   UNL     1     -11.507   6.350  71.241  1.00  0.00    -0.371 C  
BRANCH   5   6
HETATM    6  C   UNL     1     -12.753   7.041  71.779  1.00  0.00    -0.378 C  
BRANCH   6   7
HETATM    7  C   UNL     1     -12.386   8.380  72.404  1.00  0.00    -0.412 C  
BRANCH   7   8
HETATM    8  C   UNL     1     -13.554   9.351  72.309  1.00  0.00    -0.532 C  
BRANCH   8   9
HETATM    9  C   UNL     1     -13.130  10.616  71.574  1.00  0.00    -0.527 C  
BRANCH   9  10
HETATM   10  C   UNL     1     -11.759  10.423  70.944  1.00  0.00    -0.455 C  
BRANCH  10  11
HETATM   11  C   UNL     1     -11.811  10.685  69.449  1.00  0.00    -0.325 C  
BRANCH  11  12
HETATM   12  C   UNL     1     -10.419  10.553  68.854  1.00  0.00    -0.226 C  
BRANCH  12  13
HETATM   13  C   UNL     1     -10.360  11.118  67.441  1.00  0.00    -0.231 C  
BRANCH  13  14
HETATM   14  C   UNL     1     -11.686  11.745  67.010  1.00  0.00    -0.247 C  
BRANCH  14  15
HETATM   15  C   UNL     1     -11.581  13.186  66.502  1.00  0.00    -0.402 C  
BRANCH  15  16
HETATM   16  C   UNL     1     -12.118  14.216  67.501  1.00  0.00    -0.328 C  
BRANCH  16  17
HETATM   17  N   UNL     1     -11.016  14.934  68.301  1.00  0.00    -0.255 N  
HETATM   18  C   UNL     1      -9.677  14.839  67.580  1.00  0.00    -0.213 C  
HETATM   19  C   UNL     1     -11.379  16.404  68.505  1.00  0.00    -0.289 C  
BRANCH  17  20
HETATM   20  C   UNL     1     -10.926  14.227  69.699  1.00  0.00    -0.119 C  
BRANCH  20  21
HETATM   21  C   UNL     1     -11.890  14.760  70.731  1.00  0.00    -0.370 A  
HETATM   22  C   UNL     1     -11.497  15.780  71.613  1.00  0.00    -0.495 A  
HETATM   23  C   UNL     1     -12.276  16.081  72.730  1.00  0.00    -0.617 A  
HETATM   24  C   UNL     1     -13.467  15.394  72.953  1.00  0.00    -0.629 A  
HETATM   25  C   UNL     1     -13.911  14.449  72.034  1.00  0.00    -0.592 A  
HETATM   26  C   UNL     1     -13.140  14.150  70.912  1.00  0.00    -0.338 A  
ENDBRANCH  20  21
ENDBRANCH  17  20
ENDBRANCH  16  17
ENDBRANCH  15  16
ENDBRANCH  14  15
ENDBRANCH  13  14
ENDBRANCH  12  13
ENDBRANCH  11  12
ENDBRANCH  10  11
ENDBRANCH   9  10
ENDBRANCH   8   9
ENDBRANCH   7   8
ENDBRANCH   6   7
ENDBRANCH   5   6
ENDBRANCH   4   5
ENDBRANCH   3   4
ENDBRANCH   2   3
TORSDOF 17
ENDMDL
MODEL       10
REMARK 921   NORMALIZED FREE ENERGY PREDICTED BY IDOCK:   -4.56 KCAL/MOL
REMARK 922        TOTAL FREE ENERGY PREDICTED BY IDOCK:  -11.92 KCAL/MOL
REMARK 923 INTER-LIGAND FREE ENERGY PREDICTED BY IDOCK:   -8.93 KCAL/MOL
REMARK 924 INTRA-LIGAND FREE ENERGY PREDICTED BY IDOCK:   -2.99 KCAL/MOL
REMARK 927      BINDING AFFINITY PREDICTED BY RF-SCORE:    0.00 PKD
ROOT
HETATM    1  C   UNL     1     -10.502  14.587  65.985  1.00  0.00    -0.315 C  
HETATM    2  C   UNL     1     -11.973  14.435  66.335  1.00  0.00    -0.402 C  
ENDROOT
BRANCH   2   3
HETATM    3  C   UNL     1     -12.670  13.481  65.369  1.00  0.00    -0.495 C  
BRANCH   3   4
HETATM    4  C   UNL     1     -12.038  13.550  63.982  1.00  0.00    -0.494 C  
BRANCH   4   5
HETATM    5  C   UNL     1     -11.746  12.150  63.458  1.00  0.00    -0.579 C  
BRANCH   5   6
HETATM    6  C   UNL     1     -10.244  11.909  63.365  1.00  0.00    -0.478 C  
BRANCH   6   7
HETATM    7  C   UNL     1      -9.896  10.530  63.910  1.00  0.00    -0.373 C  
BRANCH   7   8
HETATM    8  C   UNL     1     -10.294  10.420  65.374  1.00  0.00    -0.270 C  
BRANCH   8   9
HETATM    9  C   UNL     1      -9.242  11.078  66.258  1.00  0.00    -0.200 C  
BRANCH   9  10
HETATM   10  C   UNL     1      -9.793  11.291  67.659  1.00  0.00    -0.190 C  
BRANCH  10  11
HETATM   11  C   UNL     1     -11.289  11.027  67.696  1.00  0.00    -0.355 C  
BRANCH  11  12
HETATM   12  C   UNL     1     -11.908  11.741  68.885  1.00  0.00    -0.381 C  
BRANCH  12  13
HETATM   13  C   UNL     1     -11.604  11.019  70.192  1.00  0.00    -0.421 C  
BRANCH  13  14
HETATM   14  C   UNL     1     -12.872  10.540  70.899  1.00  0.00    -0.485 C  
BRANCH  14  15
HETATM   15  C   UNL     1     -12.683   9.313  71.797  1.00  0.00    -0.462 C  
BRANCH  15  16
HETATM   16  C   UNL     1     -11.211   8.968  72.040  1.00  0.00    -0.309 C  
BRANCH  16  17
HETATM   17  N   UNL     1     -10.933   7.455  72.106  1.00  0.00    -0.235 N  
HETATM   18  C   UNL     1     -10.531   7.043  73.517  1.00  0.00    -0.375 C  
HETATM   19  C   UNL     1     -12.172   6.668  71.682  1.00  0.00    -0.352 C  
BRANCH  17  20
HETATM   20  C   UNL     1      -9.764   7.156  71.104  1.00  0.00    -0.168 C  
BRANCH  20  21
HETATM   21  C   UNL     1     -10.216   6.749  69.723  1.00  0.00    -0.207 A  
HETATM   22  C   UNL     1     -10.224   5.396  69.346  1.00  0.00    -0.334 A  
HETATM   23  C   UNL     1     -10.375   5.041  68.006  1.00  0.00    -0.096 A  
HETATM   24  C   UNL     1     -10.554   6.029  67.040  1.00  0.00    -0.385 A  
HETATM   25  C   UNL     1     -10.641   7.366  67.416  1.00  0.00    -0.371 A  
HETATM   26  C   UNL     1     -10.499   7.724  68.756  1.00  0.00    -0.201 A  
ENDBRANCH  20  21
ENDBRANCH  17  20
ENDBRANCH  16  17
ENDBRANCH  15  16
ENDBRANCH  14  15
ENDBRANCH  13  14
ENDBRANCH  12  13
ENDBRANCH  11  12
ENDBRANCH  10  11
ENDBRANCH   9  10
ENDBRANCH   8   9
ENDBRANCH   7   8
ENDBRANCH   6   7
ENDBRANCH   5   6
ENDBRANCH   4   5
ENDBRANCH   3   4
ENDBRANCH   2   3
TORSDOF 17
ENDMDL
MODEL       11
REMARK 921   NORMALIZED FREE ENERGY PREDICTED BY IDOCK:   -4.54 KCAL/MOL
REMARK 922        TOTAL FREE ENERGY PREDICTED BY IDOCK:  -11.90 KCAL/MOL
REMARK 923 INTER-LIGAND FREE ENERGY PREDICTED BY IDOCK:  -10.16 KCAL/MOL
REMARK 924 INTRA-LIGAND FREE ENERGY PREDICTED BY IDOCK:   -1.74 KCAL/MOL
REMARK 927      BINDING AFFINITY PREDICTED BY RF-SCORE:    0.00 PKD
ROOT
HETATM    1  C   UNL     1     -13.959   7.678  71.466  1.00  0.00    -0.500 C  
HETATM    2  C   UNL     1     -13.292   8.966  71.917  1.00  0.00    -0.455 C  
ENDROOT
BRANCH   2   3
HETATM    3  C   UNL     1     -11.772   8.833  71.891  1.00  0.00    -0.429 C  
BRANCH   3   4
HETATM    4  C   UNL     1     -11.155   9.812  70.896  1.00  0.00    -0.428 C  
BRANCH   4   5
HETATM    5  C   UNL     1     -12.145  10.915  70.547  1.00  0.00    -0.464 C  
BRANCH   5   6
HETATM    6  C   UNL     1     -11.779  11.573  69.223  1.00  0.00    -0.397 C  
BRANCH   6   7
HETATM    7  C   UNL     1     -11.361  10.519  68.207  1.00  0.00    -0.332 C  
BRANCH   7   8
HETATM    8  C   UNL     1     -10.204  11.025  67.359  1.00  0.00    -0.229 C  
BRANCH   8   9
HETATM    9  C   UNL     1     -10.060  10.177  66.102  1.00  0.00    -0.314 C  
BRANCH   9  10
HETATM   10  C   UNL     1      -9.326  10.958  65.024  1.00  0.00    -0.260 C  
BRANCH  10  11
HETATM   11  C   UNL     1     -10.081  10.898  63.707  1.00  0.00    -0.413 C  
BRANCH  11  12
HETATM   12  C   UNL     1     -10.850  12.191  63.494  1.00  0.00    -0.518 C  
BRANCH  12  13
HETATM   13  C   UNL     1     -12.308  12.048  63.912  1.00  0.00    -0.553 C  
BRANCH  13  14
HETATM   14  C   UNL     1     -12.660  12.936  65.105  1.00  0.00    -0.536 C  
BRANCH  14  15
HETATM   15  C   UNL     1     -11.597  13.978  65.467  1.00  0.00    -0.333 C  
BRANCH  15  16
HETATM   16  C   UNL     1     -11.641  14.394  66.939  1.00  0.00    -0.388 C  
BRANCH  16  17
HETATM   17  N   UNL     1     -10.445  15.261  67.373  1.00  0.00    -0.265 N  
HETATM   18  C   UNL     1      -9.617  14.546  68.433  1.00  0.00    -0.213 C  
HETATM   19  C   UNL     1      -9.558  15.583  66.171  1.00  0.00    -0.330 C  
BRANCH  17  20
HETATM   20  C   UNL     1     -11.029  16.596  67.955  1.00  0.00    -0.276 C  
BRANCH  20  21
HETATM   21  C   UNL     1     -10.210  17.824  67.641  1.00  0.00    -0.359 A  
HETATM   22  C   UNL     1      -9.125  18.185  68.457  1.00  0.00    -0.318 A  
HETATM   23  C   UNL     1      -8.545  19.447  68.336  1.00  0.00    -0.397 A  
HETATM   24  C   UNL     1      -9.017  20.342  67.378  1.00  0.00    -0.449 A  
HETATM   25  C   UNL     1     -10.028  19.958  66.502  1.00  0.00    -0.591 A  
HETATM   26  C   UNL     1     -10.606  18.694  66.615  1.00  0.00    -0.410 A  
ENDBRANCH  20  21
ENDBRANCH  17  20
ENDBRANCH  16  17
ENDBRANCH  15  16
ENDBRANCH  14  15
ENDBRANCH  13  14
ENDBRANCH  12  13
ENDBRANCH  11  12
ENDBRANCH  10  11
ENDBRANCH   9  10
ENDBRANCH   8   9
ENDBRANCH   7   8
ENDBRANCH   6   7
ENDBRANCH   5   6
ENDBRANCH   4   5
ENDBRANCH   3   4
ENDBRANCH   2   3
TORSDOF 17
ENDMDL
MODEL       12
REMARK 921   NORMALIZED FREE ENERGY PREDICTED BY IDOCK:   -4.53 KCAL/MOL
REMARK 922        TOTAL FREE ENERGY PREDICTED BY IDOCK:  -11.88 KCAL/MOL
REMARK 923 INTER-LIGAND FREE ENERGY PREDICTED BY IDOCK:  -10.68 KCAL/MOL
REMARK 924 INTRA-LIGAND FREE ENERGY PREDICTED BY IDOCK:   -1.20 KCAL/MOL
REMARK 927      BINDING AFFINITY PREDICTED BY RF-SCORE:    0.00 PKD
ROOT
HETATM    1  C   UNL     1     -10.149   6.394  74.392  1.00  0.00    -0.367 C  
HETATM    2  C   UNL     1      -9.102   6.782  73.362  1.00  0.00    -0.152 C  
ENDROOT
BRANCH   2   3
HETATM    3  C   UNL     1      -9.715   7.629  72.250  1.00  0.00    -0.226 C  
BRANCH   3   4
HETATM    4  C   UNL     1     -11.128   8.073  72.617  1.00  0.00    -0.453 C  
BRANCH   4   5
HETATM    5  C   UNL     1     -12.118   7.648  71.541  1.00  0.00    -0.338 C  
BRANCH   5   6
HETATM    6  C   UNL     1     -13.388   8.486  71.612  1.00  0.00    -0.372 C  
BRANCH   6   7
HETATM    7  C   UNL     1     -13.047   9.934  71.938  1.00  0.00    -0.559 C  
BRANCH   7   8
HETATM    8  C   UNL     1     -12.682  10.693  70.672  1.00  0.00    -0.445 C  
BRANCH   8   9
HETATM    9  C   UNL     1     -12.589  12.187  70.959  1.00  0.00    -0.359 C  
BRANCH   9  10
HETATM   10  C   UNL     1     -13.366  12.527  72.220  1.00  0.00    -0.475 C  
BRANCH  10  11
HETATM   11  C   UNL     1     -13.733  14.001  72.247  1.00  0.00    -0.646 C  
BRANCH  11  12
HETATM   12  C   UNL     1     -12.912  14.717  73.305  1.00  0.00    -0.608 C  
BRANCH  12  13
HETATM   13  C   UNL     1     -11.770  15.512  72.682  1.00  0.00    -0.564 C  
BRANCH  13  14
HETATM   14  C   UNL     1     -12.059  15.905  71.234  1.00  0.00    -0.487 C  
BRANCH  14  15
HETATM   15  C   UNL     1     -10.967  15.520  70.232  1.00  0.00    -0.352 C  
BRANCH  15  16
HETATM   16  C   UNL     1     -11.353  15.814  68.780  1.00  0.00    -0.362 C  
BRANCH  16  17
HETATM   17  N   UNL     1     -10.806  14.785  67.774  1.00  0.00    -0.272 N  
HETATM   18  C   UNL     1     -10.423  15.462  66.464  1.00  0.00    -0.294 C  
HETATM   19  C   UNL     1      -9.583  14.074  68.352  1.00  0.00    -0.222 C  
BRANCH  17  20
HETATM   20  C   UNL     1     -11.943  13.733  67.524  1.00  0.00    -0.376 C  
BRANCH  20  21
HETATM   21  C   UNL     1     -11.802  12.956  66.239  1.00  0.00    -0.477 A  
HETATM   22  C   UNL     1     -10.836  11.944  66.121  1.00  0.00    -0.334 A  
HETATM   23  C   UNL     1     -10.520  11.417  64.869  1.00  0.00    -0.363 A  
HETATM   24  C   UNL     1     -11.189  11.871  63.734  1.00  0.00    -0.519 A  
HETATM   25  C   UNL     1     -12.213  12.805  63.853  1.00  0.00    -0.543 A  
HETATM   26  C   UNL     1     -12.538  13.327  65.104  1.00  0.00    -0.512 A  
ENDBRANCH  20  21
ENDBRANCH  17  20
ENDBRANCH  16  17
ENDBRANCH  15  16
ENDBRANCH  14  15
ENDBRANCH  13  14
ENDBRANCH  12  13
ENDBRANCH  11  12
ENDBRANCH  10  11
ENDBRANCH   9  10
ENDBRANCH   8   9
ENDBRANCH   7   8
ENDBRANCH   6   7
ENDBRANCH   5   6
ENDBRANCH   4   5
ENDBRANCH   3   4
ENDBRANCH   2   3
TORSDOF 17
ENDMDL
MODEL       13
REMARK 921   NORMALIZED FREE ENERGY PREDICTED BY IDOCK:   -4.53 KCAL/MOL
REMARK 922        TOTAL FREE ENERGY PREDICTED BY IDOCK:  -11.87 KCAL/MOL
REMARK 923 INTER-LIGAND FREE ENERGY PREDICTED BY IDOCK:   -9.72 KCAL/MOL
REMARK 924 INTRA-LIGAND FREE ENERGY PREDICTED BY IDOCK:   -2.15 KCAL/MOL
REMARK 927      BINDING AFFINITY PREDICTED BY RF-SCORE:    0.00 PKD
ROOT
HETATM    1  C   UNL     1     -13.288  14.305  72.721  1.00  0.00    -0.621 C  
HETATM    2  C   UNL     1     -12.954  13.321  71.613  1.00  0.00    -0.441 C  
ENDROOT
BRANCH   2   3
HETATM    3  C   UNL     1     -13.360  11.901  72.000  1.00  0.00    -0.425 C  
BRANCH   3   4
HETATM    4  C   UNL     1     -12.559  10.870  71.212  1.00  0.00    -0.526 C  
BRANCH   4   5
HETATM    5  C   UNL     1     -13.073   9.464  71.495  1.00  0.00    -0.451 C  
BRANCH   5   6
HETATM    6  C   UNL     1     -11.916   8.481  71.624  1.00  0.00    -0.372 C  
BRANCH   6   7
HETATM    7  C   UNL     1     -12.358   7.087  71.198  1.00  0.00    -0.423 C  
BRANCH   7   8
HETATM    8  C   UNL     1     -11.177   6.297  70.654  1.00  0.00    -0.401 C  
BRANCH   8   9
HETATM    9  C   UNL     1     -10.353   7.163  69.709  1.00  0.00    -0.224 C  
BRANCH   9  10
HETATM   10  C   UNL     1     -10.738   6.879  68.267  1.00  0.00    -0.265 C  
BRANCH  10  11
HETATM   11  C   UNL     1     -10.487   8.095  67.392  1.00  0.00    -0.356 C  
BRANCH  11  12
HETATM   12  C   UNL     1     -10.489   9.353  68.244  1.00  0.00    -0.260 C  
BRANCH  12  13
HETATM   13  C   UNL     1     -10.589  10.608  67.386  1.00  0.00    -0.304 C  
BRANCH  13  14
HETATM   14  C   UNL     1     -11.513  11.659  68.001  1.00  0.00    -0.385 C  
BRANCH  14  15
HETATM   15  C   UNL     1     -10.794  12.846  68.650  1.00  0.00    -0.288 C  
BRANCH  15  16
HETATM   16  C   UNL     1      -9.998  13.687  67.648  1.00  0.00    -0.239 C  
BRANCH  16  17
HETATM   17  N   UNL     1     -10.500  15.136  67.519  1.00  0.00    -0.254 N  
HETATM   18  C   UNL     1     -11.660  15.391  68.474  1.00  0.00    -0.359 C  
HETATM   19  C   UNL     1      -9.371  16.120  67.820  1.00  0.00    -0.211 C  
BRANCH  17  20
HETATM   20  C   UNL     1     -10.972  15.331  66.035  1.00  0.00    -0.317 C  
BRANCH  20  21
HETATM   21  C   UNL     1     -11.232  14.045  65.290  1.00  0.00    -0.319 A  
HETATM   22  C   UNL     1     -10.226  13.460  64.504  1.00  0.00    -0.321 A  
HETATM   23  C   UNL     1     -10.539  12.438  63.608  1.00  0.00    -0.481 A  
HETATM   24  C   UNL     1     -11.848  11.970  63.516  1.00  0.00    -0.587 A  
HETATM   25  C   UNL     1     -12.832  12.478  64.358  1.00  0.00    -0.366 A  
HETATM   26  C   UNL     1     -12.522  13.494  65.261  1.00  0.00    -0.525 A  
ENDBRANCH  20  21
ENDBRANCH  17  20
ENDBRANCH  16  17
ENDBRANCH  15  16
ENDBRANCH  14  15
ENDBRANCH  13  14
ENDBRANCH  12  13
ENDBRANCH  11  12
ENDBRANCH  10  11
ENDBRANCH   9  10
ENDBRANCH   8   9
ENDBRANCH   7   8
ENDBRANCH   6   7
ENDBRANCH   5   6
ENDBRANCH   4   5
ENDBRANCH   3   4
ENDBRANCH   2   3
TORSDOF 17
ENDMDL
MODEL       14
REMARK 921   NORMALIZED FREE ENERGY PREDICTED BY IDOCK:   -4.51 KCAL/MOL
REMARK 922        TOTAL FREE ENERGY PREDICTED BY IDOCK:  -11.83 KCAL/MOL
REMARK 923 INTER-LIGAND FREE ENERGY PREDICTED BY IDOCK:   -9.51 KCAL/MOL
REMARK 924 INTRA-LIGAND FREE ENERGY PREDICTED BY IDOCK:   -2.32 KCAL/MOL
REMARK 927      BINDING AFFINITY PREDICTED BY RF-SCORE:    0.00 PKD
ROOT
HETATM    1  C   UNL     1     -13.165  15.859  73.134  1.00  0.00    -0.692 C  
HETATM    2  C   UNL     1     -14.076  15.052  72.225  1.00  0.00    -0.612 C  
ENDROOT
BRANCH   2   3
HETATM    3  C   UNL     1     -13.638  13.591  72.169  1.00  0.00    -0.651 C  
BRANCH   3   4
HETATM    4  C   UNL     1     -12.584  13.378  71.086  1.00  0.00    -0.430 C  
BRANCH   4   5
HETATM    5  C   UNL     1     -12.388  11.892  70.815  1.00  0.00    -0.416 C  
BRANCH   5   6
HETATM    6  C   UNL     1     -13.154  11.052  71.829  1.00  0.00    -0.554 C  
BRANCH   6   7
HETATM    7  C   UNL     1     -13.398   9.653  71.280  1.00  0.00    -0.403 C  
BRANCH   7   8
HETATM    8  C   UNL     1     -12.688   8.614  72.135  1.00  0.00    -0.447 C  
BRANCH   8   9
HETATM    9  C   UNL     1     -11.716   7.804  71.284  1.00  0.00    -0.311 C  
BRANCH   9  10
HETATM   10  C   UNL     1     -10.412   8.565  71.111  1.00  0.00    -0.278 C  
BRANCH  10  11
HETATM   11  C   UNL     1     -10.136   8.837  69.643  1.00  0.00    -0.204 C  
BRANCH  11  12
HETATM   12  C   UNL     1      -9.269  10.076  69.502  1.00  0.00    -0.238 C  
BRANCH  12  13
HETATM   13  C   UNL     1      -9.607  10.853  68.235  1.00  0.00    -0.169 C  
BRANCH  13  14
HETATM   14  C   UNL     1     -11.051  10.629  67.785  1.00  0.00    -0.385 C  
BRANCH  14  15
HETATM   15  C   UNL     1     -11.672  11.795  67.011  1.00  0.00    -0.247 C  
BRANCH  15  16
HETATM   16  C   UNL     1     -10.934  12.111  65.707  1.00  0.00    -0.297 C  
BRANCH  16  17
HETATM   17  N   UNL     1     -11.551  13.276  64.913  1.00  0.00    -0.314 N  
HETATM   18  C   UNL     1     -11.791  12.874  63.463  1.00  0.00    -0.536 C  
HETATM   19  C   UNL     1     -12.874  13.708  65.545  1.00  0.00    -0.392 C  
BRANCH  17  20
HETATM   20  C   UNL     1     -10.535  14.470  64.980  1.00  0.00    -0.429 C  
BRANCH  20  21
HETATM   21  C   UNL     1     -10.124  14.861  66.378  1.00  0.00    -0.296 A  
HETATM   22  C   UNL     1      -8.946  14.347  66.945  1.00  0.00    -0.263 A  
HETATM   23  C   UNL     1      -8.706  14.484  68.312  1.00  0.00    -0.173 A  
HETATM   24  C   UNL     1      -9.620  15.164  69.114  1.00  0.00    -0.232 A  
HETATM   25  C   UNL     1     -10.742  15.758  68.545  1.00  0.00    -0.274 A  
HETATM   26  C   UNL     1     -10.981  15.630  67.178  1.00  0.00    -0.270 A  
ENDBRANCH  20  21
ENDBRANCH  17  20
ENDBRANCH  16  17
ENDBRANCH  15  16
ENDBRANCH  14  15
ENDBRANCH  13  14
ENDBRANCH  12  13
ENDBRANCH  11  12
ENDBRANCH  10  11
ENDBRANCH   9  10
ENDBRANCH   8   9
ENDBRANCH   7   8
ENDBRANCH   6   7
ENDBRANCH   5   6
ENDBRANCH   4   5
ENDBRANCH   3   4
ENDBRANCH   2   3
TORSDOF 17
ENDMDL
MODEL       15
REMARK 921   NORMALIZED FREE ENERGY PREDICTED BY IDOCK:   -4.50 KCAL/MOL
REMARK 922        TOTAL FREE ENERGY PREDICTED BY IDOCK:  -11.81 KCAL/MOL
REMARK 923 INTER-LIGAND FREE ENERGY PREDICTED BY IDOCK:  -10.01 KCAL/MOL
REMARK 924 INTRA-LIGAND FREE ENERGY PREDICTED BY IDOCK:   -1.81 KCAL/MOL
REMARK 927      BINDING AFFINITY PREDICTED BY RF-SCORE:    0.00 PKD
ROOT
HETATM    1  C   UNL     1     -12.171  13.087  63.562  1.00  0.00    -0.580 C  
HETATM    2  C   UNL     1     -11.484  12.035  64.416  1.00  0.00    -0.413 C  
ENDROOT
BRANCH   2   3
HETATM    3  C   UNL     1     -10.102  11.698  63.863  1.00  0.00    -0.395 C  
BRANCH   3   4
HETATM    4  C   UNL     1      -9.617  10.351  64.390  1.00  0.00    -0.375 C  
BRANCH   4   5
HETATM    5  C   UNL     1     -10.273  10.032  65.727  1.00  0.00    -0.270 C  
BRANCH   5   6
HETATM    6  C   UNL     1      -9.591   8.846  66.396  1.00  0.00    -0.304 C  
BRANCH   6   7
HETATM    7  C   UNL     1     -10.622   7.967  67.091  1.00  0.00    -0.383 C  
BRANCH   7   8
HETATM    8  C   UNL     1     -10.186   7.659  68.516  1.00  0.00    -0.220 C  
BRANCH   8   9
HETATM    9  C   UNL     1     -11.158   6.683  69.166  1.00  0.00    -0.332 C  
BRANCH   9  10
HETATM   10  C   UNL     1     -11.605   7.212  70.520  1.00  0.00    -0.331 C  
BRANCH  10  11
HETATM   11  C   UNL     1     -11.013   8.585  70.785  1.00  0.00    -0.282 C  
BRANCH  11  12
HETATM   12  C   UNL     1     -12.122   9.568  71.121  1.00  0.00    -0.429 C  
BRANCH  12  13
HETATM   13  C   UNL     1     -11.841  10.948  70.538  1.00  0.00    -0.457 C  
BRANCH  13  14
HETATM   14  C   UNL     1     -11.861  10.947  69.009  1.00  0.00    -0.370 C  
BRANCH  14  15
HETATM   15  C   UNL     1     -11.807  12.335  68.365  1.00  0.00    -0.358 C  
BRANCH  15  16
HETATM   16  C   UNL     1     -11.320  13.424  69.325  1.00  0.00    -0.257 C  
BRANCH  16  17
HETATM   17  N   UNL     1     -10.974  14.752  68.629  1.00  0.00    -0.245 N  
HETATM   18  C   UNL     1      -9.519  15.130  68.882  1.00  0.00    -0.213 C  
HETATM   19  C   UNL     1     -11.214  14.643  67.124  1.00  0.00    -0.344 C  
BRANCH  17  20
HETATM   20  C   UNL     1     -11.926  15.848  69.225  1.00  0.00    -0.242 C  
BRANCH  20  21
HETATM   21  C   UNL     1     -12.400  15.565  70.629  1.00  0.00    -0.462 A  
HETATM   22  C   UNL     1     -13.649  14.965  70.853  1.00  0.00    -0.313 A  
HETATM   23  C   UNL     1     -14.204  14.952  72.132  1.00  0.00    -0.616 A  
HETATM   24  C   UNL     1     -13.502  15.505  73.201  1.00  0.00    -0.585 A  
HETATM   25  C   UNL     1     -12.223  16.016  73.006  1.00  0.00    -0.637 A  
HETATM   26  C   UNL     1     -11.661  16.024  71.730  1.00  0.00    -0.593 A  
ENDBRANCH  20  21
ENDBRANCH  17  20
ENDBRANCH  16  17
ENDBRANCH  15  16
ENDBRANCH  14  15
ENDBRANCH  13  14
ENDBRANCH  12  13
ENDBRANCH  11  12
ENDBRANCH  10  11
ENDBRANCH   9  10
ENDBRANCH   8   9
ENDBRANCH   7   8
ENDBRANCH   6   7
ENDBRANCH   5   6
ENDBRANCH   4   5
ENDBRANCH   3   4
ENDBRANCH   2   3
TORSDOF 17
ENDMDL
MODEL       16
REMARK 921   NORMALIZED FREE ENERGY PREDICTED BY IDOCK:   -4.50 KCAL/MOL
REMARK 922        TOTAL FREE ENERGY PREDICTED BY IDOCK:  -11.81 KCAL/MOL
REMARK 923 INTER-LIGAND FREE ENERGY PREDICTED BY IDOCK:  -10.11 KCAL/MOL
REMARK 924 INTRA-LIGAND FREE ENERGY PREDICTED BY IDOCK:   -1.70 KCAL/MOL
REMARK 927      BINDING AFFINITY PREDICTED BY RF-SCORE:    0.00 PKD
ROOT
HETATM    1  C   UNL     1      -8.627  19.703  66.572  1.00  0.00    -0.387 C  
HETATM    2  C   UNL     1     -10.112  19.504  66.325  1.00  0.00    -0.560 C  
ENDROOT
BRANCH   2   3
HETATM    3  C   UNL     1     -10.846  19.184  67.625  1.00  0.00    -0.467 C  
BRANCH   3   4
HETATM    4  C   UNL     1     -10.020  18.248  68.502  1.00  0.00    -0.413 C  
BRANCH   4   5
HETATM    5  C   UNL     1     -10.129  16.813  68.003  1.00  0.00    -0.284 C  
BRANCH   5   6
HETATM    6  C   UNL     1     -11.287  16.091  68.680  1.00  0.00    -0.383 C  
BRANCH   6   7
HETATM    7  C   UNL     1     -10.924  15.743  70.117  1.00  0.00    -0.361 C  
BRANCH   7   8
HETATM    8  C   UNL     1     -12.122  15.946  71.033  1.00  0.00    -0.438 C  
BRANCH   8   9
HETATM    9  C   UNL     1     -11.773  15.534  72.458  1.00  0.00    -0.569 C  
BRANCH   9  10
HETATM   10  C   UNL     1     -12.960  14.841  73.108  1.00  0.00    -0.623 C  
BRANCH  10  11
HETATM   11  C   UNL     1     -13.756  14.056  72.080  1.00  0.00    -0.603 C  
BRANCH  11  12
HETATM   12  C   UNL     1     -13.345  12.594  72.117  1.00  0.00    -0.570 C  
BRANCH  12  13
HETATM   13  C   UNL     1     -12.472  12.229  70.923  1.00  0.00    -0.371 C  
BRANCH  13  14
HETATM   14  C   UNL     1     -12.468  10.726  70.644  1.00  0.00    -0.461 C  
BRANCH  14  15
HETATM   15  C   UNL     1     -11.705  10.308  69.384  1.00  0.00    -0.166 C  
BRANCH  15  16
HETATM   16  C   UNL     1     -10.272  10.847  69.343  1.00  0.00    -0.122 C  
BRANCH  16  17
HETATM   17  N   UNL     1      -9.760  11.136  67.920  1.00  0.00    -0.171 N  
HETATM   18  C   UNL     1      -9.236  12.563  67.815  1.00  0.00    -0.198 C  
HETATM   19  C   UNL     1      -8.646  10.159  67.547  1.00  0.00    -0.118 C  
BRANCH  17  20
HETATM   20  C   UNL     1     -10.971  10.933  66.944  1.00  0.00    -0.223 C  
BRANCH  20  21
HETATM   21  C   UNL     1     -11.213  12.087  66.002  1.00  0.00    -0.385 A  
HETATM   22  C   UNL     1     -12.051  13.150  66.377  1.00  0.00    -0.447 A  
HETATM   23  C   UNL     1     -12.490  14.068  65.424  1.00  0.00    -0.520 A  
HETATM   24  C   UNL     1     -12.069  13.953  64.101  1.00  0.00    -0.464 A  
HETATM   25  C   UNL     1     -11.164  12.960  63.740  1.00  0.00    -0.452 A  
HETATM   26  C   UNL     1     -10.716  12.045  64.691  1.00  0.00    -0.355 A  
ENDBRANCH  20  21
ENDBRANCH  17  20
ENDBRANCH  16  17
ENDBRANCH  15  16
ENDBRANCH  14  15
ENDBRANCH  13  14
ENDBRANCH  12  13
ENDBRANCH  11  12
ENDBRANCH  10  11
ENDBRANCH   9  10
ENDBRANCH   8   9
ENDBRANCH   7   8
ENDBRANCH   6   7
ENDBRANCH   5   6
ENDBRANCH   4   5
ENDBRANCH   3   4
ENDBRANCH   2   3
TORSDOF 17
ENDMDL
MODEL       17
REMARK 921   NORMALIZED FREE ENERGY PREDICTED BY IDOCK:   -4.49 KCAL/MOL
REMARK 922        TOTAL FREE ENERGY PREDICTED BY IDOCK:  -11.79 KCAL/MOL
REMARK 923 INTER-LIGAND FREE ENERGY PREDICTED BY IDOCK:   -9.68 KCAL/MOL
REMARK 924 INTRA-LIGAND FREE ENERGY PREDICTED BY IDOCK:   -2.11 KCAL/MOL
REMARK 927      BINDING AFFINITY PREDICTED BY RF-SCORE:    0.00 PKD
ROOT
HETATM    1  C   UNL     1     -14.156  13.995  72.001  1.00  0.00    -0.600 C  
HETATM    2  C   UNL     1     -13.081  14.487  72.955  1.00  0.00    -0.611 C  
ENDROOT
BRANCH   2   3
HETATM    3  C   UNL     1     -12.006  15.274  72.210  1.00  0.00    -0.511 C  
BRANCH   3   4
HETATM    4  C   UNL     1     -12.485  15.668  70.816  1.00  0.00    -0.484 C  
BRANCH   4   5
HETATM    5  C   UNL     1     -11.311  15.736  69.847  1.00  0.00    -0.349 C  
BRANCH   5   6
HETATM    6  C   UNL     1     -11.712  15.215  68.473  1.00  0.00    -0.347 C  
BRANCH   6   7
HETATM    7  C   UNL     1     -11.982  13.717  68.534  1.00  0.00    -0.402 C  
BRANCH   7   8
HETATM    8  C   UNL     1     -10.906  12.951  67.781  1.00  0.00    -0.248 C  
BRANCH   8   9
HETATM    9  C   UNL     1     -11.508  11.731  67.095  1.00  0.00    -0.366 C  
BRANCH   9  10
HETATM   10  C   UNL     1     -10.626  11.291  65.938  1.00  0.00    -0.309 C  
BRANCH  10  11
HETATM   11  C   UNL     1      -9.797  10.077  66.321  1.00  0.00    -0.297 C  
BRANCH  11  12
HETATM   12  C   UNL     1     -10.630   9.132  67.170  1.00  0.00    -0.286 C  
BRANCH  12  13
HETATM   13  C   UNL     1     -10.137   7.695  67.053  1.00  0.00    -0.338 C  
BRANCH  13  14
HETATM   14  C   UNL     1     -11.016   6.714  67.828  1.00  0.00    -0.367 C  
BRANCH  14  15
HETATM   15  C   UNL     1     -10.343   6.070  69.044  1.00  0.00    -0.283 C  
BRANCH  15  16
HETATM   16  C   UNL     1     -11.176   6.187  70.323  1.00  0.00    -0.369 C  
BRANCH  16  17
HETATM   17  N   UNL     1     -10.340   6.117  71.614  1.00  0.00    -0.211 N  
HETATM   18  C   UNL     1     -11.080   5.336  72.694  1.00  0.00    -0.260 C  
HETATM   19  C   UNL     1      -8.994   5.448  71.340  1.00  0.00    -0.138 C  
BRANCH  17  20
HETATM   20  C   UNL     1     -10.096   7.593  72.087  1.00  0.00    -0.196 C  
BRANCH  20  21
HETATM   21  C   UNL     1     -11.162   8.570  71.657  1.00  0.00    -0.361 A  
HETATM   22  C   UNL     1     -10.852   9.622  70.780  1.00  0.00    -0.400 A  
HETATM   23  C   UNL     1     -11.751  10.673  70.597  1.00  0.00    -0.454 A  
HETATM   24  C   UNL     1     -12.977  10.662  71.259  1.00  0.00    -0.513 A  
HETATM   25  C   UNL     1     -13.332   9.578  72.055  1.00  0.00    -0.535 A  
HETATM   26  C   UNL     1     -12.440   8.522  72.234  1.00  0.00    -0.448 A  
ENDBRANCH  20  21
ENDBRANCH  17  20
ENDBRANCH  16  17
ENDBRANCH  15  16
ENDBRANCH  14  15
ENDBRANCH  13  14
ENDBRANCH  12  13
ENDBRANCH  11  12
ENDBRANCH  10  11
ENDBRANCH   9  10
ENDBRANCH   8   9
ENDBRANCH   7   8
ENDBRANCH   6   7
ENDBRANCH   5   6
ENDBRANCH   4   5
ENDBRANCH   3   4
ENDBRANCH   2   3
TORSDOF 17
ENDMDL
MODEL       18
REMARK 921   NORMALIZED FREE ENERGY PREDICTED BY IDOCK:   -4.46 KCAL/MOL
REMARK 922        TOTAL FREE ENERGY PREDICTED BY IDOCK:  -11.72 KCAL/MOL
REMARK 923 INTER-LIGAND FREE ENERGY PREDICTED BY IDOCK:   -8.29 KCAL/MOL
REMARK 924 INTRA-LIGAND FREE ENERGY PREDICTED BY IDOCK:   -3.43 KCAL/MOL
REMARK 927      BINDING AFFINITY PREDICTED BY RF-SCORE:    0.00 PKD
ROOT
HETATM    1  C   UNL     1     -10.503  11.487  63.547  1.00  0.00    -0.486 C  
HETATM    2  C   UNL     1     -11.714  12.401  63.476  1.00  0.00    -0.592 C  
ENDROOT
BRANCH   2   3
HETATM    3  C   UNL     1     -12.520  12.344  64.772  1.00  0.00    -0.480 C  
BRANCH   3   4
HETATM    4  C   UNL     1     -12.346  13.627  65.579  1.00  0.00    -0.519 C  
BRANCH   4   5
HETATM    5  C   UNL     1     -11.840  14.755  64.689  1.00  0.00    -0.442 C  
BRANCH   5   6
HETATM    6  C   UNL     1     -10.518  15.304  65.210  1.00  0.00    -0.436 C  
BRANCH   6   7
HETATM    7  C   UNL     1      -9.829  14.273  66.094  1.00  0.00    -0.335 C  
BRANCH   7   8
HETATM    8  C   UNL     1      -9.303  14.926  67.363  1.00  0.00    -0.202 C  
BRANCH   8   9
HETATM    9  C   UNL     1      -9.789  14.164  68.590  1.00  0.00    -0.206 C  
BRANCH   9  10
HETATM   10  C   UNL     1     -11.144  14.692  69.032  1.00  0.00    -0.273 C  
BRANCH  10  11
HETATM   11  C   UNL     1     -12.006  13.570  69.585  1.00  0.00    -0.397 C  
BRANCH  11  12
HETATM   12  C   UNL     1     -11.507  12.232  69.065  1.00  0.00    -0.349 C  
BRANCH  12  13
HETATM   13  C   UNL     1     -12.412  11.089  69.507  1.00  0.00    -0.148 C  
BRANCH  13  14
HETATM   14  C   UNL     1     -12.511  10.981  71.028  1.00  0.00    -0.512 C  
BRANCH  14  15
HETATM   15  C   UNL     1     -12.156   9.605  71.600  1.00  0.00    -0.481 C  
BRANCH  15  16
HETATM   16  C   UNL     1     -10.685   9.233  71.398  1.00  0.00    -0.362 C  
BRANCH  16  17
HETATM   17  N   UNL     1     -10.456   7.732  71.144  1.00  0.00    -0.208 N  
HETATM   18  C   UNL     1      -9.935   7.046  72.400  1.00  0.00    -0.165 C  
HETATM   19  C   UNL     1     -11.758   7.062  70.705  1.00  0.00    -0.349 C  
BRANCH  17  20
HETATM   20  C   UNL     1      -9.401   7.614  69.988  1.00  0.00    -0.154 C  
BRANCH  20  21
HETATM   21  C   UNL     1      -9.470   8.722  68.966  1.00  0.00    -0.160 A  
HETATM   22  C   UNL     1     -10.299   8.600  67.839  1.00  0.00    -0.286 A  
HETATM   23  C   UNL     1     -10.162   9.484  66.768  1.00  0.00    -0.313 A  
HETATM   24  C   UNL     1      -9.225  10.513  66.830  1.00  0.00    -0.173 A  
HETATM   25  C   UNL     1      -8.466  10.698  67.981  1.00  0.00    -0.119 A  
HETATM   26  C   UNL     1      -8.605   9.822  69.057  1.00  0.00    -0.146 A  
ENDBRANCH  20  21
ENDBRANCH  17  20
ENDBRANCH  16  17
ENDBRANCH  15  16
ENDBRANCH  14  15
ENDBRANCH  13  14
ENDBRANCH  12  13
ENDBRANCH  11  12
ENDBRANCH  10  11
ENDBRANCH   9  10
ENDBRANCH   8   9
ENDBRANCH   7   8
ENDBRANCH   6   7
ENDBRANCH   5   6
ENDBRANCH   4   5
ENDBRANCH   3   4
ENDBRANCH   2   3
TORSDOF 17
ENDMDL
MODEL       19
REMARK 921   NORMALIZED FREE ENERGY PREDICTED BY IDOCK:   -4.45 KCAL/MOL
REMARK 922        TOTAL FREE ENERGY PREDICTED BY IDOCK:  -11.71 KCAL/MOL
REMARK 923 INTER-LIGAND FREE ENERGY PREDICTED BY IDOCK:   -8.13 KCAL/MOL
REMARK 924 INTRA-LIGAND FREE ENERGY PREDICTED BY IDOCK:   -3.58 KCAL/MOL
REMARK 927      BINDING AFFINITY PREDICTED BY RF-SCORE:    0.00 PKD
ROOT
HETATM    1  C   UNL     1      -8.400  14.653  67.552  1.00  0.00    -0.203 C  
HETATM    2  C   UNL     1      -9.903  14.685  67.769  1.00  0.00    -0.216 C  
ENDROOT
BRANCH   2   3
HETATM    3  C   UNL     1     -10.649  14.682  66.437  1.00  0.00    -0.301 C  
BRANCH   3   4
HETATM    4  C   UNL     1     -12.075  14.168  66.611  1.00  0.00    -0.480 C  
BRANCH   4   5
HETATM    5  C   UNL     1     -12.738  13.961  65.255  1.00  0.00    -0.485 C  
BRANCH   5   6
HETATM    6  C   UNL     1     -12.516  12.539  64.757  1.00  0.00    -0.532 C  
BRANCH   6   7
HETATM    7  C   UNL     1     -11.794  12.556  63.416  1.00  0.00    -0.587 C  
BRANCH   7   8
HETATM    8  C   UNL     1     -10.361  12.073  63.576  1.00  0.00    -0.492 C  
BRANCH   8   9
HETATM    9  C   UNL     1     -10.324  10.793  64.402  1.00  0.00    -0.405 C  
BRANCH   9  10
HETATM   10  C   UNL     1      -8.964  10.635  65.063  1.00  0.00    -0.218 C  
BRANCH  10  11
HETATM   11  C   UNL     1      -8.979  11.203  66.472  1.00  0.00    -0.185 C  
BRANCH  11  12
HETATM   12  C   UNL     1     -10.330  10.945  67.117  1.00  0.00    -0.262 C  
BRANCH  12  13
HETATM   13  C   UNL     1     -10.238  10.979  68.638  1.00  0.00    -0.211 C  
BRANCH  13  14
HETATM   14  C   UNL     1     -11.588  11.271  69.294  1.00  0.00    -0.390 C  
BRANCH  14  15
HETATM   15  C   UNL     1     -11.857  10.490  70.584  1.00  0.00    -0.458 C  
BRANCH  15  16
HETATM   16  C   UNL     1     -10.844   9.368  70.829  1.00  0.00    -0.305 C  
BRANCH  16  17
HETATM   17  N   UNL     1     -11.471   8.084  71.402  1.00  0.00    -0.252 N  
HETATM   18  C   UNL     1     -10.832   7.720  72.737  1.00  0.00    -0.379 C  
HETATM   19  C   UNL     1     -12.976   8.267  71.595  1.00  0.00    -0.337 C  
BRANCH  17  20
HETATM   20  C   UNL     1     -11.221   6.941  70.356  1.00  0.00    -0.312 C  
BRANCH  20  21
HETATM   21  C   UNL     1     -10.303   7.325  69.222  1.00  0.00    -0.208 A  
HETATM   22  C   UNL     1     -10.773   7.341  67.899  1.00  0.00    -0.239 A  
HETATM   23  C   UNL     1      -9.875   7.426  66.834  1.00  0.00    -0.284 A  
HETATM   24  C   UNL     1      -8.509   7.530  67.084  1.00  0.00    -0.121 A  
HETATM   25  C   UNL     1      -8.042   7.610  68.392  1.00  0.00    -0.124 A  
HETATM   26  C   UNL     1      -8.936   7.534  69.458  1.00  0.00    -0.143 A  
ENDBRANCH  20  21
ENDBRANCH  17  20
ENDBRANCH  16  17
ENDBRANCH  15  16
ENDBRANCH  14  15
ENDBRANCH  13  14
ENDBRANCH  12  13
ENDBRANCH  11  12
ENDBRANCH  10  11
ENDBRANCH   9  10
ENDBRANCH   8   9
ENDBRANCH   7   8
ENDBRANCH   6   7
ENDBRANCH   5   6
ENDBRANCH   4   5
ENDBRANCH   3   4
ENDBRANCH   2   3
TORSDOF 17
ENDMDL
MODEL       20
REMARK 921   NORMALIZED FREE ENERGY PREDICTED BY IDOCK:   -4.45 KCAL/MOL
REMARK 922        TOTAL FREE ENERGY PREDICTED BY IDOCK:  -11.71 KCAL/MOL
REMARK 923 INTER-LIGAND FREE ENERGY PREDICTED BY IDOCK:  -10.32 KCAL/MOL
REMARK 924 INTRA-LIGAND FREE ENERGY PREDICTED BY IDOCK:   -1.38 KCAL/MOL
REMARK 927      BINDING AFFINITY PREDICTED BY RF-SCORE:    0.00 PKD
ROOT
HETATM    1  C   UNL     1     -12.457  15.712  74.159  1.00  0.00    -0.804 C  
HETATM    2  C   UNL     1     -12.394  16.104  72.693  1.00  0.00    -0.574 C  
ENDROOT
BRANCH   2   3
HETATM    3  C   UNL     1     -13.543  15.476  71.909  1.00  0.00    -0.580 C  
BRANCH   3   4
HETATM    4  C   UNL     1     -13.770  14.029  72.335  1.00  0.00    -0.669 C  
BRANCH   4   5
HETATM    5  C   UNL     1     -12.875  13.090  71.536  1.00  0.00    -0.386 C  
BRANCH   5   6
HETATM    6  C   UNL     1     -13.192  11.636  71.859  1.00  0.00    -0.475 C  
BRANCH   6   7
HETATM    7  C   UNL     1     -12.483  10.711  70.879  1.00  0.00    -0.495 C  
BRANCH   7   8
HETATM    8  C   UNL     1     -11.994   9.457  71.589  1.00  0.00    -0.465 C  
BRANCH   8   9
HETATM    9  C   UNL     1     -13.164   8.529  71.888  1.00  0.00    -0.398 C  
BRANCH   9  10
HETATM   10  C   UNL     1     -12.867   7.129  71.375  1.00  0.00    -0.431 C  
BRANCH  10  11
HETATM   11  C   UNL     1     -11.379   6.946  71.134  1.00  0.00    -0.332 C  
BRANCH  11  12
HETATM   12  C   UNL     1     -11.157   5.974  69.988  1.00  0.00    -0.451 C  
BRANCH  12  13
HETATM   13  C   UNL     1     -10.994   6.703  68.660  1.00  0.00    -0.317 C  
BRANCH  13  14
HETATM   14  C   UNL     1     -10.091   7.931  68.780  1.00  0.00    -0.203 C  
BRANCH  14  15
HETATM   15  C   UNL     1     -10.535   9.139  67.949  1.00  0.00    -0.293 C  
BRANCH  15  16
HETATM   16  C   UNL     1      -9.864   9.201  66.574  1.00  0.00    -0.264 C  
BRANCH  16  17
HETATM   17  N   UNL     1      -9.341  10.601  66.205  1.00  0.00    -0.171 N  
HETATM   18  C   UNL     1      -7.821  10.653  66.303  1.00  0.00    -0.150 C  
HETATM   19  C   UNL     1      -9.769  10.971  64.785  1.00  0.00    -0.262 C  
BRANCH  17  20
HETATM   20  C   UNL     1      -9.981  11.615  67.217  1.00  0.00    -0.191 C  
BRANCH  20  21
HETATM   21  C   UNL     1     -10.600  12.832  66.573  1.00  0.00    -0.270 A  
HETATM   22  C   UNL     1     -11.979  12.876  66.312  1.00  0.00    -0.472 A  
HETATM   23  C   UNL     1     -12.505  13.866  65.481  1.00  0.00    -0.541 A  
HETATM   24  C   UNL     1     -11.666  14.836  64.937  1.00  0.00    -0.390 A  
HETATM   25  C   UNL     1     -10.315  14.856  65.268  1.00  0.00    -0.424 A  
HETATM   26  C   UNL     1      -9.786  13.873  66.103  1.00  0.00    -0.316 A  
ENDBRANCH  20  21
ENDBRANCH  17  20
ENDBRANCH  16  17
ENDBRANCH  15  16
ENDBRANCH  14  15
ENDBRANCH  13  14
ENDBRANCH  12  13
ENDBRANCH  11  12
ENDBRANCH  10  11
ENDBRANCH   9  10
ENDBRANCH   8   9
ENDBRANCH   7   8
ENDBRANCH   6   7
ENDBRANCH   5   6
ENDBRANCH   4   5
ENDBRANCH   3   4
ENDBRANCH   2   3
TORSDOF 17
ENDMDL
MODEL       21
REMARK 921   NORMALIZED FREE ENERGY PREDICTED BY IDOCK:   -4.44 KCAL/MOL
REMARK 922        TOTAL FREE ENERGY PREDICTED BY IDOCK:  -11.69 KCAL/MOL
REMARK 923 INTER-LIGAND FREE ENERGY PREDICTED BY IDOCK:   -9.11 KCAL/MOL
REMARK 924 INTRA-LIGAND FREE ENERGY PREDICTED BY IDOCK:   -2.59 KCAL/MOL
REMARK 927      BINDING AFFINITY PREDICTED BY RF-SCORE:    0.00 PKD
ROOT
HETATM    1  C   UNL     1     -10.618  12.991  64.364  1.00  0.00    -0.429 C  
HETATM    2  C   UNL     1     -12.091  12.746  64.642  1.00  0.00    -0.483 C  
ENDROOT
BRANCH   2   3
HETATM    3  C   UNL     1     -12.665  13.832  65.549  1.00  0.00    -0.530 C  
BRANCH   3   4
HETATM    4  C   UNL     1     -11.565  14.486  66.380  1.00  0.00    -0.370 C  
BRANCH   4   5
HETATM    5  C   UNL     1     -11.810  14.255  67.866  1.00  0.00    -0.393 C  
BRANCH   5   6
HETATM    6  C   UNL     1     -11.760  15.570  68.634  1.00  0.00    -0.363 C  
BRANCH   6   7
HETATM    7  C   UNL     1     -11.407  15.316  70.093  1.00  0.00    -0.313 C  
BRANCH   7   8
HETATM    8  C   UNL     1     -12.549  15.748  71.000  1.00  0.00    -0.470 C  
BRANCH   8   9
HETATM    9  C   UNL     1     -12.617  14.850  72.229  1.00  0.00    -0.413 C  
BRANCH   9  10
HETATM   10  C   UNL     1     -13.752  13.849  72.085  1.00  0.00    -0.619 C  
BRANCH  10  11
HETATM   11  C   UNL     1     -13.248  12.429  72.281  1.00  0.00    -0.392 C  
BRANCH  11  12
HETATM   12  C   UNL     1     -12.548  11.952  71.021  1.00  0.00    -0.381 C  
BRANCH  12  13
HETATM   13  C   UNL     1     -12.874  10.494  70.720  1.00  0.00    -0.454 C  
BRANCH  13  14
HETATM   14  C   UNL     1     -13.315   9.728  71.967  1.00  0.00    -0.547 C  
BRANCH  14  15
HETATM   15  C   UNL     1     -12.450   8.514  72.316  1.00  0.00    -0.448 C  
BRANCH  15  16
HETATM   16  C   UNL     1     -11.027   8.611  71.760  1.00  0.00    -0.326 C  
BRANCH  16  17
HETATM   17  N   UNL     1     -10.513   7.299  71.142  1.00  0.00    -0.210 N  
HETATM   18  C   UNL     1      -9.925   6.391  72.215  1.00  0.00    -0.164 C  
HETATM   19  C   UNL     1     -11.648   6.567  70.427  1.00  0.00    -0.407 C  
BRANCH  17  20
HETATM   20  C   UNL     1      -9.408   7.683  70.096  1.00  0.00    -0.157 C  
BRANCH  20  21
HETATM   21  C   UNL     1      -9.676   8.964  69.347  1.00  0.00    -0.169 A  
HETATM   22  C   UNL     1     -10.528   8.972  68.231  1.00  0.00    -0.247 A  
HETATM   23  C   UNL     1     -10.565  10.078  67.382  1.00  0.00    -0.330 A  
HETATM   24  C   UNL     1      -9.780  11.195  67.661  1.00  0.00    -0.184 A  
HETATM   25  C   UNL     1      -9.005  11.234  68.816  1.00  0.00    -0.116 A  
HETATM   26  C   UNL     1      -8.972  10.133  69.671  1.00  0.00    -0.190 A  
ENDBRANCH  20  21
ENDBRANCH  17  20
ENDBRANCH  16  17
ENDBRANCH  15  16
ENDBRANCH  14  15
ENDBRANCH  13  14
ENDBRANCH  12  13
ENDBRANCH  11  12
ENDBRANCH  10  11
ENDBRANCH   9  10
ENDBRANCH   8   9
ENDBRANCH   7   8
ENDBRANCH   6   7
ENDBRANCH   5   6
ENDBRANCH   4   5
ENDBRANCH   3   4
ENDBRANCH   2   3
TORSDOF 17
ENDMDL
MODEL       22
REMARK 921   NORMALIZED FREE ENERGY PREDICTED BY IDOCK:   -4.44 KCAL/MOL
REMARK 922        TOTAL FREE ENERGY PREDICTED BY IDOCK:  -11.68 KCAL/MOL
REMARK 923 INTER-LIGAND FREE ENERGY PREDICTED BY IDOCK:   -8.96 KCAL/MOL
REMARK 924 INTRA-LIGAND FREE ENERGY PREDICTED BY IDOCK:   -2.73 KCAL/MOL
REMARK 927      BINDING AFFINITY PREDICTED BY RF-SCORE:    0.00 PKD
ROOT
HETATM    1  C   UNL     1     -13.864   7.016  71.657  1.00  0.00    -0.357 C  
HETATM    2  C   UNL     1     -14.399   8.432  71.773  1.00  0.00    -0.558 C  
ENDROOT
BRANCH   2   3
HETATM    3  C   UNL     1     -13.323   9.384  72.287  1.00  0.00    -0.539 C  
BRANCH   3   4
HETATM    4  C   UNL     1     -12.836  10.309  71.176  1.00  0.00    -0.504 C  
BRANCH   4   5
HETATM    5  C   UNL     1     -11.548   9.775  70.562  1.00  0.00    -0.365 C  
BRANCH   5   6
HETATM    6  C   UNL     1     -10.688   9.093  71.617  1.00  0.00    -0.441 C  
BRANCH   6   7
HETATM    7  C   UNL     1     -10.217   7.734  71.118  1.00  0.00    -0.214 C  
BRANCH   7   8
HETATM    8  C   UNL     1     -10.604   7.539  69.659  1.00  0.00    -0.243 C  
BRANCH   8   9
HETATM    9  C   UNL     1      -9.367   7.243  68.820  1.00  0.00    -0.143 C  
BRANCH   9  10
HETATM   10  C   UNL     1      -9.183   8.317  67.761  1.00  0.00    -0.144 C  
BRANCH  10  11
HETATM   11  C   UNL     1      -8.426   9.508  68.325  1.00  0.00    -0.119 C  
BRANCH  11  12
HETATM   12  C   UNL     1      -9.225  10.780  68.099  1.00  0.00    -0.151 C  
BRANCH  12  13
HETATM   13  C   UNL     1     -10.235  10.612  66.970  1.00  0.00    -0.267 C  
BRANCH  13  14
HETATM   14  C   UNL     1     -11.395  11.601  67.078  1.00  0.00    -0.373 C  
BRANCH  14  15
HETATM   15  C   UNL     1     -11.241  12.656  68.177  1.00  0.00    -0.311 C  
BRANCH  15  16
HETATM   16  C   UNL     1     -11.881  13.999  67.815  1.00  0.00    -0.384 C  
BRANCH  16  17
HETATM   17  N   UNL     1     -11.139  15.216  68.397  1.00  0.00    -0.269 N  
HETATM   18  C   UNL     1      -9.918  14.772  69.195  1.00  0.00    -0.181 C  
HETATM   19  C   UNL     1     -10.696  16.155  67.276  1.00  0.00    -0.277 C  
BRANCH  17  20
HETATM   20  C   UNL     1     -12.149  15.969  69.332  1.00  0.00    -0.078 C  
BRANCH  20  21
HETATM   21  C   UNL     1     -12.208  15.437  70.742  1.00  0.00    -0.430 A  
HETATM   22  C   UNL     1     -12.983  14.306  71.046  1.00  0.00    -0.411 A  
HETATM   23  C   UNL     1     -13.258  13.978  72.373  1.00  0.00    -0.585 A  
HETATM   24  C   UNL     1     -12.733  14.754  73.405  1.00  0.00    -0.588 A  
HETATM   25  C   UNL     1     -11.886  15.819  73.116  1.00  0.00    -0.521 A  
HETATM   26  C   UNL     1     -11.602  16.145  71.791  1.00  0.00    -0.503 A  
ENDBRANCH  20  21
ENDBRANCH  17  20
ENDBRANCH  16  17
ENDBRANCH  15  16
ENDBRANCH  14  15
ENDBRANCH  13  14
ENDBRANCH  12  13
ENDBRANCH  11  12
ENDBRANCH  10  11
ENDBRANCH   9  10
ENDBRANCH   8   9
ENDBRANCH   7   8
ENDBRANCH   6   7
ENDBRANCH   5   6
ENDBRANCH   4   5
ENDBRANCH   3   4
ENDBRANCH   2   3
TORSDOF 17
ENDMDL
MODEL       23
REMARK 921   NORMALIZED FREE ENERGY PREDICTED BY IDOCK:   -4.43 KCAL/MOL
REMARK 922        TOTAL FREE ENERGY PREDICTED BY IDOCK:  -11.68 KCAL/MOL
REMARK 923 INTER-LIGAND FREE ENERGY PREDICTED BY IDOCK:  -10.09 KCAL/MOL
REMARK 924 INTRA-LIGAND FREE ENERGY PREDICTED BY IDOCK:   -1.59 KCAL/MOL
REMARK 927      BINDING AFFINITY PREDICTED BY RF-SCORE:    0.00 PKD
ROOT
HETATM    1  C   UNL     1     -12.850  10.226  71.046  1.00  0.00    -0.490 C  
HETATM    2  C   UNL     1     -11.389  10.264  70.632  1.00  0.00    -0.431 C  
ENDROOT
BRANCH   2   3
HETATM    3  C   UNL     1     -10.659   9.001  71.080  1.00  0.00    -0.361 C  
BRANCH   3   4
HETATM    4  C   UNL     1     -11.308   8.410  72.329  1.00  0.00    -0.448 C  
BRANCH   4   5
HETATM    5  C   UNL     1     -11.397   6.893  72.218  1.00  0.00    -0.306 C  
BRANCH   5   6
HETATM    6  C   UNL     1     -11.585   6.467  70.768  1.00  0.00    -0.402 C  
BRANCH   6   7
HETATM    7  C   UNL     1     -10.468   5.522  70.345  1.00  0.00    -0.356 C  
BRANCH   7   8
HETATM    8  C   UNL     1     -10.157   5.694  68.866  1.00  0.00    -0.254 C  
BRANCH   8   9
HETATM    9  C   UNL     1     -11.159   6.643  68.222  1.00  0.00    -0.283 C  
BRANCH   9  10
HETATM   10  C   UNL     1     -10.582   7.227  66.943  1.00  0.00    -0.375 C  
BRANCH  10  11
HETATM   11  C   UNL     1     -10.481   8.740  67.037  1.00  0.00    -0.338 C  
BRANCH  11  12
HETATM   12  C   UNL     1      -9.707   9.280  65.847  1.00  0.00    -0.355 C  
BRANCH  12  13
HETATM   13  C   UNL     1     -10.249  10.631  65.395  1.00  0.00    -0.341 C  
BRANCH  13  14
HETATM   14  C   UNL     1     -10.941  11.387  66.529  1.00  0.00    -0.328 C  
BRANCH  14  15
HETATM   15  C   UNL     1     -10.810  12.912  66.460  1.00  0.00    -0.290 C  
BRANCH  15  16
HETATM   16  C   UNL     1     -11.850  13.644  67.312  1.00  0.00    -0.391 C  
BRANCH  16  17
HETATM   17  N   UNL     1     -11.254  14.355  68.540  1.00  0.00    -0.253 N  
HETATM   18  C   UNL     1      -9.733  14.260  68.533  1.00  0.00    -0.225 C  
HETATM   19  C   UNL     1     -11.669  15.825  68.557  1.00  0.00    -0.319 C  
BRANCH  17  20
HETATM   20  C   UNL     1     -11.831  13.641  69.813  1.00  0.00    -0.327 C  
BRANCH  20  21
HETATM   21  C   UNL     1     -12.366  14.580  70.866  1.00  0.00    -0.415 A  
HETATM   22  C   UNL     1     -11.488  15.261  71.725  1.00  0.00    -0.494 A  
HETATM   23  C   UNL     1     -11.976  15.907  72.861  1.00  0.00    -0.609 A  
HETATM   24  C   UNL     1     -13.343  15.908  73.127  1.00  0.00    -0.681 A  
HETATM   25  C   UNL     1     -14.230  15.318  72.231  1.00  0.00    -0.642 A  
HETATM   26  C   UNL     1     -13.746  14.678  71.091  1.00  0.00    -0.374 A  
ENDBRANCH  20  21
ENDBRANCH  17  20
ENDBRANCH  16  17
ENDBRANCH  15  16
ENDBRANCH  14  15
ENDBRANCH  13  14
ENDBRANCH  12  13
ENDBRANCH  11  12
ENDBRANCH  10  11
ENDBRANCH   9  10
ENDBRANCH   8   9
ENDBRANCH   7   8
ENDBRANCH   6   7
ENDBRANCH   5   6
ENDBRANCH   4   5
ENDBRANCH   3   4
ENDBRANCH   2   3
TORSDOF 17
ENDMDL
MODEL       24
REMARK 921   NORMALIZED FREE ENERGY PREDICTED BY IDOCK:   -4.43 KCAL/MOL
REMARK 922        TOTAL FREE ENERGY PREDICTED BY IDOCK:  -11.68 KCAL/MOL
REMARK 923 INTER-LIGAND FREE ENERGY PREDICTED BY IDOCK:   -9.77 KCAL/MOL
REMARK 924 INTRA-LIGAND FREE ENERGY PREDICTED BY IDOCK:   -1.91 KCAL/MOL
REMARK 927      BINDING AFFINITY PREDICTED BY RF-SCORE:    0.00 PKD
ROOT
HETATM    1  C   UNL     1     -13.656  12.950  72.213  1.00  0.00    -0.611 C  
HETATM    2  C   UNL     1     -13.895  14.450  72.205  1.00  0.00    -0.589 C  
ENDROOT
BRANCH   2   3
HETATM    3  C   UNL     1     -12.825  15.179  73.014  1.00  0.00    -0.573 C  
BRANCH   3   4
HETATM    4  C   UNL     1     -12.023  16.128  72.128  1.00  0.00    -0.623 C  
BRANCH   4   5
HETATM    5  C   UNL     1     -11.189  15.344  71.123  1.00  0.00    -0.410 C  
BRANCH   5   6
HETATM    6  C   UNL     1     -11.495  15.792  69.699  1.00  0.00    -0.348 C  
BRANCH   6   7
HETATM    7  C   UNL     1     -10.321  16.575  69.128  1.00  0.00    -0.316 C  
BRANCH   7   8
HETATM    8  C   UNL     1     -10.680  17.158  67.770  1.00  0.00    -0.329 C  
BRANCH   8   9
HETATM    9  C   UNL     1      -9.524  16.976  66.794  1.00  0.00    -0.270 C  
BRANCH   9  10
HETATM   10  C   UNL     1      -9.473  15.539  66.304  1.00  0.00    -0.356 C  
BRANCH  10  11
HETATM   11  C   UNL     1     -10.460  15.320  65.170  1.00  0.00    -0.438 C  
BRANCH  11  12
HETATM   12  C   UNL     1     -11.141  13.972  65.333  1.00  0.00    -0.318 C  
BRANCH  12  13
HETATM   13  C   UNL     1     -12.124  13.980  66.498  1.00  0.00    -0.488 C  
BRANCH  13  14
HETATM   14  C   UNL     1     -11.774  12.938  67.561  1.00  0.00    -0.422 C  
BRANCH  14  15
HETATM   15  C   UNL     1     -10.752  11.888  67.118  1.00  0.00    -0.280 C  
BRANCH  15  16
HETATM   16  C   UNL     1     -11.131  10.466  67.542  1.00  0.00    -0.267 C  
BRANCH  16  17
HETATM   17  N   UNL     1      -9.931   9.616  68.000  1.00  0.00    -0.154 N  
HETATM   18  C   UNL     1     -10.327   8.151  68.131  1.00  0.00    -0.201 C  
HETATM   19  C   UNL     1      -8.779   9.742  67.004  1.00  0.00    -0.135 C  
BRANCH  17  20
HETATM   20  C   UNL     1      -9.474  10.177  69.392  1.00  0.00    -0.224 C  
BRANCH  20  21
HETATM   21  C   UNL     1     -10.293   9.688  70.561  1.00  0.00    -0.359 A  
HETATM   22  C   UNL     1      -9.826   8.637  71.367  1.00  0.00    -0.327 A  
HETATM   23  C   UNL     1     -10.687   8.006  72.266  1.00  0.00    -0.360 A  
HETATM   24  C   UNL     1     -12.004   8.442  72.391  1.00  0.00    -0.451 A  
HETATM   25  C   UNL     1     -12.447   9.543  71.665  1.00  0.00    -0.476 A  
HETATM   26  C   UNL     1     -11.588  10.181  70.772  1.00  0.00    -0.445 A  
ENDBRANCH  20  21
ENDBRANCH  17  20
ENDBRANCH  16  17
ENDBRANCH  15  16
ENDBRANCH  14  15
ENDBRANCH  13  14
ENDBRANCH  12  13
ENDBRANCH  11  12
ENDBRANCH  10  11
ENDBRANCH   9  10
ENDBRANCH   8   9
ENDBRANCH   7   8
ENDBRANCH   6   7
ENDBRANCH   5   6
ENDBRANCH   4   5
ENDBRANCH   3   4
ENDBRANCH   2   3
TORSDOF 17
ENDMDL
MODEL       25
REMARK 921   NORMALIZED FREE ENERGY PREDICTED BY IDOCK:   -4.42 KCAL/MOL
REMARK 922        TOTAL FREE ENERGY PREDICTED BY IDOCK:  -11.65 KCAL/MOL
REMARK 923 INTER-LIGAND FREE ENERGY PREDICTED BY IDOCK:   -9.41 KCAL/MOL
REMARK 924 INTRA-LIGAND FREE ENERGY PREDICTED BY IDOCK:   -2.24 KCAL/MOL
REMARK 927      BINDING AFFINITY PREDICTED BY RF-SCORE:    0.00 PKD
ROOT
HETATM    1  C   UNL     1     -13.860  14.116  72.239  1.00  0.00    -0.643 C  
HETATM    2  C   UNL     1     -13.489  15.514  72.703  1.00  0.00    -0.642 C  
ENDROOT
BRANCH   2   3
HETATM    3  C   UNL     1     -12.084  15.890  72.240  1.00  0.00    -0.597 C  
BRANCH   3   4
HETATM    4  C   UNL     1     -11.670  15.065  71.025  1.00  0.00    -0.379 C  
BRANCH   4   5
HETATM    5  C   UNL     1     -11.045  15.958  69.961  1.00  0.00    -0.356 C  
BRANCH   5   6
HETATM    6  C   UNL     1      -9.732  15.369  69.462  1.00  0.00    -0.259 C  
BRANCH   6   7
HETATM    7  C   UNL     1      -9.095  16.293  68.434  1.00  0.00    -0.203 C  
BRANCH   7   8
HETATM    8  C   UNL     1      -9.088  15.639  67.061  1.00  0.00    -0.239 C  
BRANCH   8   9
HETATM    9  C   UNL     1      -9.912  16.462  66.079  1.00  0.00    -0.369 C  
BRANCH   9  10
HETATM   10  C   UNL     1     -10.716  15.545  65.171  1.00  0.00    -0.460 C  
BRANCH  10  11
HETATM   11  C   UNL     1     -11.554  14.576  65.988  1.00  0.00    -0.356 C  
BRANCH  11  12
HETATM   12  C   UNL     1     -12.644  13.977  65.117  1.00  0.00    -0.453 C  
BRANCH  12  13
HETATM   13  C   UNL     1     -12.355  12.517  64.787  1.00  0.00    -0.544 C  
BRANCH  13  14
HETATM   14  C   UNL     1     -11.295  12.367  63.696  1.00  0.00    -0.556 C  
BRANCH  14  15
HETATM   15  C   UNL     1     -10.182  11.364  64.014  1.00  0.00    -0.398 C  
BRANCH  15  16
HETATM   16  C   UNL     1      -9.605  11.535  65.422  1.00  0.00    -0.224 C  
BRANCH  16  17
HETATM   17  N   UNL     1      -9.229  10.206  66.102  1.00  0.00    -0.154 N  
HETATM   18  C   UNL     1      -8.701   9.208  65.079  1.00  0.00    -0.189 C  
HETATM   19  C   UNL     1      -8.167  10.440  67.176  1.00  0.00    -0.122 C  
BRANCH  17  20
HETATM   20  C   UNL     1     -10.531   9.648  66.777  1.00  0.00    -0.186 C  
BRANCH  20  21
HETATM   21  C   UNL     1     -10.867  10.284  68.103  1.00  0.00    -0.312 A  
HETATM   22  C   UNL     1     -10.577   9.620  69.306  1.00  0.00    -0.236 A  
HETATM   23  C   UNL     1     -11.125  10.070  70.507  1.00  0.00    -0.400 A  
HETATM   24  C   UNL     1     -11.935  11.204  70.521  1.00  0.00    -0.475 A  
HETATM   25  C   UNL     1     -12.150  11.923  69.349  1.00  0.00    -0.277 A  
HETATM   26  C   UNL     1     -11.597  11.481  68.148  1.00  0.00    -0.378 A  
ENDBRANCH  20  21
ENDBRANCH  17  20
ENDBRANCH  16  17
ENDBRANCH  15  16
ENDBRANCH  14  15
ENDBRANCH  13  14
ENDBRANCH  12  13
ENDBRANCH  11  12
ENDBRANCH  10  11
ENDBRANCH   9  10
ENDBRANCH   8   9
ENDBRANCH   7   8
ENDBRANCH   6   7
ENDBRANCH   5   6
ENDBRANCH   4   5
ENDBRANCH   3   4
ENDBRANCH   2   3
TORSDOF 17
ENDMDL
MODEL       26
REMARK 921   NORMALIZED FREE ENERGY PREDICTED BY IDOCK:   -4.41 KCAL/MOL
REMARK 922        TOTAL FREE ENERGY PREDICTED BY IDOCK:  -11.64 KCAL/MOL
REMARK 923 INTER-LIGAND FREE ENERGY PREDICTED BY IDOCK:  -10.27 KCAL/MOL
REMARK 924 INTRA-LIGAND FREE ENERGY PREDICTED BY IDOCK:   -1.37 KCAL/MOL
REMARK 927      BINDING AFFINITY PREDICTED BY RF-SCORE:    0.00 PKD
ROOT
HETATM    1  C   UNL     1     -11.022   6.554  67.867  1.00  0.00    -0.382 C  
HETATM    2  C   UNL     1     -10.973   6.245  69.354  1.00  0.00    -0.440 C  
ENDROOT
BRANCH   2   3
HETATM    3  C   UNL     1     -10.659   7.500  70.164  1.00  0.00    -0.241 C  
BRANCH   3   4
HETATM    4  C   UNL     1     -10.776   7.228  71.661  1.00  0.00    -0.239 C  
BRANCH   4   5
HETATM    5  C   UNL     1     -11.409   8.417  72.372  1.00  0.00    -0.448 C  
BRANCH   5   6
HETATM    6  C   UNL     1     -12.881   8.548  72.002  1.00  0.00    -0.414 C  
BRANCH   6   7
HETATM    7  C   UNL     1     -13.294  10.013  71.989  1.00  0.00    -0.513 C  
BRANCH   7   8
HETATM    8  C   UNL     1     -12.580  10.758  70.872  1.00  0.00    -0.498 C  
BRANCH   8   9
HETATM    9  C   UNL     1     -12.506  12.246  71.193  1.00  0.00    -0.328 C  
BRANCH   9  10
HETATM   10  C   UNL     1     -13.566  12.615  72.218  1.00  0.00    -0.508 C  
BRANCH  10  11
HETATM   11  C   UNL     1     -13.351  14.028  72.732  1.00  0.00    -0.603 C  
BRANCH  11  12
HETATM   12  C   UNL     1     -13.242  14.991  71.562  1.00  0.00    -0.484 C  
BRANCH  12  13
HETATM   13  C   UNL     1     -12.034  15.909  71.705  1.00  0.00    -0.553 C  
BRANCH  13  14
HETATM   14  C   UNL     1     -11.307  16.122  70.377  1.00  0.00    -0.377 C  
BRANCH  14  15
HETATM   15  C   UNL     1     -11.780  15.220  69.233  1.00  0.00    -0.359 C  
BRANCH  15  16
HETATM   16  C   UNL     1     -11.533  15.827  67.849  1.00  0.00    -0.221 C  
BRANCH  16  17
HETATM   17  N   UNL     1     -10.622  14.969  66.952  1.00  0.00    -0.291 N  
HETATM   18  C   UNL     1     -10.016  13.817  67.743  1.00  0.00    -0.242 C  
HETATM   19  C   UNL     1     -11.413  14.410  65.770  1.00  0.00    -0.335 C  
BRANCH  17  20
HETATM   20  C   UNL     1      -9.487  15.909  66.414  1.00  0.00    -0.295 C  
BRANCH  20  21
HETATM   21  C   UNL     1      -9.576  17.335  66.899  1.00  0.00    -0.272 A  
HETATM   22  C   UNL     1      -8.958  17.720  68.099  1.00  0.00    -0.271 A  
HETATM   23  C   UNL     1      -9.262  18.949  68.685  1.00  0.00    -0.399 A  
HETATM   24  C   UNL     1     -10.156  19.815  68.059  1.00  0.00    -0.571 A  
HETATM   25  C   UNL     1     -10.700  19.483  66.822  1.00  0.00    -0.569 A  
HETATM   26  C   UNL     1     -10.393  18.259  66.230  1.00  0.00    -0.422 A  
ENDBRANCH  20  21
ENDBRANCH  17  20
ENDBRANCH  16  17
ENDBRANCH  15  16
ENDBRANCH  14  15
ENDBRANCH  13  14
ENDBRANCH  12  13
ENDBRANCH  11  12
ENDBRANCH  10  11
ENDBRANCH   9  10
ENDBRANCH   8   9
ENDBRANCH   7   8
ENDBRANCH   6   7
ENDBRANCH   5   6
ENDBRANCH   4   5
ENDBRANCH   3   4
ENDBRANCH   2   3
TORSDOF 17
ENDMDL
MODEL       27
REMARK 921   NORMALIZED FREE ENERGY PREDICTED BY IDOCK:   -4.41 KCAL/MOL
REMARK 922        TOTAL FREE ENERGY PREDICTED BY IDOCK:  -11.63 KCAL/MOL
REMARK 923 INTER-LIGAND FREE ENERGY PREDICTED BY IDOCK:   -9.97 KCAL/MOL
REMARK 924 INTRA-LIGAND FREE ENERGY PREDICTED BY IDOCK:   -1.66 KCAL/MOL
REMARK 927      BINDING AFFINITY PREDICTED BY RF-SCORE:    0.00 PKD
ROOT
HETATM    1  C   UNL     1     -10.785   7.590  72.893  1.00  0.00    -0.411 C  
HETATM    2  C   UNL     1      -9.325   7.965  72.703  1.00  0.00    -0.275 C  
ENDROOT
BRANCH   2   3
HETATM    3  C   UNL     1      -9.133   8.794  71.436  1.00  0.00    -0.313 C  
BRANCH   3   4
HETATM    4  C   UNL     1     -10.446   8.937  70.672  1.00  0.00    -0.271 C  
BRANCH   4   5
HETATM    5  C   UNL     1     -10.420  10.181  69.793  1.00  0.00    -0.301 C  
BRANCH   5   6
HETATM    6  C   UNL     1     -11.760  10.904  69.840  1.00  0.00    -0.418 C  
BRANCH   6   7
HETATM    7  C   UNL     1     -12.745  10.136  70.711  1.00  0.00    -0.397 C  
BRANCH   7   8
HETATM    8  C   UNL     1     -13.240  11.010  71.853  1.00  0.00    -0.503 C  
BRANCH   8   9
HETATM    9  C   UNL     1     -13.083  12.484  71.498  1.00  0.00    -0.373 C  
BRANCH   9  10
HETATM   10  C   UNL     1     -14.007  13.331  72.356  1.00  0.00    -0.557 C  
BRANCH  10  11
HETATM   11  C   UNL     1     -14.108  14.744  71.807  1.00  0.00    -0.598 C  
BRANCH  11  12
HETATM   12  C   UNL     1     -13.385  15.709  72.732  1.00  0.00    -0.640 C  
BRANCH  12  13
HETATM   13  C   UNL     1     -11.876  15.653  72.526  1.00  0.00    -0.583 C  
BRANCH  13  14
HETATM   14  C   UNL     1     -11.442  16.326  71.223  1.00  0.00    -0.369 C  
BRANCH  14  15
HETATM   15  C   UNL     1     -11.220  15.369  70.048  1.00  0.00    -0.314 C  
BRANCH  15  16
HETATM   16  C   UNL     1      -9.768  15.342  69.562  1.00  0.00    -0.257 C  
BRANCH  16  17
HETATM   17  N   UNL     1      -9.587  15.870  68.127  1.00  0.00    -0.207 N  
HETATM   18  C   UNL     1      -8.975  17.265  68.139  1.00  0.00    -0.254 C  
HETATM   19  C   UNL     1      -8.688  14.930  67.325  1.00  0.00    -0.207 C  
BRANCH  17  20
HETATM   20  C   UNL     1     -11.010  15.910  67.467  1.00  0.00    -0.280 C  
BRANCH  20  21
HETATM   21  C   UNL     1     -11.287  14.775  66.513  1.00  0.00    -0.344 A  
HETATM   22  C   UNL     1     -11.358  15.007  65.130  1.00  0.00    -0.372 A  
HETATM   23  C   UNL     1     -11.877  14.031  64.279  1.00  0.00    -0.435 A  
HETATM   24  C   UNL     1     -12.295  12.807  64.797  1.00  0.00    -0.540 A  
HETATM   25  C   UNL     1     -12.141  12.533  66.153  1.00  0.00    -0.357 A  
HETATM   26  C   UNL     1     -11.614  13.503  67.005  1.00  0.00    -0.394 A  
ENDBRANCH  20  21
ENDBRANCH  17  20
ENDBRANCH  16  17
ENDBRANCH  15  16
ENDBRANCH  14  15
ENDBRANCH  13  14
ENDBRANCH  12  13
ENDBRANCH  11  12
ENDBRANCH  10  11
ENDBRANCH   9  10
ENDBRANCH   8   9
ENDBRANCH   7   8
ENDBRANCH   6   7
ENDBRANCH   5   6
ENDBRANCH   4   5
ENDBRANCH   3   4
ENDBRANCH   2   3
TORSDOF 17
ENDMDL
MODEL       28
REMARK 921   NORMALIZED FREE ENERGY PREDICTED BY IDOCK:   -4.38 KCAL/MOL
REMARK 922        TOTAL FREE ENERGY PREDICTED BY IDOCK:  -11.57 KCAL/MOL
REMARK 923 INTER-LIGAND FREE ENERGY PREDICTED BY IDOCK:   -8.95 KCAL/MOL
REMARK 924 INTRA-LIGAND FREE ENERGY PREDICTED BY IDOCK:   -2.61 KCAL/MOL
REMARK 927      BINDING AFFINITY PREDICTED BY RF-SCORE:    0.00 PKD
ROOT
HETATM    1  C   UNL     1      -9.025  11.217  65.737  1.00  0.00    -0.191 C  
HETATM    2  C   UNL     1     -10.123  10.572  64.910  1.00  0.00    -0.403 C  
ENDROOT
BRANCH   2   3
HETATM    3  C   UNL     1     -10.126  11.115  63.483  1.00  0.00    -0.437 C  
BRANCH   3   4
HETATM    4  C   UNL     1     -10.857  12.453  63.410  1.00  0.00    -0.417 C  
BRANCH   4   5
HETATM    5  C   UNL     1     -12.282  12.313  63.930  1.00  0.00    -0.608 C  
BRANCH   5   6
HETATM    6  C   UNL     1     -12.568  13.348  65.010  1.00  0.00    -0.459 C  
BRANCH   6   7
HETATM    7  C   UNL     1     -11.415  14.337  65.112  1.00  0.00    -0.351 C  
BRANCH   7   8
HETATM    8  C   UNL     1     -10.980  14.501  66.561  1.00  0.00    -0.321 C  
BRANCH   8   9
HETATM    9  C   UNL     1     -11.908  13.718  67.482  1.00  0.00    -0.422 C  
BRANCH   9  10
HETATM   10  C   UNL     1     -11.095  12.870  68.447  1.00  0.00    -0.293 C  
BRANCH  10  11
HETATM   11  C   UNL     1     -11.825  11.580  68.779  1.00  0.00    -0.394 C  
BRANCH  11  12
HETATM   12  C   UNL     1     -11.800  11.345  70.279  1.00  0.00    -0.438 C  
BRANCH  12  13
HETATM   13  C   UNL     1     -13.007  10.535  70.738  1.00  0.00    -0.413 C  
BRANCH  13  14
HETATM   14  C   UNL     1     -12.836   9.992  72.156  1.00  0.00    -0.414 C  
BRANCH  14  15
HETATM   15  C   UNL     1     -12.752   8.466  72.255  1.00  0.00    -0.376 C  
BRANCH  15  16
HETATM   16  C   UNL     1     -11.362   7.967  72.661  1.00  0.00    -0.408 C  
BRANCH  16  17
HETATM   17  N   UNL     1     -10.979   6.619  72.023  1.00  0.00    -0.234 N  
HETATM   18  C   UNL     1      -9.483   6.564  71.736  1.00  0.00    -0.152 C  
HETATM   19  C   UNL     1     -11.358   5.465  72.951  1.00  0.00    -0.303 C  
BRANCH  17  20
HETATM   20  C   UNL     1     -11.790   6.493  70.686  1.00  0.00    -0.335 C  
BRANCH  20  21
HETATM   21  C   UNL     1     -10.989   6.790  69.442  1.00  0.00    -0.321 A  
HETATM   22  C   UNL     1     -10.604   8.107  69.140  1.00  0.00    -0.179 A  
HETATM   23  C   UNL     1     -10.111   8.422  67.874  1.00  0.00    -0.254 A  
HETATM   24  C   UNL     1      -9.966   7.421  66.915  1.00  0.00    -0.307 A  
HETATM   25  C   UNL     1     -10.255   6.099  67.236  1.00  0.00    -0.236 A  
HETATM   26  C   UNL     1     -10.741   5.779  68.503  1.00  0.00    -0.288 A  
ENDBRANCH  20  21
ENDBRANCH  17  20
ENDBRANCH  16  17
ENDBRANCH  15  16
ENDBRANCH  14  15
ENDBRANCH  13  14
ENDBRANCH  12  13
ENDBRANCH  11  12
ENDBRANCH  10  11
ENDBRANCH   9  10
ENDBRANCH   8   9
ENDBRANCH   7   8
ENDBRANCH   6   7
ENDBRANCH   5   6
ENDBRANCH   4   5
ENDBRANCH   3   4
ENDBRANCH   2   3
TORSDOF 17
ENDMDL
MODEL       29
REMARK 921   NORMALIZED FREE ENERGY PREDICTED BY IDOCK:   -4.38 KCAL/MOL
REMARK 922        TOTAL FREE ENERGY PREDICTED BY IDOCK:  -11.57 KCAL/MOL
REMARK 923 INTER-LIGAND FREE ENERGY PREDICTED BY IDOCK:   -9.20 KCAL/MOL
REMARK 924 INTRA-LIGAND FREE ENERGY PREDICTED BY IDOCK:   -2.37 KCAL/MOL
REMARK 927      BINDING AFFINITY PREDICTED BY RF-SCORE:    0.00 PKD
ROOT
HETATM    1  C   UNL     1     -10.724  11.484  63.637  1.00  0.00    -0.491 C  
HETATM    2  C   UNL     1      -9.550  10.546  63.858  1.00  0.00    -0.363 C  
ENDROOT
BRANCH   2   3
HETATM    3  C   UNL     1      -9.646   9.859  65.218  1.00  0.00    -0.361 C  
BRANCH   3   4
HETATM    4  C   UNL     1     -10.366  10.748  66.228  1.00  0.00    -0.303 C  
BRANCH   4   5
HETATM    5  C   UNL     1     -10.730   9.953  67.476  1.00  0.00    -0.333 C  
BRANCH   5   6
HETATM    6  C   UNL     1     -10.313  10.701  68.735  1.00  0.00    -0.210 C  
BRANCH   6   7
HETATM    7  C   UNL     1     -11.194  10.293  69.908  1.00  0.00    -0.360 C  
BRANCH   7   8
HETATM    8  C   UNL     1     -12.085  11.451  70.333  1.00  0.00    -0.473 C  
BRANCH   8   9
HETATM    9  C   UNL     1     -12.695  11.174  71.701  1.00  0.00    -0.466 C  
BRANCH   9  10
HETATM   10  C   UNL     1     -13.535  12.359  72.151  1.00  0.00    -0.481 C  
BRANCH  10  11
HETATM   11  C   UNL     1     -12.686  13.615  72.250  1.00  0.00    -0.237 C  
BRANCH  11  12
HETATM   12  C   UNL     1     -13.447  14.797  71.676  1.00  0.00    -0.468 C  
BRANCH  12  13
HETATM   13  C   UNL     1     -12.721  15.402  70.480  1.00  0.00    -0.455 C  
BRANCH  13  14
HETATM   14  C   UNL     1     -11.238  15.642  70.763  1.00  0.00    -0.396 C  
BRANCH  14  15
HETATM   15  C   UNL     1     -10.553  16.627  69.811  1.00  0.00    -0.227 C  
BRANCH  15  16
HETATM   16  C   UNL     1      -9.281  16.061  69.174  1.00  0.00    -0.247 C  
BRANCH  16  17
HETATM   17  N   UNL     1      -8.974  16.644  67.783  1.00  0.00    -0.209 N  
HETATM   18  C   UNL     1     -10.118  17.531  67.306  1.00  0.00    -0.327 C  
HETATM   19  C   UNL     1      -7.683  17.460  67.821  1.00  0.00    -0.195 C  
BRANCH  17  20
HETATM   20  C   UNL     1      -8.789  15.431  66.805  1.00  0.00    -0.269 C  
BRANCH  20  21
HETATM   21  C   UNL     1     -10.080  14.821  66.317  1.00  0.00    -0.299 A  
HETATM   22  C   UNL     1     -10.534  15.064  65.011  1.00  0.00    -0.415 A  
HETATM   23  C   UNL     1     -11.841  14.735  64.648  1.00  0.00    -0.442 A  
HETATM   24  C   UNL     1     -12.689  14.131  65.574  1.00  0.00    -0.468 A  
HETATM   25  C   UNL     1     -12.217  13.800  66.841  1.00  0.00    -0.408 A  
HETATM   26  C   UNL     1     -10.910  14.120  67.204  1.00  0.00    -0.291 A  
ENDBRANCH  20  21
ENDBRANCH  17  20
ENDBRANCH  16  17
ENDBRANCH  15  16
ENDBRANCH  14  15
ENDBRANCH  13  14
ENDBRANCH  12  13
ENDBRANCH  11  12
ENDBRANCH  10  11
ENDBRANCH   9  10
ENDBRANCH   8   9
ENDBRANCH   7   8
ENDBRANCH   6   7
ENDBRANCH   5   6
ENDBRANCH   4   5
ENDBRANCH   3   4
ENDBRANCH   2   3
TORSDOF 17
ENDMDL
MODEL       30
REMARK 921   NORMALIZED FREE ENERGY PREDICTED BY IDOCK:   -4.37 KCAL/MOL
REMARK 922        TOTAL FREE ENERGY PREDICTED BY IDOCK:  -11.56 KCAL/MOL
REMARK 923 INTER-LIGAND FREE ENERGY PREDICTED BY IDOCK:   -9.09 KCAL/MOL
REMARK 924 INTRA-LIGAND FREE ENERGY PREDICTED BY IDOCK:   -2.47 KCAL/MOL
REMARK 927      BINDING AFFINITY PREDICTED BY RF-SCORE:    0.00 PKD
ROOT
HETATM    1  C   UNL     1     -13.178  15.223  70.606  1.00  0.00    -0.370 C  
HETATM    2  C   UNL     1     -14.156  15.006  71.748  1.00  0.00    -0.621 C  
ENDROOT
BRANCH   2   3
HETATM    3  C   UNL     1     -13.898  13.672  72.443  1.00  0.00    -0.691 C  
BRANCH   3   4
HETATM    4  C   UNL     1     -12.905  12.826  71.651  1.00  0.00    -0.363 C  
BRANCH   4   5
HETATM    5  C   UNL     1     -13.159  11.342  71.888  1.00  0.00    -0.505 C  
BRANCH   5   6
HETATM    6  C   UNL     1     -12.639  10.511  70.722  1.00  0.00    -0.474 C  
BRANCH   6   7
HETATM    7  C   UNL     1     -11.555  11.274  69.972  1.00  0.00    -0.404 C  
BRANCH   7   8
HETATM    8  C   UNL     1     -11.965  11.494  68.524  1.00  0.00    -0.293 C  
BRANCH   8   9
HETATM    9  C   UNL     1     -11.747  12.949  68.129  1.00  0.00    -0.395 C  
BRANCH   9  10
HETATM   10  C   UNL     1     -11.051  13.029  66.780  1.00  0.00    -0.316 C  
BRANCH  10  11
HETATM   11  C   UNL     1     -12.033  12.775  65.649  1.00  0.00    -0.503 C  
BRANCH  11  12
HETATM   12  C   UNL     1     -11.374  11.926  64.575  1.00  0.00    -0.382 C  
BRANCH  12  13
HETATM   13  C   UNL     1      -9.966  11.508  64.980  1.00  0.00    -0.305 C  
BRANCH  13  14
HETATM   14  C   UNL     1      -9.787   9.990  64.975  1.00  0.00    -0.374 C  
BRANCH  14  15
HETATM   15  C   UNL     1      -9.602   9.361  66.359  1.00  0.00    -0.285 C  
BRANCH  15  16
HETATM   16  C   UNL     1      -9.287   7.863  66.300  1.00  0.00    -0.164 C  
BRANCH  16  17
HETATM   17  N   UNL     1      -9.840   7.067  67.496  1.00  0.00    -0.141 N  
HETATM   18  C   UNL     1     -10.853   6.029  67.031  1.00  0.00    -0.331 C  
HETATM   19  C   UNL     1      -8.703   6.368  68.240  1.00  0.00    -0.116 C  
BRANCH  17  20
HETATM   20  C   UNL     1     -10.528   8.098  68.458  1.00  0.00    -0.162 C  
BRANCH  20  21
HETATM   21  C   UNL     1     -10.590   7.660  69.900  1.00  0.00    -0.237 A  
HETATM   22  C   UNL     1     -11.587   6.769  70.332  1.00  0.00    -0.422 A  
HETATM   23  C   UNL     1     -11.816   6.578  71.694  1.00  0.00    -0.384 A  
HETATM   24  C   UNL     1     -11.030   7.244  72.632  1.00  0.00    -0.341 A  
HETATM   25  C   UNL     1      -9.979   8.054  72.214  1.00  0.00    -0.304 A  
HETATM   26  C   UNL     1      -9.742   8.242  70.854  1.00  0.00    -0.204 A  
ENDBRANCH  20  21
ENDBRANCH  17  20
ENDBRANCH  16  17
ENDBRANCH  15  16
ENDBRANCH  14  15
ENDBRANCH  13  14
ENDBRANCH  12  13
ENDBRANCH  11  12
ENDBRANCH  10  11
ENDBRANCH   9  10
ENDBRANCH   8   9
ENDBRANCH   7   8
ENDBRANCH   6   7
ENDBRANCH   5   6
ENDBRANCH   4   5
ENDBRANCH   3   4
ENDBRANCH   2   3
TORSDOF 17
ENDMDL
MODEL       31
REMARK 921   NORMALIZED FREE ENERGY PREDICTED BY IDOCK:   -4.37 KCAL/MOL
REMARK 922        TOTAL FREE ENERGY PREDICTED BY IDOCK:  -11.55 KCAL/MOL
REMARK 923 INTER-LIGAND FREE ENERGY PREDICTED BY IDOCK:  -10.04 KCAL/MOL
REMARK 924 INTRA-LIGAND FREE ENERGY PREDICTED BY IDOCK:   -1.51 KCAL/MOL
REMARK 927      BINDING AFFINITY PREDICTED BY RF-SCORE:    0.00 PKD
ROOT
HETATM    1  C   UNL     1     -11.056   5.966  69.479  1.00  0.00    -0.403 C  
HETATM    2  C   UNL     1     -11.900   6.799  70.428  1.00  0.00    -0.395 C  
ENDROOT
BRANCH   2   3
HETATM    3  C   UNL     1     -11.280   6.837  71.823  1.00  0.00    -0.294 C  
BRANCH   3   4
HETATM    4  C   UNL     1     -11.444   8.215  72.456  1.00  0.00    -0.470 C  
BRANCH   4   5
HETATM    5  C   UNL     1     -10.806   9.285  71.580  1.00  0.00    -0.418 C  
BRANCH   5   6
HETATM    6  C   UNL     1     -11.871  10.111  70.871  1.00  0.00    -0.468 C  
BRANCH   6   7
HETATM    7  C   UNL     1     -12.667  10.926  71.881  1.00  0.00    -0.340 C  
BRANCH   7   8
HETATM    8  C   UNL     1     -12.736  12.384  71.452  1.00  0.00    -0.346 C  
BRANCH   8   9
HETATM    9  C   UNL     1     -13.623  13.174  72.406  1.00  0.00    -0.667 C  
BRANCH   9  10
HETATM   10  C   UNL     1     -13.741  14.616  71.941  1.00  0.00    -0.510 C  
BRANCH  10  11
HETATM   11  C   UNL     1     -12.719  15.494  72.643  1.00  0.00    -0.510 C  
BRANCH  11  12
HETATM   12  C   UNL     1     -11.729  16.043  71.630  1.00  0.00    -0.583 C  
BRANCH  12  13
HETATM   13  C   UNL     1     -12.127  15.676  70.205  1.00  0.00    -0.413 C  
BRANCH  13  14
HETATM   14  C   UNL     1     -11.048  14.860  69.493  1.00  0.00    -0.301 C  
BRANCH  14  15
HETATM   15  C   UNL     1     -10.836  15.222  68.020  1.00  0.00    -0.288 C  
BRANCH  15  16
HETATM   16  C   UNL     1     -12.015  14.825  67.128  1.00  0.00    -0.200 C  
BRANCH  16  17
HETATM   17  N   UNL     1     -11.599  14.371  65.718  1.00  0.00    -0.349 N  
HETATM   18  C   UNL     1     -12.159  15.315  64.660  1.00  0.00    -0.187 C  
HETATM   19  C   UNL     1     -10.076  14.326  65.601  1.00  0.00    -0.341 C  
BRANCH  17  20
HETATM   20  C   UNL     1     -12.174  12.926  65.509  1.00  0.00    -0.474 C  
BRANCH  20  21
HETATM   21  C   UNL     1     -11.256  11.818  65.962  1.00  0.00    -0.352 A  
HETATM   22  C   UNL     1     -10.497  11.094  65.028  1.00  0.00    -0.357 A  
HETATM   23  C   UNL     1      -9.867   9.908  65.403  1.00  0.00    -0.384 A  
HETATM   24  C   UNL     1      -9.960   9.456  66.717  1.00  0.00    -0.305 A  
HETATM   25  C   UNL     1     -10.630  10.215  67.671  1.00  0.00    -0.316 A  
HETATM   26  C   UNL     1     -11.254  11.406  67.302  1.00  0.00    -0.370 A  
ENDBRANCH  20  21
ENDBRANCH  17  20
ENDBRANCH  16  17
ENDBRANCH  15  16
ENDBRANCH  14  15
ENDBRANCH  13  14
ENDBRANCH  12  13
ENDBRANCH  11  12
ENDBRANCH  10  11
ENDBRANCH   9  10
ENDBRANCH   8   9
ENDBRANCH   7   8
ENDBRANCH   6   7
ENDBRANCH   5   6
ENDBRANCH   4   5
ENDBRANCH   3   4
ENDBRANCH   2   3
TORSDOF 17
ENDMDL
MODEL       32
REMARK 921   NORMALIZED FREE ENERGY PREDICTED BY IDOCK:   -4.36 KCAL/MOL
REMARK 922        TOTAL FREE ENERGY PREDICTED BY IDOCK:  -11.53 KCAL/MOL
REMARK 923 INTER-LIGAND FREE ENERGY PREDICTED BY IDOCK:   -9.69 KCAL/MOL
REMARK 924 INTRA-LIGAND FREE ENERGY PREDICTED BY IDOCK:   -1.85 KCAL/MOL
REMARK 927      BINDING AFFINITY PREDICTED BY RF-SCORE:    0.00 PKD
ROOT
HETATM    1  C   UNL     1     -10.810   7.963  72.810  1.00  0.00    -0.451 C  
HETATM    2  C   UNL     1      -9.406   8.287  72.332  1.00  0.00    -0.338 C  
ENDROOT
BRANCH   2   3
HETATM    3  C   UNL     1      -9.422   8.809  70.897  1.00  0.00    -0.269 C  
BRANCH   3   4
HETATM    4  C   UNL     1     -10.853   8.956  70.386  1.00  0.00    -0.269 C  
BRANCH   4   5
HETATM    5  C   UNL     1     -10.972  10.169  69.472  1.00  0.00    -0.295 C  
BRANCH   5   6
HETATM    6  C   UNL     1     -12.286  10.901  69.713  1.00  0.00    -0.381 C  
BRANCH   6   7
HETATM    7  C   UNL     1     -13.005  10.314  70.919  1.00  0.00    -0.456 C  
BRANCH   7   8
HETATM    8  C   UNL     1     -13.059  11.327  72.053  1.00  0.00    -0.431 C  
BRANCH   8   9
HETATM    9  C   UNL     1     -13.152  12.741  71.493  1.00  0.00    -0.380 C  
BRANCH   9  10
HETATM   10  C   UNL     1     -13.614  13.703  72.575  1.00  0.00    -0.675 C  
BRANCH  10  11
HETATM   11  C   UNL     1     -13.746  15.112  72.024  1.00  0.00    -0.576 C  
BRANCH  11  12
HETATM   12  C   UNL     1     -12.504  15.918  72.365  1.00  0.00    -0.558 C  
BRANCH  12  13
HETATM   13  C   UNL     1     -11.307  15.478  71.530  1.00  0.00    -0.466 C  
BRANCH  13  14
HETATM   14  C   UNL     1     -11.402  15.959  70.082  1.00  0.00    -0.369 C  
BRANCH  14  15
HETATM   15  C   UNL     1     -11.618  14.849  69.049  1.00  0.00    -0.330 C  
BRANCH  15  16
HETATM   16  C   UNL     1     -10.339  14.470  68.298  1.00  0.00    -0.236 C  
BRANCH  16  17
HETATM   17  N   UNL     1     -10.563  14.171  66.805  1.00  0.00    -0.276 N  
HETATM   18  C   UNL     1     -10.051  12.780  66.450  1.00  0.00    -0.259 C  
HETATM   19  C   UNL     1     -12.049  14.265  66.461  1.00  0.00    -0.429 C  
BRANCH  17  20
HETATM   20  C   UNL     1      -9.776  15.258  65.993  1.00  0.00    -0.335 C  
BRANCH  20  21
HETATM   21  C   UNL     1      -9.563  16.556  66.733  1.00  0.00    -0.268 A  
HETATM   22  C   UNL     1      -8.460  16.715  67.588  1.00  0.00    -0.200 A  
HETATM   23  C   UNL     1      -8.407  17.792  68.472  1.00  0.00    -0.298 A  
HETATM   24  C   UNL     1      -9.433  18.734  68.484  1.00  0.00    -0.400 A  
HETATM   25  C   UNL     1     -10.482  18.636  67.575  1.00  0.00    -0.473 A  
HETATM   26  C   UNL     1     -10.535  17.566  66.684  1.00  0.00    -0.270 A  
ENDBRANCH  20  21
ENDBRANCH  17  20
ENDBRANCH  16  17
ENDBRANCH  15  16
ENDBRANCH  14  15
ENDBRANCH  13  14
ENDBRANCH  12  13
ENDBRANCH  11  12
ENDBRANCH  10  11
ENDBRANCH   9  10
ENDBRANCH   8   9
ENDBRANCH   7   8
ENDBRANCH   6   7
ENDBRANCH   5   6
ENDBRANCH   4   5
ENDBRANCH   3   4
ENDBRANCH   2   3
TORSDOF 17
ENDMDL
MODEL       33
REMARK 921   NORMALIZED FREE ENERGY PREDICTED BY IDOCK:   -4.35 KCAL/MOL
REMARK 922        TOTAL FREE ENERGY PREDICTED BY IDOCK:  -11.52 KCAL/MOL
REMARK 923 INTER-LIGAND FREE ENERGY PREDICTED BY IDOCK:   -9.18 KCAL/MOL
REMARK 924 INTRA-LIGAND FREE ENERGY PREDICTED BY IDOCK:   -2.34 KCAL/MOL
REMARK 927      BINDING AFFINITY PREDICTED BY RF-SCORE:    0.00 PKD
ROOT
HETATM    1  C   UNL     1     -11.681   5.376  72.749  1.00  0.00    -0.235 C  
HETATM    2  C   UNL     1     -10.453   5.732  71.928  1.00  0.00    -0.272 C  
ENDROOT
BRANCH   2   3
HETATM    3  C   UNL     1     -10.812   5.914  70.456  1.00  0.00    -0.366 C  
BRANCH   3   4
HETATM    4  C   UNL     1     -11.182   7.365  70.159  1.00  0.00    -0.239 C  
BRANCH   4   5
HETATM    5  C   UNL     1     -10.275   8.316  70.930  1.00  0.00    -0.224 C  
BRANCH   5   6
HETATM    6  C   UNL     1     -11.059   9.520  71.435  1.00  0.00    -0.438 C  
BRANCH   6   7
HETATM    7  C   UNL     1     -12.462   9.101  71.852  1.00  0.00    -0.459 C  
BRANCH   7   8
HETATM    8  C   UNL     1     -13.452  10.228  71.598  1.00  0.00    -0.360 C  
BRANCH   8   9
HETATM    9  C   UNL     1     -12.747  11.577  71.668  1.00  0.00    -0.396 C  
BRANCH   9  10
HETATM   10  C   UNL     1     -13.663  12.616  72.294  1.00  0.00    -0.429 C  
BRANCH  10  11
HETATM   11  C   UNL     1     -12.944  13.944  72.452  1.00  0.00    -0.457 C  
BRANCH  11  12
HETATM   12  C   UNL     1     -13.670  15.020  71.663  1.00  0.00    -0.553 C  
BRANCH  12  13
HETATM   13  C   UNL     1     -12.831  15.514  70.491  1.00  0.00    -0.402 C  
BRANCH  13  14
HETATM   14  C   UNL     1     -11.366  15.095  70.608  1.00  0.00    -0.330 C  
BRANCH  14  15
HETATM   15  C   UNL     1     -10.482  15.511  69.428  1.00  0.00    -0.253 C  
BRANCH  15  16
HETATM   16  C   UNL     1     -11.285  15.985  68.214  1.00  0.00    -0.350 C  
BRANCH  16  17
HETATM   17  N   UNL     1     -10.854  15.326  66.891  1.00  0.00    -0.315 N  
HETATM   18  C   UNL     1     -10.643  16.377  65.808  1.00  0.00    -0.315 C  
HETATM   19  C   UNL     1      -9.561  14.535  67.088  1.00  0.00    -0.231 C  
BRANCH  17  20
HETATM   20  C   UNL     1     -12.001  14.341  66.471  1.00  0.00    -0.427 C  
BRANCH  20  21
HETATM   21  C   UNL     1     -11.714  12.889  66.761  1.00  0.00    -0.445 A  
HETATM   22  C   UNL     1     -11.881  12.375  68.057  1.00  0.00    -0.376 A  
HETATM   23  C   UNL     1     -11.363  11.123  68.389  1.00  0.00    -0.357 A  
HETATM   24  C   UNL     1     -10.708  10.362  67.422  1.00  0.00    -0.338 A  
HETATM   25  C   UNL     1     -10.622  10.823  66.112  1.00  0.00    -0.241 A  
HETATM   26  C   UNL     1     -11.145  12.070  65.775  1.00  0.00    -0.371 A  
ENDBRANCH  20  21
ENDBRANCH  17  20
ENDBRANCH  16  17
ENDBRANCH  15  16
ENDBRANCH  14  15
ENDBRANCH  13  14
ENDBRANCH  12  13
ENDBRANCH  11  12
ENDBRANCH  10  11
ENDBRANCH   9  10
ENDBRANCH   8   9
ENDBRANCH   7   8
ENDBRANCH   6   7
ENDBRANCH   5   6
ENDBRANCH   4   5
ENDBRANCH   3   4
ENDBRANCH   2   3
TORSDOF 17
ENDMDL
MODEL       34
REMARK 921   NORMALIZED FREE ENERGY PREDICTED BY IDOCK:   -4.34 KCAL/MOL
REMARK 922        TOTAL FREE ENERGY PREDICTED BY IDOCK:  -11.49 KCAL/MOL
REMARK 923 INTER-LIGAND FREE ENERGY PREDICTED BY IDOCK:  -10.33 KCAL/MOL
REMARK 924 INTRA-LIGAND FREE ENERGY PREDICTED BY IDOCK:   -1.16 KCAL/MOL
REMARK 927      BINDING AFFINITY PREDICTED BY RF-SCORE:    0.00 PKD
ROOT
HETATM    1  C   UNL     1     -12.082  16.225  72.684  1.00  0.00    -0.628 C  
HETATM    2  C   UNL     1     -13.538  15.923  72.992  1.00  0.00    -0.616 C  
ENDROOT
BRANCH   2   3
HETATM    3  C   UNL     1     -14.155  15.041  71.910  1.00  0.00    -0.627 C  
BRANCH   3   4
HETATM    4  C   UNL     1     -13.117  14.088  71.324  1.00  0.00    -0.399 C  
BRANCH   4   5
HETATM    5  C   UNL     1     -13.268  12.697  71.927  1.00  0.00    -0.504 C  
BRANCH   5   6
HETATM    6  C   UNL     1     -12.659  11.642  71.012  1.00  0.00    -0.431 C  
BRANCH   6   7
HETATM    7  C   UNL     1     -12.577  10.303  71.731  1.00  0.00    -0.488 C  
BRANCH   7   8
HETATM    8  C   UNL     1     -11.530   9.412  71.080  1.00  0.00    -0.422 C  
BRANCH   8   9
HETATM    9  C   UNL     1     -10.922  10.109  69.870  1.00  0.00    -0.344 C  
BRANCH   9  10
HETATM   10  C   UNL     1     -10.333   9.083  68.915  1.00  0.00    -0.232 C  
BRANCH  10  11
HETATM   11  C   UNL     1     -10.543   9.507  67.471  1.00  0.00    -0.338 C  
BRANCH  11  12
HETATM   12  C   UNL     1     -11.173  10.888  67.426  1.00  0.00    -0.345 C  
BRANCH  12  13
HETATM   13  C   UNL     1     -11.281  11.406  65.997  1.00  0.00    -0.177 C  
BRANCH  13  14
HETATM   14  C   UNL     1     -11.926  12.790  65.928  1.00  0.00    -0.506 C  
BRANCH  14  15
HETATM   15  C   UNL     1     -11.714  13.660  67.171  1.00  0.00    -0.418 C  
BRANCH  15  16
HETATM   16  C   UNL     1     -11.164  15.051  66.843  1.00  0.00    -0.323 C  
BRANCH  16  17
HETATM   17  N   UNL     1      -9.732  15.287  67.358  1.00  0.00    -0.208 N  
HETATM   18  C   UNL     1      -9.092  13.974  67.790  1.00  0.00    -0.192 C  
HETATM   19  C   UNL     1      -8.876  15.934  66.271  1.00  0.00    -0.351 C  
BRANCH  17  20
HETATM   20  C   UNL     1      -9.837  16.264  68.582  1.00  0.00    -0.230 C  
BRANCH  20  21
HETATM   21  C   UNL     1      -9.722  17.725  68.224  1.00  0.00    -0.320 A  
HETATM   22  C   UNL     1     -10.777  18.384  67.572  1.00  0.00    -0.399 A  
HETATM   23  C   UNL     1     -10.574  19.641  67.002  1.00  0.00    -0.602 A  
HETATM   24  C   UNL     1      -9.331  20.262  67.109  1.00  0.00    -0.536 A  
HETATM   25  C   UNL     1      -8.310  19.658  67.834  1.00  0.00    -0.349 A  
HETATM   26  C   UNL     1      -8.510  18.406  68.413  1.00  0.00    -0.345 A  
ENDBRANCH  20  21
ENDBRANCH  17  20
ENDBRANCH  16  17
ENDBRANCH  15  16
ENDBRANCH  14  15
ENDBRANCH  13  14
ENDBRANCH  12  13
ENDBRANCH  11  12
ENDBRANCH  10  11
ENDBRANCH   9  10
ENDBRANCH   8   9
ENDBRANCH   7   8
ENDBRANCH   6   7
ENDBRANCH   5   6
ENDBRANCH   4   5
ENDBRANCH   3   4
ENDBRANCH   2   3
TORSDOF 17
ENDMDL
MODEL       35
REMARK 921   NORMALIZED FREE ENERGY PREDICTED BY IDOCK:   -4.34 KCAL/MOL
REMARK 922        TOTAL FREE ENERGY PREDICTED BY IDOCK:  -11.49 KCAL/MOL
REMARK 923 INTER-LIGAND FREE ENERGY PREDICTED BY IDOCK:   -8.40 KCAL/MOL
REMARK 924 INTRA-LIGAND FREE ENERGY PREDICTED BY IDOCK:   -3.09 KCAL/MOL
REMARK 927      BINDING AFFINITY PREDICTED BY RF-SCORE:    0.00 PKD
ROOT
HETATM    1  C   UNL     1      -9.661  10.506  63.108  1.00  0.00    -0.375 C  
HETATM    2  C   UNL     1     -10.254  11.885  63.336  1.00  0.00    -0.478 C  
ENDROOT
BRANCH   2   3
HETATM    3  C   UNL     1     -11.758  11.800  63.583  1.00  0.00    -0.517 C  
BRANCH   3   4
HETATM    4  C   UNL     1     -12.185  12.760  64.690  1.00  0.00    -0.510 C  
BRANCH   4   5
HETATM    5  C   UNL     1     -11.142  13.854  64.880  1.00  0.00    -0.370 C  
BRANCH   5   6
HETATM    6  C   UNL     1     -11.239  14.456  66.276  1.00  0.00    -0.338 C  
BRANCH   6   7
HETATM    7  C   UNL     1     -12.190  13.639  67.140  1.00  0.00    -0.340 C  
BRANCH   7   8
HETATM    8  C   UNL     1     -11.820  13.770  68.609  1.00  0.00    -0.409 C  
BRANCH   8   9
HETATM    9  C   UNL     1     -11.959  12.424  69.310  1.00  0.00    -0.308 C  
BRANCH   9  10
HETATM   10  C   UNL     1     -11.880  11.294  68.297  1.00  0.00    -0.299 C  
BRANCH  10  11
HETATM   11  C   UNL     1     -10.491  10.680  68.280  1.00  0.00    -0.214 C  
BRANCH  11  12
HETATM   12  C   UNL     1      -9.966  10.631  66.856  1.00  0.00    -0.245 C  
BRANCH  12  13
HETATM   13  C   UNL     1      -8.699  11.463  66.699  1.00  0.00    -0.178 C  
BRANCH  13  14
HETATM   14  C   UNL     1      -8.470  12.400  67.884  1.00  0.00    -0.166 C  
BRANCH  14  15
HETATM   15  C   UNL     1      -7.283  13.356  67.728  1.00  0.00    -0.156 C  
BRANCH  15  16
HETATM   16  C   UNL     1      -7.700  14.764  67.294  1.00  0.00    -0.184 C  
BRANCH  16  17
HETATM   17  N   UNL     1      -7.561  15.820  68.406  1.00  0.00    -0.126 N  
HETATM   18  C   UNL     1      -6.950  15.207  69.659  1.00  0.00    -0.192 C  
HETATM   19  C   UNL     1      -6.686  16.980  67.931  1.00  0.00    -0.148 C  
BRANCH  17  20
HETATM   20  C   UNL     1      -9.003  16.357  68.716  1.00  0.00    -0.245 C  
BRANCH  20  21
HETATM   21  C   UNL     1      -9.378  17.608  67.962  1.00  0.00    -0.274 A  
HETATM   22  C   UNL     1      -9.394  18.854  68.610  1.00  0.00    -0.415 A  
HETATM   23  C   UNL     1      -9.996  19.955  68.002  1.00  0.00    -0.556 A  
HETATM   24  C   UNL     1     -10.553  19.830  66.731  1.00  0.00    -0.586 A  
HETATM   25  C   UNL     1     -10.458  18.625  66.042  1.00  0.00    -0.456 A  
HETATM   26  C   UNL     1      -9.850  17.524  66.643  1.00  0.00    -0.308 A  
ENDBRANCH  20  21
ENDBRANCH  17  20
ENDBRANCH  16  17
ENDBRANCH  15  16
ENDBRANCH  14  15
ENDBRANCH  13  14
ENDBRANCH  12  13
ENDBRANCH  11  12
ENDBRANCH  10  11
ENDBRANCH   9  10
ENDBRANCH   8   9
ENDBRANCH   7   8
ENDBRANCH   6   7
ENDBRANCH   5   6
ENDBRANCH   4   5
ENDBRANCH   3   4
ENDBRANCH   2   3
TORSDOF 17
ENDMDL
MODEL       36
REMARK 921   NORMALIZED FREE ENERGY PREDICTED BY IDOCK:   -4.33 KCAL/MOL
REMARK 922        TOTAL FREE ENERGY PREDICTED BY IDOCK:  -11.47 KCAL/MOL
REMARK 923 INTER-LIGAND FREE ENERGY PREDICTED BY IDOCK:   -8.94 KCAL/MOL
REMARK 924 INTRA-LIGAND FREE ENERGY PREDICTED BY IDOCK:   -2.53 KCAL/MOL
REMARK 927      BINDING AFFINITY PREDICTED BY RF-SCORE:    0.00 PKD
ROOT
HETATM    1  C   UNL     1     -10.413   5.328  66.792  1.00  0.00    -0.330 C  
HETATM    2  C   UNL     1     -10.988   6.309  67.798  1.00  0.00    -0.427 C  
ENDROOT
BRANCH   2   3
HETATM    3  C   UNL     1     -10.625   5.907  69.225  1.00  0.00    -0.379 C  
BRANCH   3   4
HETATM    4  C   UNL     1     -11.553   6.577  70.234  1.00  0.00    -0.473 C  
BRANCH   4   5
HETATM    5  C   UNL     1     -10.954   6.517  71.634  1.00  0.00    -0.291 C  
BRANCH   5   6
HETATM    6  C   UNL     1     -11.427   7.694  72.476  1.00  0.00    -0.405 C  
BRANCH   6   7
HETATM    7  C   UNL     1     -11.220   9.000  71.723  1.00  0.00    -0.448 C  
BRANCH   7   8
HETATM    8  C   UNL     1     -12.488   9.839  71.751  1.00  0.00    -0.485 C  
BRANCH   8   9
HETATM    9  C   UNL     1     -12.734  10.473  70.388  1.00  0.00    -0.325 C  
BRANCH   9  10
HETATM   10  C   UNL     1     -12.259  11.917  70.387  1.00  0.00    -0.399 C  
BRANCH  10  11
HETATM   11  C   UNL     1     -13.033  12.740  71.403  1.00  0.00    -0.359 C  
BRANCH  11  12
HETATM   12  C   UNL     1     -12.961  14.212  71.036  1.00  0.00    -0.399 C  
BRANCH  12  13
HETATM   13  C   UNL     1     -11.713  14.523  70.218  1.00  0.00    -0.356 C  
BRANCH  13  14
HETATM   14  C   UNL     1     -11.935  15.673  69.235  1.00  0.00    -0.338 C  
BRANCH  14  15
HETATM   15  C   UNL     1     -11.410  15.419  67.820  1.00  0.00    -0.308 C  
BRANCH  15  16
HETATM   16  C   UNL     1     -11.953  14.128  67.200  1.00  0.00    -0.426 C  
BRANCH  16  17
HETATM   17  N   UNL     1     -11.457  13.875  65.765  1.00  0.00    -0.315 N  
HETATM   18  C   UNL     1     -12.447  13.007  64.998  1.00  0.00    -0.477 C  
HETATM   19  C   UNL     1     -11.268  15.200  65.026  1.00  0.00    -0.409 C  
BRANCH  17  20
HETATM   20  C   UNL     1     -10.073  13.145  65.876  1.00  0.00    -0.290 C  
BRANCH  20  21
HETATM   21  C   UNL     1     -10.050  11.999  66.857  1.00  0.00    -0.224 A  
HETATM   22  C   UNL     1      -9.262  12.071  68.018  1.00  0.00    -0.192 A  
HETATM   23  C   UNL     1      -9.025  10.925  68.778  1.00  0.00    -0.166 A  
HETATM   24  C   UNL     1      -9.600   9.712  68.405  1.00  0.00    -0.154 A  
HETATM   25  C   UNL     1     -10.457   9.652  67.312  1.00  0.00    -0.323 A  
HETATM   26  C   UNL     1     -10.704  10.796  66.554  1.00  0.00    -0.245 A  
ENDBRANCH  20  21
ENDBRANCH  17  20
ENDBRANCH  16  17
ENDBRANCH  15  16
ENDBRANCH  14  15
ENDBRANCH  13  14
ENDBRANCH  12  13
ENDBRANCH  11  12
ENDBRANCH  10  11
ENDBRANCH   9  10
ENDBRANCH   8   9
ENDBRANCH   7   8
ENDBRANCH   6   7
ENDBRANCH   5   6
ENDBRANCH   4   5
ENDBRANCH   3   4
ENDBRANCH   2   3
TORSDOF 17
ENDMDL
MODEL       37
REMARK 921   NORMALIZED FREE ENERGY PREDICTED BY IDOCK:   -4.33 KCAL/MOL
REMARK 922        TOTAL FREE ENERGY PREDICTED BY IDOCK:  -11.47 KCAL/MOL
REMARK 923 INTER-LIGAND FREE ENERGY PREDICTED BY IDOCK:   -8.47 KCAL/MOL
REMARK 924 INTRA-LIGAND FREE ENERGY PREDICTED BY IDOCK:   -3.00 KCAL/MOL
REMARK 927      BINDING AFFINITY PREDICTED BY RF-SCORE:    0.00 PKD
ROOT
HETATM    1  C   UNL     1     -12.589  11.916  63.409  1.00  0.00    -0.555 C  
HETATM    2  C   UNL     1     -11.733  13.126  63.743  1.00  0.00    -0.519 C  
ENDROOT
BRANCH   2   3
HETATM    3  C   UNL     1     -12.367  13.953  64.859  1.00  0.00    -0.445 C  
BRANCH   3   4
HETATM    4  C   UNL     1     -12.198  13.267  66.211  1.00  0.00    -0.440 C  
BRANCH   4   5
HETATM    5  C   UNL     1     -11.481  14.186  67.191  1.00  0.00    -0.373 C  
BRANCH   5   6
HETATM    6  C   UNL     1     -11.602  13.660  68.615  1.00  0.00    -0.364 C  
BRANCH   6   7
HETATM    7  C   UNL     1     -11.974  12.183  68.603  1.00  0.00    -0.290 C  
BRANCH   7   8
HETATM    8  C   UNL     1     -11.538  11.513  69.897  1.00  0.00    -0.387 C  
BRANCH   8   9
HETATM    9  C   UNL     1     -12.639  11.621  70.944  1.00  0.00    -0.409 C  
BRANCH   9  10
HETATM   10  C   UNL     1     -12.811  10.292  71.662  1.00  0.00    -0.568 C  
BRANCH  10  11
HETATM   11  C   UNL     1     -11.812   9.268  71.150  1.00  0.00    -0.396 C  
BRANCH  11  12
HETATM   12  C   UNL     1     -11.307   8.420  72.304  1.00  0.00    -0.448 C  
BRANCH  12  13
HETATM   13  C   UNL     1     -11.257   6.943  71.931  1.00  0.00    -0.287 C  
BRANCH  13  14
HETATM   14  C   UNL     1     -11.852   6.673  70.549  1.00  0.00    -0.430 C  
BRANCH  14  15
HETATM   15  C   UNL     1     -10.948   5.877  69.604  1.00  0.00    -0.447 C  
BRANCH  15  16
HETATM   16  C   UNL     1      -9.778   6.700  69.058  1.00  0.00    -0.140 C  
BRANCH  16  17
HETATM   17  N   UNL     1      -9.911   7.047  67.564  1.00  0.00    -0.141 N  
HETATM   18  C   UNL     1      -8.538   7.139  66.907  1.00  0.00    -0.124 C  
HETATM   19  C   UNL     1     -10.746   5.989  66.844  1.00  0.00    -0.334 C  
BRANCH  17  20
HETATM   20  C   UNL     1     -10.644   8.431  67.475  1.00  0.00    -0.215 C  
BRANCH  20  21
HETATM   21  C   UNL     1      -9.734   9.602  67.198  1.00  0.00    -0.222 A  
HETATM   22  C   UNL     1      -8.899  10.109  68.207  1.00  0.00    -0.124 A  
HETATM   23  C   UNL     1      -8.268  11.342  68.044  1.00  0.00    -0.140 A  
HETATM   24  C   UNL     1      -8.438  12.060  66.862  1.00  0.00    -0.172 A  
HETATM   25  C   UNL     1      -9.187  11.522  65.820  1.00  0.00    -0.210 A  
HETATM   26  C   UNL     1      -9.812  10.285  65.976  1.00  0.00    -0.292 A  
ENDBRANCH  20  21
ENDBRANCH  17  20
ENDBRANCH  16  17
ENDBRANCH  15  16
ENDBRANCH  14  15
ENDBRANCH  13  14
ENDBRANCH  12  13
ENDBRANCH  11  12
ENDBRANCH  10  11
ENDBRANCH   9  10
ENDBRANCH   8   9
ENDBRANCH   7   8
ENDBRANCH   6   7
ENDBRANCH   5   6
ENDBRANCH   4   5
ENDBRANCH   3   4
ENDBRANCH   2   3
TORSDOF 17
ENDMDL
MODEL       38
REMARK 921   NORMALIZED FREE ENERGY PREDICTED BY IDOCK:   -4.33 KCAL/MOL
REMARK 922        TOTAL FREE ENERGY PREDICTED BY IDOCK:  -11.46 KCAL/MOL
REMARK 923 INTER-LIGAND FREE ENERGY PREDICTED BY IDOCK:  -10.32 KCAL/MOL
REMARK 924 INTRA-LIGAND FREE ENERGY PREDICTED BY IDOCK:   -1.15 KCAL/MOL
REMARK 927      BINDING AFFINITY PREDICTED BY RF-SCORE:    0.00 PKD
ROOT
HETATM    1  C   UNL     1     -13.426  15.617  72.931  1.00  0.00    -0.657 C  
HETATM    2  C   UNL     1     -13.677  14.889  71.622  1.00  0.00    -0.527 C  
ENDROOT
BRANCH   2   3
HETATM    3  C   UNL     1     -13.255  13.425  71.721  1.00  0.00    -0.495 C  
BRANCH   3   4
HETATM    4  C   UNL     1     -12.273  13.063  70.610  1.00  0.00    -0.390 C  
BRANCH   4   5
HETATM    5  C   UNL     1     -12.250  11.556  70.388  1.00  0.00    -0.442 C  
BRANCH   5   6
HETATM    6  C   UNL     1     -11.060  11.155  69.525  1.00  0.00    -0.311 C  
BRANCH   6   7
HETATM    7  C   UNL     1     -11.439  11.200  68.050  1.00  0.00    -0.366 C  
BRANCH   7   8
HETATM    8  C   UNL     1     -10.507  10.318  67.234  1.00  0.00    -0.307 C  
BRANCH   8   9
HETATM    9  C   UNL     1      -9.844  11.130  66.128  1.00  0.00    -0.265 C  
BRANCH   9  10
HETATM   10  C   UNL     1      -9.725  10.294  64.863  1.00  0.00    -0.385 C  
BRANCH  10  11
HETATM   11  C   UNL     1     -10.397  10.989  63.692  1.00  0.00    -0.415 C  
BRANCH  11  12
HETATM   12  C   UNL     1     -10.514  12.477  63.974  1.00  0.00    -0.449 C  
BRANCH  12  13
HETATM   13  C   UNL     1     -11.941  12.973  63.775  1.00  0.00    -0.585 C  
BRANCH  13  14
HETATM   14  C   UNL     1     -12.590  13.416  65.086  1.00  0.00    -0.495 C  
BRANCH  14  15
HETATM   15  C   UNL     1     -12.004  14.694  65.693  1.00  0.00    -0.243 C  
BRANCH  15  16
HETATM   16  C   UNL     1     -11.188  14.436  66.963  1.00  0.00    -0.328 C  
BRANCH  16  17
HETATM   17  N   UNL     1     -10.146  15.530  67.262  1.00  0.00    -0.246 N  
HETATM   18  C   UNL     1      -9.026  14.982  68.137  1.00  0.00    -0.173 C  
HETATM   19  C   UNL     1      -9.554  16.070  65.961  1.00  0.00    -0.350 C  
BRANCH  17  20
HETATM   20  C   UNL     1     -10.895  16.689  68.008  1.00  0.00    -0.337 C  
BRANCH  20  21
HETATM   21  C   UNL     1     -10.276  18.053  67.822  1.00  0.00    -0.385 A  
HETATM   22  C   UNL     1     -10.703  18.892  66.780  1.00  0.00    -0.414 A  
HETATM   23  C   UNL     1      -9.958  20.021  66.438  1.00  0.00    -0.601 A  
HETATM   24  C   UNL     1      -8.806  20.338  67.154  1.00  0.00    -0.446 A  
HETATM   25  C   UNL     1      -8.429  19.565  68.248  1.00  0.00    -0.376 A  
HETATM   26  C   UNL     1      -9.175  18.441  68.598  1.00  0.00    -0.328 A  
ENDBRANCH  20  21
ENDBRANCH  17  20
ENDBRANCH  16  17
ENDBRANCH  15  16
ENDBRANCH  14  15
ENDBRANCH  13  14
ENDBRANCH  12  13
ENDBRANCH  11  12
ENDBRANCH  10  11
ENDBRANCH   9  10
ENDBRANCH   8   9
ENDBRANCH   7   8
ENDBRANCH   6   7
ENDBRANCH   5   6
ENDBRANCH   4   5
ENDBRANCH   3   4
ENDBRANCH   2   3
TORSDOF 17
ENDMDL
MODEL       39
REMARK 921   NORMALIZED FREE ENERGY PREDICTED BY IDOCK:   -4.32 KCAL/MOL
REMARK 922        TOTAL FREE ENERGY PREDICTED BY IDOCK:  -11.46 KCAL/MOL
REMARK 923 INTER-LIGAND FREE ENERGY PREDICTED BY IDOCK:   -9.10 KCAL/MOL
REMARK 924 INTRA-LIGAND FREE ENERGY PREDICTED BY IDOCK:   -2.35 KCAL/MOL
REMARK 927      BINDING AFFINITY PREDICTED BY RF-SCORE:    0.00 PKD
ROOT
HETATM    1  C   UNL     1     -10.229   7.845  72.576  1.00  0.00    -0.342 C  
HETATM    2  C   UNL     1     -10.431   9.043  71.664  1.00  0.00    -0.426 C  
ENDROOT
BRANCH   2   3
HETATM    3  C   UNL     1     -11.842   9.055  71.081  1.00  0.00    -0.362 C  
BRANCH   3   4
HETATM    4  C   UNL     1     -12.190  10.431  70.521  1.00  0.00    -0.412 C  
BRANCH   4   5
HETATM    5  C   UNL     1     -12.954  11.251  71.553  1.00  0.00    -0.520 C  
BRANCH   5   6
HETATM    6  C   UNL     1     -12.811  12.742  71.273  1.00  0.00    -0.355 C  
BRANCH   6   7
HETATM    7  C   UNL     1     -13.620  13.548  72.280  1.00  0.00    -0.690 C  
BRANCH   7   8
HETATM    8  C   UNL     1     -13.306  15.031  72.151  1.00  0.00    -0.485 C  
BRANCH   8   9
HETATM    9  C   UNL     1     -12.905  15.363  70.719  1.00  0.00    -0.524 C  
BRANCH   9  10
HETATM   10  C   UNL     1     -11.616  16.169  70.708  1.00  0.00    -0.382 C  
BRANCH  10  11
HETATM   11  C   UNL     1     -10.477  15.357  70.116  1.00  0.00    -0.291 C  
BRANCH  11  12
HETATM   12  C   UNL     1      -9.735  16.188  69.083  1.00  0.00    -0.248 C  
BRANCH  12  13
HETATM   13  C   UNL     1     -10.671  16.680  67.986  1.00  0.00    -0.350 C  
BRANCH  13  14
HETATM   14  C   UNL     1     -10.224  16.229  66.595  1.00  0.00    -0.287 C  
BRANCH  14  15
HETATM   15  C   UNL     1     -11.080  15.122  65.973  1.00  0.00    -0.312 C  
BRANCH  15  16
HETATM   16  C   UNL     1     -10.297  14.228  65.007  1.00  0.00    -0.421 C  
BRANCH  16  17
HETATM   17  N   UNL     1     -10.967  12.868  64.742  1.00  0.00    -0.304 N  
HETATM   18  C   UNL     1     -11.916  12.957  63.554  1.00  0.00    -0.556 C  
HETATM   19  C   UNL     1      -9.910  11.799  64.466  1.00  0.00    -0.202 C  
BRANCH  17  20
HETATM   20  C   UNL     1     -11.762  12.484  66.039  1.00  0.00    -0.417 C  
BRANCH  20  21
HETATM   21  C   UNL     1     -10.964  11.695  67.048  1.00  0.00    -0.338 A  
HETATM   22  C   UNL     1     -10.069  12.344  67.914  1.00  0.00    -0.208 A  
HETATM   23  C   UNL     1      -9.141  11.606  68.648  1.00  0.00    -0.103 A  
HETATM   24  C   UNL     1      -9.124  10.216  68.551  1.00  0.00    -0.134 A  
HETATM   25  C   UNL     1     -10.070   9.559  67.770  1.00  0.00    -0.244 A  
HETATM   26  C   UNL     1     -11.004  10.293  67.040  1.00  0.00    -0.189 A  
ENDBRANCH  20  21
ENDBRANCH  17  20
ENDBRANCH  16  17
ENDBRANCH  15  16
ENDBRANCH  14  15
ENDBRANCH  13  14
ENDBRANCH  12  13
ENDBRANCH  11  12
ENDBRANCH  10  11
ENDBRANCH   9  10
ENDBRANCH   8   9
ENDBRANCH   7   8
ENDBRANCH   6   7
ENDBRANCH   5   6
ENDBRANCH   4   5
ENDBRANCH   3   4
ENDBRANCH   2   3
TORSDOF 17
ENDMDL
MODEL       40
REMARK 921   NORMALIZED FREE ENERGY PREDICTED BY IDOCK:   -4.31 KCAL/MOL
REMARK 922        TOTAL FREE ENERGY PREDICTED BY IDOCK:  -11.43 KCAL/MOL
REMARK 923 INTER-LIGAND FREE ENERGY PREDICTED BY IDOCK:   -9.31 KCAL/MOL
REMARK 924 INTRA-LIGAND FREE ENERGY PREDICTED BY IDOCK:   -2.13 KCAL/MOL
REMARK 927      BINDING AFFINITY PREDICTED BY RF-SCORE:    0.00 PKD
ROOT
HETATM    1  C   UNL     1      -9.560  14.313  67.626  1.00  0.00    -0.219 C  
HETATM    2  C   UNL     1      -9.414  14.974  66.266  1.00  0.00    -0.342 C  
ENDROOT
BRANCH   2   3
HETATM    3  C   UNL     1     -10.735  14.953  65.502  1.00  0.00    -0.369 C  
BRANCH   3   4
HETATM    4  C   UNL     1     -11.825  14.259  66.314  1.00  0.00    -0.420 C  
BRANCH   4   5
HETATM    5  C   UNL     1     -12.659  13.348  65.422  1.00  0.00    -0.528 C  
BRANCH   5   6
HETATM    6  C   UNL     1     -12.112  13.336  64.000  1.00  0.00    -0.508 C  
BRANCH   6   7
HETATM    7  C   UNL     1     -11.803  11.909  63.566  1.00  0.00    -0.560 C  
BRANCH   7   8
HETATM    8  C   UNL     1     -10.303  11.714  63.407  1.00  0.00    -0.482 C  
BRANCH   8   9
HETATM    9  C   UNL     1      -9.816  10.597  64.322  1.00  0.00    -0.391 C  
BRANCH   9  10
HETATM   10  C   UNL     1      -9.540  11.143  65.714  1.00  0.00    -0.255 C  
BRANCH  10  11
HETATM   11  C   UNL     1     -10.231  10.300  66.772  1.00  0.00    -0.286 C  
BRANCH  11  12
HETATM   12  C   UNL     1     -10.043   8.826  66.460  1.00  0.00    -0.349 C  
BRANCH  12  13
HETATM   13  C   UNL     1      -9.496   8.066  67.662  1.00  0.00    -0.171 C  
BRANCH  13  14
HETATM   14  C   UNL     1     -10.505   7.064  68.223  1.00  0.00    -0.237 C  
BRANCH  14  15
HETATM   15  C   UNL     1     -10.454   6.883  69.743  1.00  0.00    -0.240 C  
BRANCH  15  16
HETATM   16  C   UNL     1     -11.739   7.330  70.445  1.00  0.00    -0.182 C  
BRANCH  16  17
HETATM   17  N   UNL     1     -11.506   8.351  71.572  1.00  0.00    -0.264 N  
HETATM   18  C   UNL     1     -11.181   7.644  72.882  1.00  0.00    -0.372 C  
HETATM   19  C   UNL     1     -10.359   9.293  71.208  1.00  0.00    -0.327 C  
BRANCH  17  20
HETATM   20  C   UNL     1     -12.827   9.183  71.723  1.00  0.00    -0.377 C  
BRANCH  20  21
HETATM   21  C   UNL     1     -12.770  10.561  71.111  1.00  0.00    -0.518 A  
HETATM   22  C   UNL     1     -12.285  10.741  69.805  1.00  0.00    -0.359 A  
HETATM   23  C   UNL     1     -11.976  12.020  69.341  1.00  0.00    -0.334 A  
HETATM   24  C   UNL     1     -12.181  13.127  70.161  1.00  0.00    -0.360 A  
HETATM   25  C   UNL     1     -12.750  12.967  71.421  1.00  0.00    -0.366 A  
HETATM   26  C   UNL     1     -13.068  11.692  71.886  1.00  0.00    -0.490 A  
ENDBRANCH  20  21
ENDBRANCH  17  20
ENDBRANCH  16  17
ENDBRANCH  15  16
ENDBRANCH  14  15
ENDBRANCH  13  14
ENDBRANCH  12  13
ENDBRANCH  11  12
ENDBRANCH  10  11
ENDBRANCH   9  10
ENDBRANCH   8   9
ENDBRANCH   7   8
ENDBRANCH   6   7
ENDBRANCH   5   6
ENDBRANCH   4   5
ENDBRANCH   3   4
ENDBRANCH   2   3
TORSDOF 17
ENDMDL
MODEL       41
REMARK 921   NORMALIZED FREE ENERGY PREDICTED BY IDOCK:   -4.31 KCAL/MOL
REMARK 922        TOTAL FREE ENERGY PREDICTED BY IDOCK:  -11.43 KCAL/MOL
REMARK 923 INTER-LIGAND FREE ENERGY PREDICTED BY IDOCK:   -8.30 KCAL/MOL
REMARK 924 INTRA-LIGAND FREE ENERGY PREDICTED BY IDOCK:   -3.13 KCAL/MOL
REMARK 927      BINDING AFFINITY PREDICTED BY RF-SCORE:    0.00 PKD
ROOT
HETATM    1  C   UNL     1      -8.316  12.008  67.926  1.00  0.00    -0.155 C  
HETATM    2  C   UNL     1      -8.240  10.894  66.896  1.00  0.00    -0.135 C  
ENDROOT
BRANCH   2   3
HETATM    3  C   UNL     1      -9.499  10.032  66.928  1.00  0.00    -0.203 C  
BRANCH   3   4
HETATM    4  C   UNL     1      -9.906   9.607  65.519  1.00  0.00    -0.352 C  
BRANCH   4   5
HETATM    5  C   UNL     1      -9.195  10.462  64.478  1.00  0.00    -0.287 C  
BRANCH   5   6
HETATM    6  C   UNL     1     -10.151  10.858  63.360  1.00  0.00    -0.398 C  
BRANCH   6   7
HETATM    7  C   UNL     1     -10.688  12.263  63.598  1.00  0.00    -0.513 C  
BRANCH   7   8
HETATM    8  C   UNL     1     -12.180  12.220  63.893  1.00  0.00    -0.608 C  
BRANCH   8   9
HETATM    9  C   UNL     1     -12.523  13.179  65.025  1.00  0.00    -0.516 C  
BRANCH   9  10
HETATM   10  C   UNL     1     -11.896  12.701  66.325  1.00  0.00    -0.471 C  
BRANCH  10  11
HETATM   11  C   UNL     1     -11.738  13.852  67.304  1.00  0.00    -0.418 C  
BRANCH  11  12
HETATM   12  C   UNL     1     -11.759  13.324  68.728  1.00  0.00    -0.366 C  
BRANCH  12  13
HETATM   13  C   UNL     1     -11.941  11.812  68.760  1.00  0.00    -0.317 C  
BRANCH  13  14
HETATM   14  C   UNL     1     -11.799  11.240  70.171  1.00  0.00    -0.449 C  
BRANCH  14  15
HETATM   15  C   UNL     1     -10.779  10.106  70.305  1.00  0.00    -0.352 C  
BRANCH  15  16
HETATM   16  C   UNL     1     -11.419   8.760  70.656  1.00  0.00    -0.231 C  
BRANCH  16  17
HETATM   17  N   UNL     1     -10.559   7.891  71.590  1.00  0.00    -0.217 N  
HETATM   18  C   UNL     1      -9.208   8.547  71.846  1.00  0.00    -0.255 C  
HETATM   19  C   UNL     1     -11.276   7.672  72.922  1.00  0.00    -0.372 C  
BRANCH  17  20
HETATM   20  C   UNL     1     -10.360   6.506  70.879  1.00  0.00    -0.207 C  
BRANCH  20  21
HETATM   21  C   UNL     1     -10.095   6.599  69.397  1.00  0.00    -0.192 A  
HETATM   22  C   UNL     1     -11.139   6.420  68.474  1.00  0.00    -0.385 A  
HETATM   23  C   UNL     1     -10.857   6.235  67.121  1.00  0.00    -0.460 A  
HETATM   24  C   UNL     1      -9.537   6.262  66.675  1.00  0.00    -0.190 A  
HETATM   25  C   UNL     1      -8.504   6.533  67.567  1.00  0.00    -0.120 A  
HETATM   26  C   UNL     1      -8.783   6.727  68.919  1.00  0.00    -0.129 A  
ENDBRANCH  20  21
ENDBRANCH  17  20
ENDBRANCH  16  17
ENDBRANCH  15  16
ENDBRANCH  14  15
ENDBRANCH  13  14
ENDBRANCH  12  13
ENDBRANCH  11  12
ENDBRANCH  10  11
ENDBRANCH   9  10
ENDBRANCH   8   9
ENDBRANCH   7   8
ENDBRANCH   6   7
ENDBRANCH   5   6
ENDBRANCH   4   5
ENDBRANCH   3   4
ENDBRANCH   2   3
TORSDOF 17
ENDMDL
MODEL       42
REMARK 921   NORMALIZED FREE ENERGY PREDICTED BY IDOCK:   -4.30 KCAL/MOL
REMARK 922        TOTAL FREE ENERGY PREDICTED BY IDOCK:  -11.41 KCAL/MOL
REMARK 923 INTER-LIGAND FREE ENERGY PREDICTED BY IDOCK:   -8.89 KCAL/MOL
REMARK 924 INTRA-LIGAND FREE ENERGY PREDICTED BY IDOCK:   -2.52 KCAL/MOL
REMARK 927      BINDING AFFINITY PREDICTED BY RF-SCORE:    0.00 PKD
ROOT
HETATM    1  C   UNL     1     -13.819  13.220  72.341  1.00  0.00    -0.630 C  
HETATM    2  C   UNL     1     -13.764  14.730  72.190  1.00  0.00    -0.543 C  
ENDROOT
BRANCH   2   3
HETATM    3  C   UNL     1     -12.449  15.287  72.731  1.00  0.00    -0.490 C  
BRANCH   3   4
HETATM    4  C   UNL     1     -11.669  16.008  71.636  1.00  0.00    -0.583 C  
BRANCH   4   5
HETATM    5  C   UNL     1     -11.503  15.109  70.418  1.00  0.00    -0.322 C  
BRANCH   5   6
HETATM    6  C   UNL     1     -11.642  15.911  69.130  1.00  0.00    -0.382 C  
BRANCH   6   7
HETATM    7  C   UNL     1     -10.602  17.022  69.085  1.00  0.00    -0.303 C  
BRANCH   7   8
HETATM    8  C   UNL     1     -10.676  17.768  67.762  1.00  0.00    -0.332 C  
BRANCH   8   9
HETATM    9  C   UNL     1      -9.503  18.732  67.632  1.00  0.00    -0.330 C  
BRANCH   9  10
HETATM   10  C   UNL     1      -8.195  18.005  67.898  1.00  0.00    -0.248 C  
BRANCH  10  11
HETATM   11  C   UNL     1      -7.773  17.192  66.687  1.00  0.00    -0.300 C  
BRANCH  11  12
HETATM   12  C   UNL     1      -7.316  15.811  67.126  1.00  0.00    -0.257 C  
BRANCH  12  13
HETATM   13  C   UNL     1      -8.441  14.789  67.014  1.00  0.00    -0.250 C  
BRANCH  13  14
HETATM   14  C   UNL     1      -8.615  13.975  68.297  1.00  0.00    -0.180 C  
BRANCH  14  15
HETATM   15  C   UNL     1      -8.172  12.513  68.196  1.00  0.00    -0.170 C  
BRANCH  15  16
HETATM   16  C   UNL     1      -8.809  11.772  67.017  1.00  0.00    -0.182 C  
BRANCH  16  17
HETATM   17  N   UNL     1      -9.715  10.601  67.440  1.00  0.00    -0.165 N  
HETATM   18  C   UNL     1      -9.431   9.367  66.592  1.00  0.00    -0.177 C  
HETATM   19  C   UNL     1      -9.496  10.264  68.914  1.00  0.00    -0.188 C  
BRANCH  17  20
HETATM   20  C   UNL     1     -11.199  11.067  67.232  1.00  0.00    -0.258 C  
BRANCH  20  21
HETATM   21  C   UNL     1     -11.379  12.117  66.164  1.00  0.00    -0.414 A  
HETATM   22  C   UNL     1     -11.826  13.405  66.500  1.00  0.00    -0.443 A  
HETATM   23  C   UNL     1     -12.251  14.283  65.503  1.00  0.00    -0.408 A  
HETATM   24  C   UNL     1     -12.201  13.895  64.165  1.00  0.00    -0.436 A  
HETATM   25  C   UNL     1     -11.671  12.657  63.817  1.00  0.00    -0.566 A  
HETATM   26  C   UNL     1     -11.237  11.780  64.810  1.00  0.00    -0.333 A  
ENDBRANCH  20  21
ENDBRANCH  17  20
ENDBRANCH  16  17
ENDBRANCH  15  16
ENDBRANCH  14  15
ENDBRANCH  13  14
ENDBRANCH  12  13
ENDBRANCH  11  12
ENDBRANCH  10  11
ENDBRANCH   9  10
ENDBRANCH   8   9
ENDBRANCH   7   8
ENDBRANCH   6   7
ENDBRANCH   5   6
ENDBRANCH   4   5
ENDBRANCH   3   4
ENDBRANCH   2   3
TORSDOF 17
ENDMDL
MODEL       43
REMARK 921   NORMALIZED FREE ENERGY PREDICTED BY IDOCK:   -4.30 KCAL/MOL
REMARK 922        TOTAL FREE ENERGY PREDICTED BY IDOCK:  -11.41 KCAL/MOL
REMARK 923 INTER-LIGAND FREE ENERGY PREDICTED BY IDOCK:   -8.80 KCAL/MOL
REMARK 924 INTRA-LIGAND FREE ENERGY PREDICTED BY IDOCK:   -2.61 KCAL/MOL
REMARK 927      BINDING AFFINITY PREDICTED BY RF-SCORE:    0.00 PKD
ROOT
HETATM    1  C   UNL     1     -11.020  15.802  64.711  1.00  0.00    -0.410 C  
HETATM    2  C   UNL     1     -10.428  14.542  65.318  1.00  0.00    -0.411 C  
ENDROOT
BRANCH   2   3
HETATM    3  C   UNL     1     -10.638  13.341  64.399  1.00  0.00    -0.438 C  
BRANCH   3   4
HETATM    4  C   UNL     1     -11.213  12.156  65.170  1.00  0.00    -0.378 C  
BRANCH   4   5
HETATM    5  C   UNL     1     -11.896  12.631  66.447  1.00  0.00    -0.466 C  
BRANCH   5   6
HETATM    6  C   UNL     1     -11.646  11.655  67.589  1.00  0.00    -0.349 C  
BRANCH   6   7
HETATM    7  C   UNL     1     -10.430  10.790  67.288  1.00  0.00    -0.282 C  
BRANCH   7   8
HETATM    8  C   UNL     1      -9.273  11.161  68.203  1.00  0.00    -0.166 C  
BRANCH   8   9
HETATM    9  C   UNL     1      -8.816   9.945  68.999  1.00  0.00    -0.156 C  
BRANCH   9  10
HETATM   10  C   UNL     1     -10.019   9.130  69.447  1.00  0.00    -0.192 C  
BRANCH  10  11
HETATM   11  C   UNL     1     -10.183   9.197  70.956  1.00  0.00    -0.372 C  
BRANCH  11  12
HETATM   12  C   UNL     1     -11.659   9.259  71.311  1.00  0.00    -0.419 C  
BRANCH  12  13
HETATM   13  C   UNL     1     -12.271  10.600  70.924  1.00  0.00    -0.497 C  
BRANCH  13  14
HETATM   14  C   UNL     1     -13.316  11.074  71.934  1.00  0.00    -0.423 C  
BRANCH  14  15
HETATM   15  C   UNL     1     -13.464  12.595  72.039  1.00  0.00    -0.516 C  
BRANCH  15  16
HETATM   16  C   UNL     1     -12.512  13.357  71.112  1.00  0.00    -0.327 C  
BRANCH  16  17
HETATM   17  N   UNL     1     -12.668  14.886  71.187  1.00  0.00    -0.317 N  
HETATM   18  C   UNL     1     -14.042  15.263  71.726  1.00  0.00    -0.555 C  
HETATM   19  C   UNL     1     -11.589  15.487  72.088  1.00  0.00    -0.460 C  
BRANCH  17  20
HETATM   20  C   UNL     1     -12.490  15.441  69.730  1.00  0.00    -0.184 C  
BRANCH  20  21
HETATM   21  C   UNL     1     -11.060  15.728  69.343  1.00  0.00    -0.314 A  
HETATM   22  C   UNL     1     -10.634  17.047  69.118  1.00  0.00    -0.303 A  
HETATM   23  C   UNL     1      -9.407  17.294  68.502  1.00  0.00    -0.276 A  
HETATM   24  C   UNL     1      -8.584  16.229  68.139  1.00  0.00    -0.183 A  
HETATM   25  C   UNL     1      -8.956  14.924  68.443  1.00  0.00    -0.183 A  
HETATM   26  C   UNL     1     -10.178  14.673  69.067  1.00  0.00    -0.222 A  
ENDBRANCH  20  21
ENDBRANCH  17  20
ENDBRANCH  16  17
ENDBRANCH  15  16
ENDBRANCH  14  15
ENDBRANCH  13  14
ENDBRANCH  12  13
ENDBRANCH  11  12
ENDBRANCH  10  11
ENDBRANCH   9  10
ENDBRANCH   8   9
ENDBRANCH   7   8
ENDBRANCH   6   7
ENDBRANCH   5   6
ENDBRANCH   4   5
ENDBRANCH   3   4
ENDBRANCH   2   3
TORSDOF 17
ENDMDL
MODEL       44
REMARK 921   NORMALIZED FREE ENERGY PREDICTED BY IDOCK:   -4.29 KCAL/MOL
REMARK 922        TOTAL FREE ENERGY PREDICTED BY IDOCK:  -11.39 KCAL/MOL
REMARK 923 INTER-LIGAND FREE ENERGY PREDICTED BY IDOCK:   -8.68 KCAL/MOL
REMARK 924 INTRA-LIGAND FREE ENERGY PREDICTED BY IDOCK:   -2.70 KCAL/MOL
REMARK 927      BINDING AFFINITY PREDICTED BY RF-SCORE:    0.00 PKD
ROOT
HETATM    1  C   UNL     1     -12.254  14.938  64.439  1.00  0.00    -0.399 C  
HETATM    2  C   UNL     1     -12.737  13.852  65.384  1.00  0.00    -0.525 C  
ENDROOT
BRANCH   2   3
HETATM    3  C   UNL     1     -12.524  12.466  64.780  1.00  0.00    -0.480 C  
BRANCH   3   4
HETATM    4  C   UNL     1     -11.757  12.556  63.464  1.00  0.00    -0.595 C  
BRANCH   4   5
HETATM    5  C   UNL     1     -10.417  11.841  63.577  1.00  0.00    -0.500 C  
BRANCH   5   6
HETATM    6  C   UNL     1     -10.426  10.854  64.737  1.00  0.00    -0.373 C  
BRANCH   6   7
HETATM    7  C   UNL     1      -9.071  10.172  64.861  1.00  0.00    -0.256 C  
BRANCH   7   8
HETATM    8  C   UNL     1      -9.000   9.357  66.143  1.00  0.00    -0.197 C  
BRANCH   8   9
HETATM    9  C   UNL     1     -10.393   9.176  66.733  1.00  0.00    -0.308 C  
BRANCH   9  10
HETATM   10  C   UNL     1     -10.303   8.953  68.234  1.00  0.00    -0.250 C  
BRANCH  10  11
HETATM   11  C   UNL     1     -10.319  10.276  68.978  1.00  0.00    -0.229 C  
BRANCH  11  12
HETATM   12  C   UNL     1     -11.551  11.074  68.585  1.00  0.00    -0.385 C  
BRANCH  12  13
HETATM   13  C   UNL     1     -11.229  12.555  68.424  1.00  0.00    -0.313 C  
BRANCH  13  14
HETATM   14  C   UNL     1      -9.829  12.786  67.854  1.00  0.00    -0.223 C  
BRANCH  14  15
HETATM   15  C   UNL     1      -9.633  14.136  67.159  1.00  0.00    -0.244 C  
BRANCH  15  16
HETATM   16  C   UNL     1      -8.196  14.657  67.254  1.00  0.00    -0.212 C  
BRANCH  16  17
HETATM   17  N   UNL     1      -7.984  15.683  68.382  1.00  0.00    -0.132 N  
HETATM   18  C   UNL     1      -7.550  14.989  69.668  1.00  0.00    -0.140 C  
HETATM   19  C   UNL     1      -6.924  16.707  67.977  1.00  0.00    -0.147 C  
BRANCH  17  20
HETATM   20  C   UNL     1      -9.353  16.417  68.602  1.00  0.00    -0.233 C  
BRANCH  20  21
HETATM   21  C   UNL     1      -9.509  17.694  67.813  1.00  0.00    -0.260 A  
HETATM   22  C   UNL     1      -9.140  18.927  68.373  1.00  0.00    -0.383 A  
HETATM   23  C   UNL     1      -9.531  20.120  67.765  1.00  0.00    -0.479 A  
HETATM   24  C   UNL     1     -10.261  20.090  66.578  1.00  0.00    -0.598 A  
HETATM   25  C   UNL     1     -10.550  18.874  65.967  1.00  0.00    -0.470 A  
HETATM   26  C   UNL     1     -10.153  17.680  66.567  1.00  0.00    -0.350 A  
ENDBRANCH  20  21
ENDBRANCH  17  20
ENDBRANCH  16  17
ENDBRANCH  15  16
ENDBRANCH  14  15
ENDBRANCH  13  14
ENDBRANCH  12  13
ENDBRANCH  11  12
ENDBRANCH  10  11
ENDBRANCH   9  10
ENDBRANCH   8   9
ENDBRANCH   7   8
ENDBRANCH   6   7
ENDBRANCH   5   6
ENDBRANCH   4   5
ENDBRANCH   3   4
ENDBRANCH   2   3
TORSDOF 17
ENDMDL
MODEL       45
REMARK 921   NORMALIZED FREE ENERGY PREDICTED BY IDOCK:   -4.28 KCAL/MOL
REMARK 922        TOTAL FREE ENERGY PREDICTED BY IDOCK:  -11.37 KCAL/MOL
REMARK 923 INTER-LIGAND FREE ENERGY PREDICTED BY IDOCK:   -8.19 KCAL/MOL
REMARK 924 INTRA-LIGAND FREE ENERGY PREDICTED BY IDOCK:   -3.18 KCAL/MOL
REMARK 927      BINDING AFFINITY PREDICTED BY RF-SCORE:    0.00 PKD
ROOT
HETATM    1  C   UNL     1     -11.027  11.589  63.340  1.00  0.00    -0.397 C  
HETATM    2  C   UNL     1     -12.362  12.166  63.778  1.00  0.00    -0.635 C  
ENDROOT
BRANCH   2   3
HETATM    3  C   UNL     1     -12.211  12.993  65.052  1.00  0.00    -0.501 C  
BRANCH   3   4
HETATM    4  C   UNL     1     -10.834  13.649  65.117  1.00  0.00    -0.338 C  
BRANCH   4   5
HETATM    5  C   UNL     1     -10.570  14.198  66.513  1.00  0.00    -0.282 C  
BRANCH   5   6
HETATM    6  C   UNL     1     -11.860  14.268  67.321  1.00  0.00    -0.444 C  
BRANCH   6   7
HETATM    7  C   UNL     1     -11.769  15.370  68.367  1.00  0.00    -0.332 C  
BRANCH   7   8
HETATM    8  C   UNL     1     -12.259  14.865  69.716  1.00  0.00    -0.328 C  
BRANCH   8   9
HETATM    9  C   UNL     1     -11.539  13.576  70.091  1.00  0.00    -0.190 C  
BRANCH   9  10
HETATM   10  C   UNL     1     -12.519  12.586  70.699  1.00  0.00    -0.323 C  
BRANCH  10  11
HETATM   11  C   UNL     1     -12.293  11.191  70.141  1.00  0.00    -0.373 C  
BRANCH  11  12
HETATM   12  C   UNL     1     -11.068  11.187  69.244  1.00  0.00    -0.318 C  
BRANCH  12  13
HETATM   13  C   UNL     1     -11.382  10.601  67.873  1.00  0.00    -0.342 C  
BRANCH  13  14
HETATM   14  C   UNL     1     -10.122  10.370  67.038  1.00  0.00    -0.264 C  
BRANCH  14  15
HETATM   15  C   UNL     1     -10.035   8.992  66.375  1.00  0.00    -0.370 C  
BRANCH  15  16
HETATM   16  C   UNL     1     -10.535   7.859  67.276  1.00  0.00    -0.320 C  
BRANCH  16  17
HETATM   17  N   UNL     1      -9.526   6.708  67.439  1.00  0.00    -0.127 N  
HETATM   18  C   UNL     1      -9.720   5.662  66.348  1.00  0.00    -0.156 C  
HETATM   19  C   UNL     1      -8.096   7.241  67.380  1.00  0.00    -0.113 C  
BRANCH  17  20
HETATM   20  C   UNL     1      -9.780   6.069  68.850  1.00  0.00    -0.132 C  
BRANCH  20  21
HETATM   21  C   UNL     1     -10.377   7.013  69.864  1.00  0.00    -0.225 A  
HETATM   22  C   UNL     1      -9.566   7.942  70.535  1.00  0.00    -0.170 A  
HETATM   23  C   UNL     1     -10.052   8.619  71.654  1.00  0.00    -0.365 A  
HETATM   24  C   UNL     1     -11.358   8.400  72.087  1.00  0.00    -0.437 A  
HETATM   25  C   UNL     1     -12.198   7.552  71.372  1.00  0.00    -0.363 A  
HETATM   26  C   UNL     1     -11.719   6.880  70.248  1.00  0.00    -0.344 A  
ENDBRANCH  20  21
ENDBRANCH  17  20
ENDBRANCH  16  17
ENDBRANCH  15  16
ENDBRANCH  14  15
ENDBRANCH  13  14
ENDBRANCH  12  13
ENDBRANCH  11  12
ENDBRANCH  10  11
ENDBRANCH   9  10
ENDBRANCH   8   9
ENDBRANCH   7   8
ENDBRANCH   6   7
ENDBRANCH   5   6
ENDBRANCH   4   5
ENDBRANCH   3   4
ENDBRANCH   2   3
TORSDOF 17
ENDMDL
MODEL       46
REMARK 921   NORMALIZED FREE ENERGY PREDICTED BY IDOCK:   -4.27 KCAL/MOL
REMARK 922        TOTAL FREE ENERGY PREDICTED BY IDOCK:  -11.35 KCAL/MOL
REMARK 923 INTER-LIGAND FREE ENERGY PREDICTED BY IDOCK:   -7.97 KCAL/MOL
REMARK 924 INTRA-LIGAND FREE ENERGY PREDICTED BY IDOCK:   -3.39 KCAL/MOL
REMARK 927      BINDING AFFINITY PREDICTED BY RF-SCORE:    0.00 PKD
ROOT
HETATM    1  C   UNL     1     -11.405   5.433  72.753  1.00  0.00    -0.358 C  
HETATM    2  C   UNL     1     -12.129   6.479  71.924  1.00  0.00    -0.388 C  
ENDROOT
BRANCH   2   3
HETATM    3  C   UNL     1     -11.684   7.888  72.308  1.00  0.00    -0.408 C  
BRANCH   3   4
HETATM    4  C   UNL     1     -11.687   8.812  71.094  1.00  0.00    -0.344 C  
BRANCH   4   5
HETATM    5  C   UNL     1     -10.319   9.456  70.909  1.00  0.00    -0.380 C  
BRANCH   5   6
HETATM    6  C   UNL     1      -9.260   8.721  71.721  1.00  0.00    -0.332 C  
BRANCH   6   7
HETATM    7  C   UNL     1      -8.206   8.125  70.799  1.00  0.00    -0.111 C  
BRANCH   7   8
HETATM    8  C   UNL     1      -8.396   6.620  70.675  1.00  0.00    -0.129 C  
BRANCH   8   9
HETATM    9  C   UNL     1      -8.650   6.237  69.222  1.00  0.00    -0.124 C  
BRANCH   9  10
HETATM   10  C   UNL     1     -10.062   5.697  69.062  1.00  0.00    -0.259 C  
BRANCH  10  11
HETATM   11  C   UNL     1     -10.915   6.653  68.245  1.00  0.00    -0.321 C  
BRANCH  11  12
HETATM   12  C   UNL     1     -10.086   7.253  67.122  1.00  0.00    -0.306 C  
BRANCH  12  13
HETATM   13  C   UNL     1     -10.266   8.764  67.041  1.00  0.00    -0.351 C  
BRANCH  13  14
HETATM   14  C   UNL     1      -9.001   9.522  67.443  1.00  0.00    -0.141 C  
BRANCH  14  15
HETATM   15  C   UNL     1      -8.937  10.971  66.952  1.00  0.00    -0.162 C  
BRANCH  15  16
HETATM   16  C   UNL     1     -10.130  11.361  66.074  1.00  0.00    -0.234 C  
BRANCH  16  17
HETATM   17  N   UNL     1     -10.393  12.877  66.027  1.00  0.00    -0.277 N  
HETATM   18  C   UNL     1      -9.333  13.633  66.818  1.00  0.00    -0.261 C  
HETATM   19  C   UNL     1     -10.395  13.372  64.581  1.00  0.00    -0.381 C  
BRANCH  17  20
HETATM   20  C   UNL     1     -11.810  13.119  66.657  1.00  0.00    -0.391 C  
BRANCH  20  21
HETATM   21  C   UNL     1     -11.794  13.397  68.140  1.00  0.00    -0.396 A  
HETATM   22  C   UNL     1     -11.835  12.339  69.063  1.00  0.00    -0.358 A  
HETATM   23  C   UNL     1     -12.095  12.593  70.410  1.00  0.00    -0.381 A  
HETATM   24  C   UNL     1     -12.278  13.902  70.849  1.00  0.00    -0.436 A  
HETATM   25  C   UNL     1     -12.144  14.963  69.959  1.00  0.00    -0.387 A  
HETATM   26  C   UNL     1     -11.877  14.714  68.613  1.00  0.00    -0.346 A  
ENDBRANCH  20  21
ENDBRANCH  17  20
ENDBRANCH  16  17
ENDBRANCH  15  16
ENDBRANCH  14  15
ENDBRANCH  13  14
ENDBRANCH  12  13
ENDBRANCH  11  12
ENDBRANCH  10  11
ENDBRANCH   9  10
ENDBRANCH   8   9
ENDBRANCH   7   8
ENDBRANCH   6   7
ENDBRANCH   5   6
ENDBRANCH   4   5
ENDBRANCH   3   4
ENDBRANCH   2   3
TORSDOF 17
ENDMDL
MODEL       47
REMARK 921   NORMALIZED FREE ENERGY PREDICTED BY IDOCK:   -4.25 KCAL/MOL
REMARK 922        TOTAL FREE ENERGY PREDICTED BY IDOCK:  -11.31 KCAL/MOL
REMARK 923 INTER-LIGAND FREE ENERGY PREDICTED BY IDOCK:   -9.10 KCAL/MOL
REMARK 924 INTRA-LIGAND FREE ENERGY PREDICTED BY IDOCK:   -2.21 KCAL/MOL
REMARK 927      BINDING AFFINITY PREDICTED BY RF-SCORE:    0.00 PKD
ROOT
HETATM    1  C   UNL     1      -9.393   7.273  68.749  1.00  0.00    -0.143 C  
HETATM    2  C   UNL     1      -9.126   7.505  70.226  1.00  0.00    -0.154 C  
ENDROOT
BRANCH   2   3
HETATM    3  C   UNL     1     -10.016   6.615  71.090  1.00  0.00    -0.198 C  
BRANCH   3   4
HETATM    4  C   UNL     1     -11.429   6.536  70.517  1.00  0.00    -0.448 C  
BRANCH   4   5
HETATM    5  C   UNL     1     -12.462   6.789  71.608  1.00  0.00    -0.398 C  
BRANCH   5   6
HETATM    6  C   UNL     1     -12.132   8.059  72.382  1.00  0.00    -0.374 C  
BRANCH   6   7
HETATM    7  C   UNL     1     -13.286   9.048  72.290  1.00  0.00    -0.519 C  
BRANCH   7   8
HETATM    8  C   UNL     1     -12.828  10.341  71.633  1.00  0.00    -0.568 C  
BRANCH   8   9
HETATM    9  C   UNL     1     -11.478  10.140  70.955  1.00  0.00    -0.436 C  
BRANCH   9  10
HETATM   10  C   UNL     1     -11.289  11.166  69.849  1.00  0.00    -0.348 C  
BRANCH  10  11
HETATM   11  C   UNL     1     -10.683  10.522  68.614  1.00  0.00    -0.247 C  
BRANCH  11  12
HETATM   12  C   UNL     1     -10.408  11.583  67.562  1.00  0.00    -0.220 C  
BRANCH  12  13
HETATM   13  C   UNL     1     -11.596  12.523  67.394  1.00  0.00    -0.434 C  
BRANCH  13  14
HETATM   14  C   UNL     1     -11.383  13.531  66.264  1.00  0.00    -0.327 C  
BRANCH  14  15
HETATM   15  C   UNL     1     -11.714  14.982  66.626  1.00  0.00    -0.144 C  
BRANCH  15  16
HETATM   16  C   UNL     1     -10.488  15.784  67.071  1.00  0.00    -0.309 C  
BRANCH  16  17
HETATM   17  N   UNL     1     -10.429  16.032  68.589  1.00  0.00    -0.239 N  
HETATM   18  C   UNL     1      -9.513  15.020  69.267  1.00  0.00    -0.170 C  
HETATM   19  C   UNL     1      -9.923  17.445  68.878  1.00  0.00    -0.308 C  
BRANCH  17  20
HETATM   20  C   UNL     1     -11.892  15.887  69.138  1.00  0.00    -0.330 C  
BRANCH  20  21
HETATM   21  C   UNL     1     -11.976  15.481  70.588  1.00  0.00    -0.416 A  
HETATM   22  C   UNL     1     -12.545  14.249  70.952  1.00  0.00    -0.426 A  
HETATM   23  C   UNL     1     -12.871  13.992  72.283  1.00  0.00    -0.403 A  
HETATM   24  C   UNL     1     -12.601  14.945  73.263  1.00  0.00    -0.586 A  
HETATM   25  C   UNL     1     -11.952  16.128  72.926  1.00  0.00    -0.623 A  
HETATM   26  C   UNL     1     -11.617  16.386  71.598  1.00  0.00    -0.335 A  
ENDBRANCH  20  21
ENDBRANCH  17  20
ENDBRANCH  16  17
ENDBRANCH  15  16
ENDBRANCH  14  15
ENDBRANCH  13  14
ENDBRANCH  12  13
ENDBRANCH  11  12
ENDBRANCH  10  11
ENDBRANCH   9  10
ENDBRANCH   8   9
ENDBRANCH   7   8
ENDBRANCH   6   7
ENDBRANCH   5   6
ENDBRANCH   4   5
ENDBRANCH   3   4
ENDBRANCH   2   3
TORSDOF 17
ENDMDL
MODEL       48
REMARK 921   NORMALIZED FREE ENERGY PREDICTED BY IDOCK:   -4.24 KCAL/MOL
REMARK 922        TOTAL FREE ENERGY PREDICTED BY IDOCK:  -11.30 KCAL/MOL
REMARK 923 INTER-LIGAND FREE ENERGY PREDICTED BY IDOCK:   -8.91 KCAL/MOL
REMARK 924 INTRA-LIGAND FREE ENERGY PREDICTED BY IDOCK:   -2.38 KCAL/MOL
REMARK 927      BINDING AFFINITY PREDICTED BY RF-SCORE:    0.00 PKD
ROOT
HETATM    1  C   UNL     1     -10.208   5.221  70.239  1.00  0.00    -0.345 C  
HETATM    2  C   UNL     1     -10.317   5.213  71.754  1.00  0.00    -0.274 C  
ENDROOT
BRANCH   2   3
HETATM    3  C   UNL     1     -11.554   5.978  72.218  1.00  0.00    -0.359 C  
BRANCH   3   4
HETATM    4  C   UNL     1     -12.248   6.659  71.042  1.00  0.00    -0.344 C  
BRANCH   4   5
HETATM    5  C   UNL     1     -13.030   7.877  71.516  1.00  0.00    -0.338 C  
BRANCH   5   6
HETATM    6  C   UNL     1     -12.114   8.868  72.222  1.00  0.00    -0.392 C  
BRANCH   6   7
HETATM    7  C   UNL     1     -11.148   9.496  71.227  1.00  0.00    -0.449 C  
BRANCH   7   8
HETATM    8  C   UNL     1      -9.717   9.090  71.543  1.00  0.00    -0.365 C  
BRANCH   8   9
HETATM    9  C   UNL     1      -8.926   8.895  70.255  1.00  0.00    -0.201 C  
BRANCH   9  10
HETATM   10  C   UNL     1      -9.873   8.652  69.091  1.00  0.00    -0.185 C  
BRANCH  10  11
HETATM   11  C   UNL     1      -9.203   8.994  67.771  1.00  0.00    -0.152 C  
BRANCH  11  12
HETATM   12  C   UNL     1      -9.753  10.305  67.238  1.00  0.00    -0.199 C  
BRANCH  12  13
HETATM   13  C   UNL     1     -11.218  10.491  67.616  1.00  0.00    -0.338 C  
BRANCH  13  14
HETATM   14  C   UNL     1     -11.480  11.845  68.275  1.00  0.00    -0.372 C  
BRANCH  14  15
HETATM   15  C   UNL     1     -10.725  13.021  67.649  1.00  0.00    -0.239 C  
BRANCH  15  16
HETATM   16  C   UNL     1     -10.157  13.992  68.689  1.00  0.00    -0.217 C  
BRANCH  16  17
HETATM   17  N   UNL     1     -10.473  15.469  68.393  1.00  0.00    -0.235 N  
HETATM   18  C   UNL     1      -9.454  16.383  69.064  1.00  0.00    -0.258 C  
HETATM   19  C   UNL     1     -10.466  15.723  66.887  1.00  0.00    -0.315 C  
BRANCH  17  20
HETATM   20  C   UNL     1     -11.908  15.756  68.958  1.00  0.00    -0.355 C  
BRANCH  20  21
HETATM   21  C   UNL     1     -12.123  15.298  70.379  1.00  0.00    -0.388 A  
HETATM   22  C   UNL     1     -12.879  14.146  70.650  1.00  0.00    -0.356 A  
HETATM   23  C   UNL     1     -13.305  13.875  71.950  1.00  0.00    -0.496 A  
HETATM   24  C   UNL     1     -12.951  14.730  72.991  1.00  0.00    -0.609 A  
HETATM   25  C   UNL     1     -12.123  15.822  72.748  1.00  0.00    -0.596 A  
HETATM   26  C   UNL     1     -11.688  16.092  71.451  1.00  0.00    -0.536 A  
ENDBRANCH  20  21
ENDBRANCH  17  20
ENDBRANCH  16  17
ENDBRANCH  15  16
ENDBRANCH  14  15
ENDBRANCH  13  14
ENDBRANCH  12  13
ENDBRANCH  11  12
ENDBRANCH  10  11
ENDBRANCH   9  10
ENDBRANCH   8   9
ENDBRANCH   7   8
ENDBRANCH   6   7
ENDBRANCH   5   6
ENDBRANCH   4   5
ENDBRANCH   3   4
ENDBRANCH   2   3
TORSDOF 17
ENDMDL
MODEL       49
REMARK 921   NORMALIZED FREE ENERGY PREDICTED BY IDOCK:   -4.24 KCAL/MOL
REMARK 922        TOTAL FREE ENERGY PREDICTED BY IDOCK:  -11.29 KCAL/MOL
REMARK 923 INTER-LIGAND FREE ENERGY PREDICTED BY IDOCK:   -8.94 KCAL/MOL
REMARK 924 INTRA-LIGAND FREE ENERGY PREDICTED BY IDOCK:   -2.35 KCAL/MOL
REMARK 927      BINDING AFFINITY PREDICTED BY RF-SCORE:    0.00 PKD
ROOT
HETATM    1  C   UNL     1     -12.783  13.910  65.445  1.00  0.00    -0.525 C  
HETATM    2  C   UNL     1     -12.324  12.498  65.126  1.00  0.00    -0.496 C  
ENDROOT
BRANCH   2   3
HETATM    3  C   UNL     1     -12.031  12.340  63.636  1.00  0.00    -0.633 C  
BRANCH   3   4
HETATM    4  C   UNL     1     -10.771  11.510  63.411  1.00  0.00    -0.444 C  
BRANCH   4   5
HETATM    5  C   UNL     1     -10.411  10.734  64.672  1.00  0.00    -0.394 C  
BRANCH   5   6
HETATM    6  C   UNL     1      -9.240   9.795  64.414  1.00  0.00    -0.301 C  
BRANCH   6   7
HETATM    7  C   UNL     1      -8.779   9.155  65.716  1.00  0.00    -0.192 C  
BRANCH   7   8
HETATM    8  C   UNL     1      -9.524   7.852  65.962  1.00  0.00    -0.086 C  
BRANCH   8   9
HETATM    9  C   UNL     1     -10.415   7.977  67.192  1.00  0.00    -0.408 C  
BRANCH   9  10
HETATM   10  C   UNL     1      -9.580   8.335  68.410  1.00  0.00    -0.153 C  
BRANCH  10  11
HETATM   11  C   UNL     1     -10.241   9.442  69.212  1.00  0.00    -0.209 C  
BRANCH  11  12
HETATM   12  C   UNL     1     -11.231  10.192  68.337  1.00  0.00    -0.238 C  
BRANCH  12  13
HETATM   13  C   UNL     1     -10.971  11.693  68.361  1.00  0.00    -0.265 C  
BRANCH  13  14
HETATM   14  C   UNL     1      -9.479  12.025  68.316  1.00  0.00    -0.199 C  
BRANCH  14  15
HETATM   15  C   UNL     1      -9.149  13.430  67.804  1.00  0.00    -0.202 C  
BRANCH  15  16
HETATM   16  C   UNL     1     -10.374  14.345  67.725  1.00  0.00    -0.238 C  
BRANCH  16  17
HETATM   17  N   UNL     1     -10.194  15.685  68.459  1.00  0.00    -0.208 N  
HETATM   18  C   UNL     1      -9.169  15.553  69.579  1.00  0.00    -0.265 C  
HETATM   19  C   UNL     1      -9.739  16.770  67.483  1.00  0.00    -0.252 C  
BRANCH  17  20
HETATM   20  C   UNL     1     -11.592  16.078  69.052  1.00  0.00    -0.349 C  
BRANCH  20  21
HETATM   21  C   UNL     1     -11.936  15.388  70.349  1.00  0.00    -0.387 A  
HETATM   22  C   UNL     1     -12.446  14.079  70.345  1.00  0.00    -0.418 A  
HETATM   23  C   UNL     1     -13.015  13.543  71.501  1.00  0.00    -0.440 A  
HETATM   24  C   UNL     1     -13.048  14.295  72.673  1.00  0.00    -0.567 A  
HETATM   25  C   UNL     1     -12.460  15.556  72.711  1.00  0.00    -0.519 A  
HETATM   26  C   UNL     1     -11.883  16.091  71.561  1.00  0.00    -0.554 A  
ENDBRANCH  20  21
ENDBRANCH  17  20
ENDBRANCH  16  17
ENDBRANCH  15  16
ENDBRANCH  14  15
ENDBRANCH  13  14
ENDBRANCH  12  13
ENDBRANCH  11  12
ENDBRANCH  10  11
ENDBRANCH   9  10
ENDBRANCH   8   9
ENDBRANCH   7   8
ENDBRANCH   6   7
ENDBRANCH   5   6
ENDBRANCH   4   5
ENDBRANCH   3   4
ENDBRANCH   2   3
TORSDOF 17
ENDMDL
MODEL       50
REMARK 921   NORMALIZED FREE ENERGY PREDICTED BY IDOCK:   -4.23 KCAL/MOL
REMARK 922        TOTAL FREE ENERGY PREDICTED BY IDOCK:  -11.28 KCAL/MOL
REMARK 923 INTER-LIGAND FREE ENERGY PREDICTED BY IDOCK:   -8.34 KCAL/MOL
REMARK 924 INTRA-LIGAND FREE ENERGY PREDICTED BY IDOCK:   -2.94 KCAL/MOL
REMARK 927      BINDING AFFINITY PREDICTED BY RF-SCORE:    0.00 PKD
ROOT
HETATM    1  C   UNL     1      -8.270   9.207  70.940  1.00  0.00    -0.220 C  
HETATM    2  C   UNL     1      -8.055   8.366  69.693  1.00  0.00    -0.115 C  
ENDROOT
BRANCH   2   3
HETATM    3  C   UNL     1      -8.528   6.931  69.913  1.00  0.00    -0.140 C  
BRANCH   3   4
HETATM    4  C   UNL     1      -9.747   6.620  69.050  1.00  0.00    -0.142 C  
BRANCH   4   5
HETATM    5  C   UNL     1     -10.803   5.883  69.864  1.00  0.00    -0.439 C  
BRANCH   5   6
HETATM    6  C   UNL     1     -11.800   6.863  70.470  1.00  0.00    -0.385 C  
BRANCH   6   7
HETATM    7  C   UNL     1     -11.594   6.962  71.975  1.00  0.00    -0.322 C  
BRANCH   7   8
HETATM    8  C   UNL     1     -11.701   8.409  72.433  1.00  0.00    -0.452 C  
BRANCH   8   9
HETATM    9  C   UNL     1     -13.092   8.955  72.139  1.00  0.00    -0.475 C  
BRANCH   9  10
HETATM   10  C   UNL     1     -12.992  10.334  71.508  1.00  0.00    -0.556 C  
BRANCH  10  11
HETATM   11  C   UNL     1     -11.640  10.526  70.842  1.00  0.00    -0.385 C  
BRANCH  11  12
HETATM   12  C   UNL     1     -11.833  10.994  69.410  1.00  0.00    -0.407 C  
BRANCH  12  13
HETATM   13  C   UNL     1     -11.095  10.095  68.425  1.00  0.00    -0.273 C  
BRANCH  13  14
HETATM   14  C   UNL     1     -10.087  10.870  67.575  1.00  0.00    -0.214 C  
BRANCH  14  15
HETATM   15  C   UNL     1     -10.381  10.871  66.072  1.00  0.00    -0.304 C  
BRANCH  15  16
HETATM   16  C   UNL     1     -11.573  11.753  65.694  1.00  0.00    -0.122 C  
BRANCH  16  17
HETATM   17  N   UNL     1     -11.406  12.475  64.344  1.00  0.00    -0.323 N  
HETATM   18  C   UNL     1     -10.107  12.055  63.667  1.00  0.00    -0.415 C  
HETATM   19  C   UNL     1     -12.583  12.158  63.422  1.00  0.00    -0.463 C  
BRANCH  17  20
HETATM   20  C   UNL     1     -11.385  14.015  64.643  1.00  0.00    -0.375 C  
BRANCH  20  21
HETATM   21  C   UNL     1     -11.075  14.367  66.077  1.00  0.00    -0.324 A  
HETATM   22  C   UNL     1      -9.747  14.541  66.497  1.00  0.00    -0.301 A  
HETATM   23  C   UNL     1      -9.441  14.594  67.857  1.00  0.00    -0.210 A  
HETATM   24  C   UNL     1     -10.460  14.511  68.804  1.00  0.00    -0.246 A  
HETATM   25  C   UNL     1     -11.788  14.434  68.395  1.00  0.00    -0.354 A  
HETATM   26  C   UNL     1     -12.098  14.389  67.037  1.00  0.00    -0.374 A  
ENDBRANCH  20  21
ENDBRANCH  17  20
ENDBRANCH  16  17
ENDBRANCH  15  16
ENDBRANCH  14  15
ENDBRANCH  13  14
ENDBRANCH  12  13
ENDBRANCH  11  12
ENDBRANCH  10  11
ENDBRANCH   9  10
ENDBRANCH   8   9
ENDBRANCH   7   8
ENDBRANCH   6   7
ENDBRANCH   5   6
ENDBRANCH   4   5
ENDBRANCH   3   4
ENDBRANCH   2   3
TORSDOF 17
ENDMDL
MODEL       51
REMARK 921   NORMALIZED FREE ENERGY PREDICTED BY IDOCK:   -4.23 KCAL/MOL
REMARK 922        TOTAL FREE ENERGY PREDICTED BY IDOCK:  -11.27 KCAL/MOL
REMARK 923 INTER-LIGAND FREE ENERGY PREDICTED BY IDOCK:   -8.94 KCAL/MOL
REMARK 924 INTRA-LIGAND FREE ENERGY PREDICTED BY IDOCK:   -2.34 KCAL/MOL
REMARK 927      BINDING AFFINITY PREDICTED BY RF-SCORE:    0.00 PKD
ROOT
HETATM    1  C   UNL     1     -10.149  16.523  67.495  1.00  0.00    -0.267 C  
HETATM    2  C   UNL     1      -9.397  16.176  68.769  1.00  0.00    -0.229 C  
ENDROOT
BRANCH   2   3
HETATM    3  C   UNL     1     -10.272  15.359  69.716  1.00  0.00    -0.278 C  
BRANCH   3   4
HETATM    4  C   UNL     1     -11.690  15.921  69.772  1.00  0.00    -0.323 C  
BRANCH   4   5
HETATM    5  C   UNL     1     -12.278  15.751  71.167  1.00  0.00    -0.473 C  
BRANCH   5   6
HETATM    6  C   UNL     1     -13.424  14.748  71.152  1.00  0.00    -0.450 C  
BRANCH   6   7
HETATM    7  C   UNL     1     -13.455  13.962  72.455  1.00  0.00    -0.676 C  
BRANCH   7   8
HETATM    8  C   UNL     1     -13.508  12.467  72.175  1.00  0.00    -0.523 C  
BRANCH   8   9
HETATM    9  C   UNL     1     -12.584  12.115  71.016  1.00  0.00    -0.359 C  
BRANCH   9  10
HETATM   10  C   UNL     1     -12.758  10.654  70.633  1.00  0.00    -0.445 C  
BRANCH  10  11
HETATM   11  C   UNL     1     -12.373   9.744  71.787  1.00  0.00    -0.470 C  
BRANCH  11  12
HETATM   12  C   UNL     1     -12.294   8.306  71.305  1.00  0.00    -0.285 C  
BRANCH  12  13
HETATM   13  C   UNL     1     -10.854   7.886  71.037  1.00  0.00    -0.253 C  
BRANCH  13  14
HETATM   14  C   UNL     1      -9.850   8.969  71.432  1.00  0.00    -0.381 C  
BRANCH  14  15
HETATM   15  C   UNL     1      -8.929   9.435  70.302  1.00  0.00    -0.277 C  
BRANCH  15  16
HETATM   16  C   UNL     1      -9.388   8.963  68.919  1.00  0.00    -0.140 C  
BRANCH  16  17
HETATM   17  N   UNL     1      -9.413  10.080  67.861  1.00  0.00    -0.144 N  
HETATM   18  C   UNL     1      -8.799  11.361  68.414  1.00  0.00    -0.167 C  
HETATM   19  C   UNL     1      -8.642   9.648  66.614  1.00  0.00    -0.130 C  
BRANCH  17  20
HETATM   20  C   UNL     1     -10.915  10.323  67.480  1.00  0.00    -0.280 C  
BRANCH  20  21
HETATM   21  C   UNL     1     -11.177  11.634  66.780  1.00  0.00    -0.371 A  
HETATM   22  C   UNL     1     -11.765  12.706  67.472  1.00  0.00    -0.429 A  
HETATM   23  C   UNL     1     -12.254  13.809  66.773  1.00  0.00    -0.440 A  
HETATM   24  C   UNL     1     -12.129  13.866  65.387  1.00  0.00    -0.423 A  
HETATM   25  C   UNL     1     -11.464  12.853  64.703  1.00  0.00    -0.369 A  
HETATM   26  C   UNL     1     -10.966  11.753  65.399  1.00  0.00    -0.352 A  
ENDBRANCH  20  21
ENDBRANCH  17  20
ENDBRANCH  16  17
ENDBRANCH  15  16
ENDBRANCH  14  15
ENDBRANCH  13  14
ENDBRANCH  12  13
ENDBRANCH  11  12
ENDBRANCH  10  11
ENDBRANCH   9  10
ENDBRANCH   8   9
ENDBRANCH   7   8
ENDBRANCH   6   7
ENDBRANCH   5   6
ENDBRANCH   4   5
ENDBRANCH   3   4
ENDBRANCH   2   3
TORSDOF 17
ENDMDL
MODEL       52
REMARK 921   NORMALIZED FREE ENERGY PREDICTED BY IDOCK:   -4.22 KCAL/MOL
REMARK 922        TOTAL FREE ENERGY PREDICTED BY IDOCK:  -11.25 KCAL/MOL
REMARK 923 INTER-LIGAND FREE ENERGY PREDICTED BY IDOCK:   -9.87 KCAL/MOL
REMARK 924 INTRA-LIGAND FREE ENERGY PREDICTED BY IDOCK:   -1.37 KCAL/MOL
REMARK 927      BINDING AFFINITY PREDICTED BY RF-SCORE:    0.00 PKD
ROOT
HETATM    1  C   UNL     1     -12.509  15.593  74.134  1.00  0.00    -0.804 C  
HETATM    2  C   UNL     1     -12.615  15.734  72.625  1.00  0.00    -0.541 C  
ENDROOT
BRANCH   2   3
HETATM    3  C   UNL     1     -13.907  15.108  72.106  1.00  0.00    -0.607 C  
BRANCH   3   4
HETATM    4  C   UNL     1     -13.869  13.588  72.238  1.00  0.00    -0.680 C  
BRANCH   4   5
HETATM    5  C   UNL     1     -12.792  13.000  71.336  1.00  0.00    -0.385 C  
BRANCH   5   6
HETATM    6  C   UNL     1     -12.790  11.479  71.416  1.00  0.00    -0.489 C  
BRANCH   6   7
HETATM    7  C   UNL     1     -11.766  10.900  70.449  1.00  0.00    -0.444 C  
BRANCH   7   8
HETATM    8  C   UNL     1     -11.973  11.466  69.052  1.00  0.00    -0.387 C  
BRANCH   8   9
HETATM    9  C   UNL     1     -10.639  11.579  68.325  1.00  0.00    -0.228 C  
BRANCH   9  10
HETATM   10  C   UNL     1     -10.577  10.576  67.184  1.00  0.00    -0.319 C  
BRANCH  10  11
HETATM   11  C   UNL     1      -9.792  11.139  66.012  1.00  0.00    -0.270 C  
BRANCH  11  12
HETATM   12  C   UNL     1     -10.540  10.877  64.717  1.00  0.00    -0.316 C  
BRANCH  12  13
HETATM   13  C   UNL     1     -10.970  12.178  64.048  1.00  0.00    -0.438 C  
BRANCH  13  14
HETATM   14  C   UNL     1     -12.290  12.709  64.607  1.00  0.00    -0.546 C  
BRANCH  14  15
HETATM   15  C   UNL     1     -12.171  14.003  65.418  1.00  0.00    -0.453 C  
BRANCH  15  16
HETATM   16  C   UNL     1     -10.883  14.778  65.125  1.00  0.00    -0.404 C  
BRANCH  16  17
HETATM   17  N   UNL     1     -10.437  15.694  66.279  1.00  0.00    -0.297 N  
HETATM   18  C   UNL     1     -10.614  17.160  65.904  1.00  0.00    -0.215 C  
HETATM   19  C   UNL     1     -11.245  15.393  67.540  1.00  0.00    -0.302 C  
BRANCH  17  20
HETATM   20  C   UNL     1      -8.922  15.387  66.552  1.00  0.00    -0.309 C  
BRANCH  20  21
HETATM   21  C   UNL     1      -8.121  16.575  67.024  1.00  0.00    -0.235 A  
HETATM   22  C   UNL     1      -7.252  17.243  66.146  1.00  0.00    -0.304 A  
HETATM   23  C   UNL     1      -6.318  18.153  66.639  1.00  0.00    -0.221 A  
HETATM   24  C   UNL     1      -6.269  18.430  68.004  1.00  0.00    -0.189 A  
HETATM   25  C   UNL     1      -7.188  17.844  68.868  1.00  0.00    -0.258 A  
HETATM   26  C   UNL     1      -8.129  16.940  68.378  1.00  0.00    -0.237 A  
ENDBRANCH  20  21
ENDBRANCH  17  20
ENDBRANCH  16  17
ENDBRANCH  15  16
ENDBRANCH  14  15
ENDBRANCH  13  14
ENDBRANCH  12  13
ENDBRANCH  11  12
ENDBRANCH  10  11
ENDBRANCH   9  10
ENDBRANCH   8   9
ENDBRANCH   7   8
ENDBRANCH   6   7
ENDBRANCH   5   6
ENDBRANCH   4   5
ENDBRANCH   3   4
ENDBRANCH   2   3
TORSDOF 17
ENDMDL
MODEL       53
REMARK 921   NORMALIZED FREE ENERGY PREDICTED BY IDOCK:   -4.22 KCAL/MOL
REMARK 922        TOTAL FREE ENERGY PREDICTED BY IDOCK:  -11.24 KCAL/MOL
REMARK 923 INTER-LIGAND FREE ENERGY PREDICTED BY IDOCK:   -9.48 KCAL/MOL
REMARK 924 INTRA-LIGAND FREE ENERGY PREDICTED BY IDOCK:   -1.77 KCAL/MOL
REMARK 927      BINDING AFFINITY PREDICTED BY RF-SCORE:    0.00 PKD
ROOT
HETATM    1  C   UNL     1     -10.566  19.293  66.245  1.00  0.00    -0.545 C  
HETATM    2  C   UNL     1     -10.600  18.545  67.567  1.00  0.00    -0.461 C  
ENDROOT
BRANCH   2   3
HETATM    3  C   UNL     1     -10.061  17.126  67.406  1.00  0.00    -0.301 C  
BRANCH   3   4
HETATM    4  C   UNL     1     -11.030  16.104  67.993  1.00  0.00    -0.338 C  
BRANCH   4   5
HETATM    5  C   UNL     1     -11.133  14.883  67.087  1.00  0.00    -0.332 C  
BRANCH   5   6
HETATM    6  C   UNL     1     -10.655  15.213  65.679  1.00  0.00    -0.370 C  
BRANCH   6   7
HETATM    7  C   UNL     1     -11.691  14.774  64.653  1.00  0.00    -0.426 C  
BRANCH   7   8
HETATM    8  C   UNL     1     -12.696  13.822  65.284  1.00  0.00    -0.481 C  
BRANCH   8   9
HETATM    9  C   UNL     1     -12.724  12.502  64.523  1.00  0.00    -0.440 C  
BRANCH   9  10
HETATM   10  C   UNL     1     -11.519  12.403  63.602  1.00  0.00    -0.568 C  
BRANCH  10  11
HETATM   11  C   UNL     1     -10.639  11.227  63.989  1.00  0.00    -0.450 C  
BRANCH  11  12
HETATM   12  C   UNL     1      -9.781  11.597  65.187  1.00  0.00    -0.245 C  
BRANCH  12  13
HETATM   13  C   UNL     1     -10.062  10.688  66.377  1.00  0.00    -0.279 C  
BRANCH  13  14
HETATM   14  C   UNL     1      -9.875   9.210  66.036  1.00  0.00    -0.342 C  
BRANCH  14  15
HETATM   15  C   UNL     1     -10.276   8.237  67.149  1.00  0.00    -0.365 C  
BRANCH  15  16
HETATM   16  C   UNL     1      -9.429   8.392  68.415  1.00  0.00    -0.139 C  
BRANCH  16  17
HETATM   17  N   UNL     1      -9.849   7.451  69.559  1.00  0.00    -0.164 N  
HETATM   18  C   UNL     1     -11.218   6.842  69.280  1.00  0.00    -0.205 C  
HETATM   19  C   UNL     1      -8.823   6.332  69.731  1.00  0.00    -0.140 C  
BRANCH  17  20
HETATM   20  C   UNL     1      -9.899   8.311  70.870  1.00  0.00    -0.182 C  
BRANCH  20  21
HETATM   21  C   UNL     1     -11.156   9.130  71.031  1.00  0.00    -0.374 A  
HETATM   22  C   UNL     1     -11.276  10.382  70.407  1.00  0.00    -0.399 A  
HETATM   23  C   UNL     1     -12.305  11.252  70.769  1.00  0.00    -0.495 A  
HETATM   24  C   UNL     1     -13.239  10.864  71.727  1.00  0.00    -0.513 A  
HETATM   25  C   UNL     1     -13.184   9.589  72.281  1.00  0.00    -0.507 A  
HETATM   26  C   UNL     1     -12.162   8.714  71.916  1.00  0.00    -0.419 A  
ENDBRANCH  20  21
ENDBRANCH  17  20
ENDBRANCH  16  17
ENDBRANCH  15  16
ENDBRANCH  14  15
ENDBRANCH  13  14
ENDBRANCH  12  13
ENDBRANCH  11  12
ENDBRANCH  10  11
ENDBRANCH   9  10
ENDBRANCH   8   9
ENDBRANCH   7   8
ENDBRANCH   6   7
ENDBRANCH   5   6
ENDBRANCH   4   5
ENDBRANCH   3   4
ENDBRANCH   2   3
TORSDOF 17
ENDMDL
MODEL       54
REMARK 921   NORMALIZED FREE ENERGY PREDICTED BY IDOCK:   -4.21 KCAL/MOL
REMARK 922        TOTAL FREE ENERGY PREDICTED BY IDOCK:  -11.24 KCAL/MOL
REMARK 923 INTER-LIGAND FREE ENERGY PREDICTED BY IDOCK:   -9.17 KCAL/MOL
REMARK 924 INTRA-LIGAND FREE ENERGY PREDICTED BY IDOCK:   -2.07 KCAL/MOL
REMARK 927      BINDING AFFINITY PREDICTED BY RF-SCORE:    0.00 PKD
ROOT
HETATM    1  C   UNL     1      -9.236   3.751  68.755  1.00  0.00    -0.218 C  
HETATM    2  C   UNL     1      -9.805   4.768  69.729  1.00  0.00    -0.288 C  
ENDROOT
BRANCH   2   3
HETATM    3  C   UNL     1     -10.517   5.897  68.989  1.00  0.00    -0.332 C  
BRANCH   3   4
HETATM    4  C   UNL     1     -11.648   6.475  69.834  1.00  0.00    -0.433 C  
BRANCH   4   5
HETATM    5  C   UNL     1     -11.309   6.383  71.317  1.00  0.00    -0.361 C  
BRANCH   5   6
HETATM    6  C   UNL     1     -12.522   6.727  72.172  1.00  0.00    -0.198 C  
BRANCH   6   7
HETATM    7  C   UNL     1     -13.740   6.964  71.290  1.00  0.00    -0.145 C  
BRANCH   7   8
HETATM    8  C   UNL     1     -14.408   8.283  71.647  1.00  0.00    -0.561 C  
BRANCH   8   9
HETATM    9  C   UNL     1     -13.453   9.159  72.448  1.00  0.00    -0.535 C  
BRANCH   9  10
HETATM   10  C   UNL     1     -13.004  10.346  71.612  1.00  0.00    -0.581 C  
BRANCH  10  11
HETATM   11  C   UNL     1     -11.598  10.131  71.079  1.00  0.00    -0.462 C  
BRANCH  11  12
HETATM   12  C   UNL     1     -11.520  10.588  69.633  1.00  0.00    -0.349 C  
BRANCH  12  13
HETATM   13  C   UNL     1     -10.485   9.788  68.850  1.00  0.00    -0.233 C  
BRANCH  13  14
HETATM   14  C   UNL     1     -10.804   9.732  67.356  1.00  0.00    -0.265 C  
BRANCH  14  15
HETATM   15  C   UNL     1     -10.353  10.957  66.556  1.00  0.00    -0.299 C  
BRANCH  15  16
HETATM   16  C   UNL     1     -11.426  12.047  66.471  1.00  0.00    -0.349 C  
BRANCH  16  17
HETATM   17  N   UNL     1     -10.882  13.469  66.693  1.00  0.00    -0.282 N  
HETATM   18  C   UNL     1      -9.642  13.441  67.577  1.00  0.00    -0.221 C  
HETATM   19  C   UNL     1     -10.534  14.120  65.354  1.00  0.00    -0.357 C  
BRANCH  17  20
HETATM   20  C   UNL     1     -12.020  14.296  67.387  1.00  0.00    -0.391 C  
BRANCH  20  21
HETATM   21  C   UNL     1     -11.795  14.555  68.857  1.00  0.00    -0.359 A  
HETATM   22  C   UNL     1     -12.246  13.636  69.819  1.00  0.00    -0.350 A  
HETATM   23  C   UNL     1     -12.286  13.994  71.166  1.00  0.00    -0.443 A  
HETATM   24  C   UNL     1     -11.845  15.253  71.566  1.00  0.00    -0.441 A  
HETATM   25  C   UNL     1     -11.308  16.134  70.632  1.00  0.00    -0.394 A  
HETATM   26  C   UNL     1     -11.258  15.777  69.285  1.00  0.00    -0.324 A  
ENDBRANCH  20  21
ENDBRANCH  17  20
ENDBRANCH  16  17
ENDBRANCH  15  16
ENDBRANCH  14  15
ENDBRANCH  13  14
ENDBRANCH  12  13
ENDBRANCH  11  12
ENDBRANCH  10  11
ENDBRANCH   9  10
ENDBRANCH   8   9
ENDBRANCH   7   8
ENDBRANCH   6   7
ENDBRANCH   5   6
ENDBRANCH   4   5
ENDBRANCH   3   4
ENDBRANCH   2   3
TORSDOF 17
ENDMDL
MODEL       55
REMARK 921   NORMALIZED FREE ENERGY PREDICTED BY IDOCK:   -4.21 KCAL/MOL
REMARK 922        TOTAL FREE ENERGY PREDICTED BY IDOCK:  -11.24 KCAL/MOL
REMARK 923 INTER-LIGAND FREE ENERGY PREDICTED BY IDOCK:   -8.31 KCAL/MOL
REMARK 924 INTRA-LIGAND FREE ENERGY PREDICTED BY IDOCK:   -2.92 KCAL/MOL
REMARK 927      BINDING AFFINITY PREDICTED BY RF-SCORE:    0.00 PKD
ROOT
HETATM    1  C   UNL     1     -11.386  10.915  69.987  1.00  0.00    -0.386 C  
HETATM    2  C   UNL     1     -12.065  11.995  69.163  1.00  0.00    -0.241 C  
ENDROOT
BRANCH   2   3
HETATM    3  C   UNL     1     -11.829  13.376  69.769  1.00  0.00    -0.393 C  
BRANCH   3   4
HETATM    4  C   UNL     1     -11.853  14.457  68.692  1.00  0.00    -0.366 C  
BRANCH   4   5
HETATM    5  C   UNL     1     -12.144  13.845  67.328  1.00  0.00    -0.403 C  
BRANCH   5   6
HETATM    6  C   UNL     1     -11.503  14.668  66.218  1.00  0.00    -0.351 C  
BRANCH   6   7
HETATM    7  C   UNL     1     -12.044  14.237  64.861  1.00  0.00    -0.442 C  
BRANCH   7   8
HETATM    8  C   UNL     1     -12.408  12.760  64.878  1.00  0.00    -0.551 C  
BRANCH   8   9
HETATM    9  C   UNL     1     -11.577  12.000  63.852  1.00  0.00    -0.536 C  
BRANCH   9  10
HETATM   10  C   UNL     1     -10.199  11.695  64.416  1.00  0.00    -0.346 C  
BRANCH  10  11
HETATM   11  C   UNL     1     -10.264  10.545  65.407  1.00  0.00    -0.340 C  
BRANCH  11  12
HETATM   12  C   UNL     1      -9.478  10.898  66.658  1.00  0.00    -0.204 C  
BRANCH  12  13
HETATM   13  C   UNL     1      -8.778  12.245  66.517  1.00  0.00    -0.084 C  
BRANCH  13  14
HETATM   14  C   UNL     1      -8.615  12.958  67.859  1.00  0.00    -0.185 C  
BRANCH  14  15
HETATM   15  C   UNL     1      -7.410  13.899  67.944  1.00  0.00    -0.157 C  
BRANCH  15  16
HETATM   16  C   UNL     1      -7.651  15.247  67.259  1.00  0.00    -0.210 C  
BRANCH  16  17
HETATM   17  N   UNL     1      -6.689  16.357  67.721  1.00  0.00    -0.126 N  
HETATM   18  C   UNL     1      -5.407  15.758  68.287  1.00  0.00    -0.109 C  
HETATM   19  C   UNL     1      -6.344  17.281  66.554  1.00  0.00    -0.227 C  
BRANCH  17  20
HETATM   20  C   UNL     1      -7.433  17.181  68.829  1.00  0.00    -0.250 C  
BRANCH  20  21
HETATM   21  C   UNL     1      -8.550  18.054  68.313  1.00  0.00    -0.293 A  
HETATM   22  C   UNL     1      -9.818  17.508  68.051  1.00  0.00    -0.299 A  
HETATM   23  C   UNL     1     -10.760  18.237  67.326  1.00  0.00    -0.366 A  
HETATM   24  C   UNL     1     -10.458  19.525  66.888  1.00  0.00    -0.589 A  
HETATM   25  C   UNL     1      -9.240  20.109  67.224  1.00  0.00    -0.504 A  
HETATM   26  C   UNL     1      -8.299  19.387  67.956  1.00  0.00    -0.354 A  
ENDBRANCH  20  21
ENDBRANCH  17  20
ENDBRANCH  16  17
ENDBRANCH  15  16
ENDBRANCH  14  15
ENDBRANCH  13  14
ENDBRANCH  12  13
ENDBRANCH  11  12
ENDBRANCH  10  11
ENDBRANCH   9  10
ENDBRANCH   8   9
ENDBRANCH   7   8
ENDBRANCH   6   7
ENDBRANCH   5   6
ENDBRANCH   4   5
ENDBRANCH   3   4
ENDBRANCH   2   3
TORSDOF 17
ENDMDL
MODEL       56
REMARK 921   NORMALIZED FREE ENERGY PREDICTED BY IDOCK:   -4.21 KCAL/MOL
REMARK 922        TOTAL FREE ENERGY PREDICTED BY IDOCK:  -11.24 KCAL/MOL
REMARK 923 INTER-LIGAND FREE ENERGY PREDICTED BY IDOCK:   -8.56 KCAL/MOL
REMARK 924 INTRA-LIGAND FREE ENERGY PREDICTED BY IDOCK:   -2.68 KCAL/MOL
REMARK 927      BINDING AFFINITY PREDICTED BY RF-SCORE:    0.00 PKD
ROOT
HETATM    1  C   UNL     1     -13.542   9.298  72.273  1.00  0.00    -0.544 C  
HETATM    2  C   UNL     1     -12.329   8.526  71.782  1.00  0.00    -0.388 C  
ENDROOT
BRANCH   2   3
HETATM    3  C   UNL     1     -12.695   7.080  71.459  1.00  0.00    -0.425 C  
BRANCH   3   4
HETATM    4  C   UNL     1     -11.845   6.107  72.271  1.00  0.00    -0.326 C  
BRANCH   4   5
HETATM    5  C   UNL     1     -10.389   6.554  72.288  1.00  0.00    -0.212 C  
BRANCH   5   6
HETATM    6  C   UNL     1      -9.536   5.656  71.402  1.00  0.00    -0.188 C  
BRANCH   6   7
HETATM    7  C   UNL     1      -9.394   6.264  70.013  1.00  0.00    -0.164 C  
BRANCH   7   8
HETATM    8  C   UNL     1      -8.795   7.660  70.102  1.00  0.00    -0.146 C  
BRANCH   8   9
HETATM    9  C   UNL     1      -9.485   8.594  69.115  1.00  0.00    -0.157 C  
BRANCH   9  10
HETATM   10  C   UNL     1     -10.555   7.842  68.341  1.00  0.00    -0.157 C  
BRANCH  10  11
HETATM   11  C   UNL     1     -10.281   7.897  66.848  1.00  0.00    -0.380 C  
BRANCH  11  12
HETATM   12  C   UNL     1      -9.992   9.329  66.430  1.00  0.00    -0.356 C  
BRANCH  12  13
HETATM   13  C   UNL     1      -9.018   9.383  65.260  1.00  0.00    -0.250 C  
BRANCH  13  14
HETATM   14  C   UNL     1      -9.568  10.191  64.084  1.00  0.00    -0.336 C  
BRANCH  14  15
HETATM   15  C   UNL     1     -10.758  11.094  64.425  1.00  0.00    -0.388 C  
BRANCH  15  16
HETATM   16  C   UNL     1     -10.472  12.579  64.188  1.00  0.00    -0.403 C  
BRANCH  16  17
HETATM   17  N   UNL     1     -10.649  13.451  65.444  1.00  0.00    -0.294 N  
HETATM   18  C   UNL     1      -9.452  13.305  66.375  1.00  0.00    -0.217 C  
HETATM   19  C   UNL     1     -10.811  14.920  65.054  1.00  0.00    -0.423 C  
BRANCH  17  20
HETATM   20  C   UNL     1     -11.955  12.962  66.165  1.00  0.00    -0.429 C  
BRANCH  20  21
HETATM   21  C   UNL     1     -11.831  12.842  67.663  1.00  0.00    -0.396 A  
HETATM   22  C   UNL     1     -11.729  11.579  68.271  1.00  0.00    -0.371 A  
HETATM   23  C   UNL     1     -11.890  11.448  69.650  1.00  0.00    -0.431 A  
HETATM   24  C   UNL     1     -12.117  12.577  70.435  1.00  0.00    -0.380 A  
HETATM   25  C   UNL     1     -12.125  13.841  69.854  1.00  0.00    -0.412 A  
HETATM   26  C   UNL     1     -11.957  13.977  68.477  1.00  0.00    -0.383 A  
ENDBRANCH  20  21
ENDBRANCH  17  20
ENDBRANCH  16  17
ENDBRANCH  15  16
ENDBRANCH  14  15
ENDBRANCH  13  14
ENDBRANCH  12  13
ENDBRANCH  11  12
ENDBRANCH  10  11
ENDBRANCH   9  10
ENDBRANCH   8   9
ENDBRANCH   7   8
ENDBRANCH   6   7
ENDBRANCH   5   6
ENDBRANCH   4   5
ENDBRANCH   3   4
ENDBRANCH   2   3
TORSDOF 17
ENDMDL
MODEL       57
REMARK 921   NORMALIZED FREE ENERGY PREDICTED BY IDOCK:   -4.21 KCAL/MOL
REMARK 922        TOTAL FREE ENERGY PREDICTED BY IDOCK:  -11.23 KCAL/MOL
REMARK 923 INTER-LIGAND FREE ENERGY PREDICTED BY IDOCK:   -8.49 KCAL/MOL
REMARK 924 INTRA-LIGAND FREE ENERGY PREDICTED BY IDOCK:   -2.74 KCAL/MOL
REMARK 927      BINDING AFFINITY PREDICTED BY RF-SCORE:    0.00 PKD
ROOT
HETATM    1  C   UNL     1     -13.393   9.869  72.017  1.00  0.00    -0.532 C  
HETATM    2  C   UNL     1     -13.169   8.370  71.920  1.00  0.00    -0.381 C  
ENDROOT
BRANCH   2   3
HETATM    3  C   UNL     1     -11.680   8.043  71.832  1.00  0.00    -0.351 C  
BRANCH   3   4
HETATM    4  C   UNL     1     -11.423   6.939  70.811  1.00  0.00    -0.381 C  
BRANCH   4   5
HETATM    5  C   UNL     1      -9.932   6.811  70.526  1.00  0.00    -0.197 C  
BRANCH   5   6
HETATM    6  C   UNL     1      -9.690   6.414  69.076  1.00  0.00    -0.145 C  
BRANCH   6   7
HETATM    7  C   UNL     1     -11.014   6.282  68.336  1.00  0.00    -0.409 C  
BRANCH   7   8
HETATM    8  C   UNL     1     -10.863   6.726  66.889  1.00  0.00    -0.402 C  
BRANCH   8   9
HETATM    9  C   UNL     1      -9.676   7.671  66.748  1.00  0.00    -0.290 C  
BRANCH   9  10
HETATM   10  C   UNL     1     -10.162   9.090  66.499  1.00  0.00    -0.318 C  
BRANCH  10  11
HETATM   11  C   UNL     1      -9.644  10.034  67.571  1.00  0.00    -0.178 C  
BRANCH  11  12
HETATM   12  C   UNL     1     -10.573  10.011  68.772  1.00  0.00    -0.241 C  
BRANCH  12  13
HETATM   13  C   UNL     1     -11.712  11.012  68.616  1.00  0.00    -0.367 C  
BRANCH  13  14
HETATM   14  C   UNL     1     -11.807  11.971  69.802  1.00  0.00    -0.401 C  
BRANCH  14  15
HETATM   15  C   UNL     1     -11.601  13.448  69.453  1.00  0.00    -0.365 C  
BRANCH  15  16
HETATM   16  C   UNL     1     -10.323  13.702  68.650  1.00  0.00    -0.219 C  
BRANCH  16  17
HETATM   17  N   UNL     1     -10.179  15.154  68.159  1.00  0.00    -0.225 N  
HETATM   18  C   UNL     1     -11.435  15.957  68.476  1.00  0.00    -0.377 C  
HETATM   19  C   UNL     1      -8.972  15.821  68.817  1.00  0.00    -0.214 C  
BRANCH  17  20
HETATM   20  C   UNL     1      -9.954  15.097  66.607  1.00  0.00    -0.251 C  
BRANCH  20  21
HETATM   21  C   UNL     1     -10.659  13.955  65.917  1.00  0.00    -0.293 A  
HETATM   22  C   UNL     1      -9.928  13.009  65.180  1.00  0.00    -0.170 A  
HETATM   23  C   UNL     1     -10.586  12.124  64.326  1.00  0.00    -0.385 A  
HETATM   24  C   UNL     1     -11.976  12.153  64.229  1.00  0.00    -0.466 A  
HETATM   25  C   UNL     1     -12.713  13.023  65.026  1.00  0.00    -0.475 A  
HETATM   26  C   UNL     1     -12.060  13.904  65.887  1.00  0.00    -0.459 A  
ENDBRANCH  20  21
ENDBRANCH  17  20
ENDBRANCH  16  17
ENDBRANCH  15  16
ENDBRANCH  14  15
ENDBRANCH  13  14
ENDBRANCH  12  13
ENDBRANCH  11  12
ENDBRANCH  10  11
ENDBRANCH   9  10
ENDBRANCH   8   9
ENDBRANCH   7   8
ENDBRANCH   6   7
ENDBRANCH   5   6
ENDBRANCH   4   5
ENDBRANCH   3   4
ENDBRANCH   2   3
TORSDOF 17
ENDMDL
MODEL       58
REMARK 921   NORMALIZED FREE ENERGY PREDICTED BY IDOCK:   -4.21 KCAL/MOL
REMARK 922        TOTAL FREE ENERGY PREDICTED BY IDOCK:  -11.23 KCAL/MOL
REMARK 923 INTER-LIGAND FREE ENERGY PREDICTED BY IDOCK:   -9.00 KCAL/MOL
REMARK 924 INTRA-LIGAND FREE ENERGY PREDICTED BY IDOCK:   -2.22 KCAL/MOL
REMARK 927      BINDING AFFINITY PREDICTED BY RF-SCORE:    0.00 PKD
ROOT
HETATM    1  C   UNL     1     -10.614   6.621  66.968  1.00  0.00    -0.404 C  
HETATM    2  C   UNL     1     -10.446   8.047  67.465  1.00  0.00    -0.331 C  
ENDROOT
BRANCH   2   3
HETATM    3  C   UNL     1     -10.473   8.102  68.990  1.00  0.00    -0.211 C  
BRANCH   3   4
HETATM    4  C   UNL     1     -10.795   6.732  69.581  1.00  0.00    -0.314 C  
BRANCH   4   5
HETATM    5  C   UNL     1     -10.971   6.829  71.091  1.00  0.00    -0.298 C  
BRANCH   5   6
HETATM    6  C   UNL     1     -12.338   7.402  71.440  1.00  0.00    -0.394 C  
BRANCH   6   7
HETATM    7  C   UNL     1     -12.190   8.797  72.033  1.00  0.00    -0.447 C  
BRANCH   7   8
HETATM    8  C   UNL     1     -13.459   9.607  71.812  1.00  0.00    -0.477 C  
BRANCH   8   9
HETATM    9  C   UNL     1     -13.126  11.090  71.701  1.00  0.00    -0.543 C  
BRANCH   9  10
HETATM   10  C   UNL     1     -12.071  11.311  70.628  1.00  0.00    -0.480 C  
BRANCH  10  11
HETATM   11  C   UNL     1     -12.006  12.776  70.231  1.00  0.00    -0.358 C  
BRANCH  11  12
HETATM   12  C   UNL     1     -12.700  13.626  71.281  1.00  0.00    -0.443 C  
BRANCH  12  13
HETATM   13  C   UNL     1     -12.568  15.113  70.972  1.00  0.00    -0.441 C  
BRANCH  13  14
HETATM   14  C   UNL     1     -12.009  15.368  69.572  1.00  0.00    -0.358 C  
BRANCH  14  15
HETATM   15  C   UNL     1     -10.912  16.434  69.501  1.00  0.00    -0.317 C  
BRANCH  15  16
HETATM   16  C   UNL     1     -10.577  16.856  68.068  1.00  0.00    -0.367 C  
BRANCH  16  17
HETATM   17  N   UNL     1      -9.102  16.636  67.688  1.00  0.00    -0.206 N  
HETATM   18  C   UNL     1      -8.461  17.943  67.236  1.00  0.00    -0.236 C  
HETATM   19  C   UNL     1      -8.324  16.075  68.877  1.00  0.00    -0.231 C  
BRANCH  17  20
HETATM   20  C   UNL     1      -9.078  15.592  66.517  1.00  0.00    -0.302 C  
BRANCH  20  21
HETATM   21  C   UNL     1      -9.870  14.336  66.786  1.00  0.00    -0.274 A  
HETATM   22  C   UNL     1      -9.270  13.237  67.421  1.00  0.00    -0.216 A  
HETATM   23  C   UNL     1      -9.905  11.995  67.425  1.00  0.00    -0.191 A  
HETATM   24  C   UNL     1     -11.156  11.851  66.829  1.00  0.00    -0.359 A  
HETATM   25  C   UNL     1     -11.800  12.956  66.281  1.00  0.00    -0.477 A  
HETATM   26  C   UNL     1     -11.172  14.200  66.282  1.00  0.00    -0.329 A  
ENDBRANCH  20  21
ENDBRANCH  17  20
ENDBRANCH  16  17
ENDBRANCH  15  16
ENDBRANCH  14  15
ENDBRANCH  13  14
ENDBRANCH  12  13
ENDBRANCH  11  12
ENDBRANCH  10  11
ENDBRANCH   9  10
ENDBRANCH   8   9
ENDBRANCH   7   8
ENDBRANCH   6   7
ENDBRANCH   5   6
ENDBRANCH   4   5
ENDBRANCH   3   4
ENDBRANCH   2   3
TORSDOF 17
ENDMDL
MODEL       59
REMARK 921   NORMALIZED FREE ENERGY PREDICTED BY IDOCK:   -4.20 KCAL/MOL
REMARK 922        TOTAL FREE ENERGY PREDICTED BY IDOCK:  -11.21 KCAL/MOL
REMARK 923 INTER-LIGAND FREE ENERGY PREDICTED BY IDOCK:   -9.25 KCAL/MOL
REMARK 924 INTRA-LIGAND FREE ENERGY PREDICTED BY IDOCK:   -1.96 KCAL/MOL
REMARK 927      BINDING AFFINITY PREDICTED BY RF-SCORE:    0.00 PKD
ROOT
HETATM    1  C   UNL     1     -13.552   9.311  72.117  1.00  0.00    -0.536 C  
HETATM    2  C   UNL     1     -12.949  10.213  71.054  1.00  0.00    -0.473 C  
ENDROOT
BRANCH   2   3
HETATM    3  C   UNL     1     -11.443   9.989  70.936  1.00  0.00    -0.452 C  
BRANCH   3   4
HETATM    4  C   UNL     1     -10.966  10.227  69.507  1.00  0.00    -0.300 C  
BRANCH   4   5
HETATM    5  C   UNL     1     -11.846  11.261  68.815  1.00  0.00    -0.396 C  
BRANCH   5   6
HETATM    6  C   UNL     1     -11.388  11.488  67.380  1.00  0.00    -0.367 C  
BRANCH   6   7
HETATM    7  C   UNL     1      -9.882  11.295  67.269  1.00  0.00    -0.203 C  
BRANCH   7   8
HETATM    8  C   UNL     1      -9.411  11.581  65.851  1.00  0.00    -0.242 C  
BRANCH   8   9
HETATM    9  C   UNL     1     -10.165  10.705  64.858  1.00  0.00    -0.395 C  
BRANCH   9  10
HETATM   10  C   UNL     1     -10.538  11.512  63.625  1.00  0.00    -0.491 C  
BRANCH  10  11
HETATM   11  C   UNL     1     -12.020  11.844  63.626  1.00  0.00    -0.578 C  
BRANCH  11  12
HETATM   12  C   UNL     1     -12.213  13.341  63.455  1.00  0.00    -0.476 C  
BRANCH  12  13
HETATM   13  C   UNL     1     -12.085  14.076  64.783  1.00  0.00    -0.455 C  
BRANCH  13  14
HETATM   14  C   UNL     1     -11.161  15.290  64.688  1.00  0.00    -0.346 C  
BRANCH  14  15
HETATM   15  C   UNL     1      -9.999  15.294  65.687  1.00  0.00    -0.397 C  
BRANCH  15  16
HETATM   16  C   UNL     1     -10.452  15.089  67.135  1.00  0.00    -0.277 C  
BRANCH  16  17
HETATM   17  N   UNL     1      -9.887  16.134  68.114  1.00  0.00    -0.225 N  
HETATM   18  C   UNL     1     -10.716  17.412  68.074  1.00  0.00    -0.359 C  
HETATM   19  C   UNL     1      -9.878  15.580  69.538  1.00  0.00    -0.284 C  
BRANCH  17  20
HETATM   20  C   UNL     1      -8.413  16.434  67.668  1.00  0.00    -0.169 C  
BRANCH  20  21
HETATM   21  C   UNL     1      -8.051  17.899  67.655  1.00  0.00    -0.224 A  
HETATM   22  C   UNL     1      -8.083  18.630  66.457  1.00  0.00    -0.301 A  
HETATM   23  C   UNL     1      -7.495  19.893  66.389  1.00  0.00    -0.303 A  
HETATM   24  C   UNL     1      -6.904  20.448  67.522  1.00  0.00    -0.327 A  
HETATM   25  C   UNL     1      -6.952  19.771  68.737  1.00  0.00    -0.366 A  
HETATM   26  C   UNL     1      -7.546  18.512  68.811  1.00  0.00    -0.308 A  
ENDBRANCH  20  21
ENDBRANCH  17  20
ENDBRANCH  16  17
ENDBRANCH  15  16
ENDBRANCH  14  15
ENDBRANCH  13  14
ENDBRANCH  12  13
ENDBRANCH  11  12
ENDBRANCH  10  11
ENDBRANCH   9  10
ENDBRANCH   8   9
ENDBRANCH   7   8
ENDBRANCH   6   7
ENDBRANCH   5   6
ENDBRANCH   4   5
ENDBRANCH   3   4
ENDBRANCH   2   3
TORSDOF 17
ENDMDL
MODEL       60
REMARK 921   NORMALIZED FREE ENERGY PREDICTED BY IDOCK:   -4.19 KCAL/MOL
REMARK 922        TOTAL FREE ENERGY PREDICTED BY IDOCK:  -11.20 KCAL/MOL
REMARK 923 INTER-LIGAND FREE ENERGY PREDICTED BY IDOCK:   -8.91 KCAL/MOL
REMARK 924 INTRA-LIGAND FREE ENERGY PREDICTED BY IDOCK:   -2.29 KCAL/MOL
REMARK 927      BINDING AFFINITY PREDICTED BY RF-SCORE:    0.00 PKD
ROOT
HETATM    1  C   UNL     1      -8.235   9.731  67.931  1.00  0.00    -0.113 C  
HETATM    2  C   UNL     1      -8.963  10.005  66.626  1.00  0.00    -0.156 C  
ENDROOT
BRANCH   2   3
HETATM    3  C   UNL     1     -10.082   8.992  66.400  1.00  0.00    -0.351 C  
BRANCH   3   4
HETATM    4  C   UNL     1      -9.684   7.613  66.919  1.00  0.00    -0.277 C  
BRANCH   4   5
HETATM    5  C   UNL     1     -10.918   6.822  67.335  1.00  0.00    -0.407 C  
BRANCH   5   6
HETATM    6  C   UNL     1     -10.636   5.995  68.582  1.00  0.00    -0.327 C  
BRANCH   6   7
HETATM    7  C   UNL     1     -11.487   6.486  69.746  1.00  0.00    -0.443 C  
BRANCH   7   8
HETATM    8  C   UNL     1     -10.695   6.433  71.044  1.00  0.00    -0.301 C  
BRANCH   8   9
HETATM    9  C   UNL     1     -11.552   6.921  72.205  1.00  0.00    -0.322 C  
BRANCH   9  10
HETATM   10  C   UNL     1     -12.708   7.762  71.687  1.00  0.00    -0.358 C  
BRANCH  10  11
HETATM   11  C   UNL     1     -12.677   9.154  72.292  1.00  0.00    -0.447 C  
BRANCH  11  12
HETATM   12  C   UNL     1     -12.839  10.196  71.198  1.00  0.00    -0.494 C  
BRANCH  12  13
HETATM   13  C   UNL     1     -11.538  10.408  70.434  1.00  0.00    -0.423 C  
BRANCH  13  14
HETATM   14  C   UNL     1     -11.767  11.059  69.069  1.00  0.00    -0.402 C  
BRANCH  14  15
HETATM   15  C   UNL     1     -10.923  12.309  68.803  1.00  0.00    -0.277 C  
BRANCH  15  16
HETATM   16  C   UNL     1     -11.757  13.591  68.730  1.00  0.00    -0.337 C  
BRANCH  16  17
HETATM   17  N   UNL     1     -10.918  14.863  68.508  1.00  0.00    -0.246 N  
HETATM   18  C   UNL     1     -11.200  15.891  69.597  1.00  0.00    -0.331 C  
HETATM   19  C   UNL     1      -9.428  14.523  68.506  1.00  0.00    -0.211 C  
BRANCH  17  20
HETATM   20  C   UNL     1     -11.318  15.440  67.105  1.00  0.00    -0.203 C  
BRANCH  20  21
HETATM   21  C   UNL     1     -11.416  14.407  66.010  1.00  0.00    -0.349 A  
HETATM   22  C   UNL     1     -12.649  13.809  65.703  1.00  0.00    -0.551 A  
HETATM   23  C   UNL     1     -12.698  12.673  64.895  1.00  0.00    -0.450 A  
HETATM   24  C   UNL     1     -11.523  12.149  64.361  1.00  0.00    -0.417 A  
HETATM   25  C   UNL     1     -10.308  12.789  64.582  1.00  0.00    -0.362 A  
HETATM   26  C   UNL     1     -10.256  13.929  65.383  1.00  0.00    -0.356 A  
ENDBRANCH  20  21
ENDBRANCH  17  20
ENDBRANCH  16  17
ENDBRANCH  15  16
ENDBRANCH  14  15
ENDBRANCH  13  14
ENDBRANCH  12  13
ENDBRANCH  11  12
ENDBRANCH  10  11
ENDBRANCH   9  10
ENDBRANCH   8   9
ENDBRANCH   7   8
ENDBRANCH   6   7
ENDBRANCH   5   6
ENDBRANCH   4   5
ENDBRANCH   3   4
ENDBRANCH   2   3
TORSDOF 17
ENDMDL
MODEL       61
REMARK 921   NORMALIZED FREE ENERGY PREDICTED BY IDOCK:   -4.19 KCAL/MOL
REMARK 922        TOTAL FREE ENERGY PREDICTED BY IDOCK:  -11.19 KCAL/MOL
REMARK 923 INTER-LIGAND FREE ENERGY PREDICTED BY IDOCK:   -9.09 KCAL/MOL
REMARK 924 INTRA-LIGAND FREE ENERGY PREDICTED BY IDOCK:   -2.09 KCAL/MOL
REMARK 927      BINDING AFFINITY PREDICTED BY RF-SCORE:    0.00 PKD
ROOT
HETATM    1  C   UNL     1     -11.946  12.296  63.581  1.00  0.00    -0.633 C  
HETATM    2  C   UNL     1     -11.812  12.668  65.048  1.00  0.00    -0.439 C  
ENDROOT
BRANCH   2   3
HETATM    3  C   UNL     1     -12.337  14.078  65.305  1.00  0.00    -0.480 C  
BRANCH   3   4
HETATM    4  C   UNL     1     -11.305  15.128  64.902  1.00  0.00    -0.402 C  
BRANCH   4   5
HETATM    5  C   UNL     1      -9.933  14.767  65.457  1.00  0.00    -0.390 C  
BRANCH   5   6
HETATM    6  C   UNL     1      -9.278  15.977  66.110  1.00  0.00    -0.388 C  
BRANCH   6   7
HETATM    7  C   UNL     1      -9.137  15.756  67.610  1.00  0.00    -0.193 C  
BRANCH   7   8
HETATM    8  C   UNL     1      -9.289  17.072  68.359  1.00  0.00    -0.266 C  
BRANCH   8   9
HETATM    9  C   UNL     1     -10.732  17.260  68.809  1.00  0.00    -0.247 C  
BRANCH   9  10
HETATM   10  C   UNL     1     -11.515  15.971  68.615  1.00  0.00    -0.377 C  
BRANCH  10  11
HETATM   11  C   UNL     1     -12.150  15.523  69.920  1.00  0.00    -0.378 C  
BRANCH  11  12
HETATM   12  C   UNL     1     -12.377  14.021  69.894  1.00  0.00    -0.367 C  
BRANCH  12  13
HETATM   13  C   UNL     1     -11.464  13.336  68.884  1.00  0.00    -0.342 C  
BRANCH  13  14
HETATM   14  C   UNL     1     -11.678  11.823  68.842  1.00  0.00    -0.384 C  
BRANCH  14  15
HETATM   15  C   UNL     1     -10.425  11.005  68.515  1.00  0.00    -0.210 C  
BRANCH  15  16
HETATM   16  C   UNL     1     -10.571   9.520  68.856  1.00  0.00    -0.216 C  
BRANCH  16  17
HETATM   17  N   UNL     1      -9.448   8.980  69.760  1.00  0.00    -0.168 N  
HETATM   18  C   UNL     1      -9.019   7.588  69.314  1.00  0.00    -0.136 C  
HETATM   19  C   UNL     1      -8.241   9.917  69.726  1.00  0.00    -0.180 C  
BRANCH  17  20
HETATM   20  C   UNL     1     -10.017   8.926  71.222  1.00  0.00    -0.288 C  
BRANCH  20  21
HETATM   21  C   UNL     1     -11.519   8.806  71.302  1.00  0.00    -0.355 A  
HETATM   22  C   UNL     1     -12.303   9.909  71.677  1.00  0.00    -0.496 A  
HETATM   23  C   UNL     1     -13.645   9.734  72.015  1.00  0.00    -0.436 A  
HETATM   24  C   UNL     1     -14.221   8.467  71.946  1.00  0.00    -0.541 A  
HETATM   25  C   UNL     1     -13.477   7.386  71.484  1.00  0.00    -0.445 A  
HETATM   26  C   UNL     1     -12.138   7.558  71.138  1.00  0.00    -0.335 A  
ENDBRANCH  20  21
ENDBRANCH  17  20
ENDBRANCH  16  17
ENDBRANCH  15  16
ENDBRANCH  14  15
ENDBRANCH  13  14
ENDBRANCH  12  13
ENDBRANCH  11  12
ENDBRANCH  10  11
ENDBRANCH   9  10
ENDBRANCH   8   9
ENDBRANCH   7   8
ENDBRANCH   6   7
ENDBRANCH   5   6
ENDBRANCH   4   5
ENDBRANCH   3   4
ENDBRANCH   2   3
TORSDOF 17
ENDMDL
MODEL       62
REMARK 921   NORMALIZED FREE ENERGY PREDICTED BY IDOCK:   -4.17 KCAL/MOL
REMARK 922        TOTAL FREE ENERGY PREDICTED BY IDOCK:  -11.15 KCAL/MOL
REMARK 923 INTER-LIGAND FREE ENERGY PREDICTED BY IDOCK:   -8.60 KCAL/MOL
REMARK 924 INTRA-LIGAND FREE ENERGY PREDICTED BY IDOCK:   -2.55 KCAL/MOL
REMARK 927      BINDING AFFINITY PREDICTED BY RF-SCORE:    0.00 PKD
ROOT
HETATM    1  C   UNL     1     -10.654   5.343  66.332  1.00  0.00    -0.322 C  
HETATM    2  C   UNL     1     -10.778   6.531  67.270  1.00  0.00    -0.427 C  
ENDROOT
BRANCH   2   3
HETATM    3  C   UNL     1      -9.434   6.862  67.915  1.00  0.00    -0.120 C  
BRANCH   3   4
HETATM    4  C   UNL     1      -9.505   6.712  69.432  1.00  0.00    -0.146 C  
BRANCH   4   5
HETATM    5  C   UNL     1     -10.895   6.259  69.860  1.00  0.00    -0.399 C  
BRANCH   5   6
HETATM    6  C   UNL     1     -10.847   5.578  71.221  1.00  0.00    -0.250 C  
BRANCH   6   7
HETATM    7  C   UNL     1     -11.166   6.578  72.324  1.00  0.00    -0.308 C  
BRANCH   7   8
HETATM    8  C   UNL     1     -12.476   7.293  72.033  1.00  0.00    -0.276 C  
BRANCH   8   9
HETATM    9  C   UNL     1     -12.327   8.790  72.275  1.00  0.00    -0.448 C  
BRANCH   9  10
HETATM   10  C   UNL     1     -13.329   9.560  71.430  1.00  0.00    -0.435 C  
BRANCH  10  11
HETATM   11  C   UNL     1     -12.622  10.356  70.346  1.00  0.00    -0.329 C  
BRANCH  11  12
HETATM   12  C   UNL     1     -11.118  10.274  70.545  1.00  0.00    -0.381 C  
BRANCH  12  13
HETATM   13  C   UNL     1     -10.384  10.163  69.214  1.00  0.00    -0.242 C  
BRANCH  13  14
HETATM   14  C   UNL     1     -11.279  10.519  68.027  1.00  0.00    -0.361 C  
BRANCH  14  15
HETATM   15  C   UNL     1     -10.548  11.150  66.838  1.00  0.00    -0.304 C  
BRANCH  15  16
HETATM   16  C   UNL     1     -11.393  12.192  66.098  1.00  0.00    -0.361 C  
BRANCH  16  17
HETATM   17  N   UNL     1     -10.804  13.613  66.147  1.00  0.00    -0.278 N  
HETATM   18  C   UNL     1      -9.505  13.632  66.944  1.00  0.00    -0.262 C  
HETATM   19  C   UNL     1     -10.537  14.128  64.733  1.00  0.00    -0.418 C  
BRANCH  17  20
HETATM   20  C   UNL     1     -11.872  14.532  66.837  1.00  0.00    -0.377 C  
BRANCH  20  21
HETATM   21  C   UNL     1     -11.682  14.701  68.324  1.00  0.00    -0.359 A  
HETATM   22  C   UNL     1     -12.270  13.797  69.225  1.00  0.00    -0.307 A  
HETATM   23  C   UNL     1     -12.328  14.099  70.586  1.00  0.00    -0.435 A  
HETATM   24  C   UNL     1     -11.769  15.284  71.060  1.00  0.00    -0.394 A  
HETATM   25  C   UNL     1     -11.101  16.139  70.189  1.00  0.00    -0.373 A  
HETATM   26  C   UNL     1     -11.034  15.837  68.830  1.00  0.00    -0.291 A  
ENDBRANCH  20  21
ENDBRANCH  17  20
ENDBRANCH  16  17
ENDBRANCH  15  16
ENDBRANCH  14  15
ENDBRANCH  13  14
ENDBRANCH  12  13
ENDBRANCH  11  12
ENDBRANCH  10  11
ENDBRANCH   9  10
ENDBRANCH   8   9
ENDBRANCH   7   8
ENDBRANCH   6   7
ENDBRANCH   5   6
ENDBRANCH   4   5
ENDBRANCH   3   4
ENDBRANCH   2   3
TORSDOF 17
ENDMDL
MODEL       63
REMARK 921   NORMALIZED FREE ENERGY PREDICTED BY IDOCK:   -4.17 KCAL/MOL
REMARK 922        TOTAL FREE ENERGY PREDICTED BY IDOCK:  -11.15 KCAL/MOL
REMARK 923 INTER-LIGAND FREE ENERGY PREDICTED BY IDOCK:   -9.33 KCAL/MOL
REMARK 924 INTRA-LIGAND FREE ENERGY PREDICTED BY IDOCK:   -1.81 KCAL/MOL
REMARK 927      BINDING AFFINITY PREDICTED BY RF-SCORE:    0.00 PKD
ROOT
HETATM    1  C   UNL     1     -11.247  12.070  65.379  1.00  0.00    -0.374 C  
HETATM    2  C   UNL     1     -11.919  13.394  65.698  1.00  0.00    -0.439 C  
ENDROOT
BRANCH   2   3
HETATM    3  C   UNL     1     -12.108  13.563  67.203  1.00  0.00    -0.386 C  
BRANCH   3   4
HETATM    4  C   UNL     1     -11.335  14.774  67.718  1.00  0.00    -0.344 C  
BRANCH   4   5
HETATM    5  C   UNL     1     -11.978  15.319  68.987  1.00  0.00    -0.304 C  
BRANCH   5   6
HETATM    6  C   UNL     1     -10.920  15.636  70.036  1.00  0.00    -0.336 C  
BRANCH   6   7
HETATM    7  C   UNL     1     -11.580  15.975  71.366  1.00  0.00    -0.520 C  
BRANCH   7   8
HETATM    8  C   UNL     1     -13.023  15.496  71.382  1.00  0.00    -0.553 C  
BRANCH   8   9
HETATM    9  C   UNL     1     -13.336  14.806  72.704  1.00  0.00    -0.559 C  
BRANCH   9  10
HETATM   10  C   UNL     1     -13.868  13.405  72.451  1.00  0.00    -0.665 C  
BRANCH  10  11
HETATM   11  C   UNL     1     -12.915  12.616  71.569  1.00  0.00    -0.380 C  
BRANCH  11  12
HETATM   12  C   UNL     1     -13.159  11.128  71.749  1.00  0.00    -0.536 C  
BRANCH  12  13
HETATM   13  C   UNL     1     -12.413  10.309  70.702  1.00  0.00    -0.407 C  
BRANCH  13  14
HETATM   14  C   UNL     1     -11.590  11.186  69.758  1.00  0.00    -0.409 C  
BRANCH  14  15
HETATM   15  C   UNL     1     -10.546  10.434  68.928  1.00  0.00    -0.241 C  
BRANCH  15  16
HETATM   16  C   UNL     1     -10.225   9.044  69.485  1.00  0.00    -0.203 C  
BRANCH  16  17
HETATM   17  N   UNL     1      -9.928   7.996  68.397  1.00  0.00    -0.179 N  
HETATM   18  C   UNL     1     -10.314   8.523  67.021  1.00  0.00    -0.309 C  
HETATM   19  C   UNL     1      -8.444   7.631  68.401  1.00  0.00    -0.125 C  
BRANCH  17  20
HETATM   20  C   UNL     1     -10.773   6.720  68.742  1.00  0.00    -0.239 C  
BRANCH  20  21
HETATM   21  C   UNL     1     -10.934   6.460  70.220  1.00  0.00    -0.378 A  
HETATM   22  C   UNL     1      -9.926   5.799  70.941  1.00  0.00    -0.243 A  
HETATM   23  C   UNL     1     -10.181   5.319  72.226  1.00  0.00    -0.250 A  
HETATM   24  C   UNL     1     -11.429   5.524  72.810  1.00  0.00    -0.339 A  
HETATM   25  C   UNL     1     -12.402   6.260  72.141  1.00  0.00    -0.193 A  
HETATM   26  C   UNL     1     -12.148   6.749  70.860  1.00  0.00    -0.421 A  
ENDBRANCH  20  21
ENDBRANCH  17  20
ENDBRANCH  16  17
ENDBRANCH  15  16
ENDBRANCH  14  15
ENDBRANCH  13  14
ENDBRANCH  12  13
ENDBRANCH  11  12
ENDBRANCH  10  11
ENDBRANCH   9  10
ENDBRANCH   8   9
ENDBRANCH   7   8
ENDBRANCH   6   7
ENDBRANCH   5   6
ENDBRANCH   4   5
ENDBRANCH   3   4
ENDBRANCH   2   3
TORSDOF 17
ENDMDL
MODEL       64
REMARK 921   NORMALIZED FREE ENERGY PREDICTED BY IDOCK:   -4.16 KCAL/MOL
REMARK 922        TOTAL FREE ENERGY PREDICTED BY IDOCK:  -11.14 KCAL/MOL
REMARK 923 INTER-LIGAND FREE ENERGY PREDICTED BY IDOCK:   -8.63 KCAL/MOL
REMARK 924 INTRA-LIGAND FREE ENERGY PREDICTED BY IDOCK:   -2.51 KCAL/MOL
REMARK 927      BINDING AFFINITY PREDICTED BY RF-SCORE:    0.00 PKD
ROOT
HETATM    1  C   UNL     1     -13.887  13.669  72.317  1.00  0.00    -0.689 C  
HETATM    2  C   UNL     1     -12.826  13.618  71.232  1.00  0.00    -0.424 C  
ENDROOT
BRANCH   2   3
HETATM    3  C   UNL     1     -12.618  12.190  70.735  1.00  0.00    -0.305 C  
BRANCH   3   4
HETATM    4  C   UNL     1     -13.240  11.181  71.697  1.00  0.00    -0.449 C  
BRANCH   4   5
HETATM    5  C   UNL     1     -13.373   9.818  71.029  1.00  0.00    -0.301 C  
BRANCH   5   6
HETATM    6  C   UNL     1     -13.529   8.718  72.071  1.00  0.00    -0.461 C  
BRANCH   6   7
HETATM    7  C   UNL     1     -13.616   7.357  71.394  1.00  0.00    -0.410 C  
BRANCH   7   8
HETATM    8  C   UNL     1     -12.226   6.838  71.060  1.00  0.00    -0.405 C  
BRANCH   8   9
HETATM    9  C   UNL     1     -11.366   6.786  72.316  1.00  0.00    -0.310 C  
BRANCH   9  10
HETATM   10  C   UNL     1      -9.927   7.148  71.982  1.00  0.00    -0.178 C  
BRANCH  10  11
HETATM   11  C   UNL     1      -9.769   8.652  71.838  1.00  0.00    -0.383 C  
BRANCH  11  12
HETATM   12  C   UNL     1      -9.078   8.974  70.524  1.00  0.00    -0.259 C  
BRANCH  12  13
HETATM   13  C   UNL     1      -9.924   9.903  69.661  1.00  0.00    -0.255 C  
BRANCH  13  14
HETATM   14  C   UNL     1     -10.644   9.156  68.538  1.00  0.00    -0.209 C  
BRANCH  14  15
HETATM   15  C   UNL     1      -9.721   8.436  67.550  1.00  0.00    -0.209 C  
BRANCH  15  16
HETATM   16  C   UNL     1      -9.863   8.949  66.114  1.00  0.00    -0.256 C  
BRANCH  16  17
HETATM   17  N   UNL     1      -8.542   9.453  65.504  1.00  0.00    -0.142 N  
HETATM   18  C   UNL     1      -7.362   9.087  66.396  1.00  0.00    -0.088 C  
HETATM   19  C   UNL     1      -8.333   8.850  64.116  1.00  0.00    -0.163 C  
BRANCH  17  20
HETATM   20  C   UNL     1      -8.658  11.013  65.377  1.00  0.00    -0.068 C  
BRANCH  20  21
HETATM   21  C   UNL     1     -10.074  11.528  65.300  1.00  0.00    -0.314 A  
HETATM   22  C   UNL     1     -10.754  11.561  64.071  1.00  0.00    -0.445 A  
HETATM   23  C   UNL     1     -11.943  12.279  63.946  1.00  0.00    -0.582 A  
HETATM   24  C   UNL     1     -12.478  12.938  65.050  1.00  0.00    -0.553 A  
HETATM   25  C   UNL     1     -11.861  12.833  66.293  1.00  0.00    -0.485 A  
HETATM   26  C   UNL     1     -10.677  12.109  66.425  1.00  0.00    -0.292 A  
ENDBRANCH  20  21
ENDBRANCH  17  20
ENDBRANCH  16  17
ENDBRANCH  15  16
ENDBRANCH  14  15
ENDBRANCH  13  14
ENDBRANCH  12  13
ENDBRANCH  11  12
ENDBRANCH  10  11
ENDBRANCH   9  10
ENDBRANCH   8   9
ENDBRANCH   7   8
ENDBRANCH   6   7
ENDBRANCH   5   6
ENDBRANCH   4   5
ENDBRANCH   3   4
ENDBRANCH   2   3
TORSDOF 17
ENDMDL
MODEL       65
REMARK 921   NORMALIZED FREE ENERGY PREDICTED BY IDOCK:   -4.16 KCAL/MOL
REMARK 922        TOTAL FREE ENERGY PREDICTED BY IDOCK:  -11.14 KCAL/MOL
REMARK 923 INTER-LIGAND FREE ENERGY PREDICTED BY IDOCK:   -8.81 KCAL/MOL
REMARK 924 INTRA-LIGAND FREE ENERGY PREDICTED BY IDOCK:   -2.33 KCAL/MOL
REMARK 927      BINDING AFFINITY PREDICTED BY RF-SCORE:    0.00 PKD
ROOT
HETATM    1  C   UNL     1     -12.207  15.552  71.664  1.00  0.00    -0.468 C  
HETATM    2  C   UNL     1     -13.714  15.385  71.575  1.00  0.00    -0.601 C  
ENDROOT
BRANCH   2   3
HETATM    3  C   UNL     1     -14.161  14.081  72.231  1.00  0.00    -0.599 C  
BRANCH   3   4
HETATM    4  C   UNL     1     -12.993  13.109  72.364  1.00  0.00    -0.292 C  
BRANCH   4   5
HETATM    5  C   UNL     1     -13.339  11.767  71.732  1.00  0.00    -0.342 C  
BRANCH   5   6
HETATM    6  C   UNL     1     -12.162  11.226  70.931  1.00  0.00    -0.460 C  
BRANCH   6   7
HETATM    7  C   UNL     1     -12.249  11.692  69.484  1.00  0.00    -0.257 C  
BRANCH   7   8
HETATM    8  C   UNL     1     -11.002  12.474  69.101  1.00  0.00    -0.198 C  
BRANCH   8   9
HETATM    9  C   UNL     1     -11.387  13.776  68.409  1.00  0.00    -0.326 C  
BRANCH   9  10
HETATM   10  C   UNL     1     -12.063  13.483  67.079  1.00  0.00    -0.401 C  
BRANCH  10  11
HETATM   11  C   UNL     1     -11.867  14.635  66.109  1.00  0.00    -0.282 C  
BRANCH  11  12
HETATM   12  C   UNL     1     -12.253  14.199  64.706  1.00  0.00    -0.457 C  
BRANCH  12  13
HETATM   13  C   UNL     1     -12.594  12.714  64.657  1.00  0.00    -0.517 C  
BRANCH  13  14
HETATM   14  C   UNL     1     -11.740  11.956  63.641  1.00  0.00    -0.572 C  
BRANCH  14  15
HETATM   15  C   UNL     1     -10.249  11.882  63.982  1.00  0.00    -0.394 C  
BRANCH  15  16
HETATM   16  C   UNL     1      -9.754  10.450  64.203  1.00  0.00    -0.324 C  
BRANCH  16  17
HETATM   17  N   UNL     1      -9.303  10.168  65.648  1.00  0.00    -0.183 N  
HETATM   18  C   UNL     1      -8.300   9.022  65.686  1.00  0.00    -0.132 C  
HETATM   19  C   UNL     1      -8.668  11.416  66.260  1.00  0.00    -0.173 C  
BRANCH  17  20
HETATM   20  C   UNL     1     -10.587   9.789  66.467  1.00  0.00    -0.080 C  
BRANCH  20  21
HETATM   21  C   UNL     1     -10.382   8.681  67.470  1.00  0.00    -0.336 A  
HETATM   22  C   UNL     1     -10.758   7.363  67.162  1.00  0.00    -0.400 A  
HETATM   23  C   UNL     1     -10.825   6.399  68.168  1.00  0.00    -0.386 A  
HETATM   24  C   UNL     1     -10.484   6.733  69.477  1.00  0.00    -0.248 A  
HETATM   25  C   UNL     1     -10.020   8.011  69.772  1.00  0.00    -0.191 A  
HETATM   26  C   UNL     1      -9.943   8.975  68.769  1.00  0.00    -0.194 A  
ENDBRANCH  20  21
ENDBRANCH  17  20
ENDBRANCH  16  17
ENDBRANCH  15  16
ENDBRANCH  14  15
ENDBRANCH  13  14
ENDBRANCH  12  13
ENDBRANCH  11  12
ENDBRANCH  10  11
ENDBRANCH   9  10
ENDBRANCH   8   9
ENDBRANCH   7   8
ENDBRANCH   6   7
ENDBRANCH   5   6
ENDBRANCH   4   5
ENDBRANCH   3   4
ENDBRANCH   2   3
TORSDOF 17
ENDMDL
MODEL       66
REMARK 921   NORMALIZED FREE ENERGY PREDICTED BY IDOCK:   -4.14 KCAL/MOL
REMARK 922        TOTAL FREE ENERGY PREDICTED BY IDOCK:  -11.10 KCAL/MOL
REMARK 923 INTER-LIGAND FREE ENERGY PREDICTED BY IDOCK:   -8.42 KCAL/MOL
REMARK 924 INTRA-LIGAND FREE ENERGY PREDICTED BY IDOCK:   -2.68 KCAL/MOL
REMARK 927      BINDING AFFINITY PREDICTED BY RF-SCORE:    0.00 PKD
ROOT
HETATM    1  C   UNL     1     -10.468   5.089  66.587  1.00  0.00    -0.301 C  
HETATM    2  C   UNL     1     -10.920   6.001  67.715  1.00  0.00    -0.333 C  
ENDROOT
BRANCH   2   3
HETATM    3  C   UNL     1     -10.781   7.469  67.320  1.00  0.00    -0.365 C  
BRANCH   3   4
HETATM    4  C   UNL     1      -9.971   8.239  68.359  1.00  0.00    -0.211 C  
BRANCH   4   5
HETATM    5  C   UNL     1      -9.289   7.278  69.325  1.00  0.00    -0.154 C  
BRANCH   5   6
HETATM    6  C   UNL     1      -9.060   7.941  70.677  1.00  0.00    -0.153 C  
BRANCH   6   7
HETATM    7  C   UNL     1      -9.493   7.010  71.802  1.00  0.00    -0.157 C  
BRANCH   7   8
HETATM    8  C   UNL     1     -10.564   6.047  71.314  1.00  0.00    -0.302 C  
BRANCH   8   9
HETATM    9  C   UNL     1     -11.894   6.348  71.993  1.00  0.00    -0.382 C  
BRANCH   9  10
HETATM   10  C   UNL     1     -12.720   7.292  71.134  1.00  0.00    -0.349 C  
BRANCH  10  11
HETATM   11  C   UNL     1     -13.136   8.520  71.926  1.00  0.00    -0.391 C  
BRANCH  11  12
HETATM   12  C   UNL     1     -12.154   9.651  71.676  1.00  0.00    -0.481 C  
BRANCH  12  13
HETATM   13  C   UNL     1     -12.560  10.485  70.466  1.00  0.00    -0.423 C  
BRANCH  13  14
HETATM   14  C   UNL     1     -11.363  11.167  69.804  1.00  0.00    -0.354 C  
BRANCH  14  15
HETATM   15  C   UNL     1     -11.655  12.550  69.216  1.00  0.00    -0.378 C  
BRANCH  15  16
HETATM   16  C   UNL     1     -10.413  13.230  68.632  1.00  0.00    -0.228 C  
BRANCH  16  17
HETATM   17  N   UNL     1     -10.711  14.119  67.411  1.00  0.00    -0.282 N  
HETATM   18  C   UNL     1     -11.470  15.372  67.829  1.00  0.00    -0.278 C  
HETATM   19  C   UNL     1      -9.411  14.522  66.717  1.00  0.00    -0.261 C  
BRANCH  17  20
HETATM   20  C   UNL     1     -11.581  13.267  66.421  1.00  0.00    -0.347 C  
BRANCH  20  21
HETATM   21  C   UNL     1     -10.784  12.390  65.487  1.00  0.00    -0.315 A  
HETATM   22  C   UNL     1     -10.634  12.741  64.135  1.00  0.00    -0.441 A  
HETATM   23  C   UNL     1     -10.140  11.812  63.219  1.00  0.00    -0.448 A  
HETATM   24  C   UNL     1      -9.761  10.543  63.651  1.00  0.00    -0.375 A  
HETATM   25  C   UNL     1      -9.817  10.219  65.002  1.00  0.00    -0.397 A  
HETATM   26  C   UNL     1     -10.302  11.147  65.922  1.00  0.00    -0.314 A  
ENDBRANCH  20  21
ENDBRANCH  17  20
ENDBRANCH  16  17
ENDBRANCH  15  16
ENDBRANCH  14  15
ENDBRANCH  13  14
ENDBRANCH  12  13
ENDBRANCH  11  12
ENDBRANCH  10  11
ENDBRANCH   9  10
ENDBRANCH   8   9
ENDBRANCH   7   8
ENDBRANCH   6   7
ENDBRANCH   5   6
ENDBRANCH   4   5
ENDBRANCH   3   4
ENDBRANCH   2   3
TORSDOF 17
ENDMDL
MODEL       67
REMARK 921   NORMALIZED FREE ENERGY PREDICTED BY IDOCK:   -4.14 KCAL/MOL
REMARK 922        TOTAL FREE ENERGY PREDICTED BY IDOCK:  -11.09 KCAL/MOL
REMARK 923 INTER-LIGAND FREE ENERGY PREDICTED BY IDOCK:   -8.18 KCAL/MOL
REMARK 924 INTRA-LIGAND FREE ENERGY PREDICTED BY IDOCK:   -2.91 KCAL/MOL
REMARK 927      BINDING AFFINITY PREDICTED BY RF-SCORE:    0.00 PKD
ROOT
HETATM    1  C   UNL     1     -11.758  11.850  63.607  1.00  0.00    -0.572 C  
HETATM    2  C   UNL     1     -12.622  12.662  64.557  1.00  0.00    -0.491 C  
ENDROOT
BRANCH   2   3
HETATM    3  C   UNL     1     -11.968  14.002  64.882  1.00  0.00    -0.416 C  
BRANCH   3   4
HETATM    4  C   UNL     1     -10.446  13.886  64.862  1.00  0.00    -0.446 C  
BRANCH   4   5
HETATM    5  C   UNL     1      -9.821  14.897  65.815  1.00  0.00    -0.380 C  
BRANCH   5   6
HETATM    6  C   UNL     1     -10.746  15.176  66.992  1.00  0.00    -0.307 C  
BRANCH   6   7
HETATM    7  C   UNL     1     -10.270  14.424  68.227  1.00  0.00    -0.241 C  
BRANCH   7   8
HETATM    8  C   UNL     1     -11.443  13.759  68.932  1.00  0.00    -0.344 C  
BRANCH   8   9
HETATM    9  C   UNL     1     -11.778  12.432  68.262  1.00  0.00    -0.398 C  
BRANCH   9  10
HETATM   10  C   UNL     1     -10.503  11.662  67.959  1.00  0.00    -0.217 C  
BRANCH  10  11
HETATM   11  C   UNL     1     -10.774  10.537  66.975  1.00  0.00    -0.310 C  
BRANCH  11  12
HETATM   12  C   UNL     1      -9.708   9.463  67.114  1.00  0.00    -0.225 C  
BRANCH  12  13
HETATM   13  C   UNL     1      -8.690   9.823  68.190  1.00  0.00    -0.119 C  
BRANCH  13  14
HETATM   14  C   UNL     1      -7.677   8.703  68.428  1.00  0.00    -0.100 C  
BRANCH  14  15
HETATM   15  C   UNL     1      -7.972   7.816  69.641  1.00  0.00    -0.116 C  
BRANCH  15  16
HETATM   16  C   UNL     1      -8.733   6.538  69.280  1.00  0.00    -0.130 C  
BRANCH  16  17
HETATM   17  N   UNL     1     -10.070   6.382  70.026  1.00  0.00    -0.169 N  
HETATM   18  C   UNL     1     -11.244   6.634  69.087  1.00  0.00    -0.242 C  
HETATM   19  C   UNL     1     -10.189   4.979  70.619  1.00  0.00    -0.235 C  
BRANCH  17  20
HETATM   20  C   UNL     1     -10.075   7.436  71.189  1.00  0.00    -0.186 C  
BRANCH  20  21
HETATM   21  C   UNL     1     -11.289   8.331  71.213  1.00  0.00    -0.308 A  
HETATM   22  C   UNL     1     -11.179   9.690  70.875  1.00  0.00    -0.422 A  
HETATM   23  C   UNL     1     -12.223  10.571  71.156  1.00  0.00    -0.496 A  
HETATM   24  C   UNL     1     -13.395  10.097  71.743  1.00  0.00    -0.485 A  
HETATM   25  C   UNL     1     -13.549   8.737  71.994  1.00  0.00    -0.469 A  
HETATM   26  C   UNL     1     -12.511   7.852  71.707  1.00  0.00    -0.352 A  
ENDBRANCH  20  21
ENDBRANCH  17  20
ENDBRANCH  16  17
ENDBRANCH  15  16
ENDBRANCH  14  15
ENDBRANCH  13  14
ENDBRANCH  12  13
ENDBRANCH  11  12
ENDBRANCH  10  11
ENDBRANCH   9  10
ENDBRANCH   8   9
ENDBRANCH   7   8
ENDBRANCH   6   7
ENDBRANCH   5   6
ENDBRANCH   4   5
ENDBRANCH   3   4
ENDBRANCH   2   3
TORSDOF 17
ENDMDL
MODEL       68
REMARK 921   NORMALIZED FREE ENERGY PREDICTED BY IDOCK:   -4.13 KCAL/MOL
REMARK 922        TOTAL FREE ENERGY PREDICTED BY IDOCK:  -11.08 KCAL/MOL
REMARK 923 INTER-LIGAND FREE ENERGY PREDICTED BY IDOCK:   -8.12 KCAL/MOL
REMARK 924 INTRA-LIGAND FREE ENERGY PREDICTED BY IDOCK:   -2.97 KCAL/MOL
REMARK 927      BINDING AFFINITY PREDICTED BY RF-SCORE:    0.00 PKD
ROOT
HETATM    1  C   UNL     1     -10.733   5.594  69.811  1.00  0.00    -0.401 C  
HETATM    2  C   UNL     1     -10.276   6.578  70.875  1.00  0.00    -0.220 C  
ENDROOT
BRANCH   2   3
HETATM    3  C   UNL     1     -11.392   6.858  71.878  1.00  0.00    -0.297 C  
BRANCH   3   4
HETATM    4  C   UNL     1     -12.697   7.192  71.162  1.00  0.00    -0.363 C  
BRANCH   4   5
HETATM    5  C   UNL     1     -13.289   8.486  71.707  1.00  0.00    -0.396 C  
BRANCH   5   6
HETATM    6  C   UNL     1     -12.249   9.599  71.706  1.00  0.00    -0.464 C  
BRANCH   6   7
HETATM    7  C   UNL     1     -12.762  10.802  70.927  1.00  0.00    -0.478 C  
BRANCH   7   8
HETATM    8  C   UNL     1     -11.693  11.314  69.973  1.00  0.00    -0.428 C  
BRANCH   8   9
HETATM    9  C   UNL     1     -10.657  10.229  69.708  1.00  0.00    -0.312 C  
BRANCH   9  10
HETATM   10  C   UNL     1     -10.828   9.673  68.304  1.00  0.00    -0.230 C  
BRANCH  10  11
HETATM   11  C   UNL     1      -9.541   9.029  67.819  1.00  0.00    -0.178 C  
BRANCH  11  12
HETATM   12  C   UNL     1      -8.714  10.045  67.050  1.00  0.00    -0.137 C  
BRANCH  12  13
HETATM   13  C   UNL     1      -8.089   9.429  65.804  1.00  0.00    -0.114 C  
BRANCH  13  14
HETATM   14  C   UNL     1      -8.634  10.045  64.516  1.00  0.00    -0.197 C  
BRANCH  14  15
HETATM   15  C   UNL     1     -10.085  10.528  64.598  1.00  0.00    -0.408 C  
BRANCH  15  16
HETATM   16  C   UNL     1     -10.278  11.944  64.048  1.00  0.00    -0.361 C  
BRANCH  16  17
HETATM   17  N   UNL     1     -11.623  12.582  64.440  1.00  0.00    -0.338 N  
HETATM   18  C   UNL     1     -11.592  14.088  64.212  1.00  0.00    -0.329 C  
HETATM   19  C   UNL     1     -12.761  11.970  63.623  1.00  0.00    -0.431 C  
BRANCH  17  20
HETATM   20  C   UNL     1     -11.855  12.271  65.960  1.00  0.00    -0.341 C  
BRANCH  20  21
HETATM   21  C   UNL     1     -11.254  13.285  66.902  1.00  0.00    -0.332 A  
HETATM   22  C   UNL     1      -9.867  13.321  67.120  1.00  0.00    -0.237 A  
HETATM   23  C   UNL     1      -9.341  14.060  68.180  1.00  0.00    -0.201 A  
HETATM   24  C   UNL     1     -10.190  14.795  69.005  1.00  0.00    -0.237 A  
HETATM   25  C   UNL     1     -11.555  14.841  68.739  1.00  0.00    -0.347 A  
HETATM   26  C   UNL     1     -12.084  14.110  67.676  1.00  0.00    -0.337 A  
ENDBRANCH  20  21
ENDBRANCH  17  20
ENDBRANCH  16  17
ENDBRANCH  15  16
ENDBRANCH  14  15
ENDBRANCH  13  14
ENDBRANCH  12  13
ENDBRANCH  11  12
ENDBRANCH  10  11
ENDBRANCH   9  10
ENDBRANCH   8   9
ENDBRANCH   7   8
ENDBRANCH   6   7
ENDBRANCH   5   6
ENDBRANCH   4   5
ENDBRANCH   3   4
ENDBRANCH   2   3
TORSDOF 17
ENDMDL
MODEL       69
REMARK 921   NORMALIZED FREE ENERGY PREDICTED BY IDOCK:   -4.13 KCAL/MOL
REMARK 922        TOTAL FREE ENERGY PREDICTED BY IDOCK:  -11.07 KCAL/MOL
REMARK 923 INTER-LIGAND FREE ENERGY PREDICTED BY IDOCK:  -10.13 KCAL/MOL
REMARK 924 INTRA-LIGAND FREE ENERGY PREDICTED BY IDOCK:   -0.94 KCAL/MOL
REMARK 927      BINDING AFFINITY PREDICTED BY RF-SCORE:    0.00 PKD
ROOT
HETATM    1  C   UNL     1      -9.667   3.873  71.280  1.00  0.00    -0.247 C  
HETATM    2  C   UNL     1      -9.670   5.311  71.769  1.00  0.00    -0.206 C  
ENDROOT
BRANCH   2   3
HETATM    3  C   UNL     1     -11.076   5.750  72.170  1.00  0.00    -0.327 C  
BRANCH   3   4
HETATM    4  C   UNL     1     -11.691   6.652  71.104  1.00  0.00    -0.399 C  
BRANCH   4   5
HETATM    5  C   UNL     1     -12.892   7.402  71.667  1.00  0.00    -0.406 C  
BRANCH   5   6
HETATM    6  C   UNL     1     -12.518   8.836  72.019  1.00  0.00    -0.452 C  
BRANCH   6   7
HETATM    7  C   UNL     1     -11.452   9.354  71.064  1.00  0.00    -0.403 C  
BRANCH   7   8
HETATM    8  C   UNL     1     -11.721  10.807  70.703  1.00  0.00    -0.442 C  
BRANCH   8   9
HETATM    9  C   UNL     1     -12.840  11.368  71.571  1.00  0.00    -0.508 C  
BRANCH   9  10
HETATM   10  C   UNL     1     -12.940  12.874  71.387  1.00  0.00    -0.362 C  
BRANCH  10  11
HETATM   11  C   UNL     1     -13.742  13.503  72.513  1.00  0.00    -0.664 C  
BRANCH  11  12
HETATM   12  C   UNL     1     -13.598  15.014  72.467  1.00  0.00    -0.569 C  
BRANCH  12  13
HETATM   13  C   UNL     1     -13.030  15.480  71.132  1.00  0.00    -0.560 C  
BRANCH  13  14
HETATM   14  C   UNL     1     -11.613  16.038  71.267  1.00  0.00    -0.506 C  
BRANCH  14  15
HETATM   15  C   UNL     1     -10.794  16.034  69.972  1.00  0.00    -0.353 C  
BRANCH  15  16
HETATM   16  C   UNL     1     -11.658  15.889  68.717  1.00  0.00    -0.386 C  
BRANCH  16  17
HETATM   17  N   UNL     1     -10.915  15.260  67.524  1.00  0.00    -0.309 N  
HETATM   18  C   UNL     1     -10.416  16.338  66.570  1.00  0.00    -0.290 C  
HETATM   19  C   UNL     1      -9.730  14.430  68.014  1.00  0.00    -0.221 C  
BRANCH  17  20
HETATM   20  C   UNL     1     -11.934  14.320  66.789  1.00  0.00    -0.436 C  
BRANCH  20  21
HETATM   21  C   UNL     1     -11.295  13.212  65.990  1.00  0.00    -0.337 A  
HETATM   22  C   UNL     1     -10.951  13.412  64.643  1.00  0.00    -0.388 A  
HETATM   23  C   UNL     1     -10.619  12.326  63.833  1.00  0.00    -0.462 A  
HETATM   24  C   UNL     1     -10.593  11.040  64.370  1.00  0.00    -0.395 A  
HETATM   25  C   UNL     1     -10.840  10.844  65.725  1.00  0.00    -0.120 A  
HETATM   26  C   UNL     1     -11.164  11.928  66.539  1.00  0.00    -0.383 A  
ENDBRANCH  20  21
ENDBRANCH  17  20
ENDBRANCH  16  17
ENDBRANCH  15  16
ENDBRANCH  14  15
ENDBRANCH  13  14
ENDBRANCH  12  13
ENDBRANCH  11  12
ENDBRANCH  10  11
ENDBRANCH   9  10
ENDBRANCH   8   9
ENDBRANCH   7   8
ENDBRANCH   6   7
ENDBRANCH   5   6
ENDBRANCH   4   5
ENDBRANCH   3   4
ENDBRANCH   2   3
TORSDOF 17
ENDMDL
MODEL       70
REMARK 921   NORMALIZED FREE ENERGY PREDICTED BY IDOCK:   -4.12 KCAL/MOL
REMARK 922        TOTAL FREE ENERGY PREDICTED BY IDOCK:  -11.06 KCAL/MOL
REMARK 923 INTER-LIGAND FREE ENERGY PREDICTED BY IDOCK:   -9.03 KCAL/MOL
REMARK 924 INTRA-LIGAND FREE ENERGY PREDICTED BY IDOCK:   -2.03 KCAL/MOL
REMARK 927      BINDING AFFINITY PREDICTED BY RF-SCORE:    0.00 PKD
ROOT
HETATM    1  C   UNL     1     -12.323  16.007  73.145  1.00  0.00    -0.637 C  
HETATM    2  C   UNL     1     -13.619  15.297  72.793  1.00  0.00    -0.611 C  
ENDROOT
BRANCH   2   3
HETATM    3  C   UNL     1     -13.798  15.203  71.279  1.00  0.00    -0.553 C  
BRANCH   3   4
HETATM    4  C   UNL     1     -12.468  14.912  70.589  1.00  0.00    -0.411 C  
BRANCH   4   5
HETATM    5  C   UNL     1     -12.318  13.419  70.327  1.00  0.00    -0.354 C  
BRANCH   5   6
HETATM    6  C   UNL     1     -11.416  13.168  69.126  1.00  0.00    -0.358 C  
BRANCH   6   7
HETATM    7  C   UNL     1     -11.919  13.944  67.917  1.00  0.00    -0.393 C  
BRANCH   7   8
HETATM    8  C   UNL     1     -12.026  13.031  66.705  1.00  0.00    -0.453 C  
BRANCH   8   9
HETATM    9  C   UNL     1     -10.725  13.050  65.912  1.00  0.00    -0.292 C  
BRANCH   9  10
HETATM   10  C   UNL     1     -10.479  11.693  65.274  1.00  0.00    -0.323 C  
BRANCH  10  11
HETATM   11  C   UNL     1      -9.546  10.854  66.131  1.00  0.00    -0.239 C  
BRANCH  11  12
HETATM   12  C   UNL     1     -10.242   9.570  66.546  1.00  0.00    -0.307 C  
BRANCH  12  13
HETATM   13  C   UNL     1     -10.836   9.684  67.945  1.00  0.00    -0.272 C  
BRANCH  13  14
HETATM   14  C   UNL     1      -9.759   9.765  69.027  1.00  0.00    -0.177 C  
BRANCH  14  15
HETATM   15  C   UNL     1     -10.284   9.675  70.463  1.00  0.00    -0.351 C  
BRANCH  15  16
HETATM   16  C   UNL     1     -11.786   9.389  70.537  1.00  0.00    -0.151 C  
BRANCH  16  17
HETATM   17  N   UNL     1     -12.186   8.483  71.716  1.00  0.00    -0.313 N  
HETATM   18  C   UNL     1     -11.010   8.281  72.664  1.00  0.00    -0.316 C  
HETATM   19  C   UNL     1     -13.357   9.095  72.484  1.00  0.00    -0.417 C  
BRANCH  17  20
HETATM   20  C   UNL     1     -12.632   7.106  71.109  1.00  0.00    -0.341 C  
BRANCH  20  21
HETATM   21  C   UNL     1     -11.507   6.294  70.514  1.00  0.00    -0.407 A  
HETATM   22  C   UNL     1     -10.597   5.622  71.346  1.00  0.00    -0.317 A  
HETATM   23  C   UNL     1      -9.414   5.105  70.819  1.00  0.00    -0.224 A  
HETATM   24  C   UNL     1      -9.149   5.223  69.456  1.00  0.00    -0.144 A  
HETATM   25  C   UNL     1     -10.088   5.803  68.610  1.00  0.00    -0.227 A  
HETATM   26  C   UNL     1     -11.276   6.314  69.131  1.00  0.00    -0.439 A  
ENDBRANCH  20  21
ENDBRANCH  17  20
ENDBRANCH  16  17
ENDBRANCH  15  16
ENDBRANCH  14  15
ENDBRANCH  13  14
ENDBRANCH  12  13
ENDBRANCH  11  12
ENDBRANCH  10  11
ENDBRANCH   9  10
ENDBRANCH   8   9
ENDBRANCH   7   8
ENDBRANCH   6   7
ENDBRANCH   5   6
ENDBRANCH   4   5
ENDBRANCH   3   4
ENDBRANCH   2   3
TORSDOF 17
ENDMDL
MODEL       71
REMARK 921   NORMALIZED FREE ENERGY PREDICTED BY IDOCK:   -4.10 KCAL/MOL
REMARK 922        TOTAL FREE ENERGY PREDICTED BY IDOCK:  -11.01 KCAL/MOL
REMARK 923 INTER-LIGAND FREE ENERGY PREDICTED BY IDOCK:   -8.61 KCAL/MOL
REMARK 924 INTRA-LIGAND FREE ENERGY PREDICTED BY IDOCK:   -2.41 KCAL/MOL
REMARK 927      BINDING AFFINITY PREDICTED BY RF-SCORE:    0.00 PKD
ROOT
HETATM    1  C   UNL     1     -13.580  15.349  72.594  1.00  0.00    -0.641 C  
HETATM    2  C   UNL     1     -13.500  14.763  71.195  1.00  0.00    -0.450 C  
ENDROOT
BRANCH   2   3
HETATM    3  C   UNL     1     -12.048  14.588  70.757  1.00  0.00    -0.398 C  
BRANCH   3   4
HETATM    4  C   UNL     1     -11.877  14.935  69.281  1.00  0.00    -0.350 C  
BRANCH   4   5
HETATM    5  C   UNL     1     -12.004  13.684  68.420  1.00  0.00    -0.391 C  
BRANCH   5   6
HETATM    6  C   UNL     1     -12.001  14.043  66.940  1.00  0.00    -0.479 C  
BRANCH   6   7
HETATM    7  C   UNL     1     -11.042  15.196  66.678  1.00  0.00    -0.308 C  
BRANCH   7   8
HETATM    8  C   UNL     1      -9.726  14.677  66.117  1.00  0.00    -0.344 C  
BRANCH   8   9
HETATM    9  C   UNL     1      -8.598  14.914  67.113  1.00  0.00    -0.248 C  
BRANCH   9  10
HETATM   10  C   UNL     1      -8.496  13.744  68.078  1.00  0.00    -0.176 C  
BRANCH  10  11
HETATM   11  C   UNL     1      -7.911  12.524  67.388  1.00  0.00    -0.180 C  
BRANCH  11  12
HETATM   12  C   UNL     1      -8.890  11.365  67.474  1.00  0.00    -0.146 C  
BRANCH  12  13
HETATM   13  C   UNL     1      -9.697  11.220  66.189  1.00  0.00    -0.251 C  
BRANCH  13  14
HETATM   14  C   UNL     1     -10.034   9.761  65.878  1.00  0.00    -0.345 C  
BRANCH  14  15
HETATM   15  C   UNL     1      -9.507   8.748  66.898  1.00  0.00    -0.231 C  
BRANCH  15  16
HETATM   16  C   UNL     1     -10.623   8.049  67.681  1.00  0.00    -0.194 C  
BRANCH  16  17
HETATM   17  N   UNL     1     -10.123   7.291  68.924  1.00  0.00    -0.175 N  
HETATM   18  C   UNL     1     -11.163   6.279  69.392  1.00  0.00    -0.420 C  
HETATM   19  C   UNL     1      -8.814   6.565  68.615  1.00  0.00    -0.121 C  
BRANCH  17  20
HETATM   20  C   UNL     1      -9.869   8.358  70.045  1.00  0.00    -0.182 C  
BRANCH  20  21
HETATM   21  C   UNL     1     -11.115   9.041  70.551  1.00  0.00    -0.297 A  
HETATM   22  C   UNL     1     -11.465  10.320  70.088  1.00  0.00    -0.383 A  
HETATM   23  C   UNL     1     -12.449  11.061  70.743  1.00  0.00    -0.491 A  
HETATM   24  C   UNL     1     -13.114  10.517  71.840  1.00  0.00    -0.567 A  
HETATM   25  C   UNL     1     -12.841   9.214  72.247  1.00  0.00    -0.472 A  
HETATM   26  C   UNL     1     -11.864   8.468  71.589  1.00  0.00    -0.370 A  
ENDBRANCH  20  21
ENDBRANCH  17  20
ENDBRANCH  16  17
ENDBRANCH  15  16
ENDBRANCH  14  15
ENDBRANCH  13  14
ENDBRANCH  12  13
ENDBRANCH  11  12
ENDBRANCH  10  11
ENDBRANCH   9  10
ENDBRANCH   8   9
ENDBRANCH   7   8
ENDBRANCH   6   7
ENDBRANCH   5   6
ENDBRANCH   4   5
ENDBRANCH   3   4
ENDBRANCH   2   3
TORSDOF 17
ENDMDL
MODEL       72
REMARK 921   NORMALIZED FREE ENERGY PREDICTED BY IDOCK:   -4.10 KCAL/MOL
REMARK 922        TOTAL FREE ENERGY PREDICTED BY IDOCK:  -11.01 KCAL/MOL
REMARK 923 INTER-LIGAND FREE ENERGY PREDICTED BY IDOCK:   -8.93 KCAL/MOL
REMARK 924 INTRA-LIGAND FREE ENERGY PREDICTED BY IDOCK:   -2.08 KCAL/MOL
REMARK 927      BINDING AFFINITY PREDICTED BY RF-SCORE:    0.00 PKD
ROOT
HETATM    1  C   UNL     1     -12.951  15.461  70.933  1.00  0.00    -0.539 C  
HETATM    2  C   UNL     1     -14.091  14.997  71.823  1.00  0.00    -0.621 C  
ENDROOT
BRANCH   2   3
HETATM    3  C   UNL     1     -13.850  13.577  72.327  1.00  0.00    -0.680 C  
BRANCH   3   4
HETATM    4  C   UNL     1     -12.841  12.848  71.445  1.00  0.00    -0.377 C  
BRANCH   4   5
HETATM    5  C   UNL     1     -12.978  11.340  71.609  1.00  0.00    -0.537 C  
BRANCH   5   6
HETATM    6  C   UNL     1     -12.160  10.604  70.556  1.00  0.00    -0.448 C  
BRANCH   6   7
HETATM    7  C   UNL     1     -11.992  11.472  69.316  1.00  0.00    -0.397 C  
BRANCH   7   8
HETATM    8  C   UNL     1     -11.414  10.657  68.169  1.00  0.00    -0.303 C  
BRANCH   8   9
HETATM    9  C   UNL     1     -10.436  11.500  67.362  1.00  0.00    -0.240 C  
BRANCH   9  10
HETATM   10  C   UNL     1      -9.052  10.871  67.390  1.00  0.00    -0.144 C  
BRANCH  10  11
HETATM   11  C   UNL     1      -8.425  11.007  68.767  1.00  0.00    -0.144 C  
BRANCH  11  12
HETATM   12  C   UNL     1      -7.172  11.862  68.680  1.00  0.00    -0.109 C  
BRANCH  12  13
HETATM   13  C   UNL     1      -7.211  12.788  67.471  1.00  0.00    -0.154 C  
BRANCH  13  14
HETATM   14  C   UNL     1      -6.732  14.201  67.806  1.00  0.00    -0.190 C  
BRANCH  14  15
HETATM   15  C   UNL     1      -7.669  15.323  67.349  1.00  0.00    -0.225 C  
BRANCH  15  16
HETATM   16  C   UNL     1      -9.011  14.807  66.822  1.00  0.00    -0.266 C  
BRANCH  16  17
HETATM   17  N   UNL     1     -10.072  15.909  66.647  1.00  0.00    -0.269 N  
HETATM   18  C   UNL     1     -11.138  15.808  67.732  1.00  0.00    -0.313 C  
HETATM   19  C   UNL     1      -9.420  17.289  66.706  1.00  0.00    -0.265 C  
BRANCH  17  20
HETATM   20  C   UNL     1     -10.721  15.704  65.234  1.00  0.00    -0.425 C  
BRANCH  20  21
HETATM   21  C   UNL     1     -11.100  14.278  64.922  1.00  0.00    -0.396 A  
HETATM   22  C   UNL     1     -10.202  13.433  64.250  1.00  0.00    -0.137 A  
HETATM   23  C   UNL     1     -10.640  12.218  63.723  1.00  0.00    -0.488 A  
HETATM   24  C   UNL     1     -11.965  11.823  63.893  1.00  0.00    -0.427 A  
HETATM   25  C   UNL     1     -12.838  12.609  64.639  1.00  0.00    -0.361 A  
HETATM   26  C   UNL     1     -12.402  13.820  65.174  1.00  0.00    -0.476 A  
ENDBRANCH  20  21
ENDBRANCH  17  20
ENDBRANCH  16  17
ENDBRANCH  15  16
ENDBRANCH  14  15
ENDBRANCH  13  14
ENDBRANCH  12  13
ENDBRANCH  11  12
ENDBRANCH  10  11
ENDBRANCH   9  10
ENDBRANCH   8   9
ENDBRANCH   7   8
ENDBRANCH   6   7
ENDBRANCH   5   6
ENDBRANCH   4   5
ENDBRANCH   3   4
ENDBRANCH   2   3
TORSDOF 17
ENDMDL
MODEL       73
REMARK 921   NORMALIZED FREE ENERGY PREDICTED BY IDOCK:   -4.09 KCAL/MOL
REMARK 922        TOTAL FREE ENERGY PREDICTED BY IDOCK:  -10.99 KCAL/MOL
REMARK 923 INTER-LIGAND FREE ENERGY PREDICTED BY IDOCK:   -9.17 KCAL/MOL
REMARK 924 INTRA-LIGAND FREE ENERGY PREDICTED BY IDOCK:   -1.82 KCAL/MOL
REMARK 927      BINDING AFFINITY PREDICTED BY RF-SCORE:    0.00 PKD
ROOT
HETATM    1  C   UNL     1     -11.379   5.031  73.027  1.00  0.00    -0.374 C  
HETATM    2  C   UNL     1     -11.129   6.224  72.120  1.00  0.00    -0.312 C  
ENDROOT
BRANCH   2   3
HETATM    3  C   UNL     1     -11.111   7.525  72.918  1.00  0.00    -0.426 C  
BRANCH   3   4
HETATM    4  C   UNL     1     -12.035   8.564  72.289  1.00  0.00    -0.454 C  
BRANCH   4   5
HETATM    5  C   UNL     1     -11.430   9.108  71.002  1.00  0.00    -0.372 C  
BRANCH   5   6
HETATM    6  C   UNL     1     -12.256  10.269  70.464  1.00  0.00    -0.390 C  
BRANCH   6   7
HETATM    7  C   UNL     1     -12.958  10.992  71.606  1.00  0.00    -0.561 C  
BRANCH   7   8
HETATM    8  C   UNL     1     -13.098  12.474  71.293  1.00  0.00    -0.223 C  
BRANCH   8   9
HETATM    9  C   UNL     1     -13.351  13.262  72.572  1.00  0.00    -0.569 C  
BRANCH   9  10
HETATM   10  C   UNL     1     -13.405  14.751  72.268  1.00  0.00    -0.488 C  
BRANCH  10  11
HETATM   11  C   UNL     1     -12.063  15.407  72.544  1.00  0.00    -0.522 C  
BRANCH  11  12
HETATM   12  C   UNL     1     -11.292  15.570  71.245  1.00  0.00    -0.449 C  
BRANCH  12  13
HETATM   13  C   UNL     1     -12.229  15.809  70.066  1.00  0.00    -0.309 C  
BRANCH  13  14
HETATM   14  C   UNL     1     -11.937  14.873  68.894  1.00  0.00    -0.295 C  
BRANCH  14  15
HETATM   15  C   UNL     1     -10.645  14.062  69.025  1.00  0.00    -0.205 C  
BRANCH  15  16
HETATM   16  C   UNL     1     -10.707  12.712  68.303  1.00  0.00    -0.230 C  
BRANCH  16  17
HETATM   17  N   UNL     1      -9.328  12.167  67.892  1.00  0.00    -0.185 N  
HETATM   18  C   UNL     1      -8.225  13.146  68.274  1.00  0.00    -0.154 C  
HETATM   19  C   UNL     1      -9.066  10.821  68.567  1.00  0.00    -0.170 C  
BRANCH  17  20
HETATM   20  C   UNL     1      -9.355  11.966  66.336  1.00  0.00    -0.226 C  
BRANCH  20  21
HETATM   21  C   UNL     1     -10.258  12.925  65.600  1.00  0.00    -0.295 A  
HETATM   22  C   UNL     1      -9.867  14.258  65.396  1.00  0.00    -0.255 A  
HETATM   23  C   UNL     1     -10.796  15.205  64.966  1.00  0.00    -0.457 A  
HETATM   24  C   UNL     1     -12.110  14.822  64.705  1.00  0.00    -0.437 A  
HETATM   25  C   UNL     1     -12.483  13.486  64.814  1.00  0.00    -0.402 A  
HETATM   26  C   UNL     1     -11.555  12.535  65.234  1.00  0.00    -0.406 A  
ENDBRANCH  20  21
ENDBRANCH  17  20
ENDBRANCH  16  17
ENDBRANCH  15  16
ENDBRANCH  14  15
ENDBRANCH  13  14
ENDBRANCH  12  13
ENDBRANCH  11  12
ENDBRANCH  10  11
ENDBRANCH   9  10
ENDBRANCH   8   9
ENDBRANCH   7   8
ENDBRANCH   6   7
ENDBRANCH   5   6
ENDBRANCH   4   5
ENDBRANCH   3   4
ENDBRANCH   2   3
TORSDOF 17
ENDMDL
MODEL       74
REMARK 921   NORMALIZED FREE ENERGY PREDICTED BY IDOCK:   -4.09 KCAL/MOL
REMARK 922        TOTAL FREE ENERGY PREDICTED BY IDOCK:  -10.99 KCAL/MOL
REMARK 923 INTER-LIGAND FREE ENERGY PREDICTED BY IDOCK:   -9.23 KCAL/MOL
REMARK 924 INTRA-LIGAND FREE ENERGY PREDICTED BY IDOCK:   -1.75 KCAL/MOL
REMARK 927      BINDING AFFINITY PREDICTED BY RF-SCORE:    0.00 PKD
ROOT
HETATM    1  C   UNL     1     -12.933   9.978  71.463  1.00  0.00    -0.535 C  
HETATM    2  C   UNL     1     -11.793   9.017  71.752  1.00  0.00    -0.442 C  
ENDROOT
BRANCH   2   3
HETATM    3  C   UNL     1     -12.185   7.583  71.405  1.00  0.00    -0.363 C  
BRANCH   3   4
HETATM    4  C   UNL     1     -10.948   6.726  71.148  1.00  0.00    -0.298 C  
BRANCH   4   5
HETATM    5  C   UNL     1     -11.040   6.050  69.786  1.00  0.00    -0.476 C  
BRANCH   5   6
HETATM    6  C   UNL     1      -9.771   6.286  68.978  1.00  0.00    -0.147 C  
BRANCH   6   7
HETATM    7  C   UNL     1     -10.119   6.734  67.565  1.00  0.00    -0.215 C  
BRANCH   7   8
HETATM    8  C   UNL     1      -9.454   8.065  67.249  1.00  0.00    -0.196 C  
BRANCH   8   9
HETATM    9  C   UNL     1     -10.508   9.127  66.961  1.00  0.00    -0.311 C  
BRANCH   9  10
HETATM   10  C   UNL     1     -10.905   9.834  68.248  1.00  0.00    -0.256 C  
BRANCH  10  11
HETATM   11  C   UNL     1     -11.354  11.257  67.965  1.00  0.00    -0.372 C  
BRANCH  11  12
HETATM   12  C   UNL     1     -11.237  11.549  66.479  1.00  0.00    -0.324 C  
BRANCH  12  13
HETATM   13  C   UNL     1     -12.097  12.740  66.074  1.00  0.00    -0.458 C  
BRANCH  13  14
HETATM   14  C   UNL     1     -11.292  13.817  65.347  1.00  0.00    -0.314 C  
BRANCH  14  15
HETATM   15  C   UNL     1     -11.094  15.114  66.137  1.00  0.00    -0.311 C  
BRANCH  15  16
HETATM   16  C   UNL     1     -10.053  14.986  67.252  1.00  0.00    -0.235 C  
BRANCH  16  17
HETATM   17  N   UNL     1     -10.331  15.891  68.465  1.00  0.00    -0.226 N  
HETATM   18  C   UNL     1      -9.437  15.510  69.639  1.00  0.00    -0.243 C  
HETATM   19  C   UNL     1     -10.091  17.356  68.102  1.00  0.00    -0.328 C  
BRANCH  17  20
HETATM   20  C   UNL     1     -11.839  15.696  68.850  1.00  0.00    -0.352 C  
BRANCH  20  21
HETATM   21  C   UNL     1     -12.064  15.188  70.253  1.00  0.00    -0.385 A  
HETATM   22  C   UNL     1     -12.442  13.854  70.476  1.00  0.00    -0.422 A  
HETATM   23  C   UNL     1     -12.912  13.457  71.728  1.00  0.00    -0.435 A  
HETATM   24  C   UNL     1     -12.972  14.377  72.772  1.00  0.00    -0.555 A  
HETATM   25  C   UNL     1     -12.511  15.676  72.587  1.00  0.00    -0.526 A  
HETATM   26  C   UNL     1     -12.033  16.075  71.339  1.00  0.00    -0.507 A  
ENDBRANCH  20  21
ENDBRANCH  17  20
ENDBRANCH  16  17
ENDBRANCH  15  16
ENDBRANCH  14  15
ENDBRANCH  13  14
ENDBRANCH  12  13
ENDBRANCH  11  12
ENDBRANCH  10  11
ENDBRANCH   9  10
ENDBRANCH   8   9
ENDBRANCH   7   8
ENDBRANCH   6   7
ENDBRANCH   5   6
ENDBRANCH   4   5
ENDBRANCH   3   4
ENDBRANCH   2   3
TORSDOF 17
ENDMDL
MODEL       75
REMARK 921   NORMALIZED FREE ENERGY PREDICTED BY IDOCK:   -4.07 KCAL/MOL
REMARK 922        TOTAL FREE ENERGY PREDICTED BY IDOCK:  -10.96 KCAL/MOL
REMARK 923 INTER-LIGAND FREE ENERGY PREDICTED BY IDOCK:   -8.72 KCAL/MOL
REMARK 924 INTRA-LIGAND FREE ENERGY PREDICTED BY IDOCK:   -2.24 KCAL/MOL
REMARK 927      BINDING AFFINITY PREDICTED BY RF-SCORE:    0.00 PKD
ROOT
HETATM    1  C   UNL     1     -10.509   7.218  72.804  1.00  0.00    -0.302 C  
HETATM    2  C   UNL     1     -11.164   6.098  72.014  1.00  0.00    -0.335 C  
ENDROOT
BRANCH   2   3
HETATM    3  C   UNL     1     -12.281   6.636  71.124  1.00  0.00    -0.357 C  
BRANCH   3   4
HETATM    4  C   UNL     1     -13.588   6.760  71.903  1.00  0.00    -0.117 C  
BRANCH   4   5
HETATM    5  C   UNL     1     -14.334   8.024  71.496  1.00  0.00    -0.546 C  
BRANCH   5   6
HETATM    6  C   UNL     1     -13.715   9.252  72.151  1.00  0.00    -0.517 C  
BRANCH   6   7
HETATM    7  C   UNL     1     -13.158  10.192  71.091  1.00  0.00    -0.480 C  
BRANCH   7   8
HETATM    8  C   UNL     1     -11.638  10.150  71.086  1.00  0.00    -0.430 C  
BRANCH   8   9
HETATM    9  C   UNL     1     -11.121   9.871  69.681  1.00  0.00    -0.279 C  
BRANCH   9  10
HETATM   10  C   UNL     1      -9.616   9.654  69.709  1.00  0.00    -0.242 C  
BRANCH  10  11
HETATM   11  C   UNL     1      -9.001   9.968  68.356  1.00  0.00    -0.121 C  
BRANCH  11  12
HETATM   12  C   UNL     1      -9.225   8.805  67.405  1.00  0.00    -0.158 C  
BRANCH  12  13
HETATM   13  C   UNL     1     -10.181   9.181  66.279  1.00  0.00    -0.257 C  
BRANCH  13  14
HETATM   14  C   UNL     1      -9.692  10.390  65.482  1.00  0.00    -0.307 C  
BRANCH  14  15
HETATM   15  C   UNL     1     -10.751  11.470  65.239  1.00  0.00    -0.337 C  
BRANCH  15  16
HETATM   16  C   UNL     1     -11.218  12.154  66.527  1.00  0.00    -0.328 C  
BRANCH  16  17
HETATM   17  N   UNL     1     -10.656  13.575  66.712  1.00  0.00    -0.271 N  
HETATM   18  C   UNL     1      -9.448  13.560  67.641  1.00  0.00    -0.222 C  
HETATM   19  C   UNL     1     -10.249  14.166  65.363  1.00  0.00    -0.358 C  
BRANCH  17  20
HETATM   20  C   UNL     1     -11.802  14.448  67.333  1.00  0.00    -0.400 C  
BRANCH  20  21
HETATM   21  C   UNL     1     -11.738  14.585  68.834  1.00  0.00    -0.354 A  
HETATM   22  C   UNL     1     -12.146  13.528  69.664  1.00  0.00    -0.365 A  
HETATM   23  C   UNL     1     -12.347  13.743  71.027  1.00  0.00    -0.452 A  
HETATM   24  C   UNL     1     -12.108  15.001  71.576  1.00  0.00    -0.403 A  
HETATM   25  C   UNL     1     -11.613  16.028  70.779  1.00  0.00    -0.431 A  
HETATM   26  C   UNL     1     -11.403  15.816  69.418  1.00  0.00    -0.348 A  
ENDBRANCH  20  21
ENDBRANCH  17  20
ENDBRANCH  16  17
ENDBRANCH  15  16
ENDBRANCH  14  15
ENDBRANCH  13  14
ENDBRANCH  12  13
ENDBRANCH  11  12
ENDBRANCH  10  11
ENDBRANCH   9  10
ENDBRANCH   8   9
ENDBRANCH   7   8
ENDBRANCH   6   7
ENDBRANCH   5   6
ENDBRANCH   4   5
ENDBRANCH   3   4
ENDBRANCH   2   3
TORSDOF 17
ENDMDL
MODEL       76
REMARK 921   NORMALIZED FREE ENERGY PREDICTED BY IDOCK:   -4.07 KCAL/MOL
REMARK 922        TOTAL FREE ENERGY PREDICTED BY IDOCK:  -10.95 KCAL/MOL
REMARK 923 INTER-LIGAND FREE ENERGY PREDICTED BY IDOCK:   -7.96 KCAL/MOL
REMARK 924 INTRA-LIGAND FREE ENERGY PREDICTED BY IDOCK:   -2.99 KCAL/MOL
REMARK 927      BINDING AFFINITY PREDICTED BY RF-SCORE:    0.00 PKD
ROOT
HETATM    1  C   UNL     1      -6.632  10.216  65.279  1.00  0.00    -0.119 C  
HETATM    2  C   UNL     1      -7.499   9.015  64.943  1.00  0.00    -0.105 C  
ENDROOT
BRANCH   2   3
HETATM    3  C   UNL     1      -8.583   9.386  63.934  1.00  0.00    -0.225 C  
BRANCH   3   4
HETATM    4  C   UNL     1      -9.401  10.578  64.425  1.00  0.00    -0.307 C  
BRANCH   4   5
HETATM    5  C   UNL     1      -9.731  11.512  63.268  1.00  0.00    -0.405 C  
BRANCH   5   6
HETATM    6  C   UNL     1     -11.013  12.286  63.546  1.00  0.00    -0.521 C  
BRANCH   6   7
HETATM    7  C   UNL     1     -11.440  12.096  64.996  1.00  0.00    -0.377 C  
BRANCH   7   8
HETATM    8  C   UNL     1     -12.323  13.250  65.446  1.00  0.00    -0.528 C  
BRANCH   8   9
HETATM    9  C   UNL     1     -11.933  13.698  66.849  1.00  0.00    -0.454 C  
BRANCH   9  10
HETATM   10  C   UNL     1     -11.062  12.643  67.513  1.00  0.00    -0.313 C  
BRANCH  10  11
HETATM   11  C   UNL     1     -11.352  12.563  69.002  1.00  0.00    -0.342 C  
BRANCH  11  12
HETATM   12  C   UNL     1     -12.124  11.292  69.309  1.00  0.00    -0.372 C  
BRANCH  12  13
HETATM   13  C   UNL     1     -11.888  10.829  70.742  1.00  0.00    -0.443 C  
BRANCH  13  14
HETATM   14  C   UNL     1     -13.044   9.982  71.275  1.00  0.00    -0.493 C  
BRANCH  14  15
HETATM   15  C   UNL     1     -12.624   8.811  72.168  1.00  0.00    -0.463 C  
BRANCH  15  16
HETATM   16  C   UNL     1     -12.154   7.589  71.374  1.00  0.00    -0.327 C  
BRANCH  16  17
HETATM   17  N   UNL     1     -10.940   6.875  71.997  1.00  0.00    -0.229 N  
HETATM   18  C   UNL     1     -10.341   7.713  73.121  1.00  0.00    -0.352 C  
HETATM   19  C   UNL     1     -11.351   5.510  72.547  1.00  0.00    -0.265 C  
BRANCH  17  20
HETATM   20  C   UNL     1      -9.885   6.675  70.853  1.00  0.00    -0.183 C  
BRANCH  20  21
HETATM   21  C   UNL     1      -9.748   7.851  69.918  1.00  0.00    -0.176 A  
HETATM   22  C   UNL     1     -10.319   7.812  68.636  1.00  0.00    -0.221 A  
HETATM   23  C   UNL     1      -9.968   8.766  67.681  1.00  0.00    -0.247 A  
HETATM   24  C   UNL     1      -9.076   9.784  68.010  1.00  0.00    -0.127 A  
HETATM   25  C   UNL     1      -8.579   9.886  69.306  1.00  0.00    -0.169 A  
HETATM   26  C   UNL     1      -8.933   8.938  70.265  1.00  0.00    -0.201 A  
ENDBRANCH  20  21
ENDBRANCH  17  20
ENDBRANCH  16  17
ENDBRANCH  15  16
ENDBRANCH  14  15
ENDBRANCH  13  14
ENDBRANCH  12  13
ENDBRANCH  11  12
ENDBRANCH  10  11
ENDBRANCH   9  10
ENDBRANCH   8   9
ENDBRANCH   7   8
ENDBRANCH   6   7
ENDBRANCH   5   6
ENDBRANCH   4   5
ENDBRANCH   3   4
ENDBRANCH   2   3
TORSDOF 17
ENDMDL
MODEL       77
REMARK 921   NORMALIZED FREE ENERGY PREDICTED BY IDOCK:   -4.07 KCAL/MOL
REMARK 922        TOTAL FREE ENERGY PREDICTED BY IDOCK:  -10.95 KCAL/MOL
REMARK 923 INTER-LIGAND FREE ENERGY PREDICTED BY IDOCK:   -8.31 KCAL/MOL
REMARK 924 INTRA-LIGAND FREE ENERGY PREDICTED BY IDOCK:   -2.63 KCAL/MOL
REMARK 927      BINDING AFFINITY PREDICTED BY RF-SCORE:    0.00 PKD
ROOT
HETATM    1  C   UNL     1     -10.417   5.502  73.220  1.00  0.00    -0.255 C  
HETATM    2  C   UNL     1      -9.775   5.671  71.854  1.00  0.00    -0.191 C  
ENDROOT
BRANCH   2   3
HETATM    3  C   UNL     1     -10.800   5.472  70.739  1.00  0.00    -0.249 C  
BRANCH   3   4
HETATM    4  C   UNL     1     -10.143   5.591  69.367  1.00  0.00    -0.306 C  
BRANCH   4   5
HETATM    5  C   UNL     1     -10.909   6.576  68.492  1.00  0.00    -0.353 C  
BRANCH   5   6
HETATM    6  C   UNL     1      -9.951   7.435  67.678  1.00  0.00    -0.213 C  
BRANCH   6   7
HETATM    7  C   UNL     1      -9.176   8.374  68.592  1.00  0.00    -0.143 C  
BRANCH   7   8
HETATM    8  C   UNL     1     -10.131   9.267  69.370  1.00  0.00    -0.200 C  
BRANCH   8   9
HETATM    9  C   UNL     1      -9.764   9.271  70.849  1.00  0.00    -0.346 C  
BRANCH   9  10
HETATM   10  C   UNL     1     -11.021   9.226  71.701  1.00  0.00    -0.433 C  
BRANCH  10  11
HETATM   11  C   UNL     1     -12.211   9.783  70.939  1.00  0.00    -0.390 C  
BRANCH  11  12
HETATM   12  C   UNL     1     -13.044  10.663  71.855  1.00  0.00    -0.563 C  
BRANCH  12  13
HETATM   13  C   UNL     1     -12.913  12.136  71.485  1.00  0.00    -0.398 C  
BRANCH  13  14
HETATM   14  C   UNL     1     -12.111  12.342  70.200  1.00  0.00    -0.366 C  
BRANCH  14  15
HETATM   15  C   UNL     1     -11.842  13.806  69.839  1.00  0.00    -0.394 C  
BRANCH  15  16
HETATM   16  C   UNL     1     -10.607  13.988  68.951  1.00  0.00    -0.228 C  
BRANCH  16  17
HETATM   17  N   UNL     1     -10.866  14.847  67.700  1.00  0.00    -0.278 N  
HETATM   18  C   UNL     1     -11.530  16.166  68.080  1.00  0.00    -0.163 C  
HETATM   19  C   UNL     1      -9.555  15.133  66.970  1.00  0.00    -0.226 C  
BRANCH  17  20
HETATM   20  C   UNL     1     -11.811  14.020  66.759  1.00  0.00    -0.424 C  
BRANCH  20  21
HETATM   21  C   UNL     1     -11.109  12.960  65.947  1.00  0.00    -0.310 A  
HETATM   22  C   UNL     1     -10.920  13.130  64.566  1.00  0.00    -0.392 A  
HETATM   23  C   UNL     1     -10.524  12.052  63.773  1.00  0.00    -0.469 A  
HETATM   24  C   UNL     1     -10.282  10.811  64.357  1.00  0.00    -0.432 A  
HETATM   25  C   UNL     1     -10.374  10.658  65.737  1.00  0.00    -0.287 A  
HETATM   26  C   UNL     1     -10.761  11.735  66.534  1.00  0.00    -0.304 A  
ENDBRANCH  20  21
ENDBRANCH  17  20
ENDBRANCH  16  17
ENDBRANCH  15  16
ENDBRANCH  14  15
ENDBRANCH  13  14
ENDBRANCH  12  13
ENDBRANCH  11  12
ENDBRANCH  10  11
ENDBRANCH   9  10
ENDBRANCH   8   9
ENDBRANCH   7   8
ENDBRANCH   6   7
ENDBRANCH   5   6
ENDBRANCH   4   5
ENDBRANCH   3   4
ENDBRANCH   2   3
TORSDOF 17
ENDMDL
MODEL       78
REMARK 921   NORMALIZED FREE ENERGY PREDICTED BY IDOCK:   -4.06 KCAL/MOL
REMARK 922        TOTAL FREE ENERGY PREDICTED BY IDOCK:  -10.94 KCAL/MOL
REMARK 923 INTER-LIGAND FREE ENERGY PREDICTED BY IDOCK:   -9.53 KCAL/MOL
REMARK 924 INTRA-LIGAND FREE ENERGY PREDICTED BY IDOCK:   -1.41 KCAL/MOL
REMARK 927      BINDING AFFINITY PREDICTED BY RF-SCORE:    0.00 PKD
ROOT
HETATM    1  C   UNL     1     -11.700  10.781  69.562  1.00  0.00    -0.384 C  
HETATM    2  C   UNL     1     -12.289  10.970  70.949  1.00  0.00    -0.503 C  
ENDROOT
BRANCH   2   3
HETATM    3  C   UNL     1     -13.366   9.926  71.234  1.00  0.00    -0.419 C  
BRANCH   3   4
HETATM    4  C   UNL     1     -12.927   8.977  72.345  1.00  0.00    -0.471 C  
BRANCH   4   5
HETATM    5  C   UNL     1     -11.453   8.623  72.194  1.00  0.00    -0.443 C  
BRANCH   5   6
HETATM    6  C   UNL     1     -11.199   7.178  72.600  1.00  0.00    -0.331 C  
BRANCH   6   7
HETATM    7  C   UNL     1     -11.845   6.227  71.602  1.00  0.00    -0.315 C  
BRANCH   7   8
HETATM    8  C   UNL     1     -11.309   6.480  70.201  1.00  0.00    -0.463 C  
BRANCH   8   9
HETATM    9  C   UNL     1     -10.376   5.351  69.781  1.00  0.00    -0.375 C  
BRANCH   9  10
HETATM   10  C   UNL     1     -10.190   5.358  68.272  1.00  0.00    -0.224 C  
BRANCH  10  11
HETATM   11  C   UNL     1     -10.964   6.501  67.639  1.00  0.00    -0.426 C  
BRANCH  11  12
HETATM   12  C   UNL     1     -10.050   7.299  66.725  1.00  0.00    -0.291 C  
BRANCH  12  13
HETATM   13  C   UNL     1     -10.282   8.798  66.873  1.00  0.00    -0.357 C  
BRANCH  13  14
HETATM   14  C   UNL     1      -9.816   9.581  65.645  1.00  0.00    -0.343 C  
BRANCH  14  15
HETATM   15  C   UNL     1      -9.858  11.104  65.801  1.00  0.00    -0.279 C  
BRANCH  15  16
HETATM   16  C   UNL     1     -11.278  11.652  65.969  1.00  0.00    -0.240 C  
BRANCH  16  17
HETATM   17  N   UNL     1     -11.626  12.783  64.985  1.00  0.00    -0.322 N  
HETATM   18  C   UNL     1     -10.360  13.456  64.468  1.00  0.00    -0.373 C  
HETATM   19  C   UNL     1     -12.425  12.234  63.804  1.00  0.00    -0.515 C  
BRANCH  17  20
HETATM   20  C   UNL     1     -12.507  13.820  65.766  1.00  0.00    -0.485 C  
BRANCH  20  21
HETATM   21  C   UNL     1     -11.838  14.416  66.980  1.00  0.00    -0.437 A  
HETATM   22  C   UNL     1     -12.129  13.928  68.265  1.00  0.00    -0.322 A  
HETATM   23  C   UNL     1     -11.732  14.643  69.395  1.00  0.00    -0.355 A  
HETATM   24  C   UNL     1     -11.014  15.829  69.251  1.00  0.00    -0.281 A  
HETATM   25  C   UNL     1     -10.640  16.270  67.986  1.00  0.00    -0.308 A  
HETATM   26  C   UNL     1     -11.027  15.553  66.854  1.00  0.00    -0.268 A  
ENDBRANCH  20  21
ENDBRANCH  17  20
ENDBRANCH  16  17
ENDBRANCH  15  16
ENDBRANCH  14  15
ENDBRANCH  13  14
ENDBRANCH  12  13
ENDBRANCH  11  12
ENDBRANCH  10  11
ENDBRANCH   9  10
ENDBRANCH   8   9
ENDBRANCH   7   8
ENDBRANCH   6   7
ENDBRANCH   5   6
ENDBRANCH   4   5
ENDBRANCH   3   4
ENDBRANCH   2   3
TORSDOF 17
ENDMDL
MODEL       79
REMARK 921   NORMALIZED FREE ENERGY PREDICTED BY IDOCK:   -4.06 KCAL/MOL
REMARK 922        TOTAL FREE ENERGY PREDICTED BY IDOCK:  -10.92 KCAL/MOL
REMARK 923 INTER-LIGAND FREE ENERGY PREDICTED BY IDOCK:   -9.10 KCAL/MOL
REMARK 924 INTRA-LIGAND FREE ENERGY PREDICTED BY IDOCK:   -1.83 KCAL/MOL
REMARK 927      BINDING AFFINITY PREDICTED BY RF-SCORE:    0.00 PKD
ROOT
HETATM    1  C   UNL     1     -10.481   8.076  66.888  1.00  0.00    -0.387 C  
HETATM    2  C   UNL     1     -10.415   8.069  68.405  1.00  0.00    -0.205 C  
ENDROOT
BRANCH   2   3
HETATM    3  C   UNL     1      -8.994   7.795  68.891  1.00  0.00    -0.141 C  
BRANCH   3   4
HETATM    4  C   UNL     1      -8.956   6.575  69.807  1.00  0.00    -0.142 C  
BRANCH   4   5
HETATM    5  C   UNL     1     -10.305   5.869  69.813  1.00  0.00    -0.309 C  
BRANCH   5   6
HETATM    6  C   UNL     1     -10.487   5.061  71.092  1.00  0.00    -0.205 C  
BRANCH   6   7
HETATM    7  C   UNL     1     -10.933   5.968  72.231  1.00  0.00    -0.310 C  
BRANCH   7   8
HETATM    8  C   UNL     1     -12.093   6.848  71.789  1.00  0.00    -0.385 C  
BRANCH   8   9
HETATM    9  C   UNL     1     -11.786   8.311  72.079  1.00  0.00    -0.408 C  
BRANCH   9  10
HETATM   10  C   UNL     1     -13.077   9.083  72.304  1.00  0.00    -0.508 C  
BRANCH  10  11
HETATM   11  C   UNL     1     -13.028  10.431  71.605  1.00  0.00    -0.581 C  
BRANCH  11  12
HETATM   12  C   UNL     1     -11.926  10.430  70.559  1.00  0.00    -0.427 C  
BRANCH  12  13
HETATM   13  C   UNL     1     -11.940  11.710  69.732  1.00  0.00    -0.402 C  
BRANCH  13  14
HETATM   14  C   UNL     1     -11.967  12.964  70.605  1.00  0.00    -0.207 C  
BRANCH  14  15
HETATM   15  C   UNL     1     -11.693  14.273  69.857  1.00  0.00    -0.373 C  
BRANCH  15  16
HETATM   16  C   UNL     1     -10.504  14.179  68.898  1.00  0.00    -0.222 C  
BRANCH  16  17
HETATM   17  N   UNL     1     -10.749  14.863  67.540  1.00  0.00    -0.271 N  
HETATM   18  C   UNL     1     -10.884  16.371  67.713  1.00  0.00    -0.306 C  
HETATM   19  C   UNL     1      -9.599  14.564  66.579  1.00  0.00    -0.293 C  
BRANCH  17  20
HETATM   20  C   UNL     1     -12.077  14.266  66.956  1.00  0.00    -0.390 C  
BRANCH  20  21
HETATM   21  C   UNL     1     -11.875  13.260  65.850  1.00  0.00    -0.436 A  
HETATM   22  C   UNL     1     -11.313  12.003  66.125  1.00  0.00    -0.407 A  
HETATM   23  C   UNL     1     -10.876  11.185  65.082  1.00  0.00    -0.229 A  
HETATM   24  C   UNL     1     -11.029  11.601  63.761  1.00  0.00    -0.495 A  
HETATM   25  C   UNL     1     -11.671  12.802  63.477  1.00  0.00    -0.597 A  
HETATM   26  C   UNL     1     -12.117  13.618  64.516  1.00  0.00    -0.459 A  
ENDBRANCH  20  21
ENDBRANCH  17  20
ENDBRANCH  16  17
ENDBRANCH  15  16
ENDBRANCH  14  15
ENDBRANCH  13  14
ENDBRANCH  12  13
ENDBRANCH  11  12
ENDBRANCH  10  11
ENDBRANCH   9  10
ENDBRANCH   8   9
ENDBRANCH   7   8
ENDBRANCH   6   7
ENDBRANCH   5   6
ENDBRANCH   4   5
ENDBRANCH   3   4
ENDBRANCH   2   3
TORSDOF 17
ENDMDL
MODEL       80
REMARK 921   NORMALIZED FREE ENERGY PREDICTED BY IDOCK:   -4.05 KCAL/MOL
REMARK 922        TOTAL FREE ENERGY PREDICTED BY IDOCK:  -10.92 KCAL/MOL
REMARK 923 INTER-LIGAND FREE ENERGY PREDICTED BY IDOCK:   -9.14 KCAL/MOL
REMARK 924 INTRA-LIGAND FREE ENERGY PREDICTED BY IDOCK:   -1.78 KCAL/MOL
REMARK 927      BINDING AFFINITY PREDICTED BY RF-SCORE:    0.00 PKD
ROOT
HETATM    1  C   UNL     1     -13.758   7.141  71.584  1.00  0.00    -0.406 C  
HETATM    2  C   UNL     1     -14.179   8.596  71.478  1.00  0.00    -0.412 C  
ENDROOT
BRANCH   2   3
HETATM    3  C   UNL     1     -13.190   9.506  72.204  1.00  0.00    -0.539 C  
BRANCH   3   4
HETATM    4  C   UNL     1     -12.624  10.561  71.259  1.00  0.00    -0.531 C  
BRANCH   4   5
HETATM    5  C   UNL     1     -11.637   9.931  70.284  1.00  0.00    -0.319 C  
BRANCH   5   6
HETATM    6  C   UNL     1     -10.431   9.367  71.023  1.00  0.00    -0.392 C  
BRANCH   6   7
HETATM    7  C   UNL     1     -10.182   7.924  70.606  1.00  0.00    -0.199 C  
BRANCH   7   8
HETATM    8  C   UNL     1     -10.903   7.615  69.302  1.00  0.00    -0.111 C  
BRANCH   8   9
HETATM    9  C   UNL     1      -9.896   7.292  68.205  1.00  0.00    -0.165 C  
BRANCH   9  10
HETATM   10  C   UNL     1     -10.245   8.048  66.934  1.00  0.00    -0.385 C  
BRANCH  10  11
HETATM   11  C   UNL     1      -9.439   9.331  66.830  1.00  0.00    -0.228 C  
BRANCH  11  12
HETATM   12  C   UNL     1     -10.367  10.531  66.916  1.00  0.00    -0.293 C  
BRANCH  12  13
HETATM   13  C   UNL     1     -10.649  11.119  65.539  1.00  0.00    -0.289 C  
BRANCH  13  14
HETATM   14  C   UNL     1     -11.652  12.271  65.594  1.00  0.00    -0.433 C  
BRANCH  14  15
HETATM   15  C   UNL     1     -11.797  12.932  66.968  1.00  0.00    -0.437 C  
BRANCH  15  16
HETATM   16  C   UNL     1     -11.957  14.453  66.888  1.00  0.00    -0.399 C  
BRANCH  16  17
HETATM   17  N   UNL     1     -10.638  15.224  67.075  1.00  0.00    -0.300 N  
HETATM   18  C   UNL     1      -9.596  14.352  67.766  1.00  0.00    -0.216 C  
HETATM   19  C   UNL     1     -10.095  15.685  65.723  1.00  0.00    -0.366 C  
BRANCH  17  20
HETATM   20  C   UNL     1     -10.958  16.481  67.957  1.00  0.00    -0.320 C  
BRANCH  20  21
HETATM   21  C   UNL     1     -10.072  17.673  67.690  1.00  0.00    -0.339 A  
HETATM   22  C   UNL     1      -8.791  17.750  68.261  1.00  0.00    -0.277 A  
HETATM   23  C   UNL     1      -8.086  18.953  68.243  1.00  0.00    -0.353 A  
HETATM   24  C   UNL     1      -8.637  20.074  67.626  1.00  0.00    -0.385 A  
HETATM   25  C   UNL     1      -9.863  19.981  66.976  1.00  0.00    -0.566 A  
HETATM   26  C   UNL     1     -10.568  18.779  66.984  1.00  0.00    -0.483 A  
ENDBRANCH  20  21
ENDBRANCH  17  20
ENDBRANCH  16  17
ENDBRANCH  15  16
ENDBRANCH  14  15
ENDBRANCH  13  14
ENDBRANCH  12  13
ENDBRANCH  11  12
ENDBRANCH  10  11
ENDBRANCH   9  10
ENDBRANCH   8   9
ENDBRANCH   7   8
ENDBRANCH   6   7
ENDBRANCH   5   6
ENDBRANCH   4   5
ENDBRANCH   3   4
ENDBRANCH   2   3
TORSDOF 17
ENDMDL
MODEL       81
REMARK 921   NORMALIZED FREE ENERGY PREDICTED BY IDOCK:   -4.05 KCAL/MOL
REMARK 922        TOTAL FREE ENERGY PREDICTED BY IDOCK:  -10.91 KCAL/MOL
REMARK 923 INTER-LIGAND FREE ENERGY PREDICTED BY IDOCK:   -9.48 KCAL/MOL
REMARK 924 INTRA-LIGAND FREE ENERGY PREDICTED BY IDOCK:   -1.43 KCAL/MOL
REMARK 927      BINDING AFFINITY PREDICTED BY RF-SCORE:    0.00 PKD
ROOT
HETATM    1  C   UNL     1      -7.139  20.884  67.135  1.00  0.00    -0.413 C  
HETATM    2  C   UNL     1      -8.112  19.790  67.539  1.00  0.00    -0.337 C  
ENDROOT
BRANCH   2   3
HETATM    3  C   UNL     1      -9.454  19.962  66.832  1.00  0.00    -0.506 C  
BRANCH   3   4
HETATM    4  C   UNL     1     -10.563  19.226  67.578  1.00  0.00    -0.581 C  
BRANCH   4   5
HETATM    5  C   UNL     1     -10.481  17.728  67.313  1.00  0.00    -0.356 C  
BRANCH   5   6
HETATM    6  C   UNL     1     -10.575  16.942  68.615  1.00  0.00    -0.360 C  
BRANCH   6   7
HETATM    7  C   UNL     1     -11.335  15.642  68.393  1.00  0.00    -0.365 C  
BRANCH   7   8
HETATM    8  C   UNL     1     -11.353  15.280  66.916  1.00  0.00    -0.209 C  
BRANCH   8   9
HETATM    9  C   UNL     1     -12.063  13.948  66.707  1.00  0.00    -0.476 C  
BRANCH   9  10
HETATM   10  C   UNL     1     -12.711  13.910  65.332  1.00  0.00    -0.525 C  
BRANCH  10  11
HETATM   11  C   UNL     1     -12.598  12.524  64.720  1.00  0.00    -0.493 C  
BRANCH  11  12
HETATM   12  C   UNL     1     -11.460  12.496  63.715  1.00  0.00    -0.542 C  
BRANCH  12  13
HETATM   13  C   UNL     1     -10.641  11.217  63.835  1.00  0.00    -0.455 C  
BRANCH  13  14
HETATM   14  C   UNL     1      -9.987  11.074  65.210  1.00  0.00    -0.320 C  
BRANCH  14  15
HETATM   15  C   UNL     1     -10.500   9.898  66.046  1.00  0.00    -0.112 C  
BRANCH  15  16
HETATM   16  C   UNL     1      -9.532   9.483  67.157  1.00  0.00    -0.149 C  
BRANCH  16  17
HETATM   17  N   UNL     1      -9.862  10.101  68.528  1.00  0.00    -0.150 N  
HETATM   18  C   UNL     1      -9.648   9.085  69.643  1.00  0.00    -0.171 C  
HETATM   19  C   UNL     1      -8.985  11.326  68.784  1.00  0.00    -0.111 C  
BRANCH  17  20
HETATM   20  C   UNL     1     -11.366  10.545  68.484  1.00  0.00    -0.257 C  
BRANCH  20  21
HETATM   21  C   UNL     1     -11.897  11.079  69.791  1.00  0.00    -0.421 A  
HETATM   22  C   UNL     1     -12.499  10.217  70.721  1.00  0.00    -0.417 A  
HETATM   23  C   UNL     1     -13.227  10.735  71.792  1.00  0.00    -0.523 A  
HETATM   24  C   UNL     1     -13.328  12.115  71.961  1.00  0.00    -0.470 A  
HETATM   25  C   UNL     1     -12.656  12.975  71.099  1.00  0.00    -0.388 A  
HETATM   26  C   UNL     1     -11.921  12.461  70.033  1.00  0.00    -0.372 A  
ENDBRANCH  20  21
ENDBRANCH  17  20
ENDBRANCH  16  17
ENDBRANCH  15  16
ENDBRANCH  14  15
ENDBRANCH  13  14
ENDBRANCH  12  13
ENDBRANCH  11  12
ENDBRANCH  10  11
ENDBRANCH   9  10
ENDBRANCH   8   9
ENDBRANCH   7   8
ENDBRANCH   6   7
ENDBRANCH   5   6
ENDBRANCH   4   5
ENDBRANCH   3   4
ENDBRANCH   2   3
TORSDOF 17
ENDMDL
MODEL       82
REMARK 921   NORMALIZED FREE ENERGY PREDICTED BY IDOCK:   -4.04 KCAL/MOL
REMARK 922        TOTAL FREE ENERGY PREDICTED BY IDOCK:  -10.90 KCAL/MOL
REMARK 923 INTER-LIGAND FREE ENERGY PREDICTED BY IDOCK:   -8.65 KCAL/MOL
REMARK 924 INTRA-LIGAND FREE ENERGY PREDICTED BY IDOCK:   -2.25 KCAL/MOL
REMARK 927      BINDING AFFINITY PREDICTED BY RF-SCORE:    0.00 PKD
ROOT
HETATM    1  C   UNL     1      -8.342   6.970  73.732  1.00  0.00    -0.158 C  
HETATM    2  C   UNL     1      -8.962   8.166  73.030  1.00  0.00    -0.335 C  
ENDROOT
BRANCH   2   3
HETATM    3  C   UNL     1      -8.068   8.658  71.894  1.00  0.00    -0.149 C  
BRANCH   3   4
HETATM    4  C   UNL     1      -8.883   8.915  70.630  1.00  0.00    -0.234 C  
BRANCH   4   5
HETATM    5  C   UNL     1      -9.100   7.618  69.861  1.00  0.00    -0.147 C  
BRANCH   5   6
HETATM    6  C   UNL     1     -10.415   7.658  69.094  1.00  0.00    -0.220 C  
BRANCH   6   7
HETATM    7  C   UNL     1     -11.280   6.461  69.463  1.00  0.00    -0.477 C  
BRANCH   7   8
HETATM    8  C   UNL     1     -11.361   6.308  70.975  1.00  0.00    -0.378 C  
BRANCH   8   9
HETATM    9  C   UNL     1     -12.650   6.927  71.499  1.00  0.00    -0.412 C  
BRANCH   9  10
HETATM   10  C   UNL     1     -12.363   8.278  72.135  1.00  0.00    -0.410 C  
BRANCH  10  11
HETATM   11  C   UNL     1     -13.584   9.179  72.062  1.00  0.00    -0.520 C  
BRANCH  11  12
HETATM   12  C   UNL     1     -13.148  10.630  71.952  1.00  0.00    -0.563 C  
BRANCH  12  13
HETATM   13  C   UNL     1     -12.155  10.830  70.813  1.00  0.00    -0.473 C  
BRANCH  13  14
HETATM   14  C   UNL     1     -12.143  12.270  70.300  1.00  0.00    -0.376 C  
BRANCH  14  15
HETATM   15  C   UNL     1     -11.258  12.507  69.072  1.00  0.00    -0.321 C  
BRANCH  15  16
HETATM   16  C   UNL     1     -11.860  13.510  68.084  1.00  0.00    -0.365 C  
BRANCH  16  17
HETATM   17  N   UNL     1     -11.162  13.520  66.712  1.00  0.00    -0.303 N  
HETATM   18  C   UNL     1     -11.506  14.789  65.941  1.00  0.00    -0.319 C  
HETATM   19  C   UNL     1      -9.647  13.427  66.884  1.00  0.00    -0.257 C  
BRANCH  17  20
HETATM   20  C   UNL     1     -11.670  12.259  65.927  1.00  0.00    -0.389 C  
BRANCH  20  21
HETATM   21  C   UNL     1     -10.573  11.350  65.432  1.00  0.00    -0.333 A  
HETATM   22  C   UNL     1     -10.121  11.435  64.105  1.00  0.00    -0.358 A  
HETATM   23  C   UNL     1      -9.314  10.430  63.571  1.00  0.00    -0.333 A  
HETATM   24  C   UNL     1      -8.925   9.354  64.367  1.00  0.00    -0.215 A  
HETATM   25  C   UNL     1      -9.289   9.311  65.709  1.00  0.00    -0.306 A  
HETATM   26  C   UNL     1     -10.089  10.317  66.248  1.00  0.00    -0.300 A  
ENDBRANCH  20  21
ENDBRANCH  17  20
ENDBRANCH  16  17
ENDBRANCH  15  16
ENDBRANCH  14  15
ENDBRANCH  13  14
ENDBRANCH  12  13
ENDBRANCH  11  12
ENDBRANCH  10  11
ENDBRANCH   9  10
ENDBRANCH   8   9
ENDBRANCH   7   8
ENDBRANCH   6   7
ENDBRANCH   5   6
ENDBRANCH   4   5
ENDBRANCH   3   4
ENDBRANCH   2   3
TORSDOF 17
ENDMDL
MODEL       83
REMARK 921   NORMALIZED FREE ENERGY PREDICTED BY IDOCK:   -4.04 KCAL/MOL
REMARK 922        TOTAL FREE ENERGY PREDICTED BY IDOCK:  -10.89 KCAL/MOL
REMARK 923 INTER-LIGAND FREE ENERGY PREDICTED BY IDOCK:   -8.57 KCAL/MOL
REMARK 924 INTRA-LIGAND FREE ENERGY PREDICTED BY IDOCK:   -2.32 KCAL/MOL
REMARK 927      BINDING AFFINITY PREDICTED BY RF-SCORE:    0.00 PKD
ROOT
HETATM    1  C   UNL     1      -7.726   9.286  65.878  1.00  0.00    -0.098 C  
HETATM    2  C   UNL     1      -8.876   9.044  64.915  1.00  0.00    -0.190 C  
ENDROOT
BRANCH   2   3
HETATM    3  C   UNL     1      -9.002  10.189  63.913  1.00  0.00    -0.270 C  
BRANCH   3   4
HETATM    4  C   UNL     1     -10.376  10.847  64.006  1.00  0.00    -0.417 C  
BRANCH   4   5
HETATM    5  C   UNL     1     -10.332  12.257  63.430  1.00  0.00    -0.395 C  
BRANCH   5   6
HETATM    6  C   UNL     1     -11.705  12.913  63.502  1.00  0.00    -0.576 C  
BRANCH   6   7
HETATM    7  C   UNL     1     -12.409  12.527  64.796  1.00  0.00    -0.544 C  
BRANCH   7   8
HETATM    8  C   UNL     1     -12.201  13.598  65.855  1.00  0.00    -0.502 C  
BRANCH   8   9
HETATM    9  C   UNL     1     -11.953  12.956  67.214  1.00  0.00    -0.371 C  
BRANCH   9  10
HETATM   10  C   UNL     1     -10.555  12.362  67.266  1.00  0.00    -0.246 C  
BRANCH  10  11
HETATM   11  C   UNL     1     -10.603  10.905  67.694  1.00  0.00    -0.263 C  
BRANCH  11  12
HETATM   12  C   UNL     1     -10.775  10.815  69.200  1.00  0.00    -0.265 C  
BRANCH  12  13
HETATM   13  C   UNL     1     -12.221  11.065  69.613  1.00  0.00    -0.370 C  
BRANCH  13  14
HETATM   14  C   UNL     1     -12.414  10.990  71.128  1.00  0.00    -0.502 C  
BRANCH  14  15
HETATM   15  C   UNL     1     -12.848  12.303  71.786  1.00  0.00    -0.359 C  
BRANCH  15  16
HETATM   16  C   UNL     1     -12.365  13.543  71.028  1.00  0.00    -0.338 C  
BRANCH  16  17
HETATM   17  N   UNL     1     -12.708  14.869  71.731  1.00  0.00    -0.313 N  
HETATM   18  C   UNL     1     -14.012  15.444  71.191  1.00  0.00    -0.316 C  
HETATM   19  C   UNL     1     -12.835  14.655  73.238  1.00  0.00    -0.467 C  
BRANCH  17  20
HETATM   20  C   UNL     1     -11.524  15.860  71.449  1.00  0.00    -0.417 C  
BRANCH  20  21
HETATM   21  C   UNL     1     -10.952  15.766  70.056  1.00  0.00    -0.344 A  
HETATM   22  C   UNL     1      -9.662  15.250  69.849  1.00  0.00    -0.108 A  
HETATM   23  C   UNL     1      -9.029  15.413  68.616  1.00  0.00    -0.191 A  
HETATM   24  C   UNL     1      -9.692  16.058  67.574  1.00  0.00    -0.228 A  
HETATM   25  C   UNL     1     -11.004  16.489  67.741  1.00  0.00    -0.252 A  
HETATM   26  C   UNL     1     -11.643  16.320  68.969  1.00  0.00    -0.231 A  
ENDBRANCH  20  21
ENDBRANCH  17  20
ENDBRANCH  16  17
ENDBRANCH  15  16
ENDBRANCH  14  15
ENDBRANCH  13  14
ENDBRANCH  12  13
ENDBRANCH  11  12
ENDBRANCH  10  11
ENDBRANCH   9  10
ENDBRANCH   8   9
ENDBRANCH   7   8
ENDBRANCH   6   7
ENDBRANCH   5   6
ENDBRANCH   4   5
ENDBRANCH   3   4
ENDBRANCH   2   3
TORSDOF 17
ENDMDL
MODEL       84
REMARK 921   NORMALIZED FREE ENERGY PREDICTED BY IDOCK:   -4.04 KCAL/MOL
REMARK 922        TOTAL FREE ENERGY PREDICTED BY IDOCK:  -10.88 KCAL/MOL
REMARK 923 INTER-LIGAND FREE ENERGY PREDICTED BY IDOCK:   -8.99 KCAL/MOL
REMARK 924 INTRA-LIGAND FREE ENERGY PREDICTED BY IDOCK:   -1.90 KCAL/MOL
REMARK 927      BINDING AFFINITY PREDICTED BY RF-SCORE:    0.00 PKD
ROOT
HETATM    1  C   UNL     1     -11.805  15.673  70.171  1.00  0.00    -0.381 C  
HETATM    2  C   UNL     1     -12.653  14.422  70.322  1.00  0.00    -0.380 C  
ENDROOT
BRANCH   2   3
HETATM    3  C   UNL     1     -13.178  14.286  71.749  1.00  0.00    -0.444 C  
BRANCH   3   4
HETATM    4  C   UNL     1     -13.496  12.830  72.077  1.00  0.00    -0.540 C  
BRANCH   4   5
HETATM    5  C   UNL     1     -12.759  11.894  71.127  1.00  0.00    -0.384 C  
BRANCH   5   6
HETATM    6  C   UNL     1     -12.823  10.456  71.625  1.00  0.00    -0.579 C  
BRANCH   6   7
HETATM    7  C   UNL     1     -11.884   9.574  70.814  1.00  0.00    -0.350 C  
BRANCH   7   8
HETATM    8  C   UNL     1     -10.884   8.880  71.727  1.00  0.00    -0.436 C  
BRANCH   8   9
HETATM    9  C   UNL     1     -11.318   7.443  71.989  1.00  0.00    -0.301 C  
BRANCH   9  10
HETATM   10  C   UNL     1     -11.966   6.856  70.745  1.00  0.00    -0.424 C  
BRANCH  10  11
HETATM   11  C   UNL     1     -11.009   5.918  70.030  1.00  0.00    -0.430 C  
BRANCH  11  12
HETATM   12  C   UNL     1     -10.941   6.277  68.555  1.00  0.00    -0.421 C  
BRANCH  12  13
HETATM   13  C   UNL     1     -10.104   7.529  68.324  1.00  0.00    -0.209 C  
BRANCH  13  14
HETATM   14  C   UNL     1     -10.522   8.281  67.060  1.00  0.00    -0.384 C  
BRANCH  14  15
HETATM   15  C   UNL     1     -10.702   9.791  67.240  1.00  0.00    -0.296 C  
BRANCH  15  16
HETATM   16  C   UNL     1      -9.746  10.617  66.376  1.00  0.00    -0.196 C  
BRANCH  16  17
HETATM   17  N   UNL     1      -8.707  11.411  67.188  1.00  0.00    -0.150 N  
HETATM   18  C   UNL     1      -8.976  11.280  68.682  1.00  0.00    -0.147 C  
HETATM   19  C   UNL     1      -7.296  10.910  66.881  1.00  0.00    -0.128 C  
BRANCH  17  20
HETATM   20  C   UNL     1      -8.828  12.913  66.749  1.00  0.00    -0.147 C  
BRANCH  20  21
HETATM   21  C   UNL     1     -10.146  13.272  66.110  1.00  0.00    -0.293 A  
HETATM   22  C   UNL     1     -11.239  13.662  66.902  1.00  0.00    -0.326 A  
HETATM   23  C   UNL     1     -12.518  13.728  66.350  1.00  0.00    -0.404 A  
HETATM   24  C   UNL     1     -12.710  13.440  65.000  1.00  0.00    -0.420 A  
HETATM   25  C   UNL     1     -11.620  13.146  64.188  1.00  0.00    -0.460 A  
HETATM   26  C   UNL     1     -10.338  13.087  64.733  1.00  0.00    -0.356 A  
ENDBRANCH  20  21
ENDBRANCH  17  20
ENDBRANCH  16  17
ENDBRANCH  15  16
ENDBRANCH  14  15
ENDBRANCH  13  14
ENDBRANCH  12  13
ENDBRANCH  11  12
ENDBRANCH  10  11
ENDBRANCH   9  10
ENDBRANCH   8   9
ENDBRANCH   7   8
ENDBRANCH   6   7
ENDBRANCH   5   6
ENDBRANCH   4   5
ENDBRANCH   3   4
ENDBRANCH   2   3
TORSDOF 17
ENDMDL
MODEL       85
REMARK 921   NORMALIZED FREE ENERGY PREDICTED BY IDOCK:   -4.03 KCAL/MOL
REMARK 922        TOTAL FREE ENERGY PREDICTED BY IDOCK:  -10.88 KCAL/MOL
REMARK 923 INTER-LIGAND FREE ENERGY PREDICTED BY IDOCK:   -9.68 KCAL/MOL
REMARK 924 INTRA-LIGAND FREE ENERGY PREDICTED BY IDOCK:   -1.21 KCAL/MOL
REMARK 927      BINDING AFFINITY PREDICTED BY RF-SCORE:    0.00 PKD
ROOT
HETATM    1  C   UNL     1     -11.529   5.632  72.715  1.00  0.00    -0.328 C  
HETATM    2  C   UNL     1     -11.114   6.044  71.313  1.00  0.00    -0.337 C  
ENDROOT
BRANCH   2   3
HETATM    3  C   UNL     1     -12.148   6.977  70.688  1.00  0.00    -0.332 C  
BRANCH   3   4
HETATM    4  C   UNL     1     -13.423   7.020  71.526  1.00  0.00    -0.363 C  
BRANCH   4   5
HETATM    5  C   UNL     1     -13.941   8.448  71.637  1.00  0.00    -0.460 C  
BRANCH   5   6
HETATM    6  C   UNL     1     -12.807   9.412  71.963  1.00  0.00    -0.496 C  
BRANCH   6   7
HETATM    7  C   UNL     1     -12.833  10.599  71.010  1.00  0.00    -0.496 C  
BRANCH   7   8
HETATM    8  C   UNL     1     -11.493  10.747  70.306  1.00  0.00    -0.406 C  
BRANCH   8   9
HETATM    9  C   UNL     1     -11.686  11.362  68.926  1.00  0.00    -0.409 C  
BRANCH   9  10
HETATM   10  C   UNL     1     -11.151  10.426  67.855  1.00  0.00    -0.363 C  
BRANCH  10  11
HETATM   11  C   UNL     1      -9.934  11.026  67.171  1.00  0.00    -0.218 C  
BRANCH  11  12
HETATM   12  C   UNL     1     -10.073  10.895  65.664  1.00  0.00    -0.318 C  
BRANCH  12  13
HETATM   13  C   UNL     1     -11.189  11.784  65.127  1.00  0.00    -0.311 C  
BRANCH  13  14
HETATM   14  C   UNL     1     -10.653  12.944  64.288  1.00  0.00    -0.430 C  
BRANCH  14  15
HETATM   15  C   UNL     1     -10.995  14.337  64.825  1.00  0.00    -0.408 C  
BRANCH  15  16
HETATM   16  C   UNL     1     -11.265  14.350  66.332  1.00  0.00    -0.345 C  
BRANCH  16  17
HETATM   17  N   UNL     1     -10.377  15.337  67.111  1.00  0.00    -0.261 N  
HETATM   18  C   UNL     1      -9.855  14.697  68.392  1.00  0.00    -0.220 C  
HETATM   19  C   UNL     1      -9.196  15.783  66.250  1.00  0.00    -0.333 C  
BRANCH  17  20
HETATM   20  C   UNL     1     -11.265  16.584  67.456  1.00  0.00     0.021 C  
BRANCH  20  21
HETATM   21  C   UNL     1     -10.548  17.907  67.350  1.00  0.00    -0.370 A  
HETATM   22  C   UNL     1      -9.967  18.495  68.485  1.00  0.00    -0.419 A  
HETATM   23  C   UNL     1      -9.550  19.826  68.451  1.00  0.00    -0.454 A  
HETATM   24  C   UNL     1      -9.677  20.566  67.277  1.00  0.00    -0.600 A  
HETATM   25  C   UNL     1     -10.164  19.963  66.122  1.00  0.00    -0.611 A  
HETATM   26  C   UNL     1     -10.575  18.631  66.149  1.00  0.00    -0.409 A  
ENDBRANCH  20  21
ENDBRANCH  17  20
ENDBRANCH  16  17
ENDBRANCH  15  16
ENDBRANCH  14  15
ENDBRANCH  13  14
ENDBRANCH  12  13
ENDBRANCH  11  12
ENDBRANCH  10  11
ENDBRANCH   9  10
ENDBRANCH   8   9
ENDBRANCH   7   8
ENDBRANCH   6   7
ENDBRANCH   5   6
ENDBRANCH   4   5
ENDBRANCH   3   4
ENDBRANCH   2   3
TORSDOF 17
ENDMDL
MODEL       86
REMARK 921   NORMALIZED FREE ENERGY PREDICTED BY IDOCK:   -4.03 KCAL/MOL
REMARK 922        TOTAL FREE ENERGY PREDICTED BY IDOCK:  -10.87 KCAL/MOL
REMARK 923 INTER-LIGAND FREE ENERGY PREDICTED BY IDOCK:   -8.02 KCAL/MOL
REMARK 924 INTRA-LIGAND FREE ENERGY PREDICTED BY IDOCK:   -2.85 KCAL/MOL
REMARK 927      BINDING AFFINITY PREDICTED BY RF-SCORE:    0.00 PKD
ROOT
HETATM    1  C   UNL     1     -10.463   6.946  73.661  1.00  0.00    -0.400 C  
HETATM    2  C   UNL     1      -9.816   6.246  72.479  1.00  0.00    -0.177 C  
ENDROOT
BRANCH   2   3
HETATM    3  C   UNL     1     -10.867   5.581  71.594  1.00  0.00    -0.271 C  
BRANCH   3   4
HETATM    4  C   UNL     1     -10.367   5.445  70.159  1.00  0.00    -0.361 C  
BRANCH   4   5
HETATM    5  C   UNL     1     -11.238   6.258  69.209  1.00  0.00    -0.458 C  
BRANCH   5   6
HETATM    6  C   UNL     1     -10.380   7.079  68.256  1.00  0.00    -0.223 C  
BRANCH   6   7
HETATM    7  C   UNL     1      -9.673   8.196  69.012  1.00  0.00    -0.163 C  
BRANCH   7   8
HETATM    8  C   UNL     1     -10.666   9.272  69.425  1.00  0.00    -0.222 C  
BRANCH   8   9
HETATM    9  C   UNL     1     -10.494   9.611  70.901  1.00  0.00    -0.359 C  
BRANCH   9  10
HETATM   10  C   UNL     1     -11.851   9.832  71.550  1.00  0.00    -0.476 C  
BRANCH  10  11
HETATM   11  C   UNL     1     -12.683  10.812  70.741  1.00  0.00    -0.451 C  
BRANCH  11  12
HETATM   12  C   UNL     1     -12.908  12.082  71.544  1.00  0.00    -0.403 C  
BRANCH  12  13
HETATM   13  C   UNL     1     -12.563  13.324  70.732  1.00  0.00    -0.357 C  
BRANCH  13  14
HETATM   14  C   UNL     1     -11.909  12.980  69.394  1.00  0.00    -0.380 C  
BRANCH  14  15
HETATM   15  C   UNL     1     -11.988  14.086  68.337  1.00  0.00    -0.378 C  
BRANCH  15  16
HETATM   16  C   UNL     1     -10.875  13.994  67.289  1.00  0.00    -0.284 C  
BRANCH  16  17
HETATM   17  N   UNL     1     -11.307  13.297  65.986  1.00  0.00    -0.299 N  
HETATM   18  C   UNL     1     -12.711  13.731  65.583  1.00  0.00    -0.478 C  
HETATM   19  C   UNL     1     -10.332  13.627  64.857  1.00  0.00    -0.388 C  
BRANCH  17  20
HETATM   20  C   UNL     1     -11.278  11.752  66.258  1.00  0.00    -0.312 C  
BRANCH  20  21
HETATM   21  C   UNL     1      -9.912  11.124  66.139  1.00  0.00    -0.273 A  
HETATM   22  C   UNL     1      -9.675  10.106  65.200  1.00  0.00    -0.370 A  
HETATM   23  C   UNL     1      -8.510   9.342  65.271  1.00  0.00    -0.161 A  
HETATM   24  C   UNL     1      -7.560   9.611  66.254  1.00  0.00    -0.101 A  
HETATM   25  C   UNL     1      -7.743  10.678  67.128  1.00  0.00    -0.110 A  
HETATM   26  C   UNL     1      -8.902  11.449  67.056  1.00  0.00    -0.168 A  
ENDBRANCH  20  21
ENDBRANCH  17  20
ENDBRANCH  16  17
ENDBRANCH  15  16
ENDBRANCH  14  15
ENDBRANCH  13  14
ENDBRANCH  12  13
ENDBRANCH  11  12
ENDBRANCH  10  11
ENDBRANCH   9  10
ENDBRANCH   8   9
ENDBRANCH   7   8
ENDBRANCH   6   7
ENDBRANCH   5   6
ENDBRANCH   4   5
ENDBRANCH   3   4
ENDBRANCH   2   3
TORSDOF 17
ENDMDL
MODEL       87
REMARK 921   NORMALIZED FREE ENERGY PREDICTED BY IDOCK:   -4.02 KCAL/MOL
REMARK 922        TOTAL FREE ENERGY PREDICTED BY IDOCK:  -10.86 KCAL/MOL
REMARK 923 INTER-LIGAND FREE ENERGY PREDICTED BY IDOCK:   -9.17 KCAL/MOL
REMARK 924 INTRA-LIGAND FREE ENERGY PREDICTED BY IDOCK:   -1.68 KCAL/MOL
REMARK 927      BINDING AFFINITY PREDICTED BY RF-SCORE:    0.00 PKD
ROOT
HETATM    1  C   UNL     1      -9.946   8.255  70.944  1.00  0.00    -0.223 C  
HETATM    2  C   UNL     1     -10.698   7.547  69.829  1.00  0.00    -0.249 C  
ENDROOT
BRANCH   2   3
HETATM    3  C   UNL     1     -11.541   6.399  70.380  1.00  0.00    -0.440 C  
BRANCH   3   4
HETATM    4  C   UNL     1     -12.300   6.831  71.631  1.00  0.00    -0.409 C  
BRANCH   4   5
HETATM    5  C   UNL     1     -13.788   6.968  71.333  1.00  0.00    -0.307 C  
BRANCH   5   6
HETATM    6  C   UNL     1     -14.306   8.329  71.778  1.00  0.00    -0.574 C  
BRANCH   6   7
HETATM    7  C   UNL     1     -13.193   9.126  72.444  1.00  0.00    -0.512 C  
BRANCH   7   8
HETATM    8  C   UNL     1     -13.183  10.558  71.930  1.00  0.00    -0.526 C  
BRANCH   8   9
HETATM    9  C   UNL     1     -12.528  10.622  70.556  1.00  0.00    -0.445 C  
BRANCH   9  10
HETATM   10  C   UNL     1     -12.055  12.037  70.266  1.00  0.00    -0.395 C  
BRANCH  10  11
HETATM   11  C   UNL     1     -11.966  12.279  68.769  1.00  0.00    -0.281 C  
BRANCH  11  12
HETATM   12  C   UNL     1     -11.361  11.065  68.085  1.00  0.00    -0.374 C  
BRANCH  12  13
HETATM   13  C   UNL     1     -10.232  11.460  67.141  1.00  0.00    -0.234 C  
BRANCH  13  14
HETATM   14  C   UNL     1      -9.094  12.179  67.866  1.00  0.00    -0.185 C  
BRANCH  14  15
HETATM   15  C   UNL     1      -9.120  13.706  67.751  1.00  0.00    -0.199 C  
BRANCH  15  16
HETATM   16  C   UNL     1      -9.580  14.196  66.375  1.00  0.00    -0.293 C  
BRANCH  16  17
HETATM   17  N   UNL     1     -10.787  15.150  66.430  1.00  0.00    -0.324 N  
HETATM   18  C   UNL     1     -12.044  14.458  65.916  1.00  0.00    -0.348 C  
HETATM   19  C   UNL     1     -11.022  15.629  67.862  1.00  0.00    -0.319 C  
BRANCH  17  20
HETATM   20  C   UNL     1     -10.442  16.383  65.523  1.00  0.00    -0.330 C  
BRANCH  20  21
HETATM   21  C   UNL     1      -9.950  17.593  66.278  1.00  0.00    -0.324 A  
HETATM   22  C   UNL     1     -10.738  18.753  66.357  1.00  0.00    -0.324 A  
HETATM   23  C   UNL     1     -10.183  19.950  66.811  1.00  0.00    -0.603 A  
HETATM   24  C   UNL     1      -8.852  19.988  67.221  1.00  0.00    -0.428 A  
HETATM   25  C   UNL     1      -8.091  18.823  67.235  1.00  0.00    -0.256 A  
HETATM   26  C   UNL     1      -8.645  17.624  66.791  1.00  0.00    -0.276 A  
ENDBRANCH  20  21
ENDBRANCH  17  20
ENDBRANCH  16  17
ENDBRANCH  15  16
ENDBRANCH  14  15
ENDBRANCH  13  14
ENDBRANCH  12  13
ENDBRANCH  11  12
ENDBRANCH  10  11
ENDBRANCH   9  10
ENDBRANCH   8   9
ENDBRANCH   7   8
ENDBRANCH   6   7
ENDBRANCH   5   6
ENDBRANCH   4   5
ENDBRANCH   3   4
ENDBRANCH   2   3
TORSDOF 17
ENDMDL
MODEL       88
REMARK 921   NORMALIZED FREE ENERGY PREDICTED BY IDOCK:   -4.02 KCAL/MOL
REMARK 922        TOTAL FREE ENERGY PREDICTED BY IDOCK:  -10.85 KCAL/MOL
REMARK 923 INTER-LIGAND FREE ENERGY PREDICTED BY IDOCK:   -7.57 KCAL/MOL
REMARK 924 INTRA-LIGAND FREE ENERGY PREDICTED BY IDOCK:   -3.29 KCAL/MOL
REMARK 927      BINDING AFFINITY PREDICTED BY RF-SCORE:    0.00 PKD
ROOT
HETATM    1  C   UNL     1     -11.032   6.433  68.167  1.00  0.00    -0.393 C  
HETATM    2  C   UNL     1     -10.329   5.500  69.138  1.00  0.00    -0.318 C  
ENDROOT
BRANCH   2   3
HETATM    3  C   UNL     1     -10.911   5.632  70.543  1.00  0.00    -0.315 C  
BRANCH   3   4
HETATM    4  C   UNL     1     -11.959   6.740  70.599  1.00  0.00    -0.418 C  
BRANCH   4   5
HETATM    5  C   UNL     1     -12.058   7.312  72.007  1.00  0.00    -0.327 C  
BRANCH   5   6
HETATM    6  C   UNL     1     -10.673   7.608  72.569  1.00  0.00    -0.350 C  
BRANCH   6   7
HETATM    7  C   UNL     1     -10.137   8.911  71.992  1.00  0.00    -0.351 C  
BRANCH   7   8
HETATM    8  C   UNL     1      -8.819   8.671  71.271  1.00  0.00    -0.263 C  
BRANCH   8   9
HETATM    9  C   UNL     1      -8.948   9.039  69.798  1.00  0.00    -0.157 C  
BRANCH   9  10
HETATM   10  C   UNL     1      -9.804  10.285  69.642  1.00  0.00    -0.230 C  
BRANCH  10  11
HETATM   11  C   UNL     1     -11.057   9.983  68.840  1.00  0.00    -0.219 C  
BRANCH  11  12
HETATM   12  C   UNL     1     -12.030  11.144  68.945  1.00  0.00    -0.367 C  
BRANCH  12  13
HETATM   13  C   UNL     1     -12.058  11.723  70.355  1.00  0.00    -0.440 C  
BRANCH  13  14
HETATM   14  C   UNL     1     -12.259  13.238  70.356  1.00  0.00    -0.404 C  
BRANCH  14  15
HETATM   15  C   UNL     1     -11.914  13.934  69.037  1.00  0.00    -0.402 C  
BRANCH  15  16
HETATM   16  C   UNL     1     -10.413  14.190  68.868  1.00  0.00    -0.222 C  
BRANCH  16  17
HETATM   17  N   UNL     1     -10.087  15.339  67.896  1.00  0.00    -0.231 N  
HETATM   18  C   UNL     1     -11.366  15.953  67.339  1.00  0.00    -0.048 C  
HETATM   19  C   UNL     1      -9.273  16.420  68.605  1.00  0.00    -0.231 C  
BRANCH  17  20
HETATM   20  C   UNL     1      -9.231  14.729  66.732  1.00  0.00    -0.260 C  
BRANCH  20  21
HETATM   21  C   UNL     1      -9.569  13.298  66.393  1.00  0.00    -0.260 A  
HETATM   22  C   UNL     1      -8.677  12.261  66.710  1.00  0.00    -0.175 A  
HETATM   23  C   UNL     1      -8.853  10.990  66.163  1.00  0.00    -0.197 A  
HETATM   24  C   UNL     1      -9.938  10.737  65.326  1.00  0.00    -0.342 A  
HETATM   25  C   UNL     1     -10.879  11.733  65.082  1.00  0.00    -0.351 A  
HETATM   26  C   UNL     1     -10.710  13.002  65.634  1.00  0.00    -0.293 A  
ENDBRANCH  20  21
ENDBRANCH  17  20
ENDBRANCH  16  17
ENDBRANCH  15  16
ENDBRANCH  14  15
ENDBRANCH  13  14
ENDBRANCH  12  13
ENDBRANCH  11  12
ENDBRANCH  10  11
ENDBRANCH   9  10
ENDBRANCH   8   9
ENDBRANCH   7   8
ENDBRANCH   6   7
ENDBRANCH   5   6
ENDBRANCH   4   5
ENDBRANCH   3   4
ENDBRANCH   2   3
TORSDOF 17
ENDMDL
MODEL       89
REMARK 921   NORMALIZED FREE ENERGY PREDICTED BY IDOCK:   -4.01 KCAL/MOL
REMARK 922        TOTAL FREE ENERGY PREDICTED BY IDOCK:  -10.83 KCAL/MOL
REMARK 923 INTER-LIGAND FREE ENERGY PREDICTED BY IDOCK:   -8.39 KCAL/MOL
REMARK 924 INTRA-LIGAND FREE ENERGY PREDICTED BY IDOCK:   -2.45 KCAL/MOL
REMARK 927      BINDING AFFINITY PREDICTED BY RF-SCORE:    0.00 PKD
ROOT
HETATM    1  C   UNL     1     -12.690  11.975  63.416  1.00  0.00    -0.527 C  
HETATM    2  C   UNL     1     -11.501  11.649  64.302  1.00  0.00    -0.332 C  
ENDROOT
BRANCH   2   3
HETATM    3  C   UNL     1     -10.406  12.703  64.158  1.00  0.00    -0.412 C  
BRANCH   3   4
HETATM    4  C   UNL     1     -10.199  13.459  65.467  1.00  0.00    -0.300 C  
BRANCH   4   5
HETATM    5  C   UNL     1     -11.248  14.553  65.624  1.00  0.00    -0.335 C  
BRANCH   5   6
HETATM    6  C   UNL     1     -12.117  14.297  66.848  1.00  0.00    -0.440 C  
BRANCH   6   7
HETATM    7  C   UNL     1     -11.261  14.273  68.107  1.00  0.00    -0.295 C  
BRANCH   7   8
HETATM    8  C   UNL     1     -11.823  13.280  69.114  1.00  0.00    -0.378 C  
BRANCH   8   9
HETATM    9  C   UNL     1     -11.780  11.868  68.544  1.00  0.00    -0.388 C  
BRANCH   9  10
HETATM   10  C   UNL     1     -11.835  10.846  69.668  1.00  0.00    -0.416 C  
BRANCH  10  11
HETATM   11  C   UNL     1     -12.417  11.462  70.929  1.00  0.00    -0.478 C  
BRANCH  11  12
HETATM   12  C   UNL     1     -13.057  10.381  71.782  1.00  0.00    -0.567 C  
BRANCH  12  13
HETATM   13  C   UNL     1     -12.183   9.134  71.852  1.00  0.00    -0.449 C  
BRANCH  13  14
HETATM   14  C   UNL     1     -12.967   7.858  71.548  1.00  0.00    -0.338 C  
BRANCH  14  15
HETATM   15  C   UNL     1     -12.112   6.595  71.409  1.00  0.00    -0.400 C  
BRANCH  15  16
HETATM   16  C   UNL     1     -11.306   6.555  70.108  1.00  0.00    -0.402 C  
BRANCH  16  17
HETATM   17  N   UNL     1      -9.859   6.066  70.291  1.00  0.00    -0.174 N  
HETATM   18  C   UNL     1      -9.162   6.846  71.400  1.00  0.00    -0.156 C  
HETATM   19  C   UNL     1      -9.840   4.576  70.632  1.00  0.00    -0.222 C  
BRANCH  17  20
HETATM   20  C   UNL     1      -9.118   6.292  68.926  1.00  0.00    -0.124 C  
BRANCH  20  21
HETATM   21  C   UNL     1      -9.351   7.648  68.308  1.00  0.00    -0.145 A  
HETATM   22  C   UNL     1     -10.241   7.797  67.231  1.00  0.00    -0.343 A  
HETATM   23  C   UNL     1     -10.253   8.978  66.488  1.00  0.00    -0.318 A  
HETATM   24  C   UNL     1      -9.406  10.028  66.836  1.00  0.00    -0.188 A  
HETATM   25  C   UNL     1      -8.590   9.924  67.958  1.00  0.00    -0.121 A  
HETATM   26  C   UNL     1      -8.581   8.749  68.708  1.00  0.00    -0.137 A  
ENDBRANCH  20  21
ENDBRANCH  17  20
ENDBRANCH  16  17
ENDBRANCH  15  16
ENDBRANCH  14  15
ENDBRANCH  13  14
ENDBRANCH  12  13
ENDBRANCH  11  12
ENDBRANCH  10  11
ENDBRANCH   9  10
ENDBRANCH   8   9
ENDBRANCH   7   8
ENDBRANCH   6   7
ENDBRANCH   5   6
ENDBRANCH   4   5
ENDBRANCH   3   4
ENDBRANCH   2   3
TORSDOF 17
ENDMDL
MODEL       90
REMARK 921   NORMALIZED FREE ENERGY PREDICTED BY IDOCK:   -4.00 KCAL/MOL
REMARK 922        TOTAL FREE ENERGY PREDICTED BY IDOCK:  -10.81 KCAL/MOL
REMARK 923 INTER-LIGAND FREE ENERGY PREDICTED BY IDOCK:   -8.51 KCAL/MOL
REMARK 924 INTRA-LIGAND FREE ENERGY PREDICTED BY IDOCK:   -2.31 KCAL/MOL
REMARK 927      BINDING AFFINITY PREDICTED BY RF-SCORE:    0.00 PKD
ROOT
HETATM    1  C   UNL     1     -11.083   5.909  72.640  1.00  0.00    -0.322 C  
HETATM    2  C   UNL     1     -11.126   7.426  72.708  1.00  0.00    -0.394 C  
ENDROOT
BRANCH   2   3
HETATM    3  C   UNL     1     -11.859   8.008  71.503  1.00  0.00    -0.328 C  
BRANCH   3   4
HETATM    4  C   UNL     1     -11.621   9.512  71.392  1.00  0.00    -0.466 C  
BRANCH   4   5
HETATM    5  C   UNL     1     -10.620   9.814  70.285  1.00  0.00    -0.348 C  
BRANCH   5   6
HETATM    6  C   UNL     1     -10.427   8.602  69.383  1.00  0.00    -0.224 C  
BRANCH   6   7
HETATM    7  C   UNL     1      -9.586   8.974  68.169  1.00  0.00    -0.164 C  
BRANCH   7   8
HETATM    8  C   UNL     1     -10.479   9.402  67.014  1.00  0.00    -0.302 C  
BRANCH   8   9
HETATM    9  C   UNL     1      -9.680   9.447  65.718  1.00  0.00    -0.354 C  
BRANCH   9  10
HETATM   10  C   UNL     1      -9.670  10.859  65.156  1.00  0.00    -0.312 C  
BRANCH  10  11
HETATM   11  C   UNL     1     -10.331  10.902  63.789  1.00  0.00    -0.384 C  
BRANCH  11  12
HETATM   12  C   UNL     1     -11.185  12.152  63.668  1.00  0.00    -0.540 C  
BRANCH  12  13
HETATM   13  C   UNL     1     -10.750  13.223  64.661  1.00  0.00    -0.415 C  
BRANCH  13  14
HETATM   14  C   UNL     1     -11.668  14.445  64.635  1.00  0.00    -0.438 C  
BRANCH  14  15
HETATM   15  C   UNL     1     -10.954  15.789  64.809  1.00  0.00    -0.410 C  
BRANCH  15  16
HETATM   16  C   UNL     1      -9.750  15.711  65.752  1.00  0.00    -0.345 C  
BRANCH  16  17
HETATM   17  N   UNL     1      -9.494  17.010  66.537  1.00  0.00    -0.264 N  
HETATM   18  C   UNL     1      -8.055  17.478  66.352  1.00  0.00    -0.274 C  
HETATM   19  C   UNL     1     -10.447  18.110  66.072  1.00  0.00    -0.335 C  
BRANCH  17  20
HETATM   20  C   UNL     1      -9.768  16.696  68.050  1.00  0.00    -0.241 C  
BRANCH  20  21
HETATM   21  C   UNL     1     -10.283  15.303  68.314  1.00  0.00    -0.226 A  
HETATM   22  C   UNL     1      -9.404  14.208  68.318  1.00  0.00    -0.203 A  
HETATM   23  C   UNL     1      -9.904  12.906  68.289  1.00  0.00    -0.228 A  
HETATM   24  C   UNL     1     -11.280  12.688  68.291  1.00  0.00    -0.312 A  
HETATM   25  C   UNL     1     -12.157  13.765  68.383  1.00  0.00    -0.324 A  
HETATM   26  C   UNL     1     -11.661  15.067  68.421  1.00  0.00    -0.352 A  
ENDBRANCH  20  21
ENDBRANCH  17  20
ENDBRANCH  16  17
ENDBRANCH  15  16
ENDBRANCH  14  15
ENDBRANCH  13  14
ENDBRANCH  12  13
ENDBRANCH  11  12
ENDBRANCH  10  11
ENDBRANCH   9  10
ENDBRANCH   8   9
ENDBRANCH   7   8
ENDBRANCH   6   7
ENDBRANCH   5   6
ENDBRANCH   4   5
ENDBRANCH   3   4
ENDBRANCH   2   3
TORSDOF 17
ENDMDL
MODEL       91
REMARK 921   NORMALIZED FREE ENERGY PREDICTED BY IDOCK:   -4.00 KCAL/MOL
REMARK 922        TOTAL FREE ENERGY PREDICTED BY IDOCK:  -10.81 KCAL/MOL
REMARK 923 INTER-LIGAND FREE ENERGY PREDICTED BY IDOCK:   -8.33 KCAL/MOL
REMARK 924 INTRA-LIGAND FREE ENERGY PREDICTED BY IDOCK:   -2.49 KCAL/MOL
REMARK 927      BINDING AFFINITY PREDICTED BY RF-SCORE:    0.00 PKD
ROOT
HETATM    1  C   UNL     1      -9.884   8.005  72.770  1.00  0.00    -0.351 C  
HETATM    2  C   UNL     1      -9.624   8.684  71.436  1.00  0.00    -0.313 C  
ENDROOT
BRANCH   2   3
HETATM    3  C   UNL     1      -9.581   7.665  70.301  1.00  0.00    -0.172 C  
BRANCH   3   4
HETATM    4  C   UNL     1      -9.274   8.342  68.969  1.00  0.00    -0.147 C  
BRANCH   4   5
HETATM    5  C   UNL     1     -10.548   8.519  68.153  1.00  0.00    -0.181 C  
BRANCH   5   6
HETATM    6  C   UNL     1     -10.361   9.584  67.080  1.00  0.00    -0.320 C  
BRANCH   6   7
HETATM    7  C   UNL     1     -10.559  10.972  67.673  1.00  0.00    -0.255 C  
BRANCH   7   8
HETATM    8  C   UNL     1     -11.860  11.035  68.459  1.00  0.00    -0.286 C  
BRANCH   8   9
HETATM    9  C   UNL     1     -11.572  11.248  69.940  1.00  0.00    -0.413 C  
BRANCH   9  10
HETATM   10  C   UNL     1     -12.705  10.680  70.781  1.00  0.00    -0.468 C  
BRANCH  10  11
HETATM   11  C   UNL     1     -13.386  11.777  71.581  1.00  0.00    -0.242 C  
BRANCH  11  12
HETATM   12  C   UNL     1     -12.582  13.062  71.481  1.00  0.00    -0.279 C  
BRANCH  12  13
HETATM   13  C   UNL     1     -13.481  14.290  71.560  1.00  0.00    -0.426 C  
BRANCH  13  14
HETATM   14  C   UNL     1     -12.994  15.425  70.657  1.00  0.00    -0.450 C  
BRANCH  14  15
HETATM   15  C   UNL     1     -12.172  14.975  69.446  1.00  0.00    -0.234 C  
BRANCH  15  16
HETATM   16  C   UNL     1     -11.562  16.144  68.667  1.00  0.00    -0.283 C  
BRANCH  16  17
HETATM   17  N   UNL     1     -10.378  15.738  67.770  1.00  0.00    -0.268 N  
HETATM   18  C   UNL     1      -9.196  16.676  67.982  1.00  0.00    -0.223 C  
HETATM   19  C   UNL     1      -9.948  14.304  68.074  1.00  0.00    -0.220 C  
BRANCH  17  20
HETATM   20  C   UNL     1     -10.875  15.824  66.284  1.00  0.00    -0.232 C  
BRANCH  20  21
HETATM   21  C   UNL     1     -11.178  14.489  65.651  1.00  0.00    -0.335 A  
HETATM   22  C   UNL     1     -10.237  13.867  64.814  1.00  0.00    -0.353 A  
HETATM   23  C   UNL     1     -10.612  12.784  64.019  1.00  0.00    -0.446 A  
HETATM   24  C   UNL     1     -11.914  12.293  64.079  1.00  0.00    -0.551 A  
HETATM   25  C   UNL     1     -12.826  12.843  64.974  1.00  0.00    -0.348 A  
HETATM   26  C   UNL     1     -12.454  13.920  65.777  1.00  0.00    -0.530 A  
ENDBRANCH  20  21
ENDBRANCH  17  20
ENDBRANCH  16  17
ENDBRANCH  15  16
ENDBRANCH  14  15
ENDBRANCH  13  14
ENDBRANCH  12  13
ENDBRANCH  11  12
ENDBRANCH  10  11
ENDBRANCH   9  10
ENDBRANCH   8   9
ENDBRANCH   7   8
ENDBRANCH   6   7
ENDBRANCH   5   6
ENDBRANCH   4   5
ENDBRANCH   3   4
ENDBRANCH   2   3
TORSDOF 17
ENDMDL
MODEL       92
REMARK 921   NORMALIZED FREE ENERGY PREDICTED BY IDOCK:   -3.99 KCAL/MOL
REMARK 922        TOTAL FREE ENERGY PREDICTED BY IDOCK:  -10.80 KCAL/MOL
REMARK 923 INTER-LIGAND FREE ENERGY PREDICTED BY IDOCK:   -7.95 KCAL/MOL
REMARK 924 INTRA-LIGAND FREE ENERGY PREDICTED BY IDOCK:   -2.85 KCAL/MOL
REMARK 927      BINDING AFFINITY PREDICTED BY RF-SCORE:    0.00 PKD
ROOT
HETATM    1  C   UNL     1      -8.362  11.710  66.746  1.00  0.00    -0.171 C  
HETATM    2  C   UNL     1      -8.544  10.947  65.445  1.00  0.00    -0.123 C  
ENDROOT
BRANCH   2   3
HETATM    3  C   UNL     1     -10.001  10.535  65.251  1.00  0.00    -0.364 C  
BRANCH   3   4
HETATM    4  C   UNL     1     -10.458  10.803  63.819  1.00  0.00    -0.218 C  
BRANCH   4   5
HETATM    5  C   UNL     1     -10.540  12.301  63.556  1.00  0.00    -0.488 C  
BRANCH   5   6
HETATM    6  C   UNL     1     -11.954  12.815  63.796  1.00  0.00    -0.585 C  
BRANCH   6   7
HETATM    7  C   UNL     1     -11.913  14.144  64.538  1.00  0.00    -0.476 C  
BRANCH   7   8
HETATM    8  C   UNL     1     -12.527  14.000  65.923  1.00  0.00    -0.513 C  
BRANCH   8   9
HETATM    9  C   UNL     1     -11.435  13.798  66.966  1.00  0.00    -0.368 C  
BRANCH   9  10
HETATM   10  C   UNL     1     -11.649  12.486  67.703  1.00  0.00    -0.416 C  
BRANCH  10  11
HETATM   11  C   UNL     1     -11.795  12.724  69.196  1.00  0.00    -0.352 C  
BRANCH  11  12
HETATM   12  C   UNL     1     -11.951  11.395  69.916  1.00  0.00    -0.434 C  
BRANCH  12  13
HETATM   13  C   UNL     1     -11.148  10.293  69.235  1.00  0.00    -0.293 C  
BRANCH  13  14
HETATM   14  C   UNL     1      -9.779  10.087  69.882  1.00  0.00    -0.245 C  
BRANCH  14  15
HETATM   15  C   UNL     1      -8.925   8.987  69.245  1.00  0.00    -0.144 C  
BRANCH  15  16
HETATM   16  C   UNL     1      -9.743   7.765  68.817  1.00  0.00    -0.157 C  
BRANCH  16  17
HETATM   17  N   UNL     1      -8.990   6.431  68.976  1.00  0.00    -0.128 N  
HETATM   18  C   UNL     1      -8.932   5.684  67.650  1.00  0.00    -0.107 C  
HETATM   19  C   UNL     1      -7.569   6.679  69.481  1.00  0.00    -0.095 C  
BRANCH  17  20
HETATM   20  C   UNL     1      -9.774   5.583  70.039  1.00  0.00    -0.178 C  
BRANCH  20  21
HETATM   21  C   UNL     1     -10.613   6.399  70.991  1.00  0.00    -0.282 A  
HETATM   22  C   UNL     1     -11.942   6.721  70.673  1.00  0.00    -0.418 A  
HETATM   23  C   UNL     1     -12.626   7.690  71.408  1.00  0.00    -0.359 A  
HETATM   24  C   UNL     1     -12.001   8.315  72.485  1.00  0.00    -0.420 A  
HETATM   25  C   UNL     1     -10.719   7.934  72.866  1.00  0.00    -0.440 A  
HETATM   26  C   UNL     1     -10.035   6.961  72.139  1.00  0.00    -0.176 A  
ENDBRANCH  20  21
ENDBRANCH  17  20
ENDBRANCH  16  17
ENDBRANCH  15  16
ENDBRANCH  14  15
ENDBRANCH  13  14
ENDBRANCH  12  13
ENDBRANCH  11  12
ENDBRANCH  10  11
ENDBRANCH   9  10
ENDBRANCH   8   9
ENDBRANCH   7   8
ENDBRANCH   6   7
ENDBRANCH   5   6
ENDBRANCH   4   5
ENDBRANCH   3   4
ENDBRANCH   2   3
TORSDOF 17
ENDMDL
MODEL       93
REMARK 921   NORMALIZED FREE ENERGY PREDICTED BY IDOCK:   -3.99 KCAL/MOL
REMARK 922        TOTAL FREE ENERGY PREDICTED BY IDOCK:  -10.79 KCAL/MOL
REMARK 923 INTER-LIGAND FREE ENERGY PREDICTED BY IDOCK:   -9.23 KCAL/MOL
REMARK 924 INTRA-LIGAND FREE ENERGY PREDICTED BY IDOCK:   -1.56 KCAL/MOL
REMARK 927      BINDING AFFINITY PREDICTED BY RF-SCORE:    0.00 PKD
ROOT
HETATM    1  C   UNL     1     -10.510  11.726  63.438  1.00  0.00    -0.485 C  
HETATM    2  C   UNL     1     -11.861  12.415  63.518  1.00  0.00    -0.605 C  
ENDROOT
BRANCH   2   3
HETATM    3  C   UNL     1     -12.404  12.392  64.944  1.00  0.00    -0.475 C  
BRANCH   3   4
HETATM    4  C   UNL     1     -12.519  13.806  65.508  1.00  0.00    -0.548 C  
BRANCH   4   5
HETATM    5  C   UNL     1     -12.048  14.829  64.483  1.00  0.00    -0.460 C  
BRANCH   5   6
HETATM    6  C   UNL     1     -10.956  15.717  65.067  1.00  0.00    -0.445 C  
BRANCH   6   7
HETATM    7  C   UNL     1     -10.185  14.966  66.144  1.00  0.00    -0.314 C  
BRANCH   7   8
HETATM    8  C   UNL     1     -10.061  15.816  67.400  1.00  0.00    -0.246 C  
BRANCH   8   9
HETATM    9  C   UNL     1     -10.227  14.951  68.642  1.00  0.00    -0.236 C  
BRANCH   9  10
HETATM   10  C   UNL     1     -11.693  14.875  69.036  1.00  0.00    -0.347 C  
BRANCH  10  11
HETATM   11  C   UNL     1     -12.023  13.516  69.629  1.00  0.00    -0.397 C  
BRANCH  11  12
HETATM   12  C   UNL     1     -11.355  12.422  68.813  1.00  0.00    -0.339 C  
BRANCH  12  13
HETATM   13  C   UNL     1     -11.994  11.063  69.073  1.00  0.00    -0.364 C  
BRANCH  13  14
HETATM   14  C   UNL     1     -12.702  11.003  70.426  1.00  0.00    -0.297 C  
BRANCH  14  15
HETATM   15  C   UNL     1     -12.287   9.829  71.318  1.00  0.00    -0.465 C  
BRANCH  15  16
HETATM   16  C   UNL     1     -10.949   9.207  70.906  1.00  0.00    -0.282 C  
BRANCH  16  17
HETATM   17  N   UNL     1     -10.756   7.766  71.414  1.00  0.00    -0.221 N  
HETATM   18  C   UNL     1      -9.297   7.342  71.290  1.00  0.00    -0.153 C  
HETATM   19  C   UNL     1     -11.193   7.653  72.873  1.00  0.00    -0.372 C  
BRANCH  17  20
HETATM   20  C   UNL     1     -11.663   6.839  70.530  1.00  0.00    -0.375 C  
BRANCH  20  21
HETATM   21  C   UNL     1     -10.942   6.165  69.390  1.00  0.00    -0.454 A  
HETATM   22  C   UNL     1     -11.112   6.619  68.072  1.00  0.00    -0.296 A  
HETATM   23  C   UNL     1     -10.673   5.843  66.999  1.00  0.00    -0.396 A  
HETATM   24  C   UNL     1     -10.031   4.628  67.235  1.00  0.00    -0.203 A  
HETATM   25  C   UNL     1      -9.774   4.217  68.539  1.00  0.00    -0.148 A  
HETATM   26  C   UNL     1     -10.204   4.994  69.614  1.00  0.00    -0.306 A  
ENDBRANCH  20  21
ENDBRANCH  17  20
ENDBRANCH  16  17
ENDBRANCH  15  16
ENDBRANCH  14  15
ENDBRANCH  13  14
ENDBRANCH  12  13
ENDBRANCH  11  12
ENDBRANCH  10  11
ENDBRANCH   9  10
ENDBRANCH   8   9
ENDBRANCH   7   8
ENDBRANCH   6   7
ENDBRANCH   5   6
ENDBRANCH   4   5
ENDBRANCH   3   4
ENDBRANCH   2   3
TORSDOF 17
ENDMDL
MODEL       94
REMARK 921   NORMALIZED FREE ENERGY PREDICTED BY IDOCK:   -3.98 KCAL/MOL
REMARK 922        TOTAL FREE ENERGY PREDICTED BY IDOCK:  -10.78 KCAL/MOL
REMARK 923 INTER-LIGAND FREE ENERGY PREDICTED BY IDOCK:   -8.65 KCAL/MOL
REMARK 924 INTRA-LIGAND FREE ENERGY PREDICTED BY IDOCK:   -2.14 KCAL/MOL
REMARK 927      BINDING AFFINITY PREDICTED BY RF-SCORE:    0.00 PKD
ROOT
HETATM    1  C   UNL     1      -9.239  20.084  66.125  1.00  0.00    -0.389 C  
HETATM    2  C   UNL     1     -10.515  19.260  66.170  1.00  0.00    -0.577 C  
ENDROOT
BRANCH   2   3
HETATM    3  C   UNL     1     -10.901  18.926  67.608  1.00  0.00    -0.407 C  
BRANCH   3   4
HETATM    4  C   UNL     1      -9.665  18.622  68.449  1.00  0.00    -0.405 C  
BRANCH   4   5
HETATM    5  C   UNL     1      -9.567  17.129  68.736  1.00  0.00    -0.269 C  
BRANCH   5   6
HETATM    6  C   UNL     1     -10.948  16.533  68.978  1.00  0.00    -0.306 C  
BRANCH   6   7
HETATM    7  C   UNL     1     -11.024  15.927  70.373  1.00  0.00    -0.361 C  
BRANCH   7   8
HETATM    8  C   UNL     1     -12.465  15.594  70.731  1.00  0.00    -0.484 C  
BRANCH   8   9
HETATM    9  C   UNL     1     -12.635  15.543  72.244  1.00  0.00    -0.481 C  
BRANCH   9  10
HETATM   10  C   UNL     1     -13.123  14.168  72.671  1.00  0.00    -0.564 C  
BRANCH  10  11
HETATM   11  C   UNL     1     -13.346  13.275  71.462  1.00  0.00    -0.330 C  
BRANCH  11  12
HETATM   12  C   UNL     1     -13.209  11.817  71.866  1.00  0.00    -0.468 C  
BRANCH  12  13
HETATM   13  C   UNL     1     -12.410  11.026  70.838  1.00  0.00    -0.503 C  
BRANCH  13  14
HETATM   14  C   UNL     1     -12.306   9.544  71.199  1.00  0.00    -0.410 C  
BRANCH  14  15
HETATM   15  C   UNL     1     -10.893   8.960  71.114  1.00  0.00    -0.352 C  
BRANCH  15  16
HETATM   16  C   UNL     1     -10.593   8.307  69.762  1.00  0.00    -0.228 C  
BRANCH  16  17
HETATM   17  N   UNL     1      -9.141   8.506  69.288  1.00  0.00    -0.152 N  
HETATM   18  C   UNL     1      -8.337   9.280  70.325  1.00  0.00    -0.186 C  
HETATM   19  C   UNL     1      -8.475   7.154  69.037  1.00  0.00    -0.129 C  
BRANCH  17  20
HETATM   20  C   UNL     1      -9.201   9.309  67.942  1.00  0.00    -0.129 C  
BRANCH  20  21
HETATM   21  C   UNL     1      -9.931  10.626  68.034  1.00  0.00    -0.180 A  
HETATM   22  C   UNL     1     -11.221  10.764  67.497  1.00  0.00    -0.346 A  
HETATM   23  C   UNL     1     -11.784  12.031  67.336  1.00  0.00    -0.352 A  
HETATM   24  C   UNL     1     -11.078  13.162  67.741  1.00  0.00    -0.287 A  
HETATM   25  C   UNL     1      -9.839  13.028  68.360  1.00  0.00    -0.203 A  
HETATM   26  C   UNL     1      -9.278  11.764  68.531  1.00  0.00    -0.152 A  
ENDBRANCH  20  21
ENDBRANCH  17  20
ENDBRANCH  16  17
ENDBRANCH  15  16
ENDBRANCH  14  15
ENDBRANCH  13  14
ENDBRANCH  12  13
ENDBRANCH  11  12
ENDBRANCH  10  11
ENDBRANCH   9  10
ENDBRANCH   8   9
ENDBRANCH   7   8
ENDBRANCH   6   7
ENDBRANCH   5   6
ENDBRANCH   4   5
ENDBRANCH   3   4
ENDBRANCH   2   3
TORSDOF 17
ENDMDL
MODEL       95
REMARK 921   NORMALIZED FREE ENERGY PREDICTED BY IDOCK:   -3.98 KCAL/MOL
REMARK 922        TOTAL FREE ENERGY PREDICTED BY IDOCK:  -10.77 KCAL/MOL
REMARK 923 INTER-LIGAND FREE ENERGY PREDICTED BY IDOCK:   -7.69 KCAL/MOL
REMARK 924 INTRA-LIGAND FREE ENERGY PREDICTED BY IDOCK:   -3.08 KCAL/MOL
REMARK 927      BINDING AFFINITY PREDICTED BY RF-SCORE:    0.00 PKD
ROOT
HETATM    1  C   UNL     1     -10.684   6.025  67.368  1.00  0.00    -0.393 C  
HETATM    2  C   UNL     1     -11.197   6.429  68.739  1.00  0.00    -0.358 C  
ENDROOT
BRANCH   2   3
HETATM    3  C   UNL     1     -10.636   5.515  69.825  1.00  0.00    -0.388 C  
BRANCH   3   4
HETATM    4  C   UNL     1     -11.132   5.937  71.205  1.00  0.00    -0.305 C  
BRANCH   4   5
HETATM    5  C   UNL     1     -11.848   7.280  71.128  1.00  0.00    -0.345 C  
BRANCH   5   6
HETATM    6  C   UNL     1     -11.364   8.215  72.228  1.00  0.00    -0.429 C  
BRANCH   6   7
HETATM    7  C   UNL     1     -10.093   7.669  72.865  1.00  0.00    -0.343 C  
BRANCH   7   8
HETATM    8  C   UNL     1      -8.913   8.581  72.563  1.00  0.00    -0.270 C  
BRANCH   8   9
HETATM    9  C   UNL     1      -7.720   7.761  72.091  1.00  0.00    -0.107 C  
BRANCH   9  10
HETATM   10  C   UNL     1      -7.847   7.457  70.606  1.00  0.00    -0.097 C  
BRANCH  10  11
HETATM   11  C   UNL     1      -7.500   8.679  69.774  1.00  0.00    -0.060 C  
BRANCH  11  12
HETATM   12  C   UNL     1      -8.656   9.018  68.850  1.00  0.00    -0.131 C  
BRANCH  12  13
HETATM   13  C   UNL     1      -9.266  10.373  69.192  1.00  0.00    -0.202 C  
BRANCH  13  14
HETATM   14  C   UNL     1     -10.794  10.333  69.212  1.00  0.00    -0.275 C  
BRANCH  14  15
HETATM   15  C   UNL     1     -11.477  11.621  68.742  1.00  0.00    -0.346 C  
BRANCH  15  16
HETATM   16  C   UNL     1     -10.506  12.614  68.098  1.00  0.00    -0.231 C  
BRANCH  16  17
HETATM   17  N   UNL     1     -11.063  13.289  66.831  1.00  0.00    -0.283 N  
HETATM   18  C   UNL     1     -12.161  14.284  67.188  1.00  0.00    -0.377 C  
HETATM   19  C   UNL     1      -9.947  14.014  66.080  1.00  0.00    -0.312 C  
BRANCH  17  20
HETATM   20  C   UNL     1     -11.643  12.151  65.919  1.00  0.00    -0.364 C  
BRANCH  20  21
HETATM   21  C   UNL     1     -10.615  11.454  65.063  1.00  0.00    -0.359 A  
HETATM   22  C   UNL     1     -10.426  11.834  63.724  1.00  0.00    -0.466 A  
HETATM   23  C   UNL     1      -9.685  11.026  62.862  1.00  0.00    -0.353 A  
HETATM   24  C   UNL     1      -9.100   9.854  63.337  1.00  0.00    -0.291 A  
HETATM   25  C   UNL     1      -9.202   9.519  64.683  1.00  0.00    -0.247 A  
HETATM   26  C   UNL     1      -9.934  10.328  65.550  1.00  0.00    -0.364 A  
ENDBRANCH  20  21
ENDBRANCH  17  20
ENDBRANCH  16  17
ENDBRANCH  15  16
ENDBRANCH  14  15
ENDBRANCH  13  14
ENDBRANCH  12  13
ENDBRANCH  11  12
ENDBRANCH  10  11
ENDBRANCH   9  10
ENDBRANCH   8   9
ENDBRANCH   7   8
ENDBRANCH   6   7
ENDBRANCH   5   6
ENDBRANCH   4   5
ENDBRANCH   3   4
ENDBRANCH   2   3
TORSDOF 17
ENDMDL
MODEL       96
REMARK 921   NORMALIZED FREE ENERGY PREDICTED BY IDOCK:   -3.98 KCAL/MOL
REMARK 922        TOTAL FREE ENERGY PREDICTED BY IDOCK:  -10.76 KCAL/MOL
REMARK 923 INTER-LIGAND FREE ENERGY PREDICTED BY IDOCK:   -8.35 KCAL/MOL
REMARK 924 INTRA-LIGAND FREE ENERGY PREDICTED BY IDOCK:   -2.42 KCAL/MOL
REMARK 927      BINDING AFFINITY PREDICTED BY RF-SCORE:    0.00 PKD
ROOT
HETATM    1  C   UNL     1      -8.249   7.537  74.204  1.00  0.00    -0.230 C  
HETATM    2  C   UNL     1      -8.866   8.293  73.040  1.00  0.00    -0.302 C  
ENDROOT
BRANCH   2   3
HETATM    3  C   UNL     1      -7.809   8.654  71.999  1.00  0.00    -0.104 C  
BRANCH   3   4
HETATM    4  C   UNL     1      -8.377   8.554  70.586  1.00  0.00    -0.141 C  
BRANCH   4   5
HETATM    5  C   UNL     1      -9.133   7.244  70.406  1.00  0.00    -0.155 C  
BRANCH   5   6
HETATM    6  C   UNL     1     -10.195   7.377  69.322  1.00  0.00    -0.199 C  
BRANCH   6   7
HETATM    7  C   UNL     1     -11.331   6.394  69.572  1.00  0.00    -0.460 C  
BRANCH   7   8
HETATM    8  C   UNL     1     -11.577   6.233  71.064  1.00  0.00    -0.337 C  
BRANCH   8   9
HETATM    9  C   UNL     1     -12.809   7.025  71.485  1.00  0.00    -0.420 C  
BRANCH   9  10
HETATM   10  C   UNL     1     -12.393   8.304  72.194  1.00  0.00    -0.410 C  
BRANCH  10  11
HETATM   11  C   UNL     1     -13.540   9.299  72.228  1.00  0.00    -0.544 C  
BRANCH  11  12
HETATM   12  C   UNL     1     -13.082  10.632  71.662  1.00  0.00    -0.555 C  
BRANCH  12  13
HETATM   13  C   UNL     1     -11.744  10.504  70.943  1.00  0.00    -0.431 C  
BRANCH  13  14
HETATM   14  C   UNL     1     -11.719  11.273  69.622  1.00  0.00    -0.420 C  
BRANCH  14  15
HETATM   15  C   UNL     1     -10.541  10.935  68.704  1.00  0.00    -0.224 C  
BRANCH  15  16
HETATM   16  C   UNL     1     -10.977  10.533  67.292  1.00  0.00    -0.260 C  
BRANCH  16  17
HETATM   17  N   UNL     1     -10.399  11.435  66.186  1.00  0.00    -0.241 N  
HETATM   18  C   UNL     1      -9.071  12.041  66.624  1.00  0.00    -0.205 C  
HETATM   19  C   UNL     1     -10.191  10.634  64.901  1.00  0.00    -0.324 C  
BRANCH  17  20
HETATM   20  C   UNL     1     -11.448  12.571  65.921  1.00  0.00    -0.373 C  
BRANCH  20  21
HETATM   21  C   UNL     1     -10.979  13.954  66.301  1.00  0.00    -0.298 A  
HETATM   22  C   UNL     1     -11.164  14.436  67.607  1.00  0.00    -0.328 A  
HETATM   23  C   UNL     1     -10.986  15.790  67.889  1.00  0.00    -0.324 A  
HETATM   24  C   UNL     1     -10.587  16.664  66.879  1.00  0.00    -0.229 A  
HETATM   25  C   UNL     1     -10.309  16.179  65.605  1.00  0.00    -0.405 A  
HETATM   26  C   UNL     1     -10.478  14.825  65.322  1.00  0.00    -0.427 A  
ENDBRANCH  20  21
ENDBRANCH  17  20
ENDBRANCH  16  17
ENDBRANCH  15  16
ENDBRANCH  14  15
ENDBRANCH  13  14
ENDBRANCH  12  13
ENDBRANCH  11  12
ENDBRANCH  10  11
ENDBRANCH   9  10
ENDBRANCH   8   9
ENDBRANCH   7   8
ENDBRANCH   6   7
ENDBRANCH   5   6
ENDBRANCH   4   5
ENDBRANCH   3   4
ENDBRANCH   2   3
TORSDOF 17
ENDMDL
MODEL       97
REMARK 921   NORMALIZED FREE ENERGY PREDICTED BY IDOCK:   -3.95 KCAL/MOL
REMARK 922        TOTAL FREE ENERGY PREDICTED BY IDOCK:  -10.71 KCAL/MOL
REMARK 923 INTER-LIGAND FREE ENERGY PREDICTED BY IDOCK:   -9.01 KCAL/MOL
REMARK 924 INTRA-LIGAND FREE ENERGY PREDICTED BY IDOCK:   -1.71 KCAL/MOL
REMARK 927      BINDING AFFINITY PREDICTED BY RF-SCORE:    0.00 PKD
ROOT
HETATM    1  C   UNL     1     -10.298   6.872  67.202  1.00  0.00    -0.339 C  
HETATM    2  C   UNL     1     -10.652   7.501  68.539  1.00  0.00    -0.172 C  
ENDROOT
BRANCH   2   3
HETATM    3  C   UNL     1      -9.532   7.292  69.555  1.00  0.00    -0.155 C  
BRANCH   3   4
HETATM    4  C   UNL     1     -10.058   6.605  70.813  1.00  0.00    -0.205 C  
BRANCH   4   5
HETATM    5  C   UNL     1     -11.533   6.259  70.656  1.00  0.00    -0.397 C  
BRANCH   5   6
HETATM    6  C   UNL     1     -12.335   6.751  71.854  1.00  0.00    -0.369 C  
BRANCH   6   7
HETATM    7  C   UNL     1     -11.699   8.006  72.435  1.00  0.00    -0.444 C  
BRANCH   7   8
HETATM    8  C   UNL     1     -12.492   9.240  72.033  1.00  0.00    -0.451 C  
BRANCH   8   9
HETATM    9  C   UNL     1     -11.723  10.048  70.995  1.00  0.00    -0.479 C  
BRANCH   9  10
HETATM   10  C   UNL     1     -12.430  11.367  70.728  1.00  0.00    -0.460 C  
BRANCH  10  11
HETATM   11  C   UNL     1     -11.756  12.120  69.594  1.00  0.00    -0.396 C  
BRANCH  11  12
HETATM   12  C   UNL     1     -11.864  11.320  68.308  1.00  0.00    -0.299 C  
BRANCH  12  13
HETATM   13  C   UNL     1     -10.495  11.083  67.681  1.00  0.00    -0.239 C  
BRANCH  13  14
HETATM   14  C   UNL     1     -10.565  10.969  66.158  1.00  0.00    -0.288 C  
BRANCH  14  15
HETATM   15  C   UNL     1     -10.560  12.306  65.413  1.00  0.00    -0.309 C  
BRANCH  15  16
HETATM   16  C   UNL     1      -9.737  13.385  66.122  1.00  0.00    -0.250 C  
BRANCH  16  17
HETATM   17  N   UNL     1     -10.426  14.761  66.163  1.00  0.00    -0.293 N  
HETATM   18  C   UNL     1     -11.382  14.921  64.987  1.00  0.00    -0.398 C  
HETATM   19  C   UNL     1     -11.198  14.931  67.470  1.00  0.00    -0.328 C  
BRANCH  17  20
HETATM   20  C   UNL     1      -9.295  15.847  66.088  1.00  0.00    -0.350 C  
BRANCH  20  21
HETATM   21  C   UNL     1      -9.661  17.172  66.708  1.00  0.00    -0.279 A  
HETATM   22  C   UNL     1     -10.368  18.134  65.969  1.00  0.00    -0.360 A  
HETATM   23  C   UNL     1     -10.468  19.445  66.436  1.00  0.00    -0.581 A  
HETATM   24  C   UNL     1      -9.894  19.795  67.656  1.00  0.00    -0.514 A  
HETATM   25  C   UNL     1      -9.274  18.827  68.439  1.00  0.00    -0.376 A  
HETATM   26  C   UNL     1      -9.179  17.514  67.981  1.00  0.00    -0.275 A  
ENDBRANCH  20  21
ENDBRANCH  17  20
ENDBRANCH  16  17
ENDBRANCH  15  16
ENDBRANCH  14  15
ENDBRANCH  13  14
ENDBRANCH  12  13
ENDBRANCH  11  12
ENDBRANCH  10  11
ENDBRANCH   9  10
ENDBRANCH   8   9
ENDBRANCH   7   8
ENDBRANCH   6   7
ENDBRANCH   5   6
ENDBRANCH   4   5
ENDBRANCH   3   4
ENDBRANCH   2   3
TORSDOF 17
ENDMDL
MODEL       98
REMARK 921   NORMALIZED FREE ENERGY PREDICTED BY IDOCK:   -3.94 KCAL/MOL
REMARK 922        TOTAL FREE ENERGY PREDICTED BY IDOCK:  -10.69 KCAL/MOL
REMARK 923 INTER-LIGAND FREE ENERGY PREDICTED BY IDOCK:   -8.49 KCAL/MOL
REMARK 924 INTRA-LIGAND FREE ENERGY PREDICTED BY IDOCK:   -2.20 KCAL/MOL
REMARK 927      BINDING AFFINITY PREDICTED BY RF-SCORE:    0.00 PKD
ROOT
HETATM    1  C   UNL     1      -6.629  18.748  65.708  1.00  0.00    -0.296 C  
HETATM    2  C   UNL     1      -7.047  20.205  65.613  1.00  0.00    -0.316 C  
ENDROOT
BRANCH   2   3
HETATM    3  C   UNL     1      -7.272  20.802  67.000  1.00  0.00    -0.369 C  
BRANCH   3   4
HETATM    4  C   UNL     1      -8.347  20.030  67.759  1.00  0.00    -0.329 C  
BRANCH   4   5
HETATM    5  C   UNL     1      -9.735  20.430  67.274  1.00  0.00    -0.602 C  
BRANCH   5   6
HETATM    6  C   UNL     1     -10.532  19.204  66.847  1.00  0.00    -0.527 C  
BRANCH   6   7
HETATM    7  C   UNL     1      -9.782  17.931  67.214  1.00  0.00    -0.289 C  
BRANCH   7   8
HETATM    8  C   UNL     1     -10.745  16.879  67.743  1.00  0.00    -0.315 C  
BRANCH   8   9
HETATM    9  C   UNL     1     -10.691  16.833  69.265  1.00  0.00    -0.324 C  
BRANCH   9  10
HETATM   10  C   UNL     1     -11.506  15.658  69.783  1.00  0.00    -0.346 C  
BRANCH  10  11
HETATM   11  C   UNL     1     -11.735  14.635  68.684  1.00  0.00    -0.362 C  
BRANCH  11  12
HETATM   12  C   UNL     1     -11.588  13.232  69.248  1.00  0.00    -0.370 C  
BRANCH  12  13
HETATM   13  C   UNL     1     -11.766  12.174  68.166  1.00  0.00    -0.402 C  
BRANCH  13  14
HETATM   14  C   UNL     1     -11.329  10.786  68.634  1.00  0.00    -0.356 C  
BRANCH  14  15
HETATM   15  C   UNL     1     -10.143  10.192  67.869  1.00  0.00    -0.207 C  
BRANCH  15  16
HETATM   16  C   UNL     1     -10.401  10.066  66.365  1.00  0.00    -0.179 C  
BRANCH  16  17
HETATM   17  N   UNL     1      -9.120  10.111  65.511  1.00  0.00    -0.166 N  
HETATM   18  C   UNL     1      -7.961  10.696  66.309  1.00  0.00    -0.149 C  
HETATM   19  C   UNL     1      -8.749   8.708  65.035  1.00  0.00    -0.118 C  
BRANCH  17  20
HETATM   20  C   UNL     1      -9.427  11.015  64.266  1.00  0.00    -0.235 C  
BRANCH  20  21
HETATM   21  C   UNL     1     -10.440  12.104  64.520  1.00  0.00    -0.339 A  
HETATM   22  C   UNL     1     -11.737  12.009  63.991  1.00  0.00    -0.498 A  
HETATM   23  C   UNL     1     -12.579  13.121  63.990  1.00  0.00    -0.249 A  
HETATM   24  C   UNL     1     -12.146  14.322  64.547  1.00  0.00    -0.499 A  
HETATM   25  C   UNL     1     -10.898  14.399  65.158  1.00  0.00    -0.397 A  
HETATM   26  C   UNL     1     -10.057  13.287  65.168  1.00  0.00    -0.249 A  
ENDBRANCH  20  21
ENDBRANCH  17  20
ENDBRANCH  16  17
ENDBRANCH  15  16
ENDBRANCH  14  15
ENDBRANCH  13  14
ENDBRANCH  12  13
ENDBRANCH  11  12
ENDBRANCH  10  11
ENDBRANCH   9  10
ENDBRANCH   8   9
ENDBRANCH   7   8
ENDBRANCH   6   7
ENDBRANCH   5   6
ENDBRANCH   4   5
ENDBRANCH   3   4
ENDBRANCH   2   3
TORSDOF 17
ENDMDL
MODEL       99
REMARK 921   NORMALIZED FREE ENERGY PREDICTED BY IDOCK:   -3.94 KCAL/MOL
REMARK 922        TOTAL FREE ENERGY PREDICTED BY IDOCK:  -10.69 KCAL/MOL
REMARK 923 INTER-LIGAND FREE ENERGY PREDICTED BY IDOCK:   -8.77 KCAL/MOL
REMARK 924 INTRA-LIGAND FREE ENERGY PREDICTED BY IDOCK:   -1.92 KCAL/MOL
REMARK 927      BINDING AFFINITY PREDICTED BY RF-SCORE:    0.00 PKD
ROOT
HETATM    1  C   UNL     1      -6.910  10.379  70.005  1.00  0.00    -0.151 C  
HETATM    2  C   UNL     1      -6.613  10.558  68.526  1.00  0.00    -0.055 C  
ENDROOT
BRANCH   2   3
HETATM    3  C   UNL     1      -7.896  10.804  67.736  1.00  0.00    -0.109 C  
BRANCH   3   4
HETATM    4  C   UNL     1      -9.116  10.308  68.508  1.00  0.00    -0.138 C  
BRANCH   4   5
HETATM    5  C   UNL     1     -10.400  10.773  67.834  1.00  0.00    -0.216 C  
BRANCH   5   6
HETATM    6  C   UNL     1     -11.497  11.009  68.864  1.00  0.00    -0.364 C  
BRANCH   6   7
HETATM    7  C   UNL     1     -11.127  10.357  70.188  1.00  0.00    -0.383 C  
BRANCH   7   8
HETATM    8  C   UNL     1     -12.226  10.578  71.217  1.00  0.00    -0.472 C  
BRANCH   8   9
HETATM    9  C   UNL     1     -12.905  11.922  70.984  1.00  0.00    -0.291 C  
BRANCH   9  10
HETATM   10  C   UNL     1     -13.278  12.558  72.314  1.00  0.00    -0.425 C  
BRANCH  10  11
HETATM   11  C   UNL     1     -13.854  13.947  72.104  1.00  0.00    -0.636 C  
BRANCH  11  12
HETATM   12  C   UNL     1     -13.051  14.964  72.897  1.00  0.00    -0.586 C  
BRANCH  12  13
HETATM   13  C   UNL     1     -12.218  15.854  71.983  1.00  0.00    -0.570 C  
BRANCH  13  14
HETATM   14  C   UNL     1     -12.448  15.543  70.504  1.00  0.00    -0.472 C  
BRANCH  14  15
HETATM   15  C   UNL     1     -11.384  16.103  69.556  1.00  0.00    -0.321 C  
BRANCH  15  16
HETATM   16  C   UNL     1     -10.343  15.060  69.139  1.00  0.00    -0.249 C  
BRANCH  16  17
HETATM   17  N   UNL     1      -9.491  15.486  67.929  1.00  0.00    -0.200 N  
HETATM   18  C   UNL     1      -8.660  16.719  68.263  1.00  0.00    -0.226 C  
HETATM   19  C   UNL     1      -8.563  14.349  67.506  1.00  0.00    -0.191 C  
BRANCH  17  20
HETATM   20  C   UNL     1     -10.483  15.806  66.756  1.00  0.00    -0.305 C  
BRANCH  20  21
HETATM   21  C   UNL     1     -10.964  14.593  65.999  1.00  0.00    -0.325 A  
HETATM   22  C   UNL     1     -10.245  14.111  64.893  1.00  0.00    -0.371 A  
HETATM   23  C   UNL     1     -10.820  13.174  64.035  1.00  0.00    -0.348 A  
HETATM   24  C   UNL     1     -12.099  12.687  64.293  1.00  0.00    -0.502 A  
HETATM   25  C   UNL     1     -12.781  13.087  65.438  1.00  0.00    -0.369 A  
HETATM   26  C   UNL     1     -12.207  14.017  66.303  1.00  0.00    -0.493 A  
ENDBRANCH  20  21
ENDBRANCH  17  20
ENDBRANCH  16  17
ENDBRANCH  15  16
ENDBRANCH  14  15
ENDBRANCH  13  14
ENDBRANCH  12  13
ENDBRANCH  11  12
ENDBRANCH  10  11
ENDBRANCH   9  10
ENDBRANCH   8   9
ENDBRANCH   7   8
ENDBRANCH   6   7
ENDBRANCH   5   6
ENDBRANCH   4   5
ENDBRANCH   3   4
ENDBRANCH   2   3
TORSDOF 17
ENDMDL
MODEL      100
REMARK 921   NORMALIZED FREE ENERGY PREDICTED BY IDOCK:   -3.93 KCAL/MOL
REMARK 922        TOTAL FREE ENERGY PREDICTED BY IDOCK:  -10.68 KCAL/MOL
REMARK 923 INTER-LIGAND FREE ENERGY PREDICTED BY IDOCK:   -8.85 KCAL/MOL
REMARK 924 INTRA-LIGAND FREE ENERGY PREDICTED BY IDOCK:   -1.83 KCAL/MOL
REMARK 927      BINDING AFFINITY PREDICTED BY RF-SCORE:    0.00 PKD
ROOT
HETATM    1  C   UNL     1     -12.213  14.294  64.563  1.00  0.00    -0.476 C  
HETATM    2  C   UNL     1     -12.499  12.973  65.255  1.00  0.00    -0.555 C  
ENDROOT
BRANCH   2   3
HETATM    3  C   UNL     1     -11.418  12.646  66.282  1.00  0.00    -0.415 C  
BRANCH   3   4
HETATM    4  C   UNL     1     -11.926  12.876  67.702  1.00  0.00    -0.344 C  
BRANCH   4   5
HETATM    5  C   UNL     1     -10.792  13.339  68.607  1.00  0.00    -0.285 C  
BRANCH   5   6
HETATM    6  C   UNL     1     -10.632  14.853  68.543  1.00  0.00    -0.245 C  
BRANCH   6   7
HETATM    7  C   UNL     1     -11.771  15.536  69.287  1.00  0.00    -0.380 C  
BRANCH   7   8
HETATM    8  C   UNL     1     -11.701  15.223  70.774  1.00  0.00    -0.377 C  
BRANCH   8   9
HETATM    9  C   UNL     1     -13.081  15.351  71.407  1.00  0.00    -0.563 C  
BRANCH   9  10
HETATM   10  C   UNL     1     -13.497  14.028  72.030  1.00  0.00    -0.528 C  
BRANCH  10  11
HETATM   11  C   UNL     1     -12.691  12.880  71.448  1.00  0.00    -0.366 C  
BRANCH  11  12
HETATM   12  C   UNL     1     -13.178  11.563  72.027  1.00  0.00    -0.443 C  
BRANCH  12  13
HETATM   13  C   UNL     1     -12.878  10.397  71.092  1.00  0.00    -0.511 C  
BRANCH  13  14
HETATM   14  C   UNL     1     -11.423  10.389  70.624  1.00  0.00    -0.438 C  
BRANCH  14  15
HETATM   15  C   UNL     1     -10.576   9.240  71.178  1.00  0.00    -0.402 C  
BRANCH  15  16
HETATM   16  C   UNL     1      -9.814   8.476  70.091  1.00  0.00    -0.178 C  
BRANCH  16  17
HETATM   17  N   UNL     1     -10.189   6.985  70.005  1.00  0.00    -0.191 N  
HETATM   18  C   UNL     1      -8.939   6.113  70.029  1.00  0.00    -0.147 C  
HETATM   19  C   UNL     1     -11.099   6.597  71.169  1.00  0.00    -0.279 C  
BRANCH  17  20
HETATM   20  C   UNL     1     -10.962   6.781  68.655  1.00  0.00    -0.199 C  
BRANCH  20  21
HETATM   21  C   UNL     1     -10.316   7.438  67.461  1.00  0.00    -0.320 A  
HETATM   22  C   UNL     1      -9.305   6.778  66.745  1.00  0.00    -0.189 A  
HETATM   23  C   UNL     1      -8.524   7.477  65.824  1.00  0.00    -0.151 A  
HETATM   24  C   UNL     1      -8.771   8.828  65.587  1.00  0.00    -0.215 A  
HETATM   25  C   UNL     1      -9.832   9.466  66.222  1.00  0.00    -0.351 A  
HETATM   26  C   UNL     1     -10.619   8.769  67.136  1.00  0.00    -0.303 A  
ENDBRANCH  20  21
ENDBRANCH  17  20
ENDBRANCH  16  17
ENDBRANCH  15  16
ENDBRANCH  14  15
ENDBRANCH  13  14
ENDBRANCH  12  13
ENDBRANCH  11  12
ENDBRANCH  10  11
ENDBRANCH   9  10
ENDBRANCH   8   9
ENDBRANCH   7   8
ENDBRANCH   6   7
ENDBRANCH   5   6
ENDBRANCH   4   5
ENDBRANCH   3   4
ENDBRANCH   2   3
TORSDOF 17
ENDMDL
MODEL      101
REMARK 921   NORMALIZED FREE ENERGY PREDICTED BY IDOCK:   -3.93 KCAL/MOL
REMARK 922        TOTAL FREE ENERGY PREDICTED BY IDOCK:  -10.68 KCAL/MOL
REMARK 923 INTER-LIGAND FREE ENERGY PREDICTED BY IDOCK:   -7.97 KCAL/MOL
REMARK 924 INTRA-LIGAND FREE ENERGY PREDICTED BY IDOCK:   -2.70 KCAL/MOL
REMARK 927      BINDING AFFINITY PREDICTED BY RF-SCORE:    0.00 PKD
ROOT
HETATM    1  C   UNL     1     -12.423  14.214  65.291  1.00  0.00    -0.474 C  
HETATM    2  C   UNL     1     -12.189  12.726  65.095  1.00  0.00    -0.530 C  
ENDROOT
BRANCH   2   3
HETATM    3  C   UNL     1     -11.989  12.392  63.619  1.00  0.00    -0.626 C  
BRANCH   3   4
HETATM    4  C   UNL     1     -10.714  11.580  63.411  1.00  0.00    -0.444 C  
BRANCH   4   5
HETATM    5  C   UNL     1      -9.969  11.407  64.728  1.00  0.00    -0.313 C  
BRANCH   5   6
HETATM    6  C   UNL     1     -10.135   9.990  65.262  1.00  0.00    -0.299 C  
BRANCH   6   7
HETATM    7  C   UNL     1      -8.947   9.613  66.136  1.00  0.00    -0.186 C  
BRANCH   7   8
HETATM    8  C   UNL     1      -9.389   9.407  67.577  1.00  0.00    -0.147 C  
BRANCH   8   9
HETATM    9  C   UNL     1     -10.803   9.939  67.776  1.00  0.00    -0.321 C  
BRANCH   9  10
HETATM   10  C   UNL     1     -10.887  10.733  69.069  1.00  0.00    -0.278 C  
BRANCH  10  11
HETATM   11  C   UNL     1     -11.645  12.032  68.856  1.00  0.00    -0.377 C  
BRANCH  11  12
HETATM   12  C   UNL     1     -12.144  12.562  70.190  1.00  0.00    -0.368 C  
BRANCH  12  13
HETATM   13  C   UNL     1     -12.192  14.085  70.203  1.00  0.00    -0.425 C  
BRANCH  13  14
HETATM   14  C   UNL     1     -11.902  14.686  68.827  1.00  0.00    -0.348 C  
BRANCH  14  15
HETATM   15  C   UNL     1     -11.262  16.077  68.856  1.00  0.00    -0.353 C  
BRANCH  15  16
HETATM   16  C   UNL     1     -11.132  16.707  67.466  1.00  0.00    -0.055 C  
BRANCH  16  17
HETATM   17  N   UNL     1      -9.785  17.415  67.232  1.00  0.00    -0.261 N  
HETATM   18  C   UNL     1      -9.997  18.778  66.586  1.00  0.00    -0.365 C  
HETATM   19  C   UNL     1      -9.039  17.591  68.554  1.00  0.00    -0.277 C  
BRANCH  17  20
HETATM   20  C   UNL     1      -8.939  16.495  66.282  1.00  0.00    -0.324 C  
BRANCH  20  21
HETATM   21  C   UNL     1      -8.274  15.330  66.972  1.00  0.00    -0.267 A  
HETATM   22  C   UNL     1      -6.925  15.404  67.354  1.00  0.00    -0.222 A  
HETATM   23  C   UNL     1      -6.239  14.251  67.737  1.00  0.00    -0.152 A  
HETATM   24  C   UNL     1      -6.903  13.027  67.776  1.00  0.00    -0.144 A  
HETATM   25  C   UNL     1      -8.263  12.960  67.491  1.00  0.00    -0.184 A  
HETATM   26  C   UNL     1      -8.954  14.111  67.115  1.00  0.00    -0.236 A  
ENDBRANCH  20  21
ENDBRANCH  17  20
ENDBRANCH  16  17
ENDBRANCH  15  16
ENDBRANCH  14  15
ENDBRANCH  13  14
ENDBRANCH  12  13
ENDBRANCH  11  12
ENDBRANCH  10  11
ENDBRANCH   9  10
ENDBRANCH   8   9
ENDBRANCH   7   8
ENDBRANCH   6   7
ENDBRANCH   5   6
ENDBRANCH   4   5
ENDBRANCH   3   4
ENDBRANCH   2   3
TORSDOF 17
ENDMDL
MODEL      102
REMARK 921   NORMALIZED FREE ENERGY PREDICTED BY IDOCK:   -3.92 KCAL/MOL
REMARK 922        TOTAL FREE ENERGY PREDICTED BY IDOCK:  -10.66 KCAL/MOL
REMARK 923 INTER-LIGAND FREE ENERGY PREDICTED BY IDOCK:   -9.24 KCAL/MOL
REMARK 924 INTRA-LIGAND FREE ENERGY PREDICTED BY IDOCK:   -1.42 KCAL/MOL
REMARK 927      BINDING AFFINITY PREDICTED BY RF-SCORE:    0.00 PKD
ROOT
HETATM    1  C   UNL     1     -12.534  13.726  71.017  1.00  0.00    -0.458 C  
HETATM    2  C   UNL     1     -13.517  13.046  71.955  1.00  0.00    -0.584 C  
ENDROOT
BRANCH   2   3
HETATM    3  C   UNL     1     -13.289  11.537  71.986  1.00  0.00    -0.397 C  
BRANCH   3   4
HETATM    4  C   UNL     1     -12.442  11.088  70.799  1.00  0.00    -0.491 C  
BRANCH   4   5
HETATM    5  C   UNL     1     -12.234   9.579  70.831  1.00  0.00    -0.332 C  
BRANCH   5   6
HETATM    6  C   UNL     1     -10.964   9.224  71.594  1.00  0.00    -0.433 C  
BRANCH   6   7
HETATM    7  C   UNL     1     -11.006   7.769  72.041  1.00  0.00    -0.305 C  
BRANCH   7   8
HETATM    8  C   UNL     1     -11.826   6.936  71.068  1.00  0.00    -0.411 C  
BRANCH   8   9
HETATM    9  C   UNL     1     -10.935   5.928  70.353  1.00  0.00    -0.376 C  
BRANCH   9  10
HETATM   10  C   UNL     1     -10.989   6.154  68.851  1.00  0.00    -0.424 C  
BRANCH  10  11
HETATM   11  C   UNL     1      -9.983   7.210  68.427  1.00  0.00    -0.166 C  
BRANCH  11  12
HETATM   12  C   UNL     1     -10.573   8.070  67.322  1.00  0.00    -0.360 C  
BRANCH  12  13
HETATM   13  C   UNL     1     -10.531   9.550  67.684  1.00  0.00    -0.321 C  
BRANCH  13  14
HETATM   14  C   UNL     1     -10.347  10.442  66.457  1.00  0.00    -0.287 C  
BRANCH  14  15
HETATM   15  C   UNL     1     -11.047  11.802  66.540  1.00  0.00    -0.364 C  
BRANCH  15  16
HETATM   16  C   UNL     1     -10.103  12.980  66.280  1.00  0.00    -0.282 C  
BRANCH  16  17
HETATM   17  N   UNL     1     -10.813  14.345  66.242  1.00  0.00    -0.308 N  
HETATM   18  C   UNL     1     -10.626  15.013  64.885  1.00  0.00    -0.374 C  
HETATM   19  C   UNL     1     -12.306  14.176  66.521  1.00  0.00    -0.372 C  
BRANCH  17  20
HETATM   20  C   UNL     1     -10.175  15.229  67.370  1.00  0.00    -0.243 C  
BRANCH  20  21
HETATM   21  C   UNL     1      -9.551  16.512  66.879  1.00  0.00    -0.253 A  
HETATM   22  C   UNL     1      -8.217  16.533  66.440  1.00  0.00    -0.364 A  
HETATM   23  C   UNL     1      -7.560  17.748  66.247  1.00  0.00    -0.322 A  
HETATM   24  C   UNL     1      -8.238  18.947  66.457  1.00  0.00    -0.306 A  
HETATM   25  C   UNL     1      -9.586  18.936  66.800  1.00  0.00    -0.354 A  
HETATM   26  C   UNL     1     -10.249  17.724  66.985  1.00  0.00    -0.346 A  
ENDBRANCH  20  21
ENDBRANCH  17  20
ENDBRANCH  16  17
ENDBRANCH  15  16
ENDBRANCH  14  15
ENDBRANCH  13  14
ENDBRANCH  12  13
ENDBRANCH  11  12
ENDBRANCH  10  11
ENDBRANCH   9  10
ENDBRANCH   8   9
ENDBRANCH   7   8
ENDBRANCH   6   7
ENDBRANCH   5   6
ENDBRANCH   4   5
ENDBRANCH   3   4
ENDBRANCH   2   3
TORSDOF 17
ENDMDL
MODEL      103
REMARK 921   NORMALIZED FREE ENERGY PREDICTED BY IDOCK:   -3.92 KCAL/MOL
REMARK 922        TOTAL FREE ENERGY PREDICTED BY IDOCK:  -10.66 KCAL/MOL
REMARK 923 INTER-LIGAND FREE ENERGY PREDICTED BY IDOCK:   -8.82 KCAL/MOL
REMARK 924 INTRA-LIGAND FREE ENERGY PREDICTED BY IDOCK:   -1.83 KCAL/MOL
REMARK 927      BINDING AFFINITY PREDICTED BY RF-SCORE:    0.00 PKD
ROOT
HETATM    1  C   UNL     1     -12.899  11.165  71.366  1.00  0.00    -0.544 C  
HETATM    2  C   UNL     1     -12.511   9.697  71.341  1.00  0.00    -0.465 C  
ENDROOT
BRANCH   2   3
HETATM    3  C   UNL     1     -13.714   8.807  71.643  1.00  0.00    -0.437 C  
BRANCH   3   4
HETATM    4  C   UNL     1     -13.348   7.331  71.515  1.00  0.00    -0.435 C  
BRANCH   4   5
HETATM    5  C   UNL     1     -11.913   7.095  71.969  1.00  0.00    -0.332 C  
BRANCH   5   6
HETATM    6  C   UNL     1     -11.247   6.019  71.121  1.00  0.00    -0.328 C  
BRANCH   6   7
HETATM    7  C   UNL     1     -11.166   6.467  69.668  1.00  0.00    -0.483 C  
BRANCH   7   8
HETATM    8  C   UNL     1      -9.975   7.390  69.461  1.00  0.00    -0.179 C  
BRANCH   8   9
HETATM    9  C   UNL     1     -10.322   8.481  68.455  1.00  0.00    -0.241 C  
BRANCH   9  10
HETATM   10  C   UNL     1     -10.547   7.873  67.079  1.00  0.00    -0.381 C  
BRANCH  10  11
HETATM   11  C   UNL     1      -9.426   8.258  66.129  1.00  0.00    -0.241 C  
BRANCH  11  12
HETATM   12  C   UNL     1      -8.880   9.625  66.503  1.00  0.00    -0.158 C  
BRANCH  12  13
HETATM   13  C   UNL     1      -8.516  10.438  65.267  1.00  0.00    -0.173 C  
BRANCH  13  14
HETATM   14  C   UNL     1      -9.571  10.325  64.166  1.00  0.00    -0.376 C  
BRANCH  14  15
HETATM   15  C   UNL     1     -10.793  11.230  64.352  1.00  0.00    -0.373 C  
BRANCH  15  16
HETATM   16  C   UNL     1     -10.458  12.720  64.242  1.00  0.00    -0.399 C  
BRANCH  16  17
HETATM   17  N   UNL     1     -11.138  13.588  65.317  1.00  0.00    -0.292 N  
HETATM   18  C   UNL     1     -10.736  15.050  65.164  1.00  0.00    -0.415 C  
HETATM   19  C   UNL     1     -12.658  13.467  65.216  1.00  0.00    -0.464 C  
BRANCH  17  20
HETATM   20  C   UNL     1     -10.670  13.044  66.713  1.00  0.00    -0.262 C  
BRANCH  20  21
HETATM   21  C   UNL     1     -10.793  14.037  67.842  1.00  0.00    -0.255 A  
HETATM   22  C   UNL     1      -9.673  14.765  68.276  1.00  0.00    -0.218 A  
HETATM   23  C   UNL     1      -9.715  15.470  69.478  1.00  0.00    -0.282 A  
HETATM   24  C   UNL     1     -10.884  15.483  70.236  1.00  0.00    -0.358 A  
HETATM   25  C   UNL     1     -12.028  14.843  69.768  1.00  0.00    -0.366 A  
HETATM   26  C   UNL     1     -11.991  14.144  68.562  1.00  0.00    -0.367 A  
ENDBRANCH  20  21
ENDBRANCH  17  20
ENDBRANCH  16  17
ENDBRANCH  15  16
ENDBRANCH  14  15
ENDBRANCH  13  14
ENDBRANCH  12  13
ENDBRANCH  11  12
ENDBRANCH  10  11
ENDBRANCH   9  10
ENDBRANCH   8   9
ENDBRANCH   7   8
ENDBRANCH   6   7
ENDBRANCH   5   6
ENDBRANCH   4   5
ENDBRANCH   3   4
ENDBRANCH   2   3
TORSDOF 17
ENDMDL
MODEL      104
REMARK 921   NORMALIZED FREE ENERGY PREDICTED BY IDOCK:   -3.92 KCAL/MOL
REMARK 922        TOTAL FREE ENERGY PREDICTED BY IDOCK:  -10.65 KCAL/MOL
REMARK 923 INTER-LIGAND FREE ENERGY PREDICTED BY IDOCK:   -8.49 KCAL/MOL
REMARK 924 INTRA-LIGAND FREE ENERGY PREDICTED BY IDOCK:   -2.17 KCAL/MOL
REMARK 927      BINDING AFFINITY PREDICTED BY RF-SCORE:    0.00 PKD
ROOT
HETATM    1  C   UNL     1      -9.547   5.292  68.631  1.00  0.00    -0.183 C  
HETATM    2  C   UNL     1      -9.487   4.801  70.067  1.00  0.00    -0.240 C  
ENDROOT
BRANCH   2   3
HETATM    3  C   UNL     1     -10.629   5.384  70.894  1.00  0.00    -0.283 C  
BRANCH   3   4
HETATM    4  C   UNL     1     -11.468   6.350  70.062  1.00  0.00    -0.496 C  
BRANCH   4   5
HETATM    5  C   UNL     1     -12.368   7.187  70.961  1.00  0.00    -0.376 C  
BRANCH   5   6
HETATM    6  C   UNL     1     -11.646   7.567  72.247  1.00  0.00    -0.354 C  
BRANCH   6   7
HETATM    7  C   UNL     1     -10.799   8.814  72.029  1.00  0.00    -0.428 C  
BRANCH   7   8
HETATM    8  C   UNL     1      -9.338   8.526  72.339  1.00  0.00    -0.349 C  
BRANCH   8   9
HETATM    9  C   UNL     1      -8.487   8.711  71.089  1.00  0.00    -0.211 C  
BRANCH   9  10
HETATM   10  C   UNL     1      -9.205   9.608  70.094  1.00  0.00    -0.287 C  
BRANCH  10  11
HETATM   11  C   UNL     1      -9.226   8.974  68.714  1.00  0.00    -0.133 C  
BRANCH  11  12
HETATM   12  C   UNL     1     -10.543   9.287  68.023  1.00  0.00    -0.262 C  
BRANCH  12  13
HETATM   13  C   UNL     1     -11.170  10.564  68.569  1.00  0.00    -0.332 C  
BRANCH  13  14
HETATM   14  C   UNL     1     -11.507  11.564  67.463  1.00  0.00    -0.355 C  
BRANCH  14  15
HETATM   15  C   UNL     1     -10.402  12.578  67.153  1.00  0.00    -0.230 C  
BRANCH  15  16
HETATM   16  C   UNL     1     -10.942  13.974  66.829  1.00  0.00    -0.297 C  
BRANCH  16  17
HETATM   17  N   UNL     1     -10.033  15.117  67.317  1.00  0.00    -0.229 N  
HETATM   18  C   UNL     1      -9.233  14.685  68.540  1.00  0.00    -0.193 C  
HETATM   19  C   UNL     1      -9.071  15.542  66.208  1.00  0.00    -0.334 C  
BRANCH  17  20
HETATM   20  C   UNL     1     -10.965  16.325  67.681  1.00  0.00    -0.245 C  
BRANCH  20  21
HETATM   21  C   UNL     1     -10.362  17.681  67.414  1.00  0.00    -0.360 A  
HETATM   22  C   UNL     1      -9.690  18.376  68.434  1.00  0.00    -0.379 A  
HETATM   23  C   UNL     1      -9.375  19.725  68.275  1.00  0.00    -0.415 A  
HETATM   24  C   UNL     1      -9.694  20.379  67.087  1.00  0.00    -0.601 A  
HETATM   25  C   UNL     1     -10.273  19.675  66.036  1.00  0.00    -0.587 A  
HETATM   26  C   UNL     1     -10.583  18.325  66.188  1.00  0.00    -0.326 A  
ENDBRANCH  20  21
ENDBRANCH  17  20
ENDBRANCH  16  17
ENDBRANCH  15  16
ENDBRANCH  14  15
ENDBRANCH  13  14
ENDBRANCH  12  13
ENDBRANCH  11  12
ENDBRANCH  10  11
ENDBRANCH   9  10
ENDBRANCH   8   9
ENDBRANCH   7   8
ENDBRANCH   6   7
ENDBRANCH   5   6
ENDBRANCH   4   5
ENDBRANCH   3   4
ENDBRANCH   2   3
TORSDOF 17
ENDMDL
MODEL      105
REMARK 921   NORMALIZED FREE ENERGY PREDICTED BY IDOCK:   -3.90 KCAL/MOL
REMARK 922        TOTAL FREE ENERGY PREDICTED BY IDOCK:  -10.61 KCAL/MOL
REMARK 923 INTER-LIGAND FREE ENERGY PREDICTED BY IDOCK:   -8.90 KCAL/MOL
REMARK 924 INTRA-LIGAND FREE ENERGY PREDICTED BY IDOCK:   -1.72 KCAL/MOL
REMARK 927      BINDING AFFINITY PREDICTED BY RF-SCORE:    0.00 PKD
ROOT
HETATM    1  C   UNL     1      -8.159   9.297  70.373  1.00  0.00    -0.178 C  
HETATM    2  C   UNL     1      -8.623   9.270  68.927  1.00  0.00    -0.130 C  
ENDROOT
BRANCH   2   3
HETATM    3  C   UNL     1      -8.683   7.839  68.398  1.00  0.00    -0.127 C  
BRANCH   3   4
HETATM    4  C   UNL     1      -9.334   6.907  69.416  1.00  0.00    -0.146 C  
BRANCH   4   5
HETATM    5  C   UNL     1     -10.786   6.639  69.043  1.00  0.00    -0.324 C  
BRANCH   5   6
HETATM    6  C   UNL     1     -11.653   6.524  70.290  1.00  0.00    -0.473 C  
BRANCH   6   7
HETATM    7  C   UNL     1     -10.790   6.598  71.542  1.00  0.00    -0.277 C  
BRANCH   7   8
HETATM    8  C   UNL     1     -11.381   7.581  72.540  1.00  0.00    -0.384 C  
BRANCH   8   9
HETATM    9  C   UNL     1     -11.403   8.985  71.949  1.00  0.00    -0.438 C  
BRANCH   9  10
HETATM   10  C   UNL     1     -12.797   9.581  72.065  1.00  0.00    -0.499 C  
BRANCH  10  11
HETATM   11  C   UNL     1     -12.920  10.836  71.218  1.00  0.00    -0.502 C  
BRANCH  11  12
HETATM   12  C   UNL     1     -11.716  10.957  70.299  1.00  0.00    -0.437 C  
BRANCH  12  13
HETATM   13  C   UNL     1     -11.766  12.241  69.480  1.00  0.00    -0.398 C  
BRANCH  13  14
HETATM   14  C   UNL     1     -10.840  12.190  68.265  1.00  0.00    -0.256 C  
BRANCH  14  15
HETATM   15  C   UNL     1      -9.836  13.343  68.173  1.00  0.00    -0.234 C  
BRANCH  15  16
HETATM   16  C   UNL     1      -9.589  13.812  66.737  1.00  0.00    -0.279 C  
BRANCH  16  17
HETATM   17  N   UNL     1     -10.217  15.180  66.416  1.00  0.00    -0.270 N  
HETATM   18  C   UNL     1     -11.006  15.118  65.113  1.00  0.00    -0.417 C  
HETATM   19  C   UNL     1     -11.145  15.618  67.548  1.00  0.00    -0.289 C  
BRANCH  17  20
HETATM   20  C   UNL     1      -9.041  16.210  66.285  1.00  0.00    -0.338 C  
BRANCH  20  21
HETATM   21  C   UNL     1      -9.352  17.583  66.826  1.00  0.00    -0.275 A  
HETATM   22  C   UNL     1      -8.951  17.946  68.122  1.00  0.00    -0.268 A  
HETATM   23  C   UNL     1      -9.466  19.096  68.720  1.00  0.00    -0.454 A  
HETATM   24  C   UNL     1     -10.354  19.908  68.018  1.00  0.00    -0.547 A  
HETATM   25  C   UNL     1     -10.683  19.607  66.700  1.00  0.00    -0.552 A  
HETATM   26  C   UNL     1     -10.164  18.463  66.095  1.00  0.00    -0.408 A  
ENDBRANCH  20  21
ENDBRANCH  17  20
ENDBRANCH  16  17
ENDBRANCH  15  16
ENDBRANCH  14  15
ENDBRANCH  13  14
ENDBRANCH  12  13
ENDBRANCH  11  12
ENDBRANCH  10  11
ENDBRANCH   9  10
ENDBRANCH   8   9
ENDBRANCH   7   8
ENDBRANCH   6   7
ENDBRANCH   5   6
ENDBRANCH   4   5
ENDBRANCH   3   4
ENDBRANCH   2   3
TORSDOF 17
ENDMDL
MODEL      106
REMARK 921   NORMALIZED FREE ENERGY PREDICTED BY IDOCK:   -3.90 KCAL/MOL
REMARK 922        TOTAL FREE ENERGY PREDICTED BY IDOCK:  -10.61 KCAL/MOL
REMARK 923 INTER-LIGAND FREE ENERGY PREDICTED BY IDOCK:   -8.20 KCAL/MOL
REMARK 924 INTRA-LIGAND FREE ENERGY PREDICTED BY IDOCK:   -2.40 KCAL/MOL
REMARK 927      BINDING AFFINITY PREDICTED BY RF-SCORE:    0.00 PKD
ROOT
HETATM    1  C   UNL     1      -9.795   4.938  66.967  1.00  0.00    -0.214 C  
HETATM    2  C   UNL     1      -9.640   6.169  67.844  1.00  0.00    -0.118 C  
ENDROOT
BRANCH   2   3
HETATM    3  C   UNL     1     -10.992   6.633  68.379  1.00  0.00    -0.313 C  
BRANCH   3   4
HETATM    4  C   UNL     1     -11.236   6.095  69.787  1.00  0.00    -0.494 C  
BRANCH   4   5
HETATM    5  C   UNL     1     -10.715   7.073  70.831  1.00  0.00    -0.259 C  
BRANCH   5   6
HETATM    6  C   UNL     1     -11.822   7.476  71.796  1.00  0.00    -0.327 C  
BRANCH   6   7
HETATM    7  C   UNL     1     -11.791   8.979  72.039  1.00  0.00    -0.426 C  
BRANCH   7   8
HETATM    8  C   UNL     1     -12.687   9.699  71.043  1.00  0.00    -0.354 C  
BRANCH   8   9
HETATM    9  C   UNL     1     -11.931  10.847  70.385  1.00  0.00    -0.453 C  
BRANCH   9  10
HETATM   10  C   UNL     1     -11.158  10.341  69.178  1.00  0.00    -0.283 C  
BRANCH  10  11
HETATM   11  C   UNL     1      -9.664  10.344  69.454  1.00  0.00    -0.222 C  
BRANCH  11  12
HETATM   12  C   UNL     1      -8.916   9.802  68.248  1.00  0.00    -0.119 C  
BRANCH  12  13
HETATM   13  C   UNL     1      -8.141  10.902  67.532  1.00  0.00    -0.116 C  
BRANCH  13  14
HETATM   14  C   UNL     1      -7.995  12.160  68.388  1.00  0.00    -0.152 C  
BRANCH  14  15
HETATM   15  C   UNL     1      -8.518  13.445  67.738  1.00  0.00    -0.181 C  
BRANCH  15  16
HETATM   16  C   UNL     1      -9.871  13.892  68.298  1.00  0.00    -0.231 C  
BRANCH  16  17
HETATM   17  N   UNL     1     -10.698  14.738  67.313  1.00  0.00    -0.288 N  
HETATM   18  C   UNL     1     -11.079  16.075  67.937  1.00  0.00    -0.307 C  
HETATM   19  C   UNL     1      -9.907  14.986  66.029  1.00  0.00    -0.319 C  
BRANCH  17  20
HETATM   20  C   UNL     1     -11.990  13.916  66.970  1.00  0.00    -0.424 C  
BRANCH  20  21
HETATM   21  C   UNL     1     -11.844  12.989  65.789  1.00  0.00    -0.453 A  
HETATM   22  C   UNL     1     -11.064  11.826  65.888  1.00  0.00    -0.355 A  
HETATM   23  C   UNL     1     -10.706  11.120  64.739  1.00  0.00    -0.334 A  
HETATM   24  C   UNL     1     -11.153  11.549  63.491  1.00  0.00    -0.434 A  
HETATM   25  C   UNL     1     -12.005  12.644  63.393  1.00  0.00    -0.613 A  
HETATM   26  C   UNL     1     -12.371  13.348  64.539  1.00  0.00    -0.415 A  
ENDBRANCH  20  21
ENDBRANCH  17  20
ENDBRANCH  16  17
ENDBRANCH  15  16
ENDBRANCH  14  15
ENDBRANCH  13  14
ENDBRANCH  12  13
ENDBRANCH  11  12
ENDBRANCH  10  11
ENDBRANCH   9  10
ENDBRANCH   8   9
ENDBRANCH   7   8
ENDBRANCH   6   7
ENDBRANCH   5   6
ENDBRANCH   4   5
ENDBRANCH   3   4
ENDBRANCH   2   3
TORSDOF 17
ENDMDL
MODEL      107
REMARK 921   NORMALIZED FREE ENERGY PREDICTED BY IDOCK:   -3.89 KCAL/MOL
REMARK 922        TOTAL FREE ENERGY PREDICTED BY IDOCK:  -10.59 KCAL/MOL
REMARK 923 INTER-LIGAND FREE ENERGY PREDICTED BY IDOCK:   -8.45 KCAL/MOL
REMARK 924 INTRA-LIGAND FREE ENERGY PREDICTED BY IDOCK:   -2.13 KCAL/MOL
REMARK 927      BINDING AFFINITY PREDICTED BY RF-SCORE:    0.00 PKD
ROOT
HETATM    1  C   UNL     1     -11.439   5.770  72.399  1.00  0.00    -0.343 C  
HETATM    2  C   UNL     1     -10.417   6.850  72.710  1.00  0.00    -0.252 C  
ENDROOT
BRANCH   2   3
HETATM    3  C   UNL     1     -11.009   8.241  72.498  1.00  0.00    -0.424 C  
BRANCH   3   4
HETATM    4  C   UNL     1     -12.339   8.162  71.754  1.00  0.00    -0.357 C  
BRANCH   4   5
HETATM    5  C   UNL     1     -12.798   9.551  71.331  1.00  0.00    -0.443 C  
BRANCH   5   6
HETATM    6  C   UNL     1     -11.692  10.282  70.581  1.00  0.00    -0.438 C  
BRANCH   6   7
HETATM    7  C   UNL     1     -12.125  11.704  70.254  1.00  0.00    -0.443 C  
BRANCH   7   8
HETATM    8  C   UNL     1     -11.354  12.235  69.056  1.00  0.00    -0.333 C  
BRANCH   8   9
HETATM    9  C   UNL     1     -12.025  13.488  68.508  1.00  0.00    -0.379 C  
BRANCH   9  10
HETATM   10  C   UNL     1     -11.195  14.076  67.378  1.00  0.00    -0.328 C  
BRANCH  10  11
HETATM   11  C   UNL     1     -11.992  14.113  66.086  1.00  0.00    -0.437 C  
BRANCH  11  12
HETATM   12  C   UNL     1     -12.206  12.700  65.571  1.00  0.00    -0.501 C  
BRANCH  12  13
HETATM   13  C   UNL     1     -12.246  12.660  64.048  1.00  0.00    -0.544 C  
BRANCH  13  14
HETATM   14  C   UNL     1     -11.114  11.818  63.460  1.00  0.00    -0.503 C  
BRANCH  14  15
HETATM   15  C   UNL     1      -9.998  11.461  64.447  1.00  0.00    -0.321 C  
BRANCH  15  16
HETATM   16  C   UNL     1      -9.424  10.060  64.222  1.00  0.00    -0.273 C  
BRANCH  16  17
HETATM   17  N   UNL     1      -8.932   9.379  65.512  1.00  0.00    -0.189 N  
HETATM   18  C   UNL     1      -8.562   7.925  65.247  1.00  0.00    -0.060 C  
HETATM   19  C   UNL     1      -7.717  10.116  66.073  1.00  0.00    -0.120 C  
BRANCH  17  20
HETATM   20  C   UNL     1     -10.106   9.455  66.551  1.00  0.00    -0.262 C  
BRANCH  20  21
HETATM   21  C   UNL     1     -10.168   8.290  67.508  1.00  0.00    -0.309 A  
HETATM   22  C   UNL     1      -9.330   8.249  68.635  1.00  0.00    -0.143 A  
HETATM   23  C   UNL     1      -9.188   7.067  69.361  1.00  0.00    -0.147 A  
HETATM   24  C   UNL     1      -9.906   5.931  68.991  1.00  0.00    -0.193 A  
HETATM   25  C   UNL     1     -10.809   5.990  67.934  1.00  0.00    -0.378 A  
HETATM   26  C   UNL     1     -10.960   7.172  67.210  1.00  0.00    -0.333 A  
ENDBRANCH  20  21
ENDBRANCH  17  20
ENDBRANCH  16  17
ENDBRANCH  15  16
ENDBRANCH  14  15
ENDBRANCH  13  14
ENDBRANCH  12  13
ENDBRANCH  11  12
ENDBRANCH  10  11
ENDBRANCH   9  10
ENDBRANCH   8   9
ENDBRANCH   7   8
ENDBRANCH   6   7
ENDBRANCH   5   6
ENDBRANCH   4   5
ENDBRANCH   3   4
ENDBRANCH   2   3
TORSDOF 17
ENDMDL
MODEL      108
REMARK 921   NORMALIZED FREE ENERGY PREDICTED BY IDOCK:   -3.88 KCAL/MOL
REMARK 922        TOTAL FREE ENERGY PREDICTED BY IDOCK:  -10.58 KCAL/MOL
REMARK 923 INTER-LIGAND FREE ENERGY PREDICTED BY IDOCK:   -7.78 KCAL/MOL
REMARK 924 INTRA-LIGAND FREE ENERGY PREDICTED BY IDOCK:   -2.80 KCAL/MOL
REMARK 927      BINDING AFFINITY PREDICTED BY RF-SCORE:    0.00 PKD
ROOT
HETATM    1  C   UNL     1     -10.965  15.227  64.910  1.00  0.00    -0.445 C  
HETATM    2  C   UNL     1     -11.028  13.712  64.817  1.00  0.00    -0.384 C  
ENDROOT
BRANCH   2   3
HETATM    3  C   UNL     1     -11.984  13.139  65.859  1.00  0.00    -0.479 C  
BRANCH   3   4
HETATM    4  C   UNL     1     -12.138  14.090  67.042  1.00  0.00    -0.455 C  
BRANCH   4   5
HETATM    5  C   UNL     1     -11.395  13.554  68.259  1.00  0.00    -0.328 C  
BRANCH   5   6
HETATM    6  C   UNL     1     -12.061  14.019  69.548  1.00  0.00    -0.397 C  
BRANCH   6   7
HETATM    7  C   UNL     1     -12.267  12.842  70.491  1.00  0.00    -0.395 C  
BRANCH   7   8
HETATM    8  C   UNL     1     -12.005  11.529  69.770  1.00  0.00    -0.415 C  
BRANCH   8   9
HETATM    9  C   UNL     1     -11.764  10.412  70.777  1.00  0.00    -0.464 C  
BRANCH   9  10
HETATM   10  C   UNL     1     -13.047  10.098  71.529  1.00  0.00    -0.529 C  
BRANCH  10  11
HETATM   11  C   UNL     1     -12.935   8.768  72.256  1.00  0.00    -0.462 C  
BRANCH  11  12
HETATM   12  C   UNL     1     -12.560   7.673  71.273  1.00  0.00    -0.316 C  
BRANCH  12  13
HETATM   13  C   UNL     1     -11.316   6.918  71.725  1.00  0.00    -0.295 C  
BRANCH  13  14
HETATM   14  C   UNL     1     -10.711   7.508  72.999  1.00  0.00    -0.438 C  
BRANCH  14  15
HETATM   15  C   UNL     1      -9.282   8.038  72.847  1.00  0.00    -0.332 C  
BRANCH  15  16
HETATM   16  C   UNL     1      -8.931   8.411  71.404  1.00  0.00    -0.186 C  
BRANCH  16  17
HETATM   17  N   UNL     1      -7.639   7.749  70.892  1.00  0.00    -0.077 N  
HETATM   18  C   UNL     1      -6.436   8.651  71.141  1.00  0.00    -0.055 C  
HETATM   19  C   UNL     1      -7.417   6.406  71.586  1.00  0.00    -0.093 C  
BRANCH  17  20
HETATM   20  C   UNL     1      -7.822   7.509  69.352  1.00  0.00    -0.121 C  
BRANCH  20  21
HETATM   21  C   UNL     1      -8.733   8.501  68.671  1.00  0.00    -0.139 A  
HETATM   22  C   UNL     1      -9.972   8.090  68.152  1.00  0.00    -0.217 A  
HETATM   23  C   UNL     1     -10.685   8.926  67.293  1.00  0.00    -0.219 A  
HETATM   24  C   UNL     1     -10.186  10.188  66.975  1.00  0.00    -0.290 A  
HETATM   25  C   UNL     1      -9.006  10.639  67.559  1.00  0.00    -0.136 A  
HETATM   26  C   UNL     1      -8.295   9.810  68.425  1.00  0.00    -0.110 A  
ENDBRANCH  20  21
ENDBRANCH  17  20
ENDBRANCH  16  17
ENDBRANCH  15  16
ENDBRANCH  14  15
ENDBRANCH  13  14
ENDBRANCH  12  13
ENDBRANCH  11  12
ENDBRANCH  10  11
ENDBRANCH   9  10
ENDBRANCH   8   9
ENDBRANCH   7   8
ENDBRANCH   6   7
ENDBRANCH   5   6
ENDBRANCH   4   5
ENDBRANCH   3   4
ENDBRANCH   2   3
TORSDOF 17
ENDMDL
MODEL      109
REMARK 921   NORMALIZED FREE ENERGY PREDICTED BY IDOCK:   -3.88 KCAL/MOL
REMARK 922        TOTAL FREE ENERGY PREDICTED BY IDOCK:  -10.57 KCAL/MOL
REMARK 923 INTER-LIGAND FREE ENERGY PREDICTED BY IDOCK:   -7.94 KCAL/MOL
REMARK 924 INTRA-LIGAND FREE ENERGY PREDICTED BY IDOCK:   -2.64 KCAL/MOL
REMARK 927      BINDING AFFINITY PREDICTED BY RF-SCORE:    0.00 PKD
ROOT
HETATM    1  C   UNL     1     -11.996  10.833  68.964  1.00  0.00    -0.258 C  
HETATM    2  C   UNL     1     -11.124  12.066  69.125  1.00  0.00    -0.272 C  
ENDROOT
BRANCH   2   3
HETATM    3  C   UNL     1     -11.958  13.277  69.536  1.00  0.00    -0.366 C  
BRANCH   3   4
HETATM    4  C   UNL     1     -11.688  14.464  68.616  1.00  0.00    -0.367 C  
BRANCH   4   5
HETATM    5  C   UNL     1     -11.819  14.048  67.156  1.00  0.00    -0.444 C  
BRANCH   5   6
HETATM    6  C   UNL     1     -10.672  14.613  66.328  1.00  0.00    -0.316 C  
BRANCH   6   7
HETATM    7  C   UNL     1     -10.919  14.366  64.846  1.00  0.00    -0.416 C  
BRANCH   7   8
HETATM    8  C   UNL     1     -12.253  13.664  64.638  1.00  0.00    -0.448 C  
BRANCH   8   9
HETATM    9  C   UNL     1     -12.069  12.429  63.764  1.00  0.00    -0.618 C  
BRANCH   9  10
HETATM   10  C   UNL     1     -10.590  12.171  63.526  1.00  0.00    -0.501 C  
BRANCH  10  11
HETATM   11  C   UNL     1     -10.211  10.766  63.962  1.00  0.00    -0.390 C  
BRANCH  11  12
HETATM   12  C   UNL     1     -10.232  10.673  65.478  1.00  0.00    -0.329 C  
BRANCH  12  13
HETATM   13  C   UNL     1      -9.040  11.392  66.098  1.00  0.00    -0.217 C  
BRANCH  13  14
HETATM   14  C   UNL     1      -8.340  10.544  67.160  1.00  0.00    -0.127 C  
BRANCH  14  15
HETATM   15  C   UNL     1      -8.962   9.164  67.394  1.00  0.00    -0.128 C  
BRANCH  15  16
HETATM   16  C   UNL     1      -8.177   8.314  68.396  1.00  0.00    -0.132 C  
BRANCH  16  17
HETATM   17  N   UNL     1      -8.718   6.880  68.549  1.00  0.00    -0.125 N  
HETATM   18  C   UNL     1     -10.047   6.725  67.820  1.00  0.00    -0.154 C  
HETATM   19  C   UNL     1      -7.715   5.871  67.992  1.00  0.00    -0.100 C  
BRANCH  17  20
HETATM   20  C   UNL     1      -8.912   6.621  70.084  1.00  0.00    -0.152 C  
BRANCH  20  21
HETATM   21  C   UNL     1     -10.194   7.175  70.653  1.00  0.00    -0.205 A  
HETATM   22  C   UNL     1     -10.259   8.504  71.101  1.00  0.00    -0.272 A  
HETATM   23  C   UNL     1     -11.341   8.935  71.869  1.00  0.00    -0.446 A  
HETATM   24  C   UNL     1     -12.380   8.055  72.163  1.00  0.00    -0.358 A  
HETATM   25  C   UNL     1     -12.370   6.764  71.643  1.00  0.00    -0.409 A  
HETATM   26  C   UNL     1     -11.294   6.332  70.869  1.00  0.00    -0.389 A  
ENDBRANCH  20  21
ENDBRANCH  17  20
ENDBRANCH  16  17
ENDBRANCH  15  16
ENDBRANCH  14  15
ENDBRANCH  13  14
ENDBRANCH  12  13
ENDBRANCH  11  12
ENDBRANCH  10  11
ENDBRANCH   9  10
ENDBRANCH   8   9
ENDBRANCH   7   8
ENDBRANCH   6   7
ENDBRANCH   5   6
ENDBRANCH   4   5
ENDBRANCH   3   4
ENDBRANCH   2   3
TORSDOF 17
ENDMDL
MODEL      110
REMARK 921   NORMALIZED FREE ENERGY PREDICTED BY IDOCK:   -3.88 KCAL/MOL
REMARK 922        TOTAL FREE ENERGY PREDICTED BY IDOCK:  -10.57 KCAL/MOL
REMARK 923 INTER-LIGAND FREE ENERGY PREDICTED BY IDOCK:   -7.67 KCAL/MOL
REMARK 924 INTRA-LIGAND FREE ENERGY PREDICTED BY IDOCK:   -2.90 KCAL/MOL
REMARK 927      BINDING AFFINITY PREDICTED BY RF-SCORE:    0.00 PKD
ROOT
HETATM    1  C   UNL     1     -10.729   7.600  73.240  1.00  0.00    -0.409 C  
HETATM    2  C   UNL     1      -9.938   8.316  72.159  1.00  0.00    -0.343 C  
ENDROOT
BRANCH   2   3
HETATM    3  C   UNL     1     -10.765   9.431  71.523  1.00  0.00    -0.367 C  
BRANCH   3   4
HETATM    4  C   UNL     1     -12.258   9.159  71.678  1.00  0.00    -0.433 C  
BRANCH   4   5
HETATM    5  C   UNL     1     -13.071  10.169  70.877  1.00  0.00    -0.412 C  
BRANCH   5   6
HETATM    6  C   UNL     1     -12.978  11.555  71.501  1.00  0.00    -0.485 C  
BRANCH   6   7
HETATM    7  C   UNL     1     -12.381  12.543  70.508  1.00  0.00    -0.345 C  
BRANCH   7   8
HETATM    8  C   UNL     1     -12.543  13.969  71.013  1.00  0.00    -0.437 C  
BRANCH   8   9
HETATM    9  C   UNL     1     -12.225  14.962  69.901  1.00  0.00    -0.354 C  
BRANCH   9  10
HETATM   10  C   UNL     1     -10.895  14.614  69.252  1.00  0.00    -0.272 C  
BRANCH  10  11
HETATM   11  C   UNL     1     -10.970  14.783  67.745  1.00  0.00    -0.294 C  
BRANCH  11  12
HETATM   12  C   UNL     1     -12.129  13.972  67.192  1.00  0.00    -0.436 C  
BRANCH  12  13
HETATM   13  C   UNL     1     -11.640  12.756  66.415  1.00  0.00    -0.435 C  
BRANCH  13  14
HETATM   14  C   UNL     1     -11.273  11.589  67.333  1.00  0.00    -0.367 C  
BRANCH  14  15
HETATM   15  C   UNL     1      -9.798  11.181  67.296  1.00  0.00    -0.198 C  
BRANCH  15  16
HETATM   16  C   UNL     1      -9.485  10.159  66.198  1.00  0.00    -0.188 C  
BRANCH  16  17
HETATM   17  N   UNL     1      -8.436   9.111  66.610  1.00  0.00    -0.121 N  
HETATM   18  C   UNL     1      -8.693   7.785  65.905  1.00  0.00    -0.149 C  
HETATM   19  C   UNL     1      -7.030   9.602  66.268  1.00  0.00    -0.092 C  
BRANCH  17  20
HETATM   20  C   UNL     1      -8.553   8.926  68.164  1.00  0.00    -0.130 C  
BRANCH  20  21
HETATM   21  C   UNL     1      -9.220   7.642  68.590  1.00  0.00    -0.141 A  
HETATM   22  C   UNL     1     -10.615   7.504  68.514  1.00  0.00    -0.172 A  
HETATM   23  C   UNL     1     -11.252   6.440  69.153  1.00  0.00    -0.421 A  
HETATM   24  C   UNL     1     -10.500   5.490  69.841  1.00  0.00    -0.386 A  
HETATM   25  C   UNL     1      -9.111   5.567  69.842  1.00  0.00    -0.159 A  
HETATM   26  C   UNL     1      -8.470   6.624  69.197  1.00  0.00    -0.124 A  
ENDBRANCH  20  21
ENDBRANCH  17  20
ENDBRANCH  16  17
ENDBRANCH  15  16
ENDBRANCH  14  15
ENDBRANCH  13  14
ENDBRANCH  12  13
ENDBRANCH  11  12
ENDBRANCH  10  11
ENDBRANCH   9  10
ENDBRANCH   8   9
ENDBRANCH   7   8
ENDBRANCH   6   7
ENDBRANCH   5   6
ENDBRANCH   4   5
ENDBRANCH   3   4
ENDBRANCH   2   3
TORSDOF 17
ENDMDL
MODEL      111
REMARK 921   NORMALIZED FREE ENERGY PREDICTED BY IDOCK:   -3.87 KCAL/MOL
REMARK 922        TOTAL FREE ENERGY PREDICTED BY IDOCK:  -10.56 KCAL/MOL
REMARK 923 INTER-LIGAND FREE ENERGY PREDICTED BY IDOCK:   -8.13 KCAL/MOL
REMARK 924 INTRA-LIGAND FREE ENERGY PREDICTED BY IDOCK:   -2.44 KCAL/MOL
REMARK 927      BINDING AFFINITY PREDICTED BY RF-SCORE:    0.00 PKD
ROOT
HETATM    1  C   UNL     1     -13.205   9.927  71.310  1.00  0.00    -0.465 C  
HETATM    2  C   UNL     1     -12.000  10.698  70.802  1.00  0.00    -0.477 C  
ENDROOT
BRANCH   2   3
HETATM    3  C   UNL     1     -10.851   9.754  70.456  1.00  0.00    -0.387 C  
BRANCH   3   4
HETATM    4  C   UNL     1     -10.535   8.827  71.627  1.00  0.00    -0.387 C  
BRANCH   4   5
HETATM    5  C   UNL     1     -10.602   7.370  71.187  1.00  0.00    -0.235 C  
BRANCH   5   6
HETATM    6  C   UNL     1     -11.137   7.258  69.766  1.00  0.00    -0.203 C  
BRANCH   6   7
HETATM    7  C   UNL     1     -10.697   5.942  69.138  1.00  0.00    -0.394 C  
BRANCH   7   8
HETATM    8  C   UNL     1     -10.151   6.177  67.738  1.00  0.00    -0.177 C  
BRANCH   8   9
HETATM    9  C   UNL     1     -10.657   7.505  67.189  1.00  0.00    -0.415 C  
BRANCH   9  10
HETATM   10  C   UNL     1      -9.518   8.270  66.534  1.00  0.00    -0.284 C  
BRANCH  10  11
HETATM   11  C   UNL     1      -8.658   8.959  67.580  1.00  0.00    -0.124 C  
BRANCH  11  12
HETATM   12  C   UNL     1      -7.569   9.769  66.900  1.00  0.00    -0.095 C  
BRANCH  12  13
HETATM   13  C   UNL     1      -7.936  11.246  66.824  1.00  0.00    -0.159 C  
BRANCH  13  14
HETATM   14  C   UNL     1      -8.366  11.808  68.179  1.00  0.00    -0.156 C  
BRANCH  14  15
HETATM   15  C   UNL     1      -8.822  13.270  68.154  1.00  0.00    -0.187 C  
BRANCH  15  16
HETATM   16  C   UNL     1     -10.255  13.461  68.659  1.00  0.00    -0.182 C  
BRANCH  16  17
HETATM   17  N   UNL     1     -11.034  14.556  67.909  1.00  0.00    -0.262 N  
HETATM   18  C   UNL     1     -11.598  15.581  68.885  1.00  0.00    -0.373 C  
HETATM   19  C   UNL     1     -10.125  15.261  66.903  1.00  0.00    -0.256 C  
BRANCH  17  20
HETATM   20  C   UNL     1     -12.202  13.846  67.139  1.00  0.00    -0.318 C  
BRANCH  20  21
HETATM   21  C   UNL     1     -11.788  13.188  65.846  1.00  0.00    -0.453 A  
HETATM   22  C   UNL     1     -12.152  13.751  64.612  1.00  0.00    -0.452 A  
HETATM   23  C   UNL     1     -12.012  13.015  63.435  1.00  0.00    -0.592 A  
HETATM   24  C   UNL     1     -11.476  11.730  63.478  1.00  0.00    -0.489 A  
HETATM   25  C   UNL     1     -11.025  11.201  64.683  1.00  0.00    -0.238 A  
HETATM   26  C   UNL     1     -11.156  11.936  65.860  1.00  0.00    -0.365 A  
ENDBRANCH  20  21
ENDBRANCH  17  20
ENDBRANCH  16  17
ENDBRANCH  15  16
ENDBRANCH  14  15
ENDBRANCH  13  14
ENDBRANCH  12  13
ENDBRANCH  11  12
ENDBRANCH  10  11
ENDBRANCH   9  10
ENDBRANCH   8   9
ENDBRANCH   7   8
ENDBRANCH   6   7
ENDBRANCH   5   6
ENDBRANCH   4   5
ENDBRANCH   3   4
ENDBRANCH   2   3
TORSDOF 17
ENDMDL
MODEL      112
REMARK 921   NORMALIZED FREE ENERGY PREDICTED BY IDOCK:   -3.86 KCAL/MOL
REMARK 922        TOTAL FREE ENERGY PREDICTED BY IDOCK:  -10.53 KCAL/MOL
REMARK 923 INTER-LIGAND FREE ENERGY PREDICTED BY IDOCK:   -8.36 KCAL/MOL
REMARK 924 INTRA-LIGAND FREE ENERGY PREDICTED BY IDOCK:   -2.17 KCAL/MOL
REMARK 927      BINDING AFFINITY PREDICTED BY RF-SCORE:    0.00 PKD
ROOT
HETATM    1  C   UNL     1     -10.572  11.654  66.475  1.00  0.00    -0.292 C  
HETATM    2  C   UNL     1     -11.803  12.273  67.113  1.00  0.00    -0.328 C  
ENDROOT
BRANCH   2   3
HETATM    3  C   UNL     1     -11.428  13.095  68.344  1.00  0.00    -0.350 C  
BRANCH   3   4
HETATM    4  C   UNL     1     -11.524  14.590  68.052  1.00  0.00    -0.345 C  
BRANCH   4   5
HETATM    5  C   UNL     1     -12.130  15.328  69.239  1.00  0.00    -0.280 C  
BRANCH   5   6
HETATM    6  C   UNL     1     -11.100  15.509  70.346  1.00  0.00    -0.357 C  
BRANCH   6   7
HETATM    7  C   UNL     1     -11.761  16.076  71.595  1.00  0.00    -0.583 C  
BRANCH   7   8
HETATM    8  C   UNL     1     -13.172  15.527  71.747  1.00  0.00    -0.567 C  
BRANCH   8   9
HETATM    9  C   UNL     1     -13.209  14.460  72.833  1.00  0.00    -0.613 C  
BRANCH   9  10
HETATM   10  C   UNL     1     -13.804  13.173  72.284  1.00  0.00    -0.586 C  
BRANCH  10  11
HETATM   11  C   UNL     1     -12.752  12.367  71.540  1.00  0.00    -0.333 C  
BRANCH  11  12
HETATM   12  C   UNL     1     -13.013  10.883  71.728  1.00  0.00    -0.557 C  
BRANCH  12  13
HETATM   13  C   UNL     1     -12.310  10.053  70.660  1.00  0.00    -0.342 C  
BRANCH  13  14
HETATM   14  C   UNL     1     -11.330   9.045  71.260  1.00  0.00    -0.389 C  
BRANCH  14  15
HETATM   15  C   UNL     1      -9.856   9.318  70.947  1.00  0.00    -0.363 C  
BRANCH  15  16
HETATM   16  C   UNL     1      -9.650  10.055  69.621  1.00  0.00    -0.226 C  
BRANCH  16  17
HETATM   17  N   UNL     1      -8.197  10.022  69.114  1.00  0.00    -0.125 N  
HETATM   18  C   UNL     1      -7.712  11.426  68.773  1.00  0.00    -0.135 C  
HETATM   19  C   UNL     1      -7.278   9.412  70.172  1.00  0.00    -0.096 C  
BRANCH  17  20
HETATM   20  C   UNL     1      -8.176   9.119  67.831  1.00  0.00    -0.112 C  
BRANCH  20  21
HETATM   21  C   UNL     1      -9.096   7.924  67.894  1.00  0.00    -0.133 A  
HETATM   22  C   UNL     1      -8.667   6.726  68.488  1.00  0.00    -0.124 A  
HETATM   23  C   UNL     1      -9.399   5.552  68.308  1.00  0.00    -0.127 A  
HETATM   24  C   UNL     1     -10.579   5.574  67.567  1.00  0.00    -0.252 A  
HETATM   25  C   UNL     1     -11.060   6.775  67.056  1.00  0.00    -0.369 A  
HETATM   26  C   UNL     1     -10.336   7.952  67.240  1.00  0.00    -0.377 A  
ENDBRANCH  20  21
ENDBRANCH  17  20
ENDBRANCH  16  17
ENDBRANCH  15  16
ENDBRANCH  14  15
ENDBRANCH  13  14
ENDBRANCH  12  13
ENDBRANCH  11  12
ENDBRANCH  10  11
ENDBRANCH   9  10
ENDBRANCH   8   9
ENDBRANCH   7   8
ENDBRANCH   6   7
ENDBRANCH   5   6
ENDBRANCH   4   5
ENDBRANCH   3   4
ENDBRANCH   2   3
TORSDOF 17
ENDMDL
MODEL      113
REMARK 921   NORMALIZED FREE ENERGY PREDICTED BY IDOCK:   -3.86 KCAL/MOL
REMARK 922        TOTAL FREE ENERGY PREDICTED BY IDOCK:  -10.53 KCAL/MOL
REMARK 923 INTER-LIGAND FREE ENERGY PREDICTED BY IDOCK:   -8.91 KCAL/MOL
REMARK 924 INTRA-LIGAND FREE ENERGY PREDICTED BY IDOCK:   -1.62 KCAL/MOL
REMARK 927      BINDING AFFINITY PREDICTED BY RF-SCORE:    0.00 PKD
ROOT
HETATM    1  C   UNL     1     -12.076  14.392  64.633  1.00  0.00    -0.485 C  
HETATM    2  C   UNL     1     -12.542  13.003  65.034  1.00  0.00    -0.515 C  
ENDROOT
BRANCH   2   3
HETATM    3  C   UNL     1     -11.551  12.349  65.994  1.00  0.00    -0.455 C  
BRANCH   3   4
HETATM    4  C   UNL     1     -11.876  12.705  67.442  1.00  0.00    -0.393 C  
BRANCH   4   5
HETATM    5  C   UNL     1     -10.597  12.868  68.252  1.00  0.00    -0.259 C  
BRANCH   5   6
HETATM    6  C   UNL     1      -9.970  14.234  68.005  1.00  0.00    -0.220 C  
BRANCH   6   7
HETATM    7  C   UNL     1     -10.860  15.334  68.566  1.00  0.00    -0.253 C  
BRANCH   7   8
HETATM    8  C   UNL     1     -11.213  15.045  70.018  1.00  0.00    -0.301 C  
BRANCH   8   9
HETATM    9  C   UNL     1     -12.534  15.710  70.383  1.00  0.00    -0.409 C  
BRANCH   9  10
HETATM   10  C   UNL     1     -13.424  14.730  71.131  1.00  0.00    -0.450 C  
BRANCH  10  11
HETATM   11  C   UNL     1     -12.885  13.315  71.017  1.00  0.00    -0.311 C  
BRANCH  11  12
HETATM   12  C   UNL     1     -13.405  12.471  72.168  1.00  0.00    -0.540 C  
BRANCH  12  13
HETATM   13  C   UNL     1     -13.360  10.985  71.836  1.00  0.00    -0.423 C  
BRANCH  13  14
HETATM   14  C   UNL     1     -12.535  10.695  70.582  1.00  0.00    -0.462 C  
BRANCH  14  15
HETATM   15  C   UNL     1     -11.132  10.143  70.848  1.00  0.00    -0.326 C  
BRANCH  15  16
HETATM   16  C   UNL     1     -10.808   8.899  70.017  1.00  0.00    -0.227 C  
BRANCH  16  17
HETATM   17  N   UNL     1     -10.695   7.610  70.852  1.00  0.00    -0.232 N  
HETATM   18  C   UNL     1      -9.237   7.190  70.999  1.00  0.00    -0.158 C  
HETATM   19  C   UNL     1     -11.304   7.818  72.237  1.00  0.00    -0.321 C  
BRANCH  17  20
HETATM   20  C   UNL     1     -11.502   6.498  70.095  1.00  0.00    -0.415 C  
BRANCH  20  21
HETATM   21  C   UNL     1     -10.786   5.908  68.905  1.00  0.00    -0.373 A  
HETATM   22  C   UNL     1     -11.069   6.362  67.607  1.00  0.00    -0.388 A  
HETATM   23  C   UNL     1     -10.621   5.643  66.498  1.00  0.00    -0.320 A  
HETATM   24  C   UNL     1      -9.860   4.490  66.677  1.00  0.00    -0.244 A  
HETATM   25  C   UNL     1      -9.495   4.086  67.958  1.00  0.00    -0.220 A  
HETATM   26  C   UNL     1      -9.934   4.806  69.068  1.00  0.00    -0.213 A  
ENDBRANCH  20  21
ENDBRANCH  17  20
ENDBRANCH  16  17
ENDBRANCH  15  16
ENDBRANCH  14  15
ENDBRANCH  13  14
ENDBRANCH  12  13
ENDBRANCH  11  12
ENDBRANCH  10  11
ENDBRANCH   9  10
ENDBRANCH   8   9
ENDBRANCH   7   8
ENDBRANCH   6   7
ENDBRANCH   5   6
ENDBRANCH   4   5
ENDBRANCH   3   4
ENDBRANCH   2   3
TORSDOF 17
ENDMDL
MODEL      114
REMARK 921   NORMALIZED FREE ENERGY PREDICTED BY IDOCK:   -3.86 KCAL/MOL
REMARK 922        TOTAL FREE ENERGY PREDICTED BY IDOCK:  -10.53 KCAL/MOL
REMARK 923 INTER-LIGAND FREE ENERGY PREDICTED BY IDOCK:   -8.69 KCAL/MOL
REMARK 924 INTRA-LIGAND FREE ENERGY PREDICTED BY IDOCK:   -1.83 KCAL/MOL
REMARK 927      BINDING AFFINITY PREDICTED BY RF-SCORE:    0.00 PKD
ROOT
HETATM    1  C   UNL     1     -10.627   5.049  66.235  1.00  0.00    -0.332 C  
HETATM    2  C   UNL     1      -9.708   4.167  67.061  1.00  0.00    -0.230 C  
ENDROOT
BRANCH   2   3
HETATM    3  C   UNL     1      -9.128   4.937  68.244  1.00  0.00    -0.138 C  
BRANCH   3   4
HETATM    4  C   UNL     1      -9.722   4.446  69.561  1.00  0.00    -0.280 C  
BRANCH   4   5
HETATM    5  C   UNL     1      -9.663   5.543  70.616  1.00  0.00    -0.233 C  
BRANCH   5   6
HETATM    6  C   UNL     1     -11.005   5.687  71.322  1.00  0.00    -0.251 C  
BRANCH   6   7
HETATM    7  C   UNL     1     -11.725   6.938  70.837  1.00  0.00    -0.408 C  
BRANCH   7   8
HETATM    8  C   UNL     1     -10.739   8.080  70.644  1.00  0.00    -0.235 C  
BRANCH   8   9
HETATM    9  C   UNL     1     -11.184   9.302  71.438  1.00  0.00    -0.433 C  
BRANCH   9  10
HETATM   10  C   UNL     1     -12.585   9.088  71.989  1.00  0.00    -0.464 C  
BRANCH  10  11
HETATM   11  C   UNL     1     -13.405  10.362  71.888  1.00  0.00    -0.469 C  
BRANCH  11  12
HETATM   12  C   UNL     1     -12.631  11.413  71.112  1.00  0.00    -0.490 C  
BRANCH  12  13
HETATM   13  C   UNL     1     -12.993  12.822  71.566  1.00  0.00    -0.388 C  
BRANCH  13  14
HETATM   14  C   UNL     1     -12.606  13.882  70.534  1.00  0.00    -0.382 C  
BRANCH  14  15
HETATM   15  C   UNL     1     -11.924  13.336  69.276  1.00  0.00    -0.354 C  
BRANCH  15  16
HETATM   16  C   UNL     1     -11.875  14.352  68.131  1.00  0.00    -0.327 C  
BRANCH  16  17
HETATM   17  N   UNL     1     -11.039  13.884  66.926  1.00  0.00    -0.296 N  
HETATM   18  C   UNL     1     -10.968  14.975  65.864  1.00  0.00    -0.343 C  
HETATM   19  C   UNL     1      -9.624  13.517  67.370  1.00  0.00    -0.227 C  
BRANCH  17  20
HETATM   20  C   UNL     1     -11.744  12.610  66.342  1.00  0.00    -0.405 C  
BRANCH  20  21
HETATM   21  C   UNL     1     -10.900  11.360  66.377  1.00  0.00    -0.323 A  
HETATM   22  C   UNL     1     -10.077  11.025  65.289  1.00  0.00    -0.332 A  
HETATM   23  C   UNL     1      -9.514   9.752  65.199  1.00  0.00    -0.338 A  
HETATM   24  C   UNL     1      -9.739   8.819  66.209  1.00  0.00    -0.342 A  
HETATM   25  C   UNL     1     -10.474   9.173  67.336  1.00  0.00    -0.339 A  
HETATM   26  C   UNL     1     -11.032  10.447  67.433  1.00  0.00    -0.335 A  
ENDBRANCH  20  21
ENDBRANCH  17  20
ENDBRANCH  16  17
ENDBRANCH  15  16
ENDBRANCH  14  15
ENDBRANCH  13  14
ENDBRANCH  12  13
ENDBRANCH  11  12
ENDBRANCH  10  11
ENDBRANCH   9  10
ENDBRANCH   8   9
ENDBRANCH   7   8
ENDBRANCH   6   7
ENDBRANCH   5   6
ENDBRANCH   4   5
ENDBRANCH   3   4
ENDBRANCH   2   3
TORSDOF 17
ENDMDL
MODEL      115
REMARK 921   NORMALIZED FREE ENERGY PREDICTED BY IDOCK:   -3.85 KCAL/MOL
REMARK 922        TOTAL FREE ENERGY PREDICTED BY IDOCK:  -10.52 KCAL/MOL
REMARK 923 INTER-LIGAND FREE ENERGY PREDICTED BY IDOCK:   -7.62 KCAL/MOL
REMARK 924 INTRA-LIGAND FREE ENERGY PREDICTED BY IDOCK:   -2.90 KCAL/MOL
REMARK 927      BINDING AFFINITY PREDICTED BY RF-SCORE:    0.00 PKD
ROOT
HETATM    1  C   UNL     1     -12.237  12.124  63.566  1.00  0.00    -0.670 C  
HETATM    2  C   UNL     1     -10.721  12.036  63.589  1.00  0.00    -0.506 C  
ENDROOT
BRANCH   2   3
HETATM    3  C   UNL     1     -10.255  10.812  64.373  1.00  0.00    -0.432 C  
BRANCH   3   4
HETATM    4  C   UNL     1     -10.341  11.061  65.876  1.00  0.00    -0.315 C  
BRANCH   4   5
HETATM    5  C   UNL     1      -9.218  11.986  66.330  1.00  0.00    -0.216 C  
BRANCH   5   6
HETATM    6  C   UNL     1      -9.681  12.878  67.474  1.00  0.00    -0.205 C  
BRANCH   6   7
HETATM    7  C   UNL     1     -10.965  13.602  67.093  1.00  0.00    -0.299 C  
BRANCH   7   8
HETATM    8  C   UNL     1     -12.002  13.467  68.198  1.00  0.00    -0.356 C  
BRANCH   8   9
HETATM    9  C   UNL     1     -11.448  12.625  69.341  1.00  0.00    -0.330 C  
BRANCH   9  10
HETATM   10  C   UNL     1     -12.353  11.431  69.599  1.00  0.00    -0.236 C  
BRANCH  10  11
HETATM   11  C   UNL     1     -12.556  11.220  71.090  1.00  0.00    -0.501 C  
BRANCH  11  12
HETATM   12  C   UNL     1     -13.262   9.897  71.332  1.00  0.00    -0.487 C  
BRANCH  12  13
HETATM   13  C   UNL     1     -12.346   8.895  72.024  1.00  0.00    -0.460 C  
BRANCH  13  14
HETATM   14  C   UNL     1     -12.347   7.532  71.331  1.00  0.00    -0.374 C  
BRANCH  14  15
HETATM   15  C   UNL     1     -11.773   6.385  72.167  1.00  0.00    -0.366 C  
BRANCH  15  16
HETATM   16  C   UNL     1     -10.649   5.627  71.455  1.00  0.00    -0.244 C  
BRANCH  16  17
HETATM   17  N   UNL     1      -9.335   5.576  72.255  1.00  0.00    -0.145 N  
HETATM   18  C   UNL     1      -9.421   6.464  73.491  1.00  0.00    -0.144 C  
HETATM   19  C   UNL     1      -9.028   4.141  72.683  1.00  0.00    -0.109 C  
BRANCH  17  20
HETATM   20  C   UNL     1      -8.195   6.085  71.304  1.00  0.00    -0.123 C  
BRANCH  20  21
HETATM   21  C   UNL     1      -8.589   7.247  70.426  1.00  0.00    -0.144 A  
HETATM   22  C   UNL     1      -8.614   8.553  70.942  1.00  0.00    -0.184 A  
HETATM   23  C   UNL     1      -9.231   9.580  70.227  1.00  0.00    -0.303 A  
HETATM   24  C   UNL     1      -9.795   9.318  68.980  1.00  0.00    -0.168 A  
HETATM   25  C   UNL     1      -9.692   8.048  68.420  1.00  0.00    -0.168 A  
HETATM   26  C   UNL     1      -9.068   7.022  69.128  1.00  0.00    -0.136 A  
ENDBRANCH  20  21
ENDBRANCH  17  20
ENDBRANCH  16  17
ENDBRANCH  15  16
ENDBRANCH  14  15
ENDBRANCH  13  14
ENDBRANCH  12  13
ENDBRANCH  11  12
ENDBRANCH  10  11
ENDBRANCH   9  10
ENDBRANCH   8   9
ENDBRANCH   7   8
ENDBRANCH   6   7
ENDBRANCH   5   6
ENDBRANCH   4   5
ENDBRANCH   3   4
ENDBRANCH   2   3
TORSDOF 17
ENDMDL
MODEL      116
REMARK 921   NORMALIZED FREE ENERGY PREDICTED BY IDOCK:   -3.85 KCAL/MOL
REMARK 922        TOTAL FREE ENERGY PREDICTED BY IDOCK:  -10.52 KCAL/MOL
REMARK 923 INTER-LIGAND FREE ENERGY PREDICTED BY IDOCK:   -8.25 KCAL/MOL
REMARK 924 INTRA-LIGAND FREE ENERGY PREDICTED BY IDOCK:   -2.27 KCAL/MOL
REMARK 927      BINDING AFFINITY PREDICTED BY RF-SCORE:    0.00 PKD
ROOT
HETATM    1  C   UNL     1      -8.285   9.717  67.523  1.00  0.00    -0.114 C  
HETATM    2  C   UNL     1      -9.111   9.429  66.281  1.00  0.00    -0.204 C  
ENDROOT
BRANCH   2   3
HETATM    3  C   UNL     1      -9.019  10.581  65.284  1.00  0.00    -0.211 C  
BRANCH   3   4
HETATM    4  C   UNL     1     -10.339  10.767  64.541  1.00  0.00    -0.401 C  
BRANCH   4   5
HETATM    5  C   UNL     1     -10.293  12.020  63.675  1.00  0.00    -0.482 C  
BRANCH   5   6
HETATM    6  C   UNL     1     -11.691  12.592  63.477  1.00  0.00    -0.595 C  
BRANCH   6   7
HETATM    7  C   UNL     1     -12.435  12.639  64.805  1.00  0.00    -0.555 C  
BRANCH   7   8
HETATM    8  C   UNL     1     -12.401  14.044  65.386  1.00  0.00    -0.495 C  
BRANCH   8   9
HETATM    9  C   UNL     1     -12.022  13.997  66.861  1.00  0.00    -0.479 C  
BRANCH   9  10
HETATM   10  C   UNL     1     -10.576  13.555  67.017  1.00  0.00    -0.269 C  
BRANCH  10  11
HETATM   11  C   UNL     1     -10.426  12.606  68.193  1.00  0.00    -0.239 C  
BRANCH  11  12
HETATM   12  C   UNL     1     -11.519  11.552  68.148  1.00  0.00    -0.385 C  
BRANCH  12  13
HETATM   13  C   UNL     1     -12.149  11.342  69.520  1.00  0.00    -0.386 C  
BRANCH  13  14
HETATM   14  C   UNL     1     -11.291  10.455  70.422  1.00  0.00    -0.417 C  
BRANCH  14  15
HETATM   15  C   UNL     1     -12.059   9.731  71.532  1.00  0.00    -0.493 C  
BRANCH  15  16
HETATM   16  C   UNL     1     -11.379   8.438  71.989  1.00  0.00    -0.342 C  
BRANCH  16  17
HETATM   17  N   UNL     1     -12.090   7.161  71.507  1.00  0.00    -0.321 N  
HETATM   18  C   UNL     1     -11.744   5.980  72.405  1.00  0.00    -0.271 C  
HETATM   19  C   UNL     1     -13.604   7.365  71.502  1.00  0.00    -0.370 C  
BRANCH  17  20
HETATM   20  C   UNL     1     -11.602   6.885  70.042  1.00  0.00    -0.246 C  
BRANCH  20  21
HETATM   21  C   UNL     1     -10.242   6.237  69.949  1.00  0.00    -0.232 A  
HETATM   22  C   UNL     1     -10.123   4.841  69.866  1.00  0.00    -0.299 A  
HETATM   23  C   UNL     1      -8.883   4.229  70.055  1.00  0.00    -0.126 A  
HETATM   24  C   UNL     1      -7.752   5.007  70.292  1.00  0.00    -0.067 A  
HETATM   25  C   UNL     1      -7.845   6.395  70.282  1.00  0.00    -0.103 A  
HETATM   26  C   UNL     1      -9.080   7.010  70.086  1.00  0.00    -0.149 A  
ENDBRANCH  20  21
ENDBRANCH  17  20
ENDBRANCH  16  17
ENDBRANCH  15  16
ENDBRANCH  14  15
ENDBRANCH  13  14
ENDBRANCH  12  13
ENDBRANCH  11  12
ENDBRANCH  10  11
ENDBRANCH   9  10
ENDBRANCH   8   9
ENDBRANCH   7   8
ENDBRANCH   6   7
ENDBRANCH   5   6
ENDBRANCH   4   5
ENDBRANCH   3   4
ENDBRANCH   2   3
TORSDOF 17
ENDMDL
MODEL      117
REMARK 921   NORMALIZED FREE ENERGY PREDICTED BY IDOCK:   -3.85 KCAL/MOL
REMARK 922        TOTAL FREE ENERGY PREDICTED BY IDOCK:  -10.51 KCAL/MOL
REMARK 923 INTER-LIGAND FREE ENERGY PREDICTED BY IDOCK:   -8.18 KCAL/MOL
REMARK 924 INTRA-LIGAND FREE ENERGY PREDICTED BY IDOCK:   -2.33 KCAL/MOL
REMARK 927      BINDING AFFINITY PREDICTED BY RF-SCORE:    0.00 PKD
ROOT
HETATM    1  C   UNL     1     -10.664   6.330  72.929  1.00  0.00    -0.274 C  
HETATM    2  C   UNL     1     -11.013   7.801  72.785  1.00  0.00    -0.447 C  
ENDROOT
BRANCH   2   3
HETATM    3  C   UNL     1     -12.115   8.004  71.748  1.00  0.00    -0.344 C  
BRANCH   3   4
HETATM    4  C   UNL     1     -13.094   9.085  72.195  1.00  0.00    -0.496 C  
BRANCH   4   5
HETATM    5  C   UNL     1     -12.787  10.405  71.500  1.00  0.00    -0.569 C  
BRANCH   5   6
HETATM    6  C   UNL     1     -13.548  11.551  72.154  1.00  0.00    -0.105 C  
BRANCH   6   7
HETATM    7  C   UNL     1     -13.021  12.889  71.654  1.00  0.00    -0.410 C  
BRANCH   7   8
HETATM    8  C   UNL     1     -13.927  14.023  72.110  1.00  0.00    -0.633 C  
BRANCH   8   9
HETATM    9  C   UNL     1     -13.245  15.367  71.887  1.00  0.00    -0.534 C  
BRANCH   9  10
HETATM   10  C   UNL     1     -11.744  15.174  71.738  1.00  0.00    -0.480 C  
BRANCH  10  11
HETATM   11  C   UNL     1     -11.152  16.234  70.824  1.00  0.00    -0.217 C  
BRANCH  11  12
HETATM   12  C   UNL     1     -11.454  15.891  69.375  1.00  0.00    -0.351 C  
BRANCH  12  13
HETATM   13  C   UNL     1     -10.919  14.513  69.004  1.00  0.00    -0.272 C  
BRANCH  13  14
HETATM   14  C   UNL     1     -11.989  13.627  68.366  1.00  0.00    -0.391 C  
BRANCH  14  15
HETATM   15  C   UNL     1     -11.625  13.071  66.987  1.00  0.00    -0.413 C  
BRANCH  15  16
HETATM   16  C   UNL     1     -10.204  12.505  66.924  1.00  0.00    -0.226 C  
BRANCH  16  17
HETATM   17  N   UNL     1     -10.151  11.000  66.601  1.00  0.00    -0.212 N  
HETATM   18  C   UNL     1     -10.651  10.735  65.186  1.00  0.00    -0.169 C  
HETATM   19  C   UNL     1      -8.722  10.477  66.739  1.00  0.00    -0.132 C  
BRANCH  17  20
HETATM   20  C   UNL     1     -11.070  10.272  67.643  1.00  0.00    -0.251 C  
BRANCH  20  21
HETATM   21  C   UNL     1     -10.329   9.395  68.622  1.00  0.00    -0.227 A  
HETATM   22  C   UNL     1      -9.744   9.948  69.773  1.00  0.00    -0.266 A  
HETATM   23  C   UNL     1      -8.838   9.203  70.527  1.00  0.00    -0.263 A  
HETATM   24  C   UNL     1      -8.538   7.893  70.161  1.00  0.00    -0.134 A  
HETATM   25  C   UNL     1      -9.185   7.306  69.078  1.00  0.00    -0.139 A  
HETATM   26  C   UNL     1     -10.097   8.044  68.326  1.00  0.00    -0.227 A  
ENDBRANCH  20  21
ENDBRANCH  17  20
ENDBRANCH  16  17
ENDBRANCH  15  16
ENDBRANCH  14  15
ENDBRANCH  13  14
ENDBRANCH  12  13
ENDBRANCH  11  12
ENDBRANCH  10  11
ENDBRANCH   9  10
ENDBRANCH   8   9
ENDBRANCH   7   8
ENDBRANCH   6   7
ENDBRANCH   5   6
ENDBRANCH   4   5
ENDBRANCH   3   4
ENDBRANCH   2   3
TORSDOF 17
ENDMDL
MODEL      118
REMARK 921   NORMALIZED FREE ENERGY PREDICTED BY IDOCK:   -3.85 KCAL/MOL
REMARK 922        TOTAL FREE ENERGY PREDICTED BY IDOCK:  -10.51 KCAL/MOL
REMARK 923 INTER-LIGAND FREE ENERGY PREDICTED BY IDOCK:   -8.19 KCAL/MOL
REMARK 924 INTRA-LIGAND FREE ENERGY PREDICTED BY IDOCK:   -2.32 KCAL/MOL
REMARK 927      BINDING AFFINITY PREDICTED BY RF-SCORE:    0.00 PKD
ROOT
HETATM    1  C   UNL     1      -8.126  14.633  68.593  1.00  0.00    -0.150 C  
HETATM    2  C   UNL     1      -7.398  15.430  67.525  1.00  0.00    -0.222 C  
ENDROOT
BRANCH   2   3
HETATM    3  C   UNL     1      -8.359  16.351  66.779  1.00  0.00    -0.285 C  
BRANCH   3   4
HETATM    4  C   UNL     1      -9.741  15.716  66.658  1.00  0.00    -0.266 C  
BRANCH   4   5
HETATM    5  C   UNL     1      -9.921  15.085  65.283  1.00  0.00    -0.325 C  
BRANCH   5   6
HETATM    6  C   UNL     1     -11.225  15.544  64.643  1.00  0.00    -0.381 C  
BRANCH   6   7
HETATM    7  C   UNL     1     -12.098  14.344  64.304  1.00  0.00    -0.461 C  
BRANCH   7   8
HETATM    8  C   UNL     1     -12.756  13.792  65.560  1.00  0.00    -0.530 C  
BRANCH   8   9
HETATM    9  C   UNL     1     -12.096  12.481  65.970  1.00  0.00    -0.390 C  
BRANCH   9  10
HETATM   10  C   UNL     1     -11.698  12.531  67.436  1.00  0.00    -0.432 C  
BRANCH  10  11
HETATM   11  C   UNL     1     -10.350  11.865  67.652  1.00  0.00    -0.217 C  
BRANCH  11  12
HETATM   12  C   UNL     1      -9.762  11.446  66.315  1.00  0.00    -0.239 C  
BRANCH  12  13
HETATM   13  C   UNL     1      -9.353   9.978  66.320  1.00  0.00    -0.213 C  
BRANCH  13  14
HETATM   14  C   UNL     1     -10.189   9.146  67.293  1.00  0.00    -0.319 C  
BRANCH  14  15
HETATM   15  C   UNL     1      -9.469   7.929  67.880  1.00  0.00    -0.160 C  
BRANCH  15  16
HETATM   16  C   UNL     1      -8.758   8.231  69.202  1.00  0.00    -0.143 C  
BRANCH  16  17
HETATM   17  N   UNL     1      -9.257   7.378  70.382  1.00  0.00    -0.158 N  
HETATM   18  C   UNL     1     -10.498   6.586  69.988  1.00  0.00    -0.212 C  
HETATM   19  C   UNL     1      -8.165   6.412  70.839  1.00  0.00    -0.125 C  
BRANCH  17  20
HETATM   20  C   UNL     1      -9.596   8.364  71.554  1.00  0.00    -0.208 C  
BRANCH  20  21
HETATM   21  C   UNL     1     -10.982   8.957  71.488  1.00  0.00    -0.398 A  
HETATM   22  C   UNL     1     -11.218  10.138  70.765  1.00  0.00    -0.414 A  
HETATM   23  C   UNL     1     -12.418  10.831  70.924  1.00  0.00    -0.500 A  
HETATM   24  C   UNL     1     -13.402  10.333  71.776  1.00  0.00    -0.476 A  
HETATM   25  C   UNL     1     -13.215   9.116  72.423  1.00  0.00    -0.512 A  
HETATM   26  C   UNL     1     -12.020   8.416  72.260  1.00  0.00    -0.455 A  
ENDBRANCH  20  21
ENDBRANCH  17  20
ENDBRANCH  16  17
ENDBRANCH  15  16
ENDBRANCH  14  15
ENDBRANCH  13  14
ENDBRANCH  12  13
ENDBRANCH  11  12
ENDBRANCH  10  11
ENDBRANCH   9  10
ENDBRANCH   8   9
ENDBRANCH   7   8
ENDBRANCH   6   7
ENDBRANCH   5   6
ENDBRANCH   4   5
ENDBRANCH   3   4
ENDBRANCH   2   3
TORSDOF 17
ENDMDL
MODEL      119
REMARK 921   NORMALIZED FREE ENERGY PREDICTED BY IDOCK:   -3.85 KCAL/MOL
REMARK 922        TOTAL FREE ENERGY PREDICTED BY IDOCK:  -10.51 KCAL/MOL
REMARK 923 INTER-LIGAND FREE ENERGY PREDICTED BY IDOCK:   -8.36 KCAL/MOL
REMARK 924 INTRA-LIGAND FREE ENERGY PREDICTED BY IDOCK:   -2.15 KCAL/MOL
REMARK 927      BINDING AFFINITY PREDICTED BY RF-SCORE:    0.00 PKD
ROOT
HETATM    1  C   UNL     1     -10.681   7.270  73.394  1.00  0.00    -0.415 C  
HETATM    2  C   UNL     1      -9.804   6.612  72.343  1.00  0.00    -0.169 C  
ENDROOT
BRANCH   2   3
HETATM    3  C   UNL     1     -10.495   5.391  71.740  1.00  0.00    -0.288 C  
BRANCH   3   4
HETATM    4  C   UNL     1     -10.358   5.381  70.220  1.00  0.00    -0.357 C  
BRANCH   4   5
HETATM    5  C   UNL     1     -11.390   6.303  69.584  1.00  0.00    -0.492 C  
BRANCH   5   6
HETATM    6  C   UNL     1     -10.893   6.829  68.244  1.00  0.00    -0.290 C  
BRANCH   6   7
HETATM    7  C   UNL     1      -9.701   7.754  68.449  1.00  0.00    -0.167 C  
BRANCH   7   8
HETATM    8  C   UNL     1     -10.169   9.178  68.707  1.00  0.00    -0.228 C  
BRANCH   8   9
HETATM    9  C   UNL     1      -9.908   9.566  70.157  1.00  0.00    -0.288 C  
BRANCH   9  10
HETATM   10  C   UNL     1     -11.221   9.859  70.865  1.00  0.00    -0.433 C  
BRANCH  10  11
HETATM   11  C   UNL     1     -12.123  10.718  69.996  1.00  0.00    -0.423 C  
BRANCH  11  12
HETATM   12  C   UNL     1     -12.283  12.094  70.619  1.00  0.00    -0.392 C  
BRANCH  12  13
HETATM   13  C   UNL     1     -12.091  13.199  69.588  1.00  0.00    -0.317 C  
BRANCH  13  14
HETATM   14  C   UNL     1     -11.027  12.846  68.549  1.00  0.00    -0.288 C  
BRANCH  14  15
HETATM   15  C   UNL     1     -11.568  12.558  67.146  1.00  0.00    -0.437 C  
BRANCH  15  16
HETATM   16  C   UNL     1     -12.081  13.812  66.431  1.00  0.00    -0.444 C  
BRANCH  16  17
HETATM   17  N   UNL     1     -11.408  14.067  65.071  1.00  0.00    -0.328 N  
HETATM   18  C   UNL     1     -10.198  13.159  64.889  1.00  0.00    -0.287 C  
HETATM   19  C   UNL     1     -12.399  13.824  63.933  1.00  0.00    -0.292 C  
BRANCH  17  20
HETATM   20  C   UNL     1     -10.960  15.571  65.053  1.00  0.00    -0.440 C  
BRANCH  20  21
HETATM   21  C   UNL     1     -10.146  15.994  66.250  1.00  0.00    -0.329 A  
HETATM   22  C   UNL     1     -10.709  16.816  67.240  1.00  0.00    -0.213 A  
HETATM   23  C   UNL     1      -9.894  17.426  68.194  1.00  0.00    -0.301 A  
HETATM   24  C   UNL     1      -8.521  17.192  68.188  1.00  0.00    -0.227 A  
HETATM   25  C   UNL     1      -7.968  16.305  67.270  1.00  0.00    -0.195 A  
HETATM   26  C   UNL     1      -8.780  15.686  66.321  1.00  0.00    -0.325 A  
ENDBRANCH  20  21
ENDBRANCH  17  20
ENDBRANCH  16  17
ENDBRANCH  15  16
ENDBRANCH  14  15
ENDBRANCH  13  14
ENDBRANCH  12  13
ENDBRANCH  11  12
ENDBRANCH  10  11
ENDBRANCH   9  10
ENDBRANCH   8   9
ENDBRANCH   7   8
ENDBRANCH   6   7
ENDBRANCH   5   6
ENDBRANCH   4   5
ENDBRANCH   3   4
ENDBRANCH   2   3
TORSDOF 17
ENDMDL
MODEL      120
REMARK 921   NORMALIZED FREE ENERGY PREDICTED BY IDOCK:   -3.84 KCAL/MOL
REMARK 922        TOTAL FREE ENERGY PREDICTED BY IDOCK:  -10.50 KCAL/MOL
REMARK 923 INTER-LIGAND FREE ENERGY PREDICTED BY IDOCK:   -8.53 KCAL/MOL
REMARK 924 INTRA-LIGAND FREE ENERGY PREDICTED BY IDOCK:   -1.97 KCAL/MOL
REMARK 927      BINDING AFFINITY PREDICTED BY RF-SCORE:    0.00 PKD
ROOT
HETATM    1  C   UNL     1     -10.432   7.249  73.634  1.00  0.00    -0.391 C  
HETATM    2  C   UNL     1      -9.602   8.158  72.743  1.00  0.00    -0.353 C  
ENDROOT
BRANCH   2   3
HETATM    3  C   UNL     1     -10.172   8.206  71.328  1.00  0.00    -0.240 C  
BRANCH   3   4
HETATM    4  C   UNL     1      -9.924   9.568  70.685  1.00  0.00    -0.342 C  
BRANCH   4   5
HETATM    5  C   UNL     1     -11.239  10.198  70.245  1.00  0.00    -0.387 C  
BRANCH   5   6
HETATM    6  C   UNL     1     -12.413   9.581  70.994  1.00  0.00    -0.347 C  
BRANCH   6   7
HETATM    7  C   UNL     1     -13.148  10.647  71.795  1.00  0.00    -0.571 C  
BRANCH   7   8
HETATM    8  C   UNL     1     -12.755  12.037  71.318  1.00  0.00    -0.382 C  
BRANCH   8   9
HETATM    9  C   UNL     1     -13.463  13.100  72.150  1.00  0.00    -0.653 C  
BRANCH   9  10
HETATM   10  C   UNL     1     -13.511  14.415  71.388  1.00  0.00    -0.422 C  
BRANCH  10  11
HETATM   11  C   UNL     1     -13.062  15.566  72.271  1.00  0.00    -0.517 C  
BRANCH  11  12
HETATM   12  C   UNL     1     -11.721  16.093  71.789  1.00  0.00    -0.568 C  
BRANCH  12  13
HETATM   13  C   UNL     1     -11.217  15.314  70.581  1.00  0.00    -0.353 C  
BRANCH  13  14
HETATM   14  C   UNL     1     -10.435  16.195  69.607  1.00  0.00    -0.291 C  
BRANCH  14  15
HETATM   15  C   UNL     1      -9.565  15.431  68.604  1.00  0.00    -0.204 C  
BRANCH  15  16
HETATM   16  C   UNL     1      -9.922  13.945  68.511  1.00  0.00    -0.221 C  
BRANCH  16  17
HETATM   17  N   UNL     1     -10.807  13.596  67.300  1.00  0.00    -0.282 N  
HETATM   18  C   UNL     1     -12.007  12.762  67.732  1.00  0.00    -0.260 C  
HETATM   19  C   UNL     1     -11.298  14.871  66.616  1.00  0.00    -0.326 C  
BRANCH  17  20
HETATM   20  C   UNL     1      -9.917  12.782  66.297  1.00  0.00    -0.264 C  
BRANCH  20  21
HETATM   21  C   UNL     1      -9.558  11.394  66.767  1.00  0.00    -0.207 A  
HETATM   22  C   UNL     1      -8.383  11.173  67.503  1.00  0.00    -0.122 A  
HETATM   23  C   UNL     1      -7.911   9.875  67.701  1.00  0.00    -0.109 A  
HETATM   24  C   UNL     1      -8.627   8.790  67.198  1.00  0.00    -0.119 A  
HETATM   25  C   UNL     1      -9.841   8.995  66.551  1.00  0.00    -0.338 A  
HETATM   26  C   UNL     1     -10.320  10.290  66.358  1.00  0.00    -0.262 A  
ENDBRANCH  20  21
ENDBRANCH  17  20
ENDBRANCH  16  17
ENDBRANCH  15  16
ENDBRANCH  14  15
ENDBRANCH  13  14
ENDBRANCH  12  13
ENDBRANCH  11  12
ENDBRANCH  10  11
ENDBRANCH   9  10
ENDBRANCH   8   9
ENDBRANCH   7   8
ENDBRANCH   6   7
ENDBRANCH   5   6
ENDBRANCH   4   5
ENDBRANCH   3   4
ENDBRANCH   2   3
TORSDOF 17
ENDMDL
MODEL      121
REMARK 921   NORMALIZED FREE ENERGY PREDICTED BY IDOCK:   -3.84 KCAL/MOL
REMARK 922        TOTAL FREE ENERGY PREDICTED BY IDOCK:  -10.50 KCAL/MOL
REMARK 923 INTER-LIGAND FREE ENERGY PREDICTED BY IDOCK:   -8.03 KCAL/MOL
REMARK 924 INTRA-LIGAND FREE ENERGY PREDICTED BY IDOCK:   -2.47 KCAL/MOL
REMARK 927      BINDING AFFINITY PREDICTED BY RF-SCORE:    0.00 PKD
ROOT
HETATM    1  C   UNL     1     -10.240   6.002  74.386  1.00  0.00    -0.309 C  
HETATM    2  C   UNL     1     -10.102   7.401  73.812  1.00  0.00    -0.329 C  
ENDROOT
BRANCH   2   3
HETATM    3  C   UNL     1     -10.917   7.551  72.531  1.00  0.00    -0.362 C  
BRANCH   3   4
HETATM    4  C   UNL     1     -10.322   8.627  71.627  1.00  0.00    -0.366 C  
BRANCH   4   5
HETATM    5  C   UNL     1      -9.295   8.021  70.679  1.00  0.00    -0.162 C  
BRANCH   5   6
HETATM    6  C   UNL     1      -9.571   6.540  70.457  1.00  0.00    -0.180 C  
BRANCH   6   7
HETATM    7  C   UNL     1      -9.610   6.228  68.967  1.00  0.00    -0.138 C  
BRANCH   7   8
HETATM    8  C   UNL     1     -11.023   6.388  68.426  1.00  0.00    -0.390 C  
BRANCH   8   9
HETATM    9  C   UNL     1     -10.983   6.817  66.965  1.00  0.00    -0.439 C  
BRANCH   9  10
HETATM   10  C   UNL     1      -9.663   7.505  66.656  1.00  0.00    -0.273 C  
BRANCH  10  11
HETATM   11  C   UNL     1      -9.897   8.908  66.121  1.00  0.00    -0.326 C  
BRANCH  11  12
HETATM   12  C   UNL     1      -9.875   9.905  67.266  1.00  0.00    -0.228 C  
BRANCH  12  13
HETATM   13  C   UNL     1     -11.285  10.284  67.704  1.00  0.00    -0.232 C  
BRANCH  13  14
HETATM   14  C   UNL     1     -11.308  10.933  69.088  1.00  0.00    -0.350 C  
BRANCH  14  15
HETATM   15  C   UNL     1     -10.741  12.355  69.140  1.00  0.00    -0.081 C  
BRANCH  15  16
HETATM   16  C   UNL     1     -11.618  13.378  68.413  1.00  0.00    -0.332 C  
BRANCH  16  17
HETATM   17  N   UNL     1     -11.054  14.810  68.446  1.00  0.00    -0.253 N  
HETATM   18  C   UNL     1     -11.877  15.693  69.376  1.00  0.00    -0.375 C  
HETATM   19  C   UNL     1      -9.600  14.798  68.914  1.00  0.00    -0.210 C  
BRANCH  17  20
HETATM   20  C   UNL     1     -11.119  15.365  66.979  1.00  0.00    -0.273 C  
BRANCH  20  21
HETATM   21  C   UNL     1     -11.285  14.305  65.918  1.00  0.00    -0.319 A  
HETATM   22  C   UNL     1     -12.565  13.857  65.554  1.00  0.00    -0.560 A  
HETATM   23  C   UNL     1     -12.713  12.702  64.785  1.00  0.00    -0.460 A  
HETATM   24  C   UNL     1     -11.586  12.009  64.347  1.00  0.00    -0.411 A  
HETATM   25  C   UNL     1     -10.314  12.498  64.624  1.00  0.00    -0.341 A  
HETATM   26  C   UNL     1     -10.162  13.657  65.385  1.00  0.00    -0.330 A  
ENDBRANCH  20  21
ENDBRANCH  17  20
ENDBRANCH  16  17
ENDBRANCH  15  16
ENDBRANCH  14  15
ENDBRANCH  13  14
ENDBRANCH  12  13
ENDBRANCH  11  12
ENDBRANCH  10  11
ENDBRANCH   9  10
ENDBRANCH   8   9
ENDBRANCH   7   8
ENDBRANCH   6   7
ENDBRANCH   5   6
ENDBRANCH   4   5
ENDBRANCH   3   4
ENDBRANCH   2   3
TORSDOF 17
ENDMDL
MODEL      122
REMARK 921   NORMALIZED FREE ENERGY PREDICTED BY IDOCK:   -3.84 KCAL/MOL
REMARK 922        TOTAL FREE ENERGY PREDICTED BY IDOCK:  -10.49 KCAL/MOL
REMARK 923 INTER-LIGAND FREE ENERGY PREDICTED BY IDOCK:   -8.71 KCAL/MOL
REMARK 924 INTRA-LIGAND FREE ENERGY PREDICTED BY IDOCK:   -1.79 KCAL/MOL
REMARK 927      BINDING AFFINITY PREDICTED BY RF-SCORE:    0.00 PKD
ROOT
HETATM    1  C   UNL     1      -8.751  19.652  66.154  1.00  0.00    -0.361 C  
HETATM    2  C   UNL     1     -10.260  19.477  66.204  1.00  0.00    -0.588 C  
ENDROOT
BRANCH   2   3
HETATM    3  C   UNL     1     -10.702  18.914  67.552  1.00  0.00    -0.509 C  
BRANCH   3   4
HETATM    4  C   UNL     1      -9.499  18.479  68.384  1.00  0.00    -0.368 C  
BRANCH   4   5
HETATM    5  C   UNL     1      -9.535  16.977  68.631  1.00  0.00    -0.274 C  
BRANCH   5   6
HETATM    6  C   UNL     1     -10.957  16.508  68.907  1.00  0.00    -0.325 C  
BRANCH   6   7
HETATM    7  C   UNL     1     -11.120  16.153  70.379  1.00  0.00    -0.362 C  
BRANCH   7   8
HETATM    8  C   UNL     1     -12.434  15.421  70.608  1.00  0.00    -0.478 C  
BRANCH   8   9
HETATM    9  C   UNL     1     -12.792  15.429  72.089  1.00  0.00    -0.466 C  
BRANCH   9  10
HETATM   10  C   UNL     1     -13.168  14.029  72.546  1.00  0.00    -0.602 C  
BRANCH  10  11
HETATM   11  C   UNL     1     -13.405  13.118  71.353  1.00  0.00    -0.216 C  
BRANCH  11  12
HETATM   12  C   UNL     1     -13.033  11.690  71.714  1.00  0.00    -0.483 C  
BRANCH  12  13
HETATM   13  C   UNL     1     -12.300  10.998  70.572  1.00  0.00    -0.462 C  
BRANCH  13  14
HETATM   14  C   UNL     1     -11.948  11.963  69.439  1.00  0.00    -0.350 C  
BRANCH  14  15
HETATM   15  C   UNL     1     -10.738  11.549  68.595  1.00  0.00    -0.242 C  
BRANCH  15  16
HETATM   16  C   UNL     1      -9.836  10.531  69.298  1.00  0.00    -0.205 C  
BRANCH  16  17
HETATM   17  N   UNL     1      -9.433   9.343  68.407  1.00  0.00    -0.141 N  
HETATM   18  C   UNL     1     -10.559   8.986  67.444  1.00  0.00    -0.239 C  
HETATM   19  C   UNL     1      -8.173   9.678  67.610  1.00  0.00    -0.114 C  
BRANCH  17  20
HETATM   20  C   UNL     1      -9.134   8.132  69.359  1.00  0.00    -0.148 C  
BRANCH  20  21
HETATM   21  C   UNL     1     -10.110   7.981  70.500  1.00  0.00    -0.195 A  
HETATM   22  C   UNL     1      -9.777   8.433  71.787  1.00  0.00    -0.306 A  
HETATM   23  C   UNL     1     -10.548   8.055  72.886  1.00  0.00    -0.399 A  
HETATM   24  C   UNL     1     -11.674   7.255  72.704  1.00  0.00    -0.203 A  
HETATM   25  C   UNL     1     -12.065   6.881  71.422  1.00  0.00    -0.408 A  
HETATM   26  C   UNL     1     -11.302   7.263  70.320  1.00  0.00    -0.266 A  
ENDBRANCH  20  21
ENDBRANCH  17  20
ENDBRANCH  16  17
ENDBRANCH  15  16
ENDBRANCH  14  15
ENDBRANCH  13  14
ENDBRANCH  12  13
ENDBRANCH  11  12
ENDBRANCH  10  11
ENDBRANCH   9  10
ENDBRANCH   8   9
ENDBRANCH   7   8
ENDBRANCH   6   7
ENDBRANCH   5   6
ENDBRANCH   4   5
ENDBRANCH   3   4
ENDBRANCH   2   3
TORSDOF 17
ENDMDL
MODEL      123
REMARK 921   NORMALIZED FREE ENERGY PREDICTED BY IDOCK:   -3.84 KCAL/MOL
REMARK 922        TOTAL FREE ENERGY PREDICTED BY IDOCK:  -10.49 KCAL/MOL
REMARK 923 INTER-LIGAND FREE ENERGY PREDICTED BY IDOCK:   -8.94 KCAL/MOL
REMARK 924 INTRA-LIGAND FREE ENERGY PREDICTED BY IDOCK:   -1.55 KCAL/MOL
REMARK 927      BINDING AFFINITY PREDICTED BY RF-SCORE:    0.00 PKD
ROOT
HETATM    1  C   UNL     1     -12.622  10.721  71.169  1.00  0.00    -0.532 C  
HETATM    2  C   UNL     1     -13.086   9.555  72.024  1.00  0.00    -0.528 C  
ENDROOT
BRANCH   2   3
HETATM    3  C   UNL     1     -11.988   8.503  72.159  1.00  0.00    -0.451 C  
BRANCH   3   4
HETATM    4  C   UNL     1     -12.501   7.123  71.761  1.00  0.00    -0.385 C  
BRANCH   4   5
HETATM    5  C   UNL     1     -11.370   6.275  71.192  1.00  0.00    -0.364 C  
BRANCH   5   6
HETATM    6  C   UNL     1     -11.358   6.341  69.670  1.00  0.00    -0.492 C  
BRANCH   6   7
HETATM    7  C   UNL     1      -9.985   5.960  69.136  1.00  0.00    -0.214 C  
BRANCH   7   8
HETATM    8  C   UNL     1      -8.922   6.905  69.674  1.00  0.00    -0.144 C  
BRANCH   8   9
HETATM    9  C   UNL     1      -9.043   8.270  69.009  1.00  0.00    -0.147 C  
BRANCH   9  10
HETATM   10  C   UNL     1      -8.818   8.145  67.510  1.00  0.00    -0.137 C  
BRANCH  10  11
HETATM   11  C   UNL     1      -9.969   8.768  66.738  1.00  0.00    -0.338 C  
BRANCH  11  12
HETATM   12  C   UNL     1     -10.883   9.519  67.691  1.00  0.00    -0.253 C  
BRANCH  12  13
HETATM   13  C   UNL     1     -11.052  10.974  67.273  1.00  0.00    -0.359 C  
BRANCH  13  14
HETATM   14  C   UNL     1     -10.478  11.946  68.304  1.00  0.00    -0.221 C  
BRANCH  14  15
HETATM   15  C   UNL     1      -9.303  12.793  67.805  1.00  0.00    -0.199 C  
BRANCH  15  16
HETATM   16  C   UNL     1      -9.439  14.276  68.161  1.00  0.00    -0.204 C  
BRANCH  16  17
HETATM   17  N   UNL     1      -9.664  15.186  66.940  1.00  0.00    -0.233 N  
HETATM   18  C   UNL     1      -8.369  15.883  66.541  1.00  0.00    -0.295 C  
HETATM   19  C   UNL     1     -10.186  14.371  65.757  1.00  0.00    -0.337 C  
BRANCH  17  20
HETATM   20  C   UNL     1     -10.744  16.249  67.350  1.00  0.00    -0.287 C  
BRANCH  20  21
HETATM   21  C   UNL     1     -10.267  17.679  67.286  1.00  0.00    -0.343 A  
HETATM   22  C   UNL     1      -9.749  18.309  68.429  1.00  0.00    -0.373 A  
HETATM   23  C   UNL     1      -9.565  19.692  68.447  1.00  0.00    -0.468 A  
HETATM   24  C   UNL     1      -9.862  20.448  67.315  1.00  0.00    -0.597 A  
HETATM   25  C   UNL     1     -10.285  19.820  66.147  1.00  0.00    -0.618 A  
HETATM   26  C   UNL     1     -10.462  18.438  66.123  1.00  0.00    -0.422 A  
ENDBRANCH  20  21
ENDBRANCH  17  20
ENDBRANCH  16  17
ENDBRANCH  15  16
ENDBRANCH  14  15
ENDBRANCH  13  14
ENDBRANCH  12  13
ENDBRANCH  11  12
ENDBRANCH  10  11
ENDBRANCH   9  10
ENDBRANCH   8   9
ENDBRANCH   7   8
ENDBRANCH   6   7
ENDBRANCH   5   6
ENDBRANCH   4   5
ENDBRANCH   3   4
ENDBRANCH   2   3
TORSDOF 17
ENDMDL
MODEL      124
REMARK 921   NORMALIZED FREE ENERGY PREDICTED BY IDOCK:   -3.84 KCAL/MOL
REMARK 922        TOTAL FREE ENERGY PREDICTED BY IDOCK:  -10.49 KCAL/MOL
REMARK 923 INTER-LIGAND FREE ENERGY PREDICTED BY IDOCK:   -8.45 KCAL/MOL
REMARK 924 INTRA-LIGAND FREE ENERGY PREDICTED BY IDOCK:   -2.04 KCAL/MOL
REMARK 927      BINDING AFFINITY PREDICTED BY RF-SCORE:    0.00 PKD
ROOT
HETATM    1  C   UNL     1     -10.785   3.226  73.447  1.00  0.00    -0.299 C  
HETATM    2  C   UNL     1     -10.365   4.421  74.285  1.00  0.00    -0.296 C  
ENDROOT
BRANCH   2   3
HETATM    3  C   UNL     1     -10.721   5.731  73.588  1.00  0.00    -0.281 C  
BRANCH   3   4
HETATM    4  C   UNL     1     -11.934   5.554  72.679  1.00  0.00    -0.106 C  
BRANCH   4   5
HETATM    5  C   UNL     1     -11.712   6.261  71.348  1.00  0.00    -0.316 C  
BRANCH   5   6
HETATM    6  C   UNL     1     -10.403   7.041  71.361  1.00  0.00    -0.211 C  
BRANCH   6   7
HETATM    7  C   UNL     1     -10.462   8.189  70.363  1.00  0.00    -0.217 C  
BRANCH   7   8
HETATM    8  C   UNL     1     -10.673   9.511  71.084  1.00  0.00    -0.408 C  
BRANCH   8   9
HETATM    9  C   UNL     1     -12.158   9.750  71.326  1.00  0.00    -0.470 C  
BRANCH   9  10
HETATM   10  C   UNL     1     -12.538  11.161  70.907  1.00  0.00    -0.483 C  
BRANCH  10  11
HETATM   11  C   UNL     1     -12.155  11.415  69.459  1.00  0.00    -0.370 C  
BRANCH  11  12
HETATM   12  C   UNL     1     -11.342  12.694  69.357  1.00  0.00    -0.273 C  
BRANCH  12  13
HETATM   13  C   UNL     1     -12.221  13.929  69.512  1.00  0.00    -0.356 C  
BRANCH  13  14
HETATM   14  C   UNL     1     -11.602  14.968  70.446  1.00  0.00    -0.330 C  
BRANCH  14  15
HETATM   15  C   UNL     1     -10.764  16.042  69.747  1.00  0.00    -0.331 C  
BRANCH  15  16
HETATM   16  C   UNL     1     -11.271  16.379  68.342  1.00  0.00    -0.324 C  
BRANCH  16  17
HETATM   17  N   UNL     1     -10.177  16.921  67.403  1.00  0.00    -0.291 N  
HETATM   18  C   UNL     1     -10.286  18.435  67.267  1.00  0.00    -0.374 C  
HETATM   19  C   UNL     1      -8.792  16.559  67.936  1.00  0.00    -0.193 C  
BRANCH  17  20
HETATM   20  C   UNL     1     -10.387  16.238  66.007  1.00  0.00    -0.349 C  
BRANCH  20  21
HETATM   21  C   UNL     1     -10.724  14.769  66.076  1.00  0.00    -0.314 A  
HETATM   22  C   UNL     1      -9.715  13.816  66.289  1.00  0.00    -0.297 A  
HETATM   23  C   UNL     1      -9.974  12.461  66.083  1.00  0.00    -0.267 A  
HETATM   24  C   UNL     1     -11.247  12.046  65.699  1.00  0.00    -0.377 A  
HETATM   25  C   UNL     1     -12.277  12.973  65.577  1.00  0.00    -0.521 A  
HETATM   26  C   UNL     1     -12.025  14.328  65.790  1.00  0.00    -0.399 A  
ENDBRANCH  20  21
ENDBRANCH  17  20
ENDBRANCH  16  17
ENDBRANCH  15  16
ENDBRANCH  14  15
ENDBRANCH  13  14
ENDBRANCH  12  13
ENDBRANCH  11  12
ENDBRANCH  10  11
ENDBRANCH   9  10
ENDBRANCH   8   9
ENDBRANCH   7   8
ENDBRANCH   6   7
ENDBRANCH   5   6
ENDBRANCH   4   5
ENDBRANCH   3   4
ENDBRANCH   2   3
TORSDOF 17
ENDMDL
MODEL      125
REMARK 921   NORMALIZED FREE ENERGY PREDICTED BY IDOCK:   -3.84 KCAL/MOL
REMARK 922        TOTAL FREE ENERGY PREDICTED BY IDOCK:  -10.49 KCAL/MOL
REMARK 923 INTER-LIGAND FREE ENERGY PREDICTED BY IDOCK:   -8.93 KCAL/MOL
REMARK 924 INTRA-LIGAND FREE ENERGY PREDICTED BY IDOCK:   -1.56 KCAL/MOL
REMARK 927      BINDING AFFINITY PREDICTED BY RF-SCORE:    0.00 PKD
ROOT
HETATM    1  C   UNL     1      -9.387   3.311  67.830  1.00  0.00    -0.246 C  
HETATM    2  C   UNL     1      -8.497   4.405  67.264  1.00  0.00    -0.104 C  
ENDROOT
BRANCH   2   3
HETATM    3  C   UNL     1      -9.275   5.301  66.304  1.00  0.00    -0.152 C  
BRANCH   3   4
HETATM    4  C   UNL     1     -10.640   5.665  66.881  1.00  0.00    -0.367 C  
BRANCH   4   5
HETATM    5  C   UNL     1     -10.681   7.137  67.269  1.00  0.00    -0.399 C  
BRANCH   5   6
HETATM    6  C   UNL     1     -10.495   7.306  68.771  1.00  0.00    -0.214 C  
BRANCH   6   7
HETATM    7  C   UNL     1     -11.392   6.336  69.527  1.00  0.00    -0.475 C  
BRANCH   7   8
HETATM    8  C   UNL     1     -10.765   5.959  70.861  1.00  0.00    -0.338 C  
BRANCH   8   9
HETATM    9  C   UNL     1     -11.667   6.390  72.010  1.00  0.00    -0.376 C  
BRANCH   9  10
HETATM   10  C   UNL     1     -12.853   7.179  71.478  1.00  0.00    -0.434 C  
BRANCH  10  11
HETATM   11  C   UNL     1     -13.009   8.490  72.229  1.00  0.00    -0.384 C  
BRANCH  11  12
HETATM   12  C   UNL     1     -12.257   9.592  71.503  1.00  0.00    -0.483 C  
BRANCH  12  13
HETATM   13  C   UNL     1     -12.995  10.923  71.590  1.00  0.00    -0.569 C  
BRANCH  13  14
HETATM   14  C   UNL     1     -12.319  12.016  70.763  1.00  0.00    -0.403 C  
BRANCH  14  15
HETATM   15  C   UNL     1     -11.773  11.554  69.409  1.00  0.00    -0.413 C  
BRANCH  15  16
HETATM   16  C   UNL     1     -10.699  12.488  68.845  1.00  0.00    -0.165 C  
BRANCH  16  17
HETATM   17  N   UNL     1      -9.764  11.810  67.827  1.00  0.00    -0.179 N  
HETATM   18  C   UNL     1      -8.991  12.853  67.028  1.00  0.00    -0.225 C  
HETATM   19  C   UNL     1      -8.777  10.889  68.543  1.00  0.00    -0.153 C  
BRANCH  17  20
HETATM   20  C   UNL     1     -10.665  10.956  66.868  1.00  0.00    -0.264 C  
BRANCH  20  21
HETATM   21  C   UNL     1     -11.230  11.721  65.697  1.00  0.00    -0.324 A  
HETATM   22  C   UNL     1     -10.820  11.423  64.387  1.00  0.00    -0.397 A  
HETATM   23  C   UNL     1     -11.123  12.294  63.341  1.00  0.00    -0.487 A  
HETATM   24  C   UNL     1     -11.866  13.446  63.588  1.00  0.00    -0.451 A  
HETATM   25  C   UNL     1     -12.357  13.700  64.864  1.00  0.00    -0.442 A  
HETATM   26  C   UNL     1     -12.063  12.828  65.911  1.00  0.00    -0.485 A  
ENDBRANCH  20  21
ENDBRANCH  17  20
ENDBRANCH  16  17
ENDBRANCH  15  16
ENDBRANCH  14  15
ENDBRANCH  13  14
ENDBRANCH  12  13
ENDBRANCH  11  12
ENDBRANCH  10  11
ENDBRANCH   9  10
ENDBRANCH   8   9
ENDBRANCH   7   8
ENDBRANCH   6   7
ENDBRANCH   5   6
ENDBRANCH   4   5
ENDBRANCH   3   4
ENDBRANCH   2   3
TORSDOF 17
ENDMDL
MODEL      126
REMARK 921   NORMALIZED FREE ENERGY PREDICTED BY IDOCK:   -3.83 KCAL/MOL
REMARK 922        TOTAL FREE ENERGY PREDICTED BY IDOCK:  -10.48 KCAL/MOL
REMARK 923 INTER-LIGAND FREE ENERGY PREDICTED BY IDOCK:   -7.56 KCAL/MOL
REMARK 924 INTRA-LIGAND FREE ENERGY PREDICTED BY IDOCK:   -2.92 KCAL/MOL
REMARK 927      BINDING AFFINITY PREDICTED BY RF-SCORE:    0.00 PKD
ROOT
HETATM    1  C   UNL     1     -14.357   7.291  71.765  1.00  0.00    -0.560 C  
HETATM    2  C   UNL     1     -14.211   8.785  71.534  1.00  0.00    -0.364 C  
ENDROOT
BRANCH   2   3
HETATM    3  C   UNL     1     -12.900   9.304  72.117  1.00  0.00    -0.485 C  
BRANCH   3   4
HETATM    4  C   UNL     1     -12.186  10.220  71.127  1.00  0.00    -0.500 C  
BRANCH   4   5
HETATM    5  C   UNL     1     -11.323   9.406  70.173  1.00  0.00    -0.220 C  
BRANCH   5   6
HETATM    6  C   UNL     1     -10.100   8.848  70.890  1.00  0.00    -0.304 C  
BRANCH   6   7
HETATM    7  C   UNL     1      -9.981   7.350  70.645  1.00  0.00    -0.186 C  
BRANCH   7   8
HETATM    8  C   UNL     1     -11.202   6.834  69.898  1.00  0.00    -0.379 C  
BRANCH   8   9
HETATM    9  C   UNL     1     -10.774   5.952  68.732  1.00  0.00    -0.354 C  
BRANCH   9  10
HETATM   10  C   UNL     1     -10.959   6.693  67.418  1.00  0.00    -0.434 C  
BRANCH  10  11
HETATM   11  C   UNL     1      -9.658   7.339  66.975  1.00  0.00    -0.213 C  
BRANCH  11  12
HETATM   12  C   UNL     1      -9.925   8.752  66.485  1.00  0.00    -0.360 C  
BRANCH  12  13
HETATM   13  C   UNL     1      -9.135   9.063  65.219  1.00  0.00    -0.226 C  
BRANCH  13  14
HETATM   14  C   UNL     1      -9.129  10.556  64.890  1.00  0.00    -0.235 C  
BRANCH  14  15
HETATM   15  C   UNL     1     -10.498  11.236  64.968  1.00  0.00    -0.359 C  
BRANCH  15  16
HETATM   16  C   UNL     1     -10.408  12.732  65.282  1.00  0.00    -0.296 C  
BRANCH  16  17
HETATM   17  N   UNL     1     -11.162  13.142  66.560  1.00  0.00    -0.301 N  
HETATM   18  C   UNL     1     -12.275  14.131  66.237  1.00  0.00    -0.449 C  
HETATM   19  C   UNL     1     -11.760  11.912  67.242  1.00  0.00    -0.247 C  
BRANCH  17  20
HETATM   20  C   UNL     1     -10.114  13.806  67.521  1.00  0.00    -0.241 C  
BRANCH  20  21
HETATM   21  C   UNL     1      -8.917  12.942  67.830  1.00  0.00    -0.193 A  
HETATM   22  C   UNL     1      -7.642  13.295  67.358  1.00  0.00    -0.137 A  
HETATM   23  C   UNL     1      -6.595  12.375  67.405  1.00  0.00    -0.157 A  
HETATM   24  C   UNL     1      -6.804  11.111  67.953  1.00  0.00    -0.068 A  
HETATM   25  C   UNL     1      -8.037  10.786  68.509  1.00  0.00    -0.133 A  
HETATM   26  C   UNL     1      -9.083  11.706  68.472  1.00  0.00    -0.157 A  
ENDBRANCH  20  21
ENDBRANCH  17  20
ENDBRANCH  16  17
ENDBRANCH  15  16
ENDBRANCH  14  15
ENDBRANCH  13  14
ENDBRANCH  12  13
ENDBRANCH  11  12
ENDBRANCH  10  11
ENDBRANCH   9  10
ENDBRANCH   8   9
ENDBRANCH   7   8
ENDBRANCH   6   7
ENDBRANCH   5   6
ENDBRANCH   4   5
ENDBRANCH   3   4
ENDBRANCH   2   3
TORSDOF 17
ENDMDL
MODEL      127
REMARK 921   NORMALIZED FREE ENERGY PREDICTED BY IDOCK:   -3.81 KCAL/MOL
REMARK 922        TOTAL FREE ENERGY PREDICTED BY IDOCK:  -10.43 KCAL/MOL
REMARK 923 INTER-LIGAND FREE ENERGY PREDICTED BY IDOCK:   -8.23 KCAL/MOL
REMARK 924 INTRA-LIGAND FREE ENERGY PREDICTED BY IDOCK:   -2.20 KCAL/MOL
REMARK 927      BINDING AFFINITY PREDICTED BY RF-SCORE:    0.00 PKD
ROOT
HETATM    1  C   UNL     1     -10.512  18.384  66.117  1.00  0.00    -0.422 C  
HETATM    2  C   UNL     1     -10.736  19.415  67.210  1.00  0.00    -0.603 C  
ENDROOT
BRANCH   2   3
HETATM    3  C   UNL     1      -9.408  19.877  67.807  1.00  0.00    -0.454 C  
BRANCH   3   4
HETATM    4  C   UNL     1      -8.347  20.035  66.721  1.00  0.00    -0.372 C  
BRANCH   4   5
HETATM    5  C   UNL     1      -6.978  19.625  67.249  1.00  0.00    -0.233 C  
BRANCH   5   6
HETATM    6  C   UNL     1      -6.995  19.511  68.767  1.00  0.00    -0.371 C  
BRANCH   6   7
HETATM    7  C   UNL     1      -6.220  18.278  69.213  1.00  0.00    -0.255 C  
BRANCH   7   8
HETATM    8  C   UNL     1      -6.234  17.217  68.123  1.00  0.00    -0.147 C  
BRANCH   8   9
HETATM    9  C   UNL     1      -7.073  16.022  68.560  1.00  0.00    -0.132 C  
BRANCH   9  10
HETATM   10  C   UNL     1      -8.508  16.190  68.089  1.00  0.00    -0.175 C  
BRANCH  10  11
HETATM   11  C   UNL     1      -9.412  16.587  69.244  1.00  0.00    -0.152 C  
BRANCH  11  12
HETATM   12  C   UNL     1     -10.814  16.053  69.008  1.00  0.00    -0.283 C  
BRANCH  12  13
HETATM   13  C   UNL     1     -11.513  15.721  70.321  1.00  0.00    -0.369 C  
BRANCH  13  14
HETATM   14  C   UNL     1     -12.409  14.487  70.205  1.00  0.00    -0.408 C  
BRANCH  14  15
HETATM   15  C   UNL     1     -12.005  13.500  69.106  1.00  0.00    -0.378 C  
BRANCH  15  16
HETATM   16  C   UNL     1     -11.437  12.189  69.656  1.00  0.00    -0.238 C  
BRANCH  16  17
HETATM   17  N   UNL     1     -10.392  11.533  68.735  1.00  0.00    -0.207 N  
HETATM   18  C   UNL     1      -9.479  12.587  68.119  1.00  0.00    -0.214 C  
HETATM   19  C   UNL     1      -9.549  10.528  69.518  1.00  0.00    -0.098 C  
BRANCH  17  20
HETATM   20  C   UNL     1     -11.180  10.778  67.607  1.00  0.00    -0.299 C  
BRANCH  20  21
HETATM   21  C   UNL     1     -10.903  11.279  66.211  1.00  0.00    -0.296 A  
HETATM   22  C   UNL     1     -11.552  12.425  65.724  1.00  0.00    -0.449 A  
HETATM   23  C   UNL     1     -11.511  12.731  64.363  1.00  0.00    -0.404 A  
HETATM   24  C   UNL     1     -10.795  11.916  63.488  1.00  0.00    -0.502 A  
HETATM   25  C   UNL     1     -10.072  10.833  63.977  1.00  0.00    -0.410 A  
HETATM   26  C   UNL     1     -10.103  10.529  65.337  1.00  0.00    -0.358 A  
ENDBRANCH  20  21
ENDBRANCH  17  20
ENDBRANCH  16  17
ENDBRANCH  15  16
ENDBRANCH  14  15
ENDBRANCH  13  14
ENDBRANCH  12  13
ENDBRANCH  11  12
ENDBRANCH  10  11
ENDBRANCH   9  10
ENDBRANCH   8   9
ENDBRANCH   7   8
ENDBRANCH   6   7
ENDBRANCH   5   6
ENDBRANCH   4   5
ENDBRANCH   3   4
ENDBRANCH   2   3
TORSDOF 17
ENDMDL
MODEL      128
REMARK 921   NORMALIZED FREE ENERGY PREDICTED BY IDOCK:   -3.81 KCAL/MOL
REMARK 922        TOTAL FREE ENERGY PREDICTED BY IDOCK:  -10.43 KCAL/MOL
REMARK 923 INTER-LIGAND FREE ENERGY PREDICTED BY IDOCK:   -9.71 KCAL/MOL
REMARK 924 INTRA-LIGAND FREE ENERGY PREDICTED BY IDOCK:   -0.71 KCAL/MOL
REMARK 927      BINDING AFFINITY PREDICTED BY RF-SCORE:    0.00 PKD
ROOT
HETATM    1  C   UNL     1     -10.255   4.652  65.892  1.00  0.00    -0.303 C  
HETATM    2  C   UNL     1      -9.943   6.020  66.474  1.00  0.00    -0.189 C  
ENDROOT
BRANCH   2   3
HETATM    3  C   UNL     1     -11.005   6.439  67.488  1.00  0.00    -0.454 C  
BRANCH   3   4
HETATM    4  C   UNL     1     -10.682   5.891  68.875  1.00  0.00    -0.370 C  
BRANCH   4   5
HETATM    5  C   UNL     1     -10.801   6.990  69.924  1.00  0.00    -0.280 C  
BRANCH   5   6
HETATM    6  C   UNL     1     -11.767   6.581  71.029  1.00  0.00    -0.402 C  
BRANCH   6   7
HETATM    7  C   UNL     1     -11.931   7.715  72.032  1.00  0.00    -0.341 C  
BRANCH   7   8
HETATM    8  C   UNL     1     -13.344   8.274  71.977  1.00  0.00    -0.336 C  
BRANCH   8   9
HETATM    9  C   UNL     1     -13.316   9.793  72.098  1.00  0.00    -0.527 C  
BRANCH   9  10
HETATM   10  C   UNL     1     -12.164  10.362  71.287  1.00  0.00    -0.491 C  
BRANCH  10  11
HETATM   11  C   UNL     1     -12.448  11.798  70.881  1.00  0.00    -0.416 C  
BRANCH  11  12
HETATM   12  C   UNL     1     -13.311  12.471  71.934  1.00  0.00    -0.467 C  
BRANCH  12  13
HETATM   13  C   UNL     1     -12.920  13.931  72.128  1.00  0.00    -0.441 C  
BRANCH  13  14
HETATM   14  C   UNL     1     -13.276  14.793  70.917  1.00  0.00    -0.408 C  
BRANCH  14  15
HETATM   15  C   UNL     1     -12.123  15.639  70.369  1.00  0.00    -0.425 C  
BRANCH  15  16
HETATM   16  C   UNL     1     -11.409  14.985  69.183  1.00  0.00    -0.296 C  
BRANCH  16  17
HETATM   17  N   UNL     1     -10.252  15.827  68.616  1.00  0.00    -0.215 N  
HETATM   18  C   UNL     1      -8.908  15.202  68.968  1.00  0.00    -0.219 C  
HETATM   19  C   UNL     1     -10.373  15.945  67.098  1.00  0.00    -0.300 C  
BRANCH  17  20
HETATM   20  C   UNL     1     -10.365  17.256  69.255  1.00  0.00    -0.237 C  
BRANCH  20  21
HETATM   21  C   UNL     1      -9.839  18.371  68.386  1.00  0.00    -0.396 A  
HETATM   22  C   UNL     1     -10.708  19.096  67.554  1.00  0.00    -0.555 A  
HETATM   23  C   UNL     1     -10.195  19.930  66.559  1.00  0.00    -0.611 A  
HETATM   24  C   UNL     1      -8.817  20.072  66.413  1.00  0.00    -0.388 A  
HETATM   25  C   UNL     1      -7.951  19.432  67.293  1.00  0.00    -0.292 A  
HETATM   26  C   UNL     1      -8.459  18.604  68.293  1.00  0.00    -0.350 A  
ENDBRANCH  20  21
ENDBRANCH  17  20
ENDBRANCH  16  17
ENDBRANCH  15  16
ENDBRANCH  14  15
ENDBRANCH  13  14
ENDBRANCH  12  13
ENDBRANCH  11  12
ENDBRANCH  10  11
ENDBRANCH   9  10
ENDBRANCH   8   9
ENDBRANCH   7   8
ENDBRANCH   6   7
ENDBRANCH   5   6
ENDBRANCH   4   5
ENDBRANCH   3   4
ENDBRANCH   2   3
TORSDOF 17
ENDMDL
MODEL      129
REMARK 921   NORMALIZED FREE ENERGY PREDICTED BY IDOCK:   -3.80 KCAL/MOL
REMARK 922        TOTAL FREE ENERGY PREDICTED BY IDOCK:  -10.42 KCAL/MOL
REMARK 923 INTER-LIGAND FREE ENERGY PREDICTED BY IDOCK:   -8.86 KCAL/MOL
REMARK 924 INTRA-LIGAND FREE ENERGY PREDICTED BY IDOCK:   -1.56 KCAL/MOL
REMARK 927      BINDING AFFINITY PREDICTED BY RF-SCORE:    0.00 PKD
ROOT
HETATM    1  C   UNL     1     -10.015   4.028  65.434  1.00  0.00    -0.182 C  
HETATM    2  C   UNL     1      -9.179   3.968  66.701  1.00  0.00    -0.173 C  
ENDROOT
BRANCH   2   3
HETATM    3  C   UNL     1      -8.864   5.370  67.216  1.00  0.00    -0.105 C  
BRANCH   3   4
HETATM    4  C   UNL     1      -9.656   6.425  66.448  1.00  0.00    -0.156 C  
BRANCH   4   5
HETATM    5  C   UNL     1     -10.788   6.974  67.308  1.00  0.00    -0.403 C  
BRANCH   5   6
HETATM    6  C   UNL     1     -10.384   7.007  68.776  1.00  0.00    -0.196 C  
BRANCH   6   7
HETATM    7  C   UNL     1     -11.493   6.423  69.641  1.00  0.00    -0.446 C  
BRANCH   7   8
HETATM    8  C   UNL     1     -11.048   6.344  71.094  1.00  0.00    -0.344 C  
BRANCH   8   9
HETATM    9  C   UNL     1     -12.253   6.450  72.021  1.00  0.00    -0.320 C  
BRANCH   9  10
HETATM   10  C   UNL     1     -13.234   7.483  71.491  1.00  0.00    -0.404 C  
BRANCH  10  11
HETATM   11  C   UNL     1     -13.231   8.727  72.363  1.00  0.00    -0.441 C  
BRANCH  11  12
HETATM   12  C   UNL     1     -13.040   9.962  71.499  1.00  0.00    -0.516 C  
BRANCH  12  13
HETATM   13  C   UNL     1     -11.656   9.988  70.862  1.00  0.00    -0.463 C  
BRANCH  13  14
HETATM   14  C   UNL     1     -11.658  10.678  69.497  1.00  0.00    -0.360 C  
BRANCH  14  15
HETATM   15  C   UNL     1     -11.710  12.208  69.550  1.00  0.00    -0.402 C  
BRANCH  15  16
HETATM   16  C   UNL     1     -11.895  12.850  68.173  1.00  0.00    -0.336 C  
BRANCH  16  17
HETATM   17  N   UNL     1     -11.087  14.146  67.981  1.00  0.00    -0.259 N  
HETATM   18  C   UNL     1     -11.617  15.251  68.887  1.00  0.00    -0.347 C  
HETATM   19  C   UNL     1      -9.610  13.903  68.291  1.00  0.00    -0.218 C  
BRANCH  17  20
HETATM   20  C   UNL     1     -11.236  14.565  66.476  1.00  0.00    -0.344 C  
BRANCH  20  21
HETATM   21  C   UNL     1     -11.321  13.407  65.513  1.00  0.00    -0.310 A  
HETATM   22  C   UNL     1     -10.166  12.697  65.148  1.00  0.00    -0.300 A  
HETATM   23  C   UNL     1     -10.194  11.818  64.065  1.00  0.00    -0.387 A  
HETATM   24  C   UNL     1     -11.381  11.615  63.364  1.00  0.00    -0.380 A  
HETATM   25  C   UNL     1     -12.552  12.242  63.778  1.00  0.00    -0.577 A  
HETATM   26  C   UNL     1     -12.530  13.115  64.864  1.00  0.00    -0.490 A  
ENDBRANCH  20  21
ENDBRANCH  17  20
ENDBRANCH  16  17
ENDBRANCH  15  16
ENDBRANCH  14  15
ENDBRANCH  13  14
ENDBRANCH  12  13
ENDBRANCH  11  12
ENDBRANCH  10  11
ENDBRANCH   9  10
ENDBRANCH   8   9
ENDBRANCH   7   8
ENDBRANCH   6   7
ENDBRANCH   5   6
ENDBRANCH   4   5
ENDBRANCH   3   4
ENDBRANCH   2   3
TORSDOF 17
ENDMDL
MODEL      130
REMARK 921   NORMALIZED FREE ENERGY PREDICTED BY IDOCK:   -3.80 KCAL/MOL
REMARK 922        TOTAL FREE ENERGY PREDICTED BY IDOCK:  -10.41 KCAL/MOL
REMARK 923 INTER-LIGAND FREE ENERGY PREDICTED BY IDOCK:   -8.31 KCAL/MOL
REMARK 924 INTRA-LIGAND FREE ENERGY PREDICTED BY IDOCK:   -2.11 KCAL/MOL
REMARK 927      BINDING AFFINITY PREDICTED BY RF-SCORE:    0.00 PKD
ROOT
HETATM    1  C   UNL     1     -11.154   8.000  72.542  1.00  0.00    -0.440 C  
HETATM    2  C   UNL     1     -11.726   6.720  71.956  1.00  0.00    -0.343 C  
ENDROOT
BRANCH   2   3
HETATM    3  C   UNL     1     -11.900   6.840  70.444  1.00  0.00    -0.395 C  
BRANCH   3   4
HETATM    4  C   UNL     1     -10.844   6.024  69.706  1.00  0.00    -0.433 C  
BRANCH   4   5
HETATM    5  C   UNL     1     -10.927   6.273  68.206  1.00  0.00    -0.408 C  
BRANCH   5   6
HETATM    6  C   UNL     1      -9.537   6.323  67.587  1.00  0.00    -0.118 C  
BRANCH   6   7
HETATM    7  C   UNL     1      -8.478   6.432  68.675  1.00  0.00    -0.123 C  
BRANCH   7   8
HETATM    8  C   UNL     1      -7.933   7.851  68.749  1.00  0.00    -0.124 C  
BRANCH   8   9
HETATM    9  C   UNL     1      -8.112   8.413  70.154  1.00  0.00    -0.108 C  
BRANCH   9  10
HETATM   10  C   UNL     1      -8.982   9.659  70.113  1.00  0.00    -0.273 C  
BRANCH  10  11
HETATM   11  C   UNL     1      -9.529   9.890  68.715  1.00  0.00    -0.157 C  
BRANCH  11  12
HETATM   12  C   UNL     1     -11.029  10.118  68.780  1.00  0.00    -0.264 C  
BRANCH  12  13
HETATM   13  C   UNL     1     -11.439  10.766  70.098  1.00  0.00    -0.415 C  
BRANCH  13  14
HETATM   14  C   UNL     1     -11.934  12.200  69.910  1.00  0.00    -0.380 C  
BRANCH  14  15
HETATM   15  C   UNL     1     -11.594  12.825  68.554  1.00  0.00    -0.358 C  
BRANCH  15  16
HETATM   16  C   UNL     1     -10.566  13.956  68.656  1.00  0.00    -0.257 C  
BRANCH  16  17
HETATM   17  N   UNL     1     -10.670  14.990  67.521  1.00  0.00    -0.278 N  
HETATM   18  C   UNL     1      -9.297  15.280  66.926  1.00  0.00    -0.237 C  
HETATM   19  C   UNL     1     -11.601  14.481  66.421  1.00  0.00    -0.364 C  
BRANCH  17  20
HETATM   20  C   UNL     1     -11.275  16.298  68.143  1.00  0.00    -0.298 C  
BRANCH  20  21
HETATM   21  C   UNL     1     -10.576  17.568  67.723  1.00  0.00    -0.375 A  
HETATM   22  C   UNL     1      -9.925  18.370  68.675  1.00  0.00    -0.415 A  
HETATM   23  C   UNL     1      -9.520  19.664  68.345  1.00  0.00    -0.452 A  
HETATM   24  C   UNL     1      -9.731  20.151  67.056  1.00  0.00    -0.574 A  
HETATM   25  C   UNL     1     -10.289  19.330  66.082  1.00  0.00    -0.578 A  
HETATM   26  C   UNL     1     -10.687  18.034  66.405  1.00  0.00    -0.139 A  
ENDBRANCH  20  21
ENDBRANCH  17  20
ENDBRANCH  16  17
ENDBRANCH  15  16
ENDBRANCH  14  15
ENDBRANCH  13  14
ENDBRANCH  12  13
ENDBRANCH  11  12
ENDBRANCH  10  11
ENDBRANCH   9  10
ENDBRANCH   8   9
ENDBRANCH   7   8
ENDBRANCH   6   7
ENDBRANCH   5   6
ENDBRANCH   4   5
ENDBRANCH   3   4
ENDBRANCH   2   3
TORSDOF 17
ENDMDL
MODEL      131
REMARK 921   NORMALIZED FREE ENERGY PREDICTED BY IDOCK:   -3.79 KCAL/MOL
REMARK 922        TOTAL FREE ENERGY PREDICTED BY IDOCK:  -10.40 KCAL/MOL
REMARK 923 INTER-LIGAND FREE ENERGY PREDICTED BY IDOCK:   -8.57 KCAL/MOL
REMARK 924 INTRA-LIGAND FREE ENERGY PREDICTED BY IDOCK:   -1.83 KCAL/MOL
REMARK 927      BINDING AFFINITY PREDICTED BY RF-SCORE:    0.00 PKD
ROOT
HETATM    1  C   UNL     1     -12.407  15.374  74.494  1.00  0.00    -0.700 C  
HETATM    2  C   UNL     1     -12.922  15.673  73.097  1.00  0.00    -0.645 C  
ENDROOT
BRANCH   2   3
HETATM    3  C   UNL     1     -11.780  15.694  72.084  1.00  0.00    -0.576 C  
BRANCH   3   4
HETATM    4  C   UNL     1     -12.267  15.266  70.703  1.00  0.00    -0.412 C  
BRANCH   4   5
HETATM    5  C   UNL     1     -13.258  14.114  70.818  1.00  0.00    -0.212 C  
BRANCH   5   6
HETATM    6  C   UNL     1     -12.531  12.776  70.845  1.00  0.00    -0.373 C  
BRANCH   6   7
HETATM    7  C   UNL     1     -13.262  11.796  71.753  1.00  0.00    -0.434 C  
BRANCH   7   8
HETATM    8  C   UNL     1     -13.111  10.375  71.234  1.00  0.00    -0.494 C  
BRANCH   8   9
HETATM    9  C   UNL     1     -13.238   9.378  72.379  1.00  0.00    -0.483 C  
BRANCH   9  10
HETATM   10  C   UNL     1     -12.123   8.347  72.303  1.00  0.00    -0.456 C  
BRANCH  10  11
HETATM   11  C   UNL     1     -11.778   8.030  70.858  1.00  0.00    -0.265 C  
BRANCH  11  12
HETATM   12  C   UNL     1     -11.720   6.525  70.661  1.00  0.00    -0.436 C  
BRANCH  12  13
HETATM   13  C   UNL     1     -10.376   5.956  71.101  1.00  0.00    -0.276 C  
BRANCH  13  14
HETATM   14  C   UNL     1      -9.739   5.075  70.026  1.00  0.00    -0.278 C  
BRANCH  14  15
HETATM   15  C   UNL     1      -9.185   5.835  68.818  1.00  0.00    -0.128 C  
BRANCH  15  16
HETATM   16  C   UNL     1      -8.016   6.758  69.173  1.00  0.00    -0.112 C  
BRANCH  16  17
HETATM   17  N   UNL     1      -8.221   8.216  68.722  1.00  0.00    -0.123 N  
HETATM   18  C   UNL     1      -8.151   9.164  69.913  1.00  0.00    -0.122 C  
HETATM   19  C   UNL     1      -7.156   8.611  67.699  1.00  0.00    -0.080 C  
BRANCH  17  20
HETATM   20  C   UNL     1      -9.637   8.297  68.051  1.00  0.00    -0.153 C  
BRANCH  20  21
HETATM   21  C   UNL     1     -10.001   9.665  67.528  1.00  0.00    -0.231 A  
HETATM   22  C   UNL     1     -10.876  10.493  68.250  1.00  0.00    -0.293 A  
HETATM   23  C   UNL     1     -11.426  11.626  67.651  1.00  0.00    -0.373 A  
HETATM   24  C   UNL     1     -11.079  11.959  66.343  1.00  0.00    -0.359 A  
HETATM   25  C   UNL     1     -10.140  11.198  65.654  1.00  0.00    -0.304 A  
HETATM   26  C   UNL     1      -9.583  10.069  66.252  1.00  0.00    -0.256 A  
ENDBRANCH  20  21
ENDBRANCH  17  20
ENDBRANCH  16  17
ENDBRANCH  15  16
ENDBRANCH  14  15
ENDBRANCH  13  14
ENDBRANCH  12  13
ENDBRANCH  11  12
ENDBRANCH  10  11
ENDBRANCH   9  10
ENDBRANCH   8   9
ENDBRANCH   7   8
ENDBRANCH   6   7
ENDBRANCH   5   6
ENDBRANCH   4   5
ENDBRANCH   3   4
ENDBRANCH   2   3
TORSDOF 17
ENDMDL
MODEL      132
REMARK 921   NORMALIZED FREE ENERGY PREDICTED BY IDOCK:   -3.78 KCAL/MOL
REMARK 922        TOTAL FREE ENERGY PREDICTED BY IDOCK:  -10.37 KCAL/MOL
REMARK 923 INTER-LIGAND FREE ENERGY PREDICTED BY IDOCK:   -7.18 KCAL/MOL
REMARK 924 INTRA-LIGAND FREE ENERGY PREDICTED BY IDOCK:   -3.19 KCAL/MOL
REMARK 927      BINDING AFFINITY PREDICTED BY RF-SCORE:    0.00 PKD
ROOT
HETATM    1  C   UNL     1     -12.222  12.174  63.620  1.00  0.00    -0.663 C  
HETATM    2  C   UNL     1     -11.945  13.490  64.325  1.00  0.00    -0.479 C  
ENDROOT
BRANCH   2   3
HETATM    3  C   UNL     1     -10.444  13.742  64.445  1.00  0.00    -0.265 C  
BRANCH   3   4
HETATM    4  C   UNL     1     -10.141  14.701  65.592  1.00  0.00    -0.389 C  
BRANCH   4   5
HETATM    5  C   UNL     1      -9.647  13.935  66.813  1.00  0.00    -0.288 C  
BRANCH   5   6
HETATM    6  C   UNL     1     -10.669  13.997  67.941  1.00  0.00    -0.246 C  
BRANCH   6   7
HETATM    7  C   UNL     1     -10.943  12.600  68.482  1.00  0.00    -0.292 C  
BRANCH   7   8
HETATM    8  C   UNL     1     -11.671  11.760  67.444  1.00  0.00    -0.304 C  
BRANCH   8   9
HETATM    9  C   UNL     1     -11.110  10.343  67.423  1.00  0.00    -0.297 C  
BRANCH   9  10
HETATM   10  C   UNL     1     -10.362  10.095  66.122  1.00  0.00    -0.237 C  
BRANCH  10  11
HETATM   11  C   UNL     1      -8.899  10.480  66.258  1.00  0.00    -0.172 C  
BRANCH  11  12
HETATM   12  C   UNL     1      -8.154   9.406  67.032  1.00  0.00    -0.105 C  
BRANCH  12  13
HETATM   13  C   UNL     1      -7.718   9.907  68.404  1.00  0.00    -0.084 C  
BRANCH  13  14
HETATM   14  C   UNL     1      -7.974   8.878  69.505  1.00  0.00    -0.092 C  
BRANCH  14  15
HETATM   15  C   UNL     1      -9.233   9.131  70.341  1.00  0.00    -0.271 C  
BRANCH  15  16
HETATM   16  C   UNL     1      -9.721   7.884  71.083  1.00  0.00    -0.158 C  
BRANCH  16  17
HETATM   17  N   UNL     1     -11.222   7.913  71.421  1.00  0.00    -0.243 N  
HETATM   18  C   UNL     1     -11.439   7.807  72.926  1.00  0.00    -0.303 C  
HETATM   19  C   UNL     1     -11.858   9.204  70.908  1.00  0.00    -0.270 C  
BRANCH  17  20
HETATM   20  C   UNL     1     -11.882   6.689  70.694  1.00  0.00    -0.383 C  
BRANCH  20  21
HETATM   21  C   UNL     1     -11.061   6.117  69.565  1.00  0.00    -0.490 A  
HETATM   22  C   UNL     1     -10.117   5.107  69.812  1.00  0.00    -0.336 A  
HETATM   23  C   UNL     1      -9.175   4.772  68.838  1.00  0.00    -0.172 A  
HETATM   24  C   UNL     1      -9.193   5.417  67.603  1.00  0.00    -0.116 A  
HETATM   25  C   UNL     1     -10.183   6.351  67.316  1.00  0.00    -0.237 A  
HETATM   26  C   UNL     1     -11.131   6.682  68.284  1.00  0.00    -0.283 A  
ENDBRANCH  20  21
ENDBRANCH  17  20
ENDBRANCH  16  17
ENDBRANCH  15  16
ENDBRANCH  14  15
ENDBRANCH  13  14
ENDBRANCH  12  13
ENDBRANCH  11  12
ENDBRANCH  10  11
ENDBRANCH   9  10
ENDBRANCH   8   9
ENDBRANCH   7   8
ENDBRANCH   6   7
ENDBRANCH   5   6
ENDBRANCH   4   5
ENDBRANCH   3   4
ENDBRANCH   2   3
TORSDOF 17
ENDMDL
MODEL      133
REMARK 921   NORMALIZED FREE ENERGY PREDICTED BY IDOCK:   -3.78 KCAL/MOL
REMARK 922        TOTAL FREE ENERGY PREDICTED BY IDOCK:  -10.37 KCAL/MOL
REMARK 923 INTER-LIGAND FREE ENERGY PREDICTED BY IDOCK:   -8.63 KCAL/MOL
REMARK 924 INTRA-LIGAND FREE ENERGY PREDICTED BY IDOCK:   -1.73 KCAL/MOL
REMARK 927      BINDING AFFINITY PREDICTED BY RF-SCORE:    0.00 PKD
ROOT
HETATM    1  C   UNL     1     -13.407  12.231  71.985  1.00  0.00    -0.491 C  
HETATM    2  C   UNL     1     -12.644  11.127  71.273  1.00  0.00    -0.503 C  
ENDROOT
BRANCH   2   3
HETATM    3  C   UNL     1     -13.369   9.790  71.402  1.00  0.00    -0.449 C  
BRANCH   3   4
HETATM    4  C   UNL     1     -12.745   8.934  72.500  1.00  0.00    -0.382 C  
BRANCH   4   5
HETATM    5  C   UNL     1     -11.293   8.613  72.167  1.00  0.00    -0.434 C  
BRANCH   5   6
HETATM    6  C   UNL     1     -10.979   7.153  72.468  1.00  0.00    -0.309 C  
BRANCH   6   7
HETATM    7  C   UNL     1     -10.047   6.584  71.408  1.00  0.00    -0.213 C  
BRANCH   7   8
HETATM    8  C   UNL     1     -10.805   5.647  70.479  1.00  0.00    -0.315 C  
BRANCH   8   9
HETATM    9  C   UNL     1     -11.529   6.444  69.401  1.00  0.00    -0.374 C  
BRANCH   9  10
HETATM   10  C   UNL     1     -10.697   6.481  68.129  1.00  0.00    -0.347 C  
BRANCH  10  11
HETATM   11  C   UNL     1     -10.579   7.902  67.604  1.00  0.00    -0.276 C  
BRANCH  11  12
HETATM   12  C   UNL     1      -9.561   8.672  68.428  1.00  0.00    -0.157 C  
BRANCH  12  13
HETATM   13  C   UNL     1     -10.104  10.029  68.858  1.00  0.00    -0.200 C  
BRANCH  13  14
HETATM   14  C   UNL     1     -11.150  10.572  67.884  1.00  0.00    -0.367 C  
BRANCH  14  15
HETATM   15  C   UNL     1     -11.508  12.048  68.082  1.00  0.00    -0.383 C  
BRANCH  15  16
HETATM   16  C   UNL     1     -10.831  12.971  67.065  1.00  0.00    -0.261 C  
BRANCH  16  17
HETATM   17  N   UNL     1     -10.256  14.258  67.685  1.00  0.00    -0.236 N  
HETATM   18  C   UNL     1     -10.190  14.142  69.203  1.00  0.00    -0.051 C  
HETATM   19  C   UNL     1      -8.856  14.533  67.138  1.00  0.00    -0.229 C  
BRANCH  17  20
HETATM   20  C   UNL     1     -11.210  15.434  67.275  1.00  0.00    -0.270 C  
BRANCH  20  21
HETATM   21  C   UNL     1     -10.586  16.804  67.368  1.00  0.00    -0.291 A  
HETATM   22  C   UNL     1     -10.316  17.381  68.620  1.00  0.00    -0.364 A  
HETATM   23  C   UNL     1     -10.000  18.736  68.716  1.00  0.00    -0.442 A  
HETATM   24  C   UNL     1      -9.916  19.514  67.564  1.00  0.00    -0.495 A  
HETATM   25  C   UNL     1     -10.088  18.931  66.313  1.00  0.00    -0.460 A  
HETATM   26  C   UNL     1     -10.397  17.575  66.212  1.00  0.00    -0.335 A  
ENDBRANCH  20  21
ENDBRANCH  17  20
ENDBRANCH  16  17
ENDBRANCH  15  16
ENDBRANCH  14  15
ENDBRANCH  13  14
ENDBRANCH  12  13
ENDBRANCH  11  12
ENDBRANCH  10  11
ENDBRANCH   9  10
ENDBRANCH   8   9
ENDBRANCH   7   8
ENDBRANCH   6   7
ENDBRANCH   5   6
ENDBRANCH   4   5
ENDBRANCH   3   4
ENDBRANCH   2   3
TORSDOF 17
ENDMDL
MODEL      134
REMARK 921   NORMALIZED FREE ENERGY PREDICTED BY IDOCK:   -3.78 KCAL/MOL
REMARK 922        TOTAL FREE ENERGY PREDICTED BY IDOCK:  -10.37 KCAL/MOL
REMARK 923 INTER-LIGAND FREE ENERGY PREDICTED BY IDOCK:   -7.83 KCAL/MOL
REMARK 924 INTRA-LIGAND FREE ENERGY PREDICTED BY IDOCK:   -2.54 KCAL/MOL
REMARK 927      BINDING AFFINITY PREDICTED BY RF-SCORE:    0.00 PKD
ROOT
HETATM    1  C   UNL     1     -10.885  19.094  67.133  1.00  0.00    -0.507 C  
HETATM    2  C   UNL     1     -10.019  19.742  68.200  1.00  0.00    -0.557 C  
ENDROOT
BRANCH   2   3
HETATM    3  C   UNL     1      -8.562  19.814  67.753  1.00  0.00    -0.373 C  
BRANCH   3   4
HETATM    4  C   UNL     1      -8.418  19.405  66.290  1.00  0.00    -0.346 C  
BRANCH   4   5
HETATM    5  C   UNL     1      -7.144  18.595  66.084  1.00  0.00    -0.294 C  
BRANCH   5   6
HETATM    6  C   UNL     1      -6.441  18.346  67.411  1.00  0.00    -0.197 C  
BRANCH   6   7
HETATM    7  C   UNL     1      -6.043  16.881  67.532  1.00  0.00    -0.171 C  
BRANCH   7   8
HETATM    8  C   UNL     1      -7.269  15.986  67.434  1.00  0.00    -0.219 C  
BRANCH   8   9
HETATM    9  C   UNL     1      -8.151  16.162  68.664  1.00  0.00    -0.203 C  
BRANCH   9  10
HETATM   10  C   UNL     1      -9.599  15.851  68.320  1.00  0.00    -0.205 C  
BRANCH  10  11
HETATM   11  C   UNL     1     -10.297  15.174  69.486  1.00  0.00    -0.251 C  
BRANCH  11  12
HETATM   12  C   UNL     1     -11.512  14.411  68.987  1.00  0.00    -0.314 C  
BRANCH  12  13
HETATM   13  C   UNL     1     -11.995  13.395  70.015  1.00  0.00    -0.407 C  
BRANCH  13  14
HETATM   14  C   UNL     1     -11.947  11.963  69.484  1.00  0.00    -0.355 C  
BRANCH  14  15
HETATM   15  C   UNL     1     -10.540  11.370  69.360  1.00  0.00    -0.097 C  
BRANCH  15  16
HETATM   16  C   UNL     1     -10.190  10.947  67.930  1.00  0.00    -0.179 C  
BRANCH  16  17
HETATM   17  N   UNL     1      -8.896  11.586  67.395  1.00  0.00    -0.153 N  
HETATM   18  C   UNL     1      -8.062  12.152  68.538  1.00  0.00    -0.112 C  
HETATM   19  C   UNL     1      -8.070  10.554  66.629  1.00  0.00    -0.127 C  
BRANCH  17  20
HETATM   20  C   UNL     1      -9.320  12.737  66.416  1.00  0.00    -0.194 C  
BRANCH  20  21
HETATM   21  C   UNL     1     -10.475  12.391  65.510  1.00  0.00    -0.304 A  
HETATM   22  C   UNL     1     -10.259  11.663  64.328  1.00  0.00    -0.357 A  
HETATM   23  C   UNL     1     -11.263  11.579  63.362  1.00  0.00    -0.342 A  
HETATM   24  C   UNL     1     -12.496  12.187  63.585  1.00  0.00    -0.658 A  
HETATM   25  C   UNL     1     -12.750  12.828  64.793  1.00  0.00    -0.469 A  
HETATM   26  C   UNL     1     -11.753  12.908  65.764  1.00  0.00    -0.437 A  
ENDBRANCH  20  21
ENDBRANCH  17  20
ENDBRANCH  16  17
ENDBRANCH  15  16
ENDBRANCH  14  15
ENDBRANCH  13  14
ENDBRANCH  12  13
ENDBRANCH  11  12
ENDBRANCH  10  11
ENDBRANCH   9  10
ENDBRANCH   8   9
ENDBRANCH   7   8
ENDBRANCH   6   7
ENDBRANCH   5   6
ENDBRANCH   4   5
ENDBRANCH   3   4
ENDBRANCH   2   3
TORSDOF 17
ENDMDL
MODEL      135
REMARK 921   NORMALIZED FREE ENERGY PREDICTED BY IDOCK:   -3.77 KCAL/MOL
REMARK 922        TOTAL FREE ENERGY PREDICTED BY IDOCK:  -10.35 KCAL/MOL
REMARK 923 INTER-LIGAND FREE ENERGY PREDICTED BY IDOCK:   -8.72 KCAL/MOL
REMARK 924 INTRA-LIGAND FREE ENERGY PREDICTED BY IDOCK:   -1.64 KCAL/MOL
REMARK 927      BINDING AFFINITY PREDICTED BY RF-SCORE:    0.00 PKD
ROOT
HETATM    1  C   UNL     1     -12.616  11.757  71.045  1.00  0.00    -0.409 C  
HETATM    2  C   UNL     1     -11.822  10.469  70.908  1.00  0.00    -0.455 C  
ENDROOT
BRANCH   2   3
HETATM    3  C   UNL     1     -12.723   9.249  71.085  1.00  0.00    -0.306 C  
BRANCH   3   4
HETATM    4  C   UNL     1     -12.223   8.361  72.220  1.00  0.00    -0.449 C  
BRANCH   4   5
HETATM    5  C   UNL     1     -10.700   8.353  72.262  1.00  0.00    -0.417 C  
BRANCH   5   6
HETATM    6  C   UNL     1     -10.168   6.927  72.319  1.00  0.00    -0.207 C  
BRANCH   6   7
HETATM    7  C   UNL     1      -9.565   6.534  70.977  1.00  0.00    -0.185 C  
BRANCH   7   8
HETATM    8  C   UNL     1     -10.488   5.578  70.237  1.00  0.00    -0.365 C  
BRANCH   8   9
HETATM    9  C   UNL     1     -11.247   6.318  69.142  1.00  0.00    -0.439 C  
BRANCH   9  10
HETATM   10  C   UNL     1     -10.521   6.177  67.814  1.00  0.00    -0.290 C  
BRANCH  10  11
HETATM   11  C   UNL     1     -10.431   7.517  67.103  1.00  0.00    -0.407 C  
BRANCH  11  12
HETATM   12  C   UNL     1     -10.222   8.626  68.120  1.00  0.00    -0.250 C  
BRANCH  12  13
HETATM   13  C   UNL     1     -10.706   9.969  67.587  1.00  0.00    -0.340 C  
BRANCH  13  14
HETATM   14  C   UNL     1     -10.477  10.114  66.082  1.00  0.00    -0.173 C  
BRANCH  14  15
HETATM   15  C   UNL     1     -10.990  11.424  65.477  1.00  0.00    -0.248 C  
BRANCH  15  16
HETATM   16  C   UNL     1      -9.995  12.579  65.616  1.00  0.00    -0.245 C  
BRANCH  16  17
HETATM   17  N   UNL     1     -10.663  13.941  65.879  1.00  0.00    -0.282 N  
HETATM   18  C   UNL     1     -11.378  14.442  64.630  1.00  0.00    -0.371 C  
HETATM   19  C   UNL     1     -11.666  13.829  67.026  1.00  0.00    -0.390 C  
BRANCH  17  20
HETATM   20  C   UNL     1      -9.525  14.942  66.286  1.00  0.00    -0.309 C  
BRANCH  20  21
HETATM   21  C   UNL     1     -10.018  16.283  66.771  1.00  0.00    -0.268 A  
HETATM   22  C   UNL     1     -10.292  17.315  65.858  1.00  0.00    -0.287 A  
HETATM   23  C   UNL     1     -10.481  18.621  66.310  1.00  0.00    -0.468 A  
HETATM   24  C   UNL     1     -10.433  18.899  67.674  1.00  0.00    -0.514 A  
HETATM   25  C   UNL     1     -10.257  17.868  68.591  1.00  0.00    -0.387 A  
HETATM   26  C   UNL     1     -10.076  16.560  68.145  1.00  0.00    -0.255 A  
ENDBRANCH  20  21
ENDBRANCH  17  20
ENDBRANCH  16  17
ENDBRANCH  15  16
ENDBRANCH  14  15
ENDBRANCH  13  14
ENDBRANCH  12  13
ENDBRANCH  11  12
ENDBRANCH  10  11
ENDBRANCH   9  10
ENDBRANCH   8   9
ENDBRANCH   7   8
ENDBRANCH   6   7
ENDBRANCH   5   6
ENDBRANCH   4   5
ENDBRANCH   3   4
ENDBRANCH   2   3
TORSDOF 17
ENDMDL
MODEL      136
REMARK 921   NORMALIZED FREE ENERGY PREDICTED BY IDOCK:   -3.76 KCAL/MOL
REMARK 922        TOTAL FREE ENERGY PREDICTED BY IDOCK:  -10.34 KCAL/MOL
REMARK 923 INTER-LIGAND FREE ENERGY PREDICTED BY IDOCK:   -8.51 KCAL/MOL
REMARK 924 INTRA-LIGAND FREE ENERGY PREDICTED BY IDOCK:   -1.84 KCAL/MOL
REMARK 927      BINDING AFFINITY PREDICTED BY RF-SCORE:    0.00 PKD
ROOT
HETATM    1  C   UNL     1     -11.742   6.808  72.243  1.00  0.00    -0.300 C  
HETATM    2  C   UNL     1     -12.930   7.347  71.466  1.00  0.00    -0.421 C  
ENDROOT
BRANCH   2   3
HETATM    3  C   UNL     1     -13.288   8.759  71.922  1.00  0.00    -0.432 C  
BRANCH   3   4
HETATM    4  C   UNL     1     -12.432   9.798  71.204  1.00  0.00    -0.443 C  
BRANCH   4   5
HETATM    5  C   UNL     1     -12.950  11.203  71.485  1.00  0.00    -0.542 C  
BRANCH   5   6
HETATM    6  C   UNL     1     -12.250  12.225  70.599  1.00  0.00    -0.378 C  
BRANCH   6   7
HETATM    7  C   UNL     1     -12.531  13.636  71.097  1.00  0.00    -0.442 C  
BRANCH   7   8
HETATM    8  C   UNL     1     -12.420  14.636  69.955  1.00  0.00    -0.333 C  
BRANCH   8   9
HETATM    9  C   UNL     1     -11.229  14.295  69.069  1.00  0.00    -0.294 C  
BRANCH   9  10
HETATM   10  C   UNL     1     -11.632  14.351  67.604  1.00  0.00    -0.396 C  
BRANCH  10  11
HETATM   11  C   UNL     1     -10.702  15.263  66.823  1.00  0.00    -0.313 C  
BRANCH  11  12
HETATM   12  C   UNL     1     -10.928  15.075  65.332  1.00  0.00    -0.380 C  
BRANCH  12  13
HETATM   13  C   UNL     1     -11.962  13.989  65.057  1.00  0.00    -0.409 C  
BRANCH  13  14
HETATM   14  C   UNL     1     -11.411  12.877  64.165  1.00  0.00    -0.442 C  
BRANCH  14  15
HETATM   15  C   UNL     1     -11.028  11.591  64.904  1.00  0.00    -0.319 C  
BRANCH  15  16
HETATM   16  C   UNL     1      -9.697  11.703  65.653  1.00  0.00    -0.236 C  
BRANCH  16  17
HETATM   17  N   UNL     1      -9.675  10.941  66.991  1.00  0.00    -0.173 N  
HETATM   18  C   UNL     1      -8.844  11.691  68.025  1.00  0.00    -0.162 C  
HETATM   19  C   UNL     1     -11.096  10.756  67.521  1.00  0.00    -0.308 C  
BRANCH  17  20
HETATM   20  C   UNL     1      -9.042   9.533  66.710  1.00  0.00    -0.146 C  
BRANCH  20  21
HETATM   21  C   UNL     1      -9.666   8.402  67.489  1.00  0.00    -0.209 A  
HETATM   22  C   UNL     1      -9.307   8.177  68.828  1.00  0.00    -0.143 A  
HETATM   23  C   UNL     1      -9.667   6.987  69.461  1.00  0.00    -0.160 A  
HETATM   24  C   UNL     1     -10.415   6.032  68.776  1.00  0.00    -0.307 A  
HETATM   25  C   UNL     1     -10.855   6.288  67.481  1.00  0.00    -0.436 A  
HETATM   26  C   UNL     1     -10.505   7.480  66.848  1.00  0.00    -0.385 A  
ENDBRANCH  20  21
ENDBRANCH  17  20
ENDBRANCH  16  17
ENDBRANCH  15  16
ENDBRANCH  14  15
ENDBRANCH  13  14
ENDBRANCH  12  13
ENDBRANCH  11  12
ENDBRANCH  10  11
ENDBRANCH   9  10
ENDBRANCH   8   9
ENDBRANCH   7   8
ENDBRANCH   6   7
ENDBRANCH   5   6
ENDBRANCH   4   5
ENDBRANCH   3   4
ENDBRANCH   2   3
TORSDOF 17
ENDMDL
MODEL      137
REMARK 921   NORMALIZED FREE ENERGY PREDICTED BY IDOCK:   -3.76 KCAL/MOL
REMARK 922        TOTAL FREE ENERGY PREDICTED BY IDOCK:  -10.34 KCAL/MOL
REMARK 923 INTER-LIGAND FREE ENERGY PREDICTED BY IDOCK:   -8.35 KCAL/MOL
REMARK 924 INTRA-LIGAND FREE ENERGY PREDICTED BY IDOCK:   -1.99 KCAL/MOL
REMARK 927      BINDING AFFINITY PREDICTED BY RF-SCORE:    0.00 PKD
ROOT
HETATM    1  C   UNL     1      -8.904   4.054  70.279  1.00  0.00    -0.141 C  
HETATM    2  C   UNL     1      -9.361   4.309  68.853  1.00  0.00    -0.222 C  
ENDROOT
BRANCH   2   3
HETATM    3  C   UNL     1      -8.189   4.724  67.968  1.00  0.00    -0.095 C  
BRANCH   3   4
HETATM    4  C   UNL     1      -8.682   5.340  66.661  1.00  0.00    -0.113 C  
BRANCH   4   5
HETATM    5  C   UNL     1      -8.411   6.839  66.641  1.00  0.00    -0.118 C  
BRANCH   5   6
HETATM    6  C   UNL     1      -9.709   7.625  66.764  1.00  0.00    -0.290 C  
BRANCH   6   7
HETATM    7  C   UNL     1      -9.812   8.263  68.143  1.00  0.00    -0.198 C  
BRANCH   7   8
HETATM    8  C   UNL     1     -10.873   7.562  68.977  1.00  0.00    -0.082 C  
BRANCH   8   9
HETATM    9  C   UNL     1     -10.464   7.544  70.445  1.00  0.00    -0.227 C  
BRANCH   9  10
HETATM   10  C   UNL     1     -11.683   7.744  71.331  1.00  0.00    -0.310 C  
BRANCH  10  11
HETATM   11  C   UNL     1     -11.612   9.078  72.053  1.00  0.00    -0.413 C  
BRANCH  11  12
HETATM   12  C   UNL     1     -12.742   9.979  71.583  1.00  0.00    -0.535 C  
BRANCH  12  13
HETATM   13  C   UNL     1     -12.214  11.177  70.804  1.00  0.00    -0.484 C  
BRANCH  13  14
HETATM   14  C   UNL     1     -12.173  10.918  69.298  1.00  0.00    -0.240 C  
BRANCH  14  15
HETATM   15  C   UNL     1     -11.733  12.116  68.451  1.00  0.00    -0.388 C  
BRANCH  15  16
HETATM   16  C   UNL     1     -11.269  13.308  69.293  1.00  0.00    -0.208 C  
BRANCH  16  17
HETATM   17  N   UNL     1     -11.241  14.638  68.519  1.00  0.00    -0.258 N  
HETATM   18  C   UNL     1      -9.848  15.255  68.557  1.00  0.00    -0.210 C  
HETATM   19  C   UNL     1     -11.656  14.416  67.065  1.00  0.00    -0.384 C  
BRANCH  17  20
HETATM   20  C   UNL     1     -12.274  15.596  69.209  1.00  0.00    -0.142 C  
BRANCH  20  21
HETATM   21  C   UNL     1     -12.422  15.386  70.696  1.00  0.00    -0.478 A  
HETATM   22  C   UNL     1     -13.401  14.513  71.198  1.00  0.00    -0.415 A  
HETATM   23  C   UNL     1     -13.721  14.523  72.556  1.00  0.00    -0.580 A  
HETATM   24  C   UNL     1     -13.043  15.377  73.424  1.00  0.00    -0.633 A  
HETATM   25  C   UNL     1     -12.007  16.176  72.952  1.00  0.00    -0.623 A  
HETATM   26  C   UNL     1     -11.679  16.163  71.597  1.00  0.00    -0.558 A  
ENDBRANCH  20  21
ENDBRANCH  17  20
ENDBRANCH  16  17
ENDBRANCH  15  16
ENDBRANCH  14  15
ENDBRANCH  13  14
ENDBRANCH  12  13
ENDBRANCH  11  12
ENDBRANCH  10  11
ENDBRANCH   9  10
ENDBRANCH   8   9
ENDBRANCH   7   8
ENDBRANCH   6   7
ENDBRANCH   5   6
ENDBRANCH   4   5
ENDBRANCH   3   4
ENDBRANCH   2   3
TORSDOF 17
ENDMDL
MODEL      138
REMARK 921   NORMALIZED FREE ENERGY PREDICTED BY IDOCK:   -3.76 KCAL/MOL
REMARK 922        TOTAL FREE ENERGY PREDICTED BY IDOCK:  -10.34 KCAL/MOL
REMARK 923 INTER-LIGAND FREE ENERGY PREDICTED BY IDOCK:   -8.39 KCAL/MOL
REMARK 924 INTRA-LIGAND FREE ENERGY PREDICTED BY IDOCK:   -1.95 KCAL/MOL
REMARK 927      BINDING AFFINITY PREDICTED BY RF-SCORE:    0.00 PKD
ROOT
HETATM    1  C   UNL     1     -12.271  13.351  70.452  1.00  0.00    -0.415 C  
HETATM    2  C   UNL     1     -12.246  11.846  70.652  1.00  0.00    -0.424 C  
ENDROOT
BRANCH   2   3
HETATM    3  C   UNL     1     -13.066  11.441  71.874  1.00  0.00    -0.505 C  
BRANCH   3   4
HETATM    4  C   UNL     1     -13.163   9.923  71.989  1.00  0.00    -0.555 C  
BRANCH   4   5
HETATM    5  C   UNL     1     -11.789   9.285  71.823  1.00  0.00    -0.454 C  
BRANCH   5   6
HETATM    6  C   UNL     1     -11.752   7.905  72.464  1.00  0.00    -0.423 C  
BRANCH   6   7
HETATM    7  C   UNL     1     -10.477   7.735  73.279  1.00  0.00    -0.358 C  
BRANCH   7   8
HETATM    8  C   UNL     1     -10.270   6.273  73.645  1.00  0.00    -0.267 C  
BRANCH   8   9
HETATM    9  C   UNL     1     -11.086   5.376  72.722  1.00  0.00    -0.349 C  
BRANCH   9  10
HETATM   10  C   UNL     1     -10.202   4.291  72.129  1.00  0.00    -0.234 C  
BRANCH  10  11
HETATM   11  C   UNL     1      -9.049   4.899  71.350  1.00  0.00    -0.177 C  
BRANCH  11  12
HETATM   12  C   UNL     1      -9.517   5.290  69.959  1.00  0.00    -0.216 C  
BRANCH  12  13
HETATM   13  C   UNL     1      -9.254   6.764  69.675  1.00  0.00    -0.145 C  
BRANCH  13  14
HETATM   14  C   UNL     1     -10.336   7.387  68.792  1.00  0.00    -0.209 C  
BRANCH  14  15
HETATM   15  C   UNL     1     -10.416   8.915  68.854  1.00  0.00    -0.225 C  
BRANCH  15  16
HETATM   16  C   UNL     1      -9.121   9.602  68.411  1.00  0.00    -0.123 C  
BRANCH  16  17
HETATM   17  N   UNL     1      -9.240  10.334  67.062  1.00  0.00    -0.149 N  
HETATM   18  C   UNL     1      -8.579  11.706  67.133  1.00  0.00    -0.164 C  
HETATM   19  C   UNL     1      -8.586   9.514  65.951  1.00  0.00    -0.132 C  
BRANCH  17  20
HETATM   20  C   UNL     1     -10.771  10.490  66.755  1.00  0.00    -0.188 C  
BRANCH  20  21
HETATM   21  C   UNL     1     -11.112  11.658  65.863  1.00  0.00    -0.320 A  
HETATM   22  C   UNL     1     -11.737  12.799  66.392  1.00  0.00    -0.464 A  
HETATM   23  C   UNL     1     -12.295  13.753  65.540  1.00  0.00    -0.507 A  
HETATM   24  C   UNL     1     -12.203  13.592  64.159  1.00  0.00    -0.449 A  
HETATM   25  C   UNL     1     -11.504  12.513  63.627  1.00  0.00    -0.568 A  
HETATM   26  C   UNL     1     -10.938  11.562  64.475  1.00  0.00    -0.367 A  
ENDBRANCH  20  21
ENDBRANCH  17  20
ENDBRANCH  16  17
ENDBRANCH  15  16
ENDBRANCH  14  15
ENDBRANCH  13  14
ENDBRANCH  12  13
ENDBRANCH  11  12
ENDBRANCH  10  11
ENDBRANCH   9  10
ENDBRANCH   8   9
ENDBRANCH   7   8
ENDBRANCH   6   7
ENDBRANCH   5   6
ENDBRANCH   4   5
ENDBRANCH   3   4
ENDBRANCH   2   3
TORSDOF 17
ENDMDL
MODEL      139
REMARK 921   NORMALIZED FREE ENERGY PREDICTED BY IDOCK:   -3.75 KCAL/MOL
REMARK 922        TOTAL FREE ENERGY PREDICTED BY IDOCK:  -10.31 KCAL/MOL
REMARK 923 INTER-LIGAND FREE ENERGY PREDICTED BY IDOCK:   -7.97 KCAL/MOL
REMARK 924 INTRA-LIGAND FREE ENERGY PREDICTED BY IDOCK:   -2.34 KCAL/MOL
REMARK 927      BINDING AFFINITY PREDICTED BY RF-SCORE:    0.00 PKD
ROOT
HETATM    1  C   UNL     1     -12.319  10.658  70.554  1.00  0.00    -0.448 C  
HETATM    2  C   UNL     1     -11.959  11.673  69.483  1.00  0.00    -0.383 C  
ENDROOT
BRANCH   2   3
HETATM    3  C   UNL     1     -11.901  13.084  70.062  1.00  0.00    -0.355 C  
BRANCH   3   4
HETATM    4  C   UNL     1     -12.079  14.132  68.967  1.00  0.00    -0.348 C  
BRANCH   4   5
HETATM    5  C   UNL     1     -12.160  13.467  67.599  1.00  0.00    -0.311 C  
BRANCH   5   6
HETATM    6  C   UNL     1     -11.789  14.450  66.497  1.00  0.00    -0.406 C  
BRANCH   6   7
HETATM    7  C   UNL     1     -12.568  14.138  65.226  1.00  0.00    -0.460 C  
BRANCH   7   8
HETATM    8  C   UNL     1     -12.585  12.640  64.966  1.00  0.00    -0.504 C  
BRANCH   8   9
HETATM    9  C   UNL     1     -11.666  12.295  63.801  1.00  0.00    -0.566 C  
BRANCH   9  10
HETATM   10  C   UNL     1     -10.272  11.971  64.311  1.00  0.00    -0.347 C  
BRANCH  10  11
HETATM   11  C   UNL     1     -10.260  10.639  65.041  1.00  0.00    -0.380 C  
BRANCH  11  12
HETATM   12  C   UNL     1      -9.577  10.796  66.388  1.00  0.00    -0.226 C  
BRANCH  12  13
HETATM   13  C   UNL     1      -8.855  12.133  66.496  1.00  0.00    -0.151 C  
BRANCH  13  14
HETATM   14  C   UNL     1      -8.722  12.606  67.944  1.00  0.00    -0.181 C  
BRANCH  14  15
HETATM   15  C   UNL     1      -7.870  13.865  68.133  1.00  0.00    -0.147 C  
BRANCH  15  16
HETATM   16  C   UNL     1      -8.677  15.066  68.634  1.00  0.00    -0.176 C  
BRANCH  16  17
HETATM   17  N   UNL     1      -8.572  16.304  67.725  1.00  0.00    -0.170 N  
HETATM   18  C   UNL     1      -8.776  15.919  66.265  1.00  0.00    -0.337 C  
HETATM   19  C   UNL     1      -9.615  17.347  68.124  1.00  0.00    -0.287 C  
BRANCH  17  20
HETATM   20  C   UNL     1      -7.137  16.905  67.928  1.00  0.00    -0.152 C  
BRANCH  20  21
HETATM   21  C   UNL     1      -7.078  18.412  67.869  1.00  0.00    -0.229 A  
HETATM   22  C   UNL     1      -7.015  19.074  66.632  1.00  0.00    -0.220 A  
HETATM   23  C   UNL     1      -6.689  20.429  66.577  1.00  0.00    -0.289 A  
HETATM   24  C   UNL     1      -6.459  21.138  67.754  1.00  0.00    -0.370 A  
HETATM   25  C   UNL     1      -6.612  20.513  68.987  1.00  0.00    -0.153 A  
HETATM   26  C   UNL     1      -6.946  19.161  69.047  1.00  0.00    -0.371 A  
ENDBRANCH  20  21
ENDBRANCH  17  20
ENDBRANCH  16  17
ENDBRANCH  15  16
ENDBRANCH  14  15
ENDBRANCH  13  14
ENDBRANCH  12  13
ENDBRANCH  11  12
ENDBRANCH  10  11
ENDBRANCH   9  10
ENDBRANCH   8   9
ENDBRANCH   7   8
ENDBRANCH   6   7
ENDBRANCH   5   6
ENDBRANCH   4   5
ENDBRANCH   3   4
ENDBRANCH   2   3
TORSDOF 17
ENDMDL
MODEL      140
REMARK 921   NORMALIZED FREE ENERGY PREDICTED BY IDOCK:   -3.74 KCAL/MOL
REMARK 922        TOTAL FREE ENERGY PREDICTED BY IDOCK:  -10.30 KCAL/MOL
REMARK 923 INTER-LIGAND FREE ENERGY PREDICTED BY IDOCK:   -7.82 KCAL/MOL
REMARK 924 INTRA-LIGAND FREE ENERGY PREDICTED BY IDOCK:   -2.47 KCAL/MOL
REMARK 927      BINDING AFFINITY PREDICTED BY RF-SCORE:    0.00 PKD
ROOT
HETATM    1  C   UNL     1     -12.628   9.914  70.993  1.00  0.00    -0.431 C  
HETATM    2  C   UNL     1     -13.352   8.727  71.605  1.00  0.00    -0.402 C  
ENDROOT
BRANCH   2   3
HETATM    3  C   UNL     1     -12.382   7.830  72.370  1.00  0.00    -0.205 C  
BRANCH   3   4
HETATM    4  C   UNL     1     -12.212   6.486  71.669  1.00  0.00    -0.353 C  
BRANCH   4   5
HETATM    5  C   UNL     1     -10.761   6.028  71.737  1.00  0.00    -0.294 C  
BRANCH   5   6
HETATM    6  C   UNL     1     -10.098   6.122  70.369  1.00  0.00    -0.237 C  
BRANCH   6   7
HETATM    7  C   UNL     1      -8.772   6.861  70.474  1.00  0.00    -0.150 C  
BRANCH   7   8
HETATM    8  C   UNL     1      -8.940   8.148  71.268  1.00  0.00    -0.179 C  
BRANCH   8   9
HETATM    9  C   UNL     1      -9.289   9.301  70.336  1.00  0.00    -0.295 C  
BRANCH   9  10
HETATM   10  C   UNL     1      -8.216   9.456  69.269  1.00  0.00    -0.111 C  
BRANCH  10  11
HETATM   11  C   UNL     1      -8.839   9.535  67.886  1.00  0.00    -0.119 C  
BRANCH  11  12
HETATM   12  C   UNL     1     -10.345   9.371  67.988  1.00  0.00    -0.267 C  
BRANCH  12  13
HETATM   13  C   UNL     1     -11.080  10.526  67.317  1.00  0.00    -0.284 C  
BRANCH  13  14
HETATM   14  C   UNL     1     -11.522  11.592  68.319  1.00  0.00    -0.369 C  
BRANCH  14  15
HETATM   15  C   UNL     1     -10.627  12.834  68.373  1.00  0.00    -0.262 C  
BRANCH  15  16
HETATM   16  C   UNL     1     -11.401  14.141  68.176  1.00  0.00    -0.290 C  
BRANCH  16  17
HETATM   17  N   UNL     1     -10.625  15.205  67.380  1.00  0.00    -0.266 N  
HETATM   18  C   UNL     1     -10.724  16.566  68.059  1.00  0.00    -0.343 C  
HETATM   19  C   UNL     1      -9.155  14.809  67.254  1.00  0.00    -0.204 C  
BRANCH  17  20
HETATM   20  C   UNL     1     -11.266  15.270  65.949  1.00  0.00    -0.237 C  
BRANCH  20  21
HETATM   21  C   UNL     1     -11.393  13.932  65.262  1.00  0.00    -0.316 A  
HETATM   22  C   UNL     1     -10.294  13.367  64.595  1.00  0.00    -0.400 A  
HETATM   23  C   UNL     1     -10.475  12.281  63.738  1.00  0.00    -0.476 A  
HETATM   24  C   UNL     1     -11.744  11.731  63.570  1.00  0.00    -0.485 A  
HETATM   25  C   UNL     1     -12.821  12.225  64.299  1.00  0.00    -0.336 A  
HETATM   26  C   UNL     1     -12.643  13.305  65.162  1.00  0.00    -0.512 A  
ENDBRANCH  20  21
ENDBRANCH  17  20
ENDBRANCH  16  17
ENDBRANCH  15  16
ENDBRANCH  14  15
ENDBRANCH  13  14
ENDBRANCH  12  13
ENDBRANCH  11  12
ENDBRANCH  10  11
ENDBRANCH   9  10
ENDBRANCH   8   9
ENDBRANCH   7   8
ENDBRANCH   6   7
ENDBRANCH   5   6
ENDBRANCH   4   5
ENDBRANCH   3   4
ENDBRANCH   2   3
TORSDOF 17
ENDMDL
MODEL      141
REMARK 921   NORMALIZED FREE ENERGY PREDICTED BY IDOCK:   -3.73 KCAL/MOL
REMARK 922        TOTAL FREE ENERGY PREDICTED BY IDOCK:  -10.28 KCAL/MOL
REMARK 923 INTER-LIGAND FREE ENERGY PREDICTED BY IDOCK:   -7.58 KCAL/MOL
REMARK 924 INTRA-LIGAND FREE ENERGY PREDICTED BY IDOCK:   -2.70 KCAL/MOL
REMARK 927      BINDING AFFINITY PREDICTED BY RF-SCORE:    0.00 PKD
ROOT
HETATM    1  C   UNL     1      -9.487   5.787  66.256  1.00  0.00    -0.166 C  
HETATM    2  C   UNL     1      -9.852   7.095  66.936  1.00  0.00    -0.271 C  
ENDROOT
BRANCH   2   3
HETATM    3  C   UNL     1      -9.279   7.157  68.350  1.00  0.00    -0.133 C  
BRANCH   3   4
HETATM    4  C   UNL     1      -9.891   6.074  69.235  1.00  0.00    -0.191 C  
BRANCH   4   5
HETATM    5  C   UNL     1     -11.321   6.438  69.613  1.00  0.00    -0.479 C  
BRANCH   5   6
HETATM    6  C   UNL     1     -11.553   6.242  71.105  1.00  0.00    -0.339 C  
BRANCH   6   7
HETATM    7  C   UNL     1     -10.291   6.586  71.886  1.00  0.00    -0.223 C  
BRANCH   7   8
HETATM    8  C   UNL     1     -10.388   7.991  72.462  1.00  0.00    -0.374 C  
BRANCH   8   9
HETATM    9  C   UNL     1      -9.290   8.875  71.884  1.00  0.00    -0.275 C  
BRANCH   9  10
HETATM   10  C   UNL     1      -9.826   9.675  70.707  1.00  0.00    -0.224 C  
BRANCH  10  11
HETATM   11  C   UNL     1     -11.326   9.879  70.832  1.00  0.00    -0.446 C  
BRANCH  11  12
HETATM   12  C   UNL     1     -11.912  10.237  69.477  1.00  0.00    -0.087 C  
BRANCH  12  13
HETATM   13  C   UNL     1     -10.821  10.421  68.429  1.00  0.00    -0.289 C  
BRANCH  13  14
HETATM   14  C   UNL     1     -11.254  11.357  67.300  1.00  0.00    -0.370 C  
BRANCH  14  15
HETATM   15  C   UNL     1     -10.292  12.516  67.022  1.00  0.00    -0.236 C  
BRANCH  15  16
HETATM   16  C   UNL     1     -11.005  13.859  66.846  1.00  0.00    -0.295 C  
BRANCH  16  17
HETATM   17  N   UNL     1     -10.369  15.007  67.650  1.00  0.00    -0.241 N  
HETATM   18  C   UNL     1      -9.084  15.484  66.985  1.00  0.00    -0.230 C  
HETATM   19  C   UNL     1     -11.343  16.178  67.767  1.00  0.00    -0.126 C  
BRANCH  17  20
HETATM   20  C   UNL     1     -10.058  14.450  69.084  1.00  0.00    -0.098 C  
BRANCH  20  21
HETATM   21  C   UNL     1     -11.181  14.623  70.077  1.00  0.00    -0.252 A  
HETATM   22  C   UNL     1     -11.188  15.714  70.960  1.00  0.00    -0.411 A  
HETATM   23  C   UNL     1     -12.062  15.732  72.048  1.00  0.00    -0.562 A  
HETATM   24  C   UNL     1     -12.956  14.681  72.239  1.00  0.00    -0.436 A  
HETATM   25  C   UNL     1     -13.021  13.642  71.315  1.00  0.00    -0.399 A  
HETATM   26  C   UNL     1     -12.155  13.625  70.223  1.00  0.00    -0.427 A  
ENDBRANCH  20  21
ENDBRANCH  17  20
ENDBRANCH  16  17
ENDBRANCH  15  16
ENDBRANCH  14  15
ENDBRANCH  13  14
ENDBRANCH  12  13
ENDBRANCH  11  12
ENDBRANCH  10  11
ENDBRANCH   9  10
ENDBRANCH   8   9
ENDBRANCH   7   8
ENDBRANCH   6   7
ENDBRANCH   5   6
ENDBRANCH   4   5
ENDBRANCH   3   4
ENDBRANCH   2   3
TORSDOF 17
ENDMDL
MODEL      142
REMARK 921   NORMALIZED FREE ENERGY PREDICTED BY IDOCK:   -3.73 KCAL/MOL
REMARK 922        TOTAL FREE ENERGY PREDICTED BY IDOCK:  -10.28 KCAL/MOL
REMARK 923 INTER-LIGAND FREE ENERGY PREDICTED BY IDOCK:   -8.11 KCAL/MOL
REMARK 924 INTRA-LIGAND FREE ENERGY PREDICTED BY IDOCK:   -2.17 KCAL/MOL
REMARK 927      BINDING AFFINITY PREDICTED BY RF-SCORE:    0.00 PKD
ROOT
HETATM    1  C   UNL     1      -6.700  16.691  69.104  1.00  0.00    -0.217 C  
HETATM    2  C   UNL     1      -7.475  15.626  68.348  1.00  0.00    -0.120 C  
ENDROOT
BRANCH   2   3
HETATM    3  C   UNL     1      -7.758  16.069  66.915  1.00  0.00    -0.279 C  
BRANCH   3   4
HETATM    4  C   UNL     1      -9.238  15.909  66.576  1.00  0.00    -0.310 C  
BRANCH   4   5
HETATM    5  C   UNL     1     -10.035  17.103  67.084  1.00  0.00    -0.283 C  
BRANCH   5   6
HETATM    6  C   UNL     1     -11.060  16.667  68.122  1.00  0.00    -0.285 C  
BRANCH   6   7
HETATM    7  C   UNL     1     -11.353  15.180  67.983  1.00  0.00    -0.346 C  
BRANCH   7   8
HETATM    8  C   UNL     1     -11.831  14.605  69.308  1.00  0.00    -0.357 C  
BRANCH   8   9
HETATM    9  C   UNL     1     -11.152  15.320  70.469  1.00  0.00    -0.335 C  
BRANCH   9  10
HETATM   10  C   UNL     1     -12.007  15.213  71.722  1.00  0.00    -0.448 C  
BRANCH  10  11
HETATM   11  C   UNL     1     -13.289  14.450  71.437  1.00  0.00    -0.420 C  
BRANCH  11  12
HETATM   12  C   UNL     1     -13.338  13.190  72.284  1.00  0.00    -0.621 C  
BRANCH  12  13
HETATM   13  C   UNL     1     -12.731  12.000  71.551  1.00  0.00    -0.360 C  
BRANCH  13  14
HETATM   14  C   UNL     1     -13.381  10.677  71.955  1.00  0.00    -0.454 C  
BRANCH  14  15
HETATM   15  C   UNL     1     -12.705   9.428  71.381  1.00  0.00    -0.425 C  
BRANCH  15  16
HETATM   16  C   UNL     1     -11.176   9.511  71.398  1.00  0.00    -0.382 C  
BRANCH  16  17
HETATM   17  N   UNL     1     -10.529   9.258  70.024  1.00  0.00    -0.213 N  
HETATM   18  C   UNL     1      -9.046   9.608  70.055  1.00  0.00    -0.237 C  
HETATM   19  C   UNL     1     -10.695   7.794  69.619  1.00  0.00    -0.223 C  
BRANCH  17  20
HETATM   20  C   UNL     1     -11.275  10.168  68.987  1.00  0.00    -0.173 C  
BRANCH  20  21
HETATM   21  C   UNL     1     -10.468  10.504  67.757  1.00  0.00    -0.263 A  
HETATM   22  C   UNL     1      -9.941  11.794  67.582  1.00  0.00    -0.204 A  
HETATM   23  C   UNL     1      -9.436  12.183  66.341  1.00  0.00    -0.238 A  
HETATM   24  C   UNL     1      -9.422  11.280  65.280  1.00  0.00    -0.248 A  
HETATM   25  C   UNL     1      -9.855   9.972  65.472  1.00  0.00    -0.373 A  
HETATM   26  C   UNL     1     -10.352   9.576  66.712  1.00  0.00    -0.298 A  
ENDBRANCH  20  21
ENDBRANCH  17  20
ENDBRANCH  16  17
ENDBRANCH  15  16
ENDBRANCH  14  15
ENDBRANCH  13  14
ENDBRANCH  12  13
ENDBRANCH  11  12
ENDBRANCH  10  11
ENDBRANCH   9  10
ENDBRANCH   8   9
ENDBRANCH   7   8
ENDBRANCH   6   7
ENDBRANCH   5   6
ENDBRANCH   4   5
ENDBRANCH   3   4
ENDBRANCH   2   3
TORSDOF 17
ENDMDL
MODEL      143
REMARK 921   NORMALIZED FREE ENERGY PREDICTED BY IDOCK:   -3.72 KCAL/MOL
REMARK 922        TOTAL FREE ENERGY PREDICTED BY IDOCK:  -10.26 KCAL/MOL
REMARK 923 INTER-LIGAND FREE ENERGY PREDICTED BY IDOCK:   -7.95 KCAL/MOL
REMARK 924 INTRA-LIGAND FREE ENERGY PREDICTED BY IDOCK:   -2.31 KCAL/MOL
REMARK 927      BINDING AFFINITY PREDICTED BY RF-SCORE:    0.00 PKD
ROOT
HETATM    1  C   UNL     1      -9.399   8.461  72.338  1.00  0.00    -0.356 C  
HETATM    2  C   UNL     1     -10.759   8.898  71.821  1.00  0.00    -0.432 C  
ENDROOT
BRANCH   2   3
HETATM    3  C   UNL     1     -11.186   8.055  70.622  1.00  0.00    -0.266 C  
BRANCH   3   4
HETATM    4  C   UNL     1     -11.954   6.815  71.072  1.00  0.00    -0.431 C  
BRANCH   4   5
HETATM    5  C   UNL     1     -11.028   5.607  71.134  1.00  0.00    -0.248 C  
BRANCH   5   6
HETATM    6  C   UNL     1     -10.100   5.574  69.927  1.00  0.00    -0.305 C  
BRANCH   6   7
HETATM    7  C   UNL     1      -9.682   4.142  69.620  1.00  0.00    -0.269 C  
BRANCH   7   8
HETATM    8  C   UNL     1      -9.332   3.993  68.148  1.00  0.00    -0.218 C  
BRANCH   8   9
HETATM    9  C   UNL     1     -10.130   4.987  67.312  1.00  0.00    -0.226 C  
BRANCH   9  10
HETATM   10  C   UNL     1      -9.223   5.667  66.299  1.00  0.00    -0.165 C  
BRANCH  10  11
HETATM   11  C   UNL     1      -9.204   7.171  66.515  1.00  0.00    -0.199 C  
BRANCH  11  12
HETATM   12  C   UNL     1     -10.570   7.640  66.986  1.00  0.00    -0.406 C  
BRANCH  12  13
HETATM   13  C   UNL     1     -10.615   9.155  67.144  1.00  0.00    -0.286 C  
BRANCH  13  14
HETATM   14  C   UNL     1      -9.219   9.774  67.212  1.00  0.00    -0.153 C  
BRANCH  14  15
HETATM   15  C   UNL     1      -9.051  11.071  66.415  1.00  0.00    -0.191 C  
BRANCH  15  16
HETATM   16  C   UNL     1     -10.344  11.528  65.733  1.00  0.00    -0.248 C  
BRANCH  16  17
HETATM   17  N   UNL     1     -10.643  13.027  65.916  1.00  0.00    -0.271 N  
HETATM   18  C   UNL     1      -9.563  13.693  66.760  1.00  0.00    -0.275 C  
HETATM   19  C   UNL     1     -10.726  13.723  64.558  1.00  0.00    -0.390 C  
BRANCH  17  20
HETATM   20  C   UNL     1     -12.033  13.136  66.636  1.00  0.00    -0.389 C  
BRANCH  20  21
HETATM   21  C   UNL     1     -11.956  13.129  68.143  1.00  0.00    -0.333 A  
HETATM   22  C   UNL     1     -11.821  11.919  68.844  1.00  0.00    -0.366 A  
HETATM   23  C   UNL     1     -12.023  11.879  70.223  1.00  0.00    -0.416 A  
HETATM   24  C   UNL     1     -12.326  13.050  70.916  1.00  0.00    -0.376 A  
HETATM   25  C   UNL     1     -12.368  14.268  70.244  1.00  0.00    -0.418 A  
HETATM   26  C   UNL     1     -12.159  14.313  68.867  1.00  0.00    -0.314 A  
ENDBRANCH  20  21
ENDBRANCH  17  20
ENDBRANCH  16  17
ENDBRANCH  15  16
ENDBRANCH  14  15
ENDBRANCH  13  14
ENDBRANCH  12  13
ENDBRANCH  11  12
ENDBRANCH  10  11
ENDBRANCH   9  10
ENDBRANCH   8   9
ENDBRANCH   7   8
ENDBRANCH   6   7
ENDBRANCH   5   6
ENDBRANCH   4   5
ENDBRANCH   3   4
ENDBRANCH   2   3
TORSDOF 17
ENDMDL
MODEL      144
REMARK 921   NORMALIZED FREE ENERGY PREDICTED BY IDOCK:   -3.72 KCAL/MOL
REMARK 922        TOTAL FREE ENERGY PREDICTED BY IDOCK:  -10.26 KCAL/MOL
REMARK 923 INTER-LIGAND FREE ENERGY PREDICTED BY IDOCK:   -8.86 KCAL/MOL
REMARK 924 INTRA-LIGAND FREE ENERGY PREDICTED BY IDOCK:   -1.40 KCAL/MOL
REMARK 927      BINDING AFFINITY PREDICTED BY RF-SCORE:    0.00 PKD
ROOT
HETATM    1  C   UNL     1      -9.562   3.468  67.516  1.00  0.00    -0.177 C  
HETATM    2  C   UNL     1      -9.245   4.929  67.246  1.00  0.00    -0.133 C  
ENDROOT
BRANCH   2   3
HETATM    3  C   UNL     1     -10.455   5.652  66.659  1.00  0.00    -0.340 C  
BRANCH   3   4
HETATM    4  C   UNL     1     -11.119   6.543  67.705  1.00  0.00    -0.380 C  
BRANCH   4   5
HETATM    5  C   UNL     1     -10.068   7.298  68.509  1.00  0.00    -0.182 C  
BRANCH   5   6
HETATM    6  C   UNL     1     -10.318   7.144  70.004  1.00  0.00    -0.219 C  
BRANCH   6   7
HETATM    7  C   UNL     1     -11.592   6.347  70.248  1.00  0.00    -0.451 C  
BRANCH   7   8
HETATM    8  C   UNL     1     -12.341   6.895  71.452  1.00  0.00    -0.421 C  
BRANCH   8   9
HETATM    9  C   UNL     1     -11.657   8.153  71.973  1.00  0.00    -0.389 C  
BRANCH   9  10
HETATM   10  C   UNL     1     -12.648   9.304  72.028  1.00  0.00    -0.465 C  
BRANCH  10  11
HETATM   11  C   UNL     1     -12.146  10.488  71.220  1.00  0.00    -0.432 C  
BRANCH  11  12
HETATM   12  C   UNL     1     -12.701  10.420  69.807  1.00  0.00     0.134 C  
BRANCH  12  13
HETATM   13  C   UNL     1     -11.781  11.116  68.812  1.00  0.00    -0.394 C  
BRANCH  13  14
HETATM   14  C   UNL     1     -11.659  12.616  69.085  1.00  0.00    -0.374 C  
BRANCH  14  15
HETATM   15  C   UNL     1     -11.829  13.509  67.853  1.00  0.00    -0.397 C  
BRANCH  15  16
HETATM   16  C   UNL     1     -10.542  13.659  67.038  1.00  0.00    -0.274 C  
BRANCH  16  17
HETATM   17  N   UNL     1     -10.268  15.101  66.573  1.00  0.00    -0.268 N  
HETATM   18  C   UNL     1      -8.772  15.393  66.571  1.00  0.00    -0.300 C  
HETATM   19  C   UNL     1     -10.829  15.322  65.169  1.00  0.00    -0.426 C  
BRANCH  17  20
HETATM   20  C   UNL     1     -11.002  16.057  67.578  1.00  0.00    -0.261 C  
BRANCH  20  21
HETATM   21  C   UNL     1     -10.469  17.469  67.597  1.00  0.00    -0.370 A  
HETATM   22  C   UNL     1      -9.926  18.009  68.774  1.00  0.00    -0.380 A  
HETATM   23  C   UNL     1      -9.688  19.380  68.873  1.00  0.00    -0.502 A  
HETATM   24  C   UNL     1      -9.957  20.213  67.789  1.00  0.00    -0.549 A  
HETATM   25  C   UNL     1     -10.406  19.673  66.588  1.00  0.00    -0.598 A  
HETATM   26  C   UNL     1     -10.637  18.303  66.482  1.00  0.00    -0.313 A  
ENDBRANCH  20  21
ENDBRANCH  17  20
ENDBRANCH  16  17
ENDBRANCH  15  16
ENDBRANCH  14  15
ENDBRANCH  13  14
ENDBRANCH  12  13
ENDBRANCH  11  12
ENDBRANCH  10  11
ENDBRANCH   9  10
ENDBRANCH   8   9
ENDBRANCH   7   8
ENDBRANCH   6   7
ENDBRANCH   5   6
ENDBRANCH   4   5
ENDBRANCH   3   4
ENDBRANCH   2   3
TORSDOF 17
ENDMDL
MODEL      145
REMARK 921   NORMALIZED FREE ENERGY PREDICTED BY IDOCK:   -3.71 KCAL/MOL
REMARK 922        TOTAL FREE ENERGY PREDICTED BY IDOCK:  -10.24 KCAL/MOL
REMARK 923 INTER-LIGAND FREE ENERGY PREDICTED BY IDOCK:   -8.38 KCAL/MOL
REMARK 924 INTRA-LIGAND FREE ENERGY PREDICTED BY IDOCK:   -1.87 KCAL/MOL
REMARK 927      BINDING AFFINITY PREDICTED BY RF-SCORE:    0.00 PKD
ROOT
HETATM    1  C   UNL     1      -9.687  19.443  68.524  1.00  0.00    -0.497 C  
HETATM    2  C   UNL     1     -10.577  19.760  67.335  1.00  0.00    -0.553 C  
ENDROOT
BRANCH   2   3
HETATM    3  C   UNL     1     -10.356  18.761  66.203  1.00  0.00    -0.494 C  
BRANCH   3   4
HETATM    4  C   UNL     1      -9.269  17.754  66.568  1.00  0.00    -0.280 C  
BRANCH   4   5
HETATM    5  C   UNL     1      -9.727  16.335  66.252  1.00  0.00    -0.329 C  
BRANCH   5   6
HETATM    6  C   UNL     1      -9.775  15.488  67.517  1.00  0.00    -0.215 C  
BRANCH   6   7
HETATM    7  C   UNL     1     -11.007  15.838  68.341  1.00  0.00    -0.323 C  
BRANCH   7   8
HETATM    8  C   UNL     1     -12.015  14.700  68.302  1.00  0.00    -0.282 C  
BRANCH   8   9
HETATM    9  C   UNL     1     -11.680  13.662  69.366  1.00  0.00    -0.379 C  
BRANCH   9  10
HETATM   10  C   UNL     1     -12.015  12.267  68.861  1.00  0.00    -0.300 C  
BRANCH  10  11
HETATM   11  C   UNL     1     -11.182  11.921  67.639  1.00  0.00    -0.340 C  
BRANCH  11  12
HETATM   12  C   UNL     1      -9.734  11.710  68.046  1.00  0.00    -0.182 C  
BRANCH  12  13
HETATM   13  C   UNL     1      -9.279  10.281  67.773  1.00  0.00    -0.149 C  
BRANCH  13  14
HETATM   14  C   UNL     1     -10.456   9.328  67.566  1.00  0.00    -0.338 C  
BRANCH  14  15
HETATM   15  C   UNL     1     -10.180   7.872  67.952  1.00  0.00    -0.263 C  
BRANCH  15  16
HETATM   16  C   UNL     1      -9.334   7.738  69.222  1.00  0.00    -0.148 C  
BRANCH  16  17
HETATM   17  N   UNL     1      -9.695   6.512  70.079  1.00  0.00    -0.165 N  
HETATM   18  C   UNL     1     -10.770   5.674  69.397  1.00  0.00    -0.295 C  
HETATM   19  C   UNL     1      -8.458   5.648  70.321  1.00  0.00    -0.123 C  
BRANCH  17  20
HETATM   20  C   UNL     1     -10.224   7.050  71.455  1.00  0.00    -0.196 C  
BRANCH  20  21
HETATM   21  C   UNL     1     -11.513   7.829  71.365  1.00  0.00    -0.289 A  
HETATM   22  C   UNL     1     -11.496   9.233  71.322  1.00  0.00    -0.418 A  
HETATM   23  C   UNL     1     -12.673   9.956  71.514  1.00  0.00    -0.515 A  
HETATM   24  C   UNL     1     -13.878   9.285  71.713  1.00  0.00    -0.391 A  
HETATM   25  C   UNL     1     -13.920   7.895  71.662  1.00  0.00    -0.482 A  
HETATM   26  C   UNL     1     -12.747   7.169  71.462  1.00  0.00    -0.433 A  
ENDBRANCH  20  21
ENDBRANCH  17  20
ENDBRANCH  16  17
ENDBRANCH  15  16
ENDBRANCH  14  15
ENDBRANCH  13  14
ENDBRANCH  12  13
ENDBRANCH  11  12
ENDBRANCH  10  11
ENDBRANCH   9  10
ENDBRANCH   8   9
ENDBRANCH   7   8
ENDBRANCH   6   7
ENDBRANCH   5   6
ENDBRANCH   4   5
ENDBRANCH   3   4
ENDBRANCH   2   3
TORSDOF 17
ENDMDL
MODEL      146
REMARK 921   NORMALIZED FREE ENERGY PREDICTED BY IDOCK:   -3.70 KCAL/MOL
REMARK 922        TOTAL FREE ENERGY PREDICTED BY IDOCK:  -10.22 KCAL/MOL
REMARK 923 INTER-LIGAND FREE ENERGY PREDICTED BY IDOCK:   -7.87 KCAL/MOL
REMARK 924 INTRA-LIGAND FREE ENERGY PREDICTED BY IDOCK:   -2.35 KCAL/MOL
REMARK 927      BINDING AFFINITY PREDICTED BY RF-SCORE:    0.00 PKD
ROOT
HETATM    1  C   UNL     1      -9.021  10.355  65.048  1.00  0.00    -0.221 C  
HETATM    2  C   UNL     1      -7.650  10.054  65.628  1.00  0.00    -0.137 C  
ENDROOT
BRANCH   2   3
HETATM    3  C   UNL     1      -7.168  11.197  66.517  1.00  0.00    -0.124 C  
BRANCH   3   4
HETATM    4  C   UNL     1      -8.320  11.776  67.334  1.00  0.00    -0.159 C  
BRANCH   4   5
HETATM    5  C   UNL     1      -8.428  13.280  67.114  1.00  0.00    -0.182 C  
BRANCH   5   6
HETATM    6  C   UNL     1      -9.641  13.615  66.256  1.00  0.00    -0.254 C  
BRANCH   6   7
HETATM    7  C   UNL     1     -10.448  14.736  66.896  1.00  0.00    -0.277 C  
BRANCH   7   8
HETATM    8  C   UNL     1     -11.683  14.177  67.587  1.00  0.00    -0.421 C  
BRANCH   8   9
HETATM    9  C   UNL     1     -11.847  12.698  67.259  1.00  0.00    -0.395 C  
BRANCH   9  10
HETATM   10  C   UNL     1     -11.811  11.872  68.535  1.00  0.00    -0.357 C  
BRANCH  10  11
HETATM   11  C   UNL     1     -11.892  12.767  69.760  1.00  0.00    -0.380 C  
BRANCH  11  12
HETATM   12  C   UNL     1     -12.428  11.975  70.941  1.00  0.00    -0.384 C  
BRANCH  12  13
HETATM   13  C   UNL     1     -12.011  10.511  70.867  1.00  0.00    -0.481 C  
BRANCH  13  14
HETATM   14  C   UNL     1     -13.148   9.564  71.248  1.00  0.00    -0.402 C  
BRANCH  14  15
HETATM   15  C   UNL     1     -12.764   8.464  72.241  1.00  0.00    -0.376 C  
BRANCH  15  16
HETATM   16  C   UNL     1     -12.279   7.181  71.559  1.00  0.00    -0.360 C  
BRANCH  16  17
HETATM   17  N   UNL     1     -11.043   6.554  72.229  1.00  0.00    -0.251 N  
HETATM   18  C   UNL     1     -10.464   7.493  73.280  1.00  0.00    -0.371 C  
HETATM   19  C   UNL     1     -11.412   5.225  72.887  1.00  0.00    -0.270 C  
BRANCH  17  20
HETATM   20  C   UNL     1      -9.987   6.293  71.098  1.00  0.00    -0.181 C  
BRANCH  20  21
HETATM   21  C   UNL     1     -10.364   6.859  69.751  1.00  0.00    -0.224 A  
HETATM   22  C   UNL     1     -10.927   6.033  68.764  1.00  0.00    -0.384 A  
HETATM   23  C   UNL     1     -11.021   6.479  67.445  1.00  0.00    -0.458 A  
HETATM   24  C   UNL     1     -10.589   7.761  67.112  1.00  0.00    -0.401 A  
HETATM   25  C   UNL     1     -10.119   8.619  68.101  1.00  0.00    -0.236 A  
HETATM   26  C   UNL     1     -10.031   8.180  69.421  1.00  0.00    -0.188 A  
ENDBRANCH  20  21
ENDBRANCH  17  20
ENDBRANCH  16  17
ENDBRANCH  15  16
ENDBRANCH  14  15
ENDBRANCH  13  14
ENDBRANCH  12  13
ENDBRANCH  11  12
ENDBRANCH  10  11
ENDBRANCH   9  10
ENDBRANCH   8   9
ENDBRANCH   7   8
ENDBRANCH   6   7
ENDBRANCH   5   6
ENDBRANCH   4   5
ENDBRANCH   3   4
ENDBRANCH   2   3
TORSDOF 17
ENDMDL
MODEL      147
REMARK 921   NORMALIZED FREE ENERGY PREDICTED BY IDOCK:   -3.70 KCAL/MOL
REMARK 922        TOTAL FREE ENERGY PREDICTED BY IDOCK:  -10.22 KCAL/MOL
REMARK 923 INTER-LIGAND FREE ENERGY PREDICTED BY IDOCK:   -8.65 KCAL/MOL
REMARK 924 INTRA-LIGAND FREE ENERGY PREDICTED BY IDOCK:   -1.57 KCAL/MOL
REMARK 927      BINDING AFFINITY PREDICTED BY RF-SCORE:    0.00 PKD
ROOT
HETATM    1  C   UNL     1     -10.528  19.475  66.360  1.00  0.00    -0.597 C  
HETATM    2  C   UNL     1     -10.774  18.597  67.575  1.00  0.00    -0.447 C  
ENDROOT
BRANCH   2   3
HETATM    3  C   UNL     1      -9.889  17.354  67.541  1.00  0.00    -0.277 C  
BRANCH   3   4
HETATM    4  C   UNL     1     -10.127  16.549  66.266  1.00  0.00    -0.347 C  
BRANCH   4   5
HETATM    5  C   UNL     1      -9.719  15.096  66.468  1.00  0.00    -0.290 C  
BRANCH   5   6
HETATM    6  C   UNL     1     -10.822  14.317  67.173  1.00  0.00    -0.296 C  
BRANCH   6   7
HETATM    7  C   UNL     1     -12.122  14.412  66.386  1.00  0.00    -0.390 C  
BRANCH   7   8
HETATM    8  C   UNL     1     -12.334  13.157  65.555  1.00  0.00    -0.529 C  
BRANCH   8   9
HETATM    9  C   UNL     1     -12.276  13.491  64.069  1.00  0.00    -0.458 C  
BRANCH   9  10
HETATM   10  C   UNL     1     -11.813  12.279  63.277  1.00  0.00    -0.476 C  
BRANCH  10  11
HETATM   11  C   UNL     1     -10.313  12.087  63.411  1.00  0.00    -0.468 C  
BRANCH  11  12
HETATM   12  C   UNL     1     -10.001  10.622  63.664  1.00  0.00    -0.364 C  
BRANCH  12  13
HETATM   13  C   UNL     1      -9.869  10.328  65.154  1.00  0.00    -0.389 C  
BRANCH  13  14
HETATM   14  C   UNL     1      -9.055  11.396  65.885  1.00  0.00    -0.209 C  
BRANCH  14  15
HETATM   15  C   UNL     1      -8.731  11.068  67.346  1.00  0.00    -0.132 C  
BRANCH  15  16
HETATM   16  C   UNL     1      -9.977  10.786  68.189  1.00  0.00    -0.160 C  
BRANCH  16  17
HETATM   17  N   UNL     1      -9.867   9.514  69.050  1.00  0.00    -0.170 N  
HETATM   18  C   UNL     1      -9.686   8.282  68.171  1.00  0.00    -0.158 C  
HETATM   19  C   UNL     1      -8.687   9.625  70.014  1.00  0.00    -0.231 C  
BRANCH  17  20
HETATM   20  C   UNL     1     -11.197   9.397  69.874  1.00  0.00    -0.155 C  
BRANCH  20  21
HETATM   21  C   UNL     1     -11.205   8.282  70.890  1.00  0.00    -0.292 A  
HETATM   22  C   UNL     1     -10.998   8.557  72.251  1.00  0.00    -0.426 A  
HETATM   23  C   UNL     1     -10.735   7.519  73.145  1.00  0.00    -0.452 A  
HETATM   24  C   UNL     1     -10.710   6.201  72.694  1.00  0.00    -0.261 A  
HETATM   25  C   UNL     1     -11.008   5.912  71.366  1.00  0.00    -0.327 A  
HETATM   26  C   UNL     1     -11.280   6.945  70.471  1.00  0.00    -0.353 A  
ENDBRANCH  20  21
ENDBRANCH  17  20
ENDBRANCH  16  17
ENDBRANCH  15  16
ENDBRANCH  14  15
ENDBRANCH  13  14
ENDBRANCH  12  13
ENDBRANCH  11  12
ENDBRANCH  10  11
ENDBRANCH   9  10
ENDBRANCH   8   9
ENDBRANCH   7   8
ENDBRANCH   6   7
ENDBRANCH   5   6
ENDBRANCH   4   5
ENDBRANCH   3   4
ENDBRANCH   2   3
TORSDOF 17
ENDMDL
MODEL      148
REMARK 921   NORMALIZED FREE ENERGY PREDICTED BY IDOCK:   -3.69 KCAL/MOL
REMARK 922        TOTAL FREE ENERGY PREDICTED BY IDOCK:  -10.19 KCAL/MOL
REMARK 923 INTER-LIGAND FREE ENERGY PREDICTED BY IDOCK:   -8.94 KCAL/MOL
REMARK 924 INTRA-LIGAND FREE ENERGY PREDICTED BY IDOCK:   -1.26 KCAL/MOL
REMARK 927      BINDING AFFINITY PREDICTED BY RF-SCORE:    0.00 PKD
ROOT
HETATM    1  C   UNL     1     -10.217  18.886  68.363  1.00  0.00    -0.433 C  
HETATM    2  C   UNL     1     -10.215  19.621  67.033  1.00  0.00    -0.559 C  
ENDROOT
BRANCH   2   3
HETATM    3  C   UNL     1     -10.655  18.701  65.898  1.00  0.00    -0.365 C  
BRANCH   3   4
HETATM    4  C   UNL     1     -10.300  17.248  66.203  1.00  0.00    -0.320 C  
BRANCH   4   5
HETATM    5  C   UNL     1     -10.809  16.331  65.099  1.00  0.00    -0.333 C  
BRANCH   5   6
HETATM    6  C   UNL     1     -11.130  14.948  65.650  1.00  0.00    -0.348 C  
BRANCH   6   7
HETATM    7  C   UNL     1     -10.504  13.871  64.774  1.00  0.00    -0.451 C  
BRANCH   7   8
HETATM    8  C   UNL     1     -10.007  12.713  65.626  1.00  0.00    -0.253 C  
BRANCH   8   9
HETATM    9  C   UNL     1     -11.116  12.221  66.548  1.00  0.00    -0.343 C  
BRANCH   9  10
HETATM   10  C   UNL     1     -10.858  10.780  66.956  1.00  0.00    -0.311 C  
BRANCH  10  11
HETATM   11  C   UNL     1      -9.658  10.216  66.215  1.00  0.00    -0.245 C  
BRANCH  11  12
HETATM   12  C   UNL     1      -9.498   8.741  66.540  1.00  0.00    -0.281 C  
BRANCH  12  13
HETATM   13  C   UNL     1     -10.534   8.278  67.558  1.00  0.00    -0.325 C  
BRANCH  13  14
HETATM   14  C   UNL     1     -10.992   6.841  67.308  1.00  0.00    -0.433 C  
BRANCH  14  15
HETATM   15  C   UNL     1     -10.614   5.845  68.408  1.00  0.00    -0.314 C  
BRANCH  15  16
HETATM   16  C   UNL     1     -11.090   6.278  69.798  1.00  0.00    -0.406 C  
BRANCH  16  17
HETATM   17  N   UNL     1     -10.027   6.104  70.898  1.00  0.00    -0.182 N  
HETATM   18  C   UNL     1      -9.842   4.630  71.240  1.00  0.00    -0.190 C  
HETATM   19  C   UNL     1      -8.691   6.689  70.444  1.00  0.00    -0.151 C  
BRANCH  17  20
HETATM   20  C   UNL     1     -10.533   6.890  72.158  1.00  0.00    -0.206 C  
BRANCH  20  21
HETATM   21  C   UNL     1     -11.254   8.177  71.842  1.00  0.00    -0.351 A  
HETATM   22  C   UNL     1     -12.637   8.291  72.059  1.00  0.00    -0.387 A  
HETATM   23  C   UNL     1     -13.347   9.364  71.521  1.00  0.00    -0.458 A  
HETATM   24  C   UNL     1     -12.677  10.347  70.795  1.00  0.00    -0.460 A  
HETATM   25  C   UNL     1     -11.294  10.292  70.655  1.00  0.00    -0.431 A  
HETATM   26  C   UNL     1     -10.580   9.225  71.198  1.00  0.00    -0.402 A  
ENDBRANCH  20  21
ENDBRANCH  17  20
ENDBRANCH  16  17
ENDBRANCH  15  16
ENDBRANCH  14  15
ENDBRANCH  13  14
ENDBRANCH  12  13
ENDBRANCH  11  12
ENDBRANCH  10  11
ENDBRANCH   9  10
ENDBRANCH   8   9
ENDBRANCH   7   8
ENDBRANCH   6   7
ENDBRANCH   5   6
ENDBRANCH   4   5
ENDBRANCH   3   4
ENDBRANCH   2   3
TORSDOF 17
ENDMDL
MODEL      149
REMARK 921   NORMALIZED FREE ENERGY PREDICTED BY IDOCK:   -3.69 KCAL/MOL
REMARK 922        TOTAL FREE ENERGY PREDICTED BY IDOCK:  -10.19 KCAL/MOL
REMARK 923 INTER-LIGAND FREE ENERGY PREDICTED BY IDOCK:   -8.02 KCAL/MOL
REMARK 924 INTRA-LIGAND FREE ENERGY PREDICTED BY IDOCK:   -2.17 KCAL/MOL
REMARK 927      BINDING AFFINITY PREDICTED BY RF-SCORE:    0.00 PKD
ROOT
HETATM    1  C   UNL     1     -13.335   9.672  71.453  1.00  0.00    -0.444 C  
HETATM    2  C   UNL     1     -11.853   9.388  71.277  1.00  0.00    -0.435 C  
ENDROOT
BRANCH   2   3
HETATM    3  C   UNL     1     -11.528   7.938  71.628  1.00  0.00    -0.304 C  
BRANCH   3   4
HETATM    4  C   UNL     1     -10.592   7.864  72.831  1.00  0.00    -0.434 C  
BRANCH   4   5
HETATM    5  C   UNL     1      -9.188   7.471  72.393  1.00  0.00    -0.188 C  
BRANCH   5   6
HETATM    6  C   UNL     1      -9.210   6.837  71.008  1.00  0.00    -0.156 C  
BRANCH   6   7
HETATM    7  C   UNL     1      -8.901   5.349  71.103  1.00  0.00    -0.146 C  
BRANCH   7   8
HETATM    8  C   UNL     1      -9.691   4.573  70.061  1.00  0.00    -0.283 C  
BRANCH   8   9
HETATM    9  C   UNL     1     -10.530   5.524  69.217  1.00  0.00    -0.336 C  
BRANCH   9  10
HETATM   10  C   UNL     1     -10.219   5.330  67.741  1.00  0.00    -0.211 C  
BRANCH  10  11
HETATM   11  C   UNL     1      -9.623   6.593  67.144  1.00  0.00    -0.168 C  
BRANCH  11  12
HETATM   12  C   UNL     1     -10.605   7.743  67.287  1.00  0.00    -0.376 C  
BRANCH  12  13
HETATM   13  C   UNL     1      -9.947   8.964  67.919  1.00  0.00    -0.223 C  
BRANCH  13  14
HETATM   14  C   UNL     1     -10.679  10.261  67.574  1.00  0.00    -0.348 C  
BRANCH  14  15
HETATM   15  C   UNL     1      -9.767  11.468  67.331  1.00  0.00    -0.191 C  
BRANCH  15  16
HETATM   16  C   UNL     1     -10.285  12.398  66.230  1.00  0.00    -0.238 C  
BRANCH  16  17
HETATM   17  N   UNL     1     -10.838  13.734  66.760  1.00  0.00    -0.283 N  
HETATM   18  C   UNL     1     -10.323  14.900  65.924  1.00  0.00    -0.314 C  
HETATM   19  C   UNL     1     -12.366  13.726  66.730  1.00  0.00    -0.321 C  
BRANCH  17  20
HETATM   20  C   UNL     1     -10.352  13.879  68.244  1.00  0.00    -0.249 C  
BRANCH  20  21
HETATM   21  C   UNL     1     -11.464  14.051  69.250  1.00  0.00    -0.344 A  
HETATM   22  C   UNL     1     -11.919  15.334  69.597  1.00  0.00    -0.364 A  
HETATM   23  C   UNL     1     -12.741  15.511  70.709  1.00  0.00    -0.511 A  
HETATM   24  C   UNL     1     -13.143  14.408  71.460  1.00  0.00    -0.411 A  
HETATM   25  C   UNL     1     -12.775  13.125  71.068  1.00  0.00    -0.361 A  
HETATM   26  C   UNL     1     -11.960  12.943  69.952  1.00  0.00    -0.377 A  
ENDBRANCH  20  21
ENDBRANCH  17  20
ENDBRANCH  16  17
ENDBRANCH  15  16
ENDBRANCH  14  15
ENDBRANCH  13  14
ENDBRANCH  12  13
ENDBRANCH  11  12
ENDBRANCH  10  11
ENDBRANCH   9  10
ENDBRANCH   8   9
ENDBRANCH   7   8
ENDBRANCH   6   7
ENDBRANCH   5   6
ENDBRANCH   4   5
ENDBRANCH   3   4
ENDBRANCH   2   3
TORSDOF 17
ENDMDL
MODEL      150
REMARK 921   NORMALIZED FREE ENERGY PREDICTED BY IDOCK:   -3.68 KCAL/MOL
REMARK 922        TOTAL FREE ENERGY PREDICTED BY IDOCK:  -10.18 KCAL/MOL
REMARK 923 INTER-LIGAND FREE ENERGY PREDICTED BY IDOCK:   -8.15 KCAL/MOL
REMARK 924 INTRA-LIGAND FREE ENERGY PREDICTED BY IDOCK:   -2.04 KCAL/MOL
REMARK 927      BINDING AFFINITY PREDICTED BY RF-SCORE:    0.00 PKD
ROOT
HETATM    1  C   UNL     1      -8.581   9.458  69.525  1.00  0.00    -0.158 C  
HETATM    2  C   UNL     1      -8.348  10.096  68.166  1.00  0.00    -0.117 C  
ENDROOT
BRANCH   2   3
HETATM    3  C   UNL     1      -8.683   9.122  67.040  1.00  0.00    -0.131 C  
BRANCH   3   4
HETATM    4  C   UNL     1      -8.981   7.730  67.591  1.00  0.00    -0.128 C  
BRANCH   4   5
HETATM    5  C   UNL     1     -10.332   7.235  67.090  1.00  0.00    -0.367 C  
BRANCH   5   6
HETATM    6  C   UNL     1     -10.865   6.122  67.983  1.00  0.00    -0.398 C  
BRANCH   6   7
HETATM    7  C   UNL     1     -11.517   6.709  69.227  1.00  0.00    -0.253 C  
BRANCH   7   8
HETATM    8  C   UNL     1     -10.983   6.029  70.479  1.00  0.00    -0.388 C  
BRANCH   8   9
HETATM    9  C   UNL     1     -11.901   6.308  71.663  1.00  0.00    -0.315 C  
BRANCH   9  10
HETATM   10  C   UNL     1     -12.812   7.485  71.355  1.00  0.00    -0.381 C  
BRANCH  10  11
HETATM   11  C   UNL     1     -12.455   8.683  72.218  1.00  0.00    -0.460 C  
BRANCH  11  12
HETATM   12  C   UNL     1     -12.907   9.963  71.536  1.00  0.00    -0.522 C  
BRANCH  12  13
HETATM   13  C   UNL     1     -11.788  10.577  70.704  1.00  0.00    -0.458 C  
BRANCH  13  14
HETATM   14  C   UNL     1     -12.128  10.620  69.215  1.00  0.00    -0.206 C  
BRANCH  14  15
HETATM   15  C   UNL     1     -11.713  11.908  68.497  1.00  0.00    -0.388 C  
BRANCH  15  16
HETATM   16  C   UNL     1     -11.358  11.687  67.024  1.00  0.00    -0.305 C  
BRANCH  16  17
HETATM   17  N   UNL     1     -11.232  12.991  66.216  1.00  0.00    -0.293 N  
HETATM   18  C   UNL     1     -10.876  12.694  64.764  1.00  0.00    -0.302 C  
HETATM   19  C   UNL     1     -12.542  13.776  66.265  1.00  0.00    -0.321 C  
BRANCH  17  20
HETATM   20  C   UNL     1     -10.096  13.842  66.886  1.00  0.00    -0.260 C  
BRANCH  20  21
HETATM   21  C   UNL     1     -10.395  15.318  66.978  1.00  0.00    -0.277 A  
HETATM   22  C   UNL     1     -10.224  16.151  65.860  1.00  0.00    -0.381 A  
HETATM   23  C   UNL     1     -10.233  17.538  66.009  1.00  0.00    -0.306 A  
HETATM   24  C   UNL     1     -10.448  18.101  67.265  1.00  0.00    -0.407 A  
HETATM   25  C   UNL     1     -10.713  17.285  68.361  1.00  0.00    -0.332 A  
HETATM   26  C   UNL     1     -10.713  15.899  68.214  1.00  0.00    -0.291 A  
ENDBRANCH  20  21
ENDBRANCH  17  20
ENDBRANCH  16  17
ENDBRANCH  15  16
ENDBRANCH  14  15
ENDBRANCH  13  14
ENDBRANCH  12  13
ENDBRANCH  11  12
ENDBRANCH  10  11
ENDBRANCH   9  10
ENDBRANCH   8   9
ENDBRANCH   7   8
ENDBRANCH   6   7
ENDBRANCH   5   6
ENDBRANCH   4   5
ENDBRANCH   3   4
ENDBRANCH   2   3
TORSDOF 17
ENDMDL
MODEL      151
REMARK 921   NORMALIZED FREE ENERGY PREDICTED BY IDOCK:   -3.68 KCAL/MOL
REMARK 922        TOTAL FREE ENERGY PREDICTED BY IDOCK:  -10.17 KCAL/MOL
REMARK 923 INTER-LIGAND FREE ENERGY PREDICTED BY IDOCK:   -7.14 KCAL/MOL
REMARK 924 INTRA-LIGAND FREE ENERGY PREDICTED BY IDOCK:   -3.03 KCAL/MOL
REMARK 927      BINDING AFFINITY PREDICTED BY RF-SCORE:    0.00 PKD
ROOT
HETATM    1  C   UNL     1      -9.022  14.484  66.664  1.00  0.00    -0.247 C  
HETATM    2  C   UNL     1      -9.545  15.648  65.839  1.00  0.00    -0.385 C  
ENDROOT
BRANCH   2   3
HETATM    3  C   UNL     1     -10.875  15.297  65.178  1.00  0.00    -0.441 C  
BRANCH   3   4
HETATM    4  C   UNL     1     -11.769  14.511  66.134  1.00  0.00    -0.355 C  
BRANCH   4   5
HETATM    5  C   UNL     1     -12.662  13.549  65.361  1.00  0.00    -0.495 C  
BRANCH   5   6
HETATM    6  C   UNL     1     -12.205  13.431  63.913  1.00  0.00    -0.478 C  
BRANCH   6   7
HETATM    7  C   UNL     1     -11.915  11.976  63.568  1.00  0.00    -0.605 C  
BRANCH   7   8
HETATM    8  C   UNL     1     -10.442  11.661  63.782  1.00  0.00    -0.454 C  
BRANCH   8   9
HETATM    9  C   UNL     1     -10.286  10.520  64.779  1.00  0.00    -0.373 C  
BRANCH   9  10
HETATM   10  C   UNL     1     -10.001  11.071  66.166  1.00  0.00    -0.277 C  
BRANCH  10  11
HETATM   11  C   UNL     1     -10.982  10.512  67.182  1.00  0.00    -0.294 C  
BRANCH  11  12
HETATM   12  C   UNL     1     -11.191  11.514  68.304  1.00  0.00    -0.322 C  
BRANCH  12  13
HETATM   13  C   UNL     1     -11.543  10.821  69.614  1.00  0.00    -0.388 C  
BRANCH  13  14
HETATM   14  C   UNL     1     -10.661   9.601  69.881  1.00  0.00    -0.281 C  
BRANCH  14  15
HETATM   15  C   UNL     1      -9.196   9.924  70.194  1.00  0.00    -0.184 C  
BRANCH  15  16
HETATM   16  C   UNL     1      -8.326   8.673  70.348  1.00  0.00    -0.130 C  
BRANCH  16  17
HETATM   17  N   UNL     1      -7.094   8.660  69.425  1.00  0.00    -0.053 N  
HETATM   18  C   UNL     1      -7.171   9.790  68.406  1.00  0.00    -0.077 C  
HETATM   19  C   UNL     1      -5.813   8.804  70.245  1.00  0.00    -0.030 C  
BRANCH  17  20
HETATM   20  C   UNL     1      -7.082   7.273  68.691  1.00  0.00    -0.084 C  
BRANCH  20  21
HETATM   21  C   UNL     1      -8.411   6.868  68.102  1.00  0.00    -0.124 A  
HETATM   22  C   UNL     1      -8.803   7.338  66.838  1.00  0.00    -0.138 A  
HETATM   23  C   UNL     1     -10.124   7.194  66.413  1.00  0.00    -0.051 A  
HETATM   24  C   UNL     1     -11.051   6.550  67.230  1.00  0.00    -0.429 A  
HETATM   25  C   UNL     1     -10.649   5.998  68.442  1.00  0.00    -0.322 A  
HETATM   26  C   UNL     1      -9.329   6.132  68.866  1.00  0.00    -0.126 A  
ENDBRANCH  20  21
ENDBRANCH  17  20
ENDBRANCH  16  17
ENDBRANCH  15  16
ENDBRANCH  14  15
ENDBRANCH  13  14
ENDBRANCH  12  13
ENDBRANCH  11  12
ENDBRANCH  10  11
ENDBRANCH   9  10
ENDBRANCH   8   9
ENDBRANCH   7   8
ENDBRANCH   6   7
ENDBRANCH   5   6
ENDBRANCH   4   5
ENDBRANCH   3   4
ENDBRANCH   2   3
TORSDOF 17
ENDMDL
MODEL      152
REMARK 921   NORMALIZED FREE ENERGY PREDICTED BY IDOCK:   -3.68 KCAL/MOL
REMARK 922        TOTAL FREE ENERGY PREDICTED BY IDOCK:  -10.17 KCAL/MOL
REMARK 923 INTER-LIGAND FREE ENERGY PREDICTED BY IDOCK:   -9.10 KCAL/MOL
REMARK 924 INTRA-LIGAND FREE ENERGY PREDICTED BY IDOCK:   -1.07 KCAL/MOL
REMARK 927      BINDING AFFINITY PREDICTED BY RF-SCORE:    0.00 PKD
ROOT
HETATM    1  C   UNL     1     -10.752  15.938  65.541  1.00  0.00    -0.386 C  
HETATM    2  C   UNL     1     -10.228  14.512  65.548  1.00  0.00    -0.394 C  
ENDROOT
BRANCH   2   3
HETATM    3  C   UNL     1     -11.052  13.630  66.481  1.00  0.00    -0.310 C  
BRANCH   3   4
HETATM    4  C   UNL     1     -11.905  14.477  67.421  1.00  0.00    -0.416 C  
BRANCH   4   5
HETATM    5  C   UNL     1     -11.292  14.510  68.816  1.00  0.00    -0.298 C  
BRANCH   5   6
HETATM    6  C   UNL     1     -11.765  15.735  69.586  1.00  0.00    -0.363 C  
BRANCH   6   7
HETATM    7  C   UNL     1     -11.263  15.683  71.022  1.00  0.00    -0.411 C  
BRANCH   7   8
HETATM    8  C   UNL     1     -12.362  16.100  71.987  1.00  0.00    -0.475 C  
BRANCH   8   9
HETATM    9  C   UNL     1     -12.819  14.906  72.816  1.00  0.00    -0.515 C  
BRANCH   9  10
HETATM   10  C   UNL     1     -13.686  13.984  71.973  1.00  0.00    -0.569 C  
BRANCH  10  11
HETATM   11  C   UNL     1     -13.330  12.529  72.227  1.00  0.00    -0.475 C  
BRANCH  11  12
HETATM   12  C   UNL     1     -12.434  12.016  71.113  1.00  0.00    -0.353 C  
BRANCH  12  13
HETATM   13  C   UNL     1     -12.848  10.621  70.661  1.00  0.00    -0.404 C  
BRANCH  13  14
HETATM   14  C   UNL     1     -13.407   9.781  71.810  1.00  0.00    -0.506 C  
BRANCH  14  15
HETATM   15  C   UNL     1     -12.490   8.650  72.284  1.00  0.00    -0.460 C  
BRANCH  15  16
HETATM   16  C   UNL     1     -11.208   8.528  71.455  1.00  0.00    -0.266 C  
BRANCH  16  17
HETATM   17  N   UNL     1     -10.370   7.282  71.792  1.00  0.00    -0.196 N  
HETATM   18  C   UNL     1      -8.990   7.371  71.152  1.00  0.00    -0.143 C  
HETATM   19  C   UNL     1     -10.218   7.136  73.305  1.00  0.00    -0.300 C  
BRANCH  17  20
HETATM   20  C   UNL     1     -11.144   6.038  71.230  1.00  0.00    -0.274 C  
BRANCH  20  21
HETATM   21  C   UNL     1     -10.595   5.495  69.934  1.00  0.00    -0.387 A  
HETATM   22  C   UNL     1      -9.568   4.537  69.942  1.00  0.00    -0.269 A  
HETATM   23  C   UNL     1      -8.876   4.239  68.767  1.00  0.00    -0.138 A  
HETATM   24  C   UNL     1      -9.228   4.866  67.574  1.00  0.00    -0.135 A  
HETATM   25  C   UNL     1     -10.306   5.746  67.539  1.00  0.00    -0.274 A  
HETATM   26  C   UNL     1     -11.005   6.040  68.708  1.00  0.00    -0.384 A  
ENDBRANCH  20  21
ENDBRANCH  17  20
ENDBRANCH  16  17
ENDBRANCH  15  16
ENDBRANCH  14  15
ENDBRANCH  13  14
ENDBRANCH  12  13
ENDBRANCH  11  12
ENDBRANCH  10  11
ENDBRANCH   9  10
ENDBRANCH   8   9
ENDBRANCH   7   8
ENDBRANCH   6   7
ENDBRANCH   5   6
ENDBRANCH   4   5
ENDBRANCH   3   4
ENDBRANCH   2   3
TORSDOF 17
ENDMDL
MODEL      153
REMARK 921   NORMALIZED FREE ENERGY PREDICTED BY IDOCK:   -3.67 KCAL/MOL
REMARK 922        TOTAL FREE ENERGY PREDICTED BY IDOCK:  -10.15 KCAL/MOL
REMARK 923 INTER-LIGAND FREE ENERGY PREDICTED BY IDOCK:   -7.22 KCAL/MOL
REMARK 924 INTRA-LIGAND FREE ENERGY PREDICTED BY IDOCK:   -2.94 KCAL/MOL
REMARK 927      BINDING AFFINITY PREDICTED BY RF-SCORE:    0.00 PKD
ROOT
HETATM    1  C   UNL     1      -7.896   2.575  66.148  1.00  0.00    -0.081 C  
HETATM    2  C   UNL     1      -8.314   4.029  66.282  1.00  0.00    -0.105 C  
ENDROOT
BRANCH   2   3
HETATM    3  C   UNL     1      -9.662   4.150  66.987  1.00  0.00    -0.230 C  
BRANCH   3   4
HETATM    4  C   UNL     1     -10.549   5.182  66.298  1.00  0.00    -0.325 C  
BRANCH   4   5
HETATM    5  C   UNL     1     -10.988   6.255  67.285  1.00  0.00    -0.455 C  
BRANCH   5   6
HETATM    6  C   UNL     1     -10.368   6.015  68.656  1.00  0.00    -0.264 C  
BRANCH   6   7
HETATM    7  C   UNL     1     -11.411   6.208  69.748  1.00  0.00    -0.452 C  
BRANCH   7   8
HETATM    8  C   UNL     1     -10.876   5.724  71.087  1.00  0.00    -0.316 C  
BRANCH   8   9
HETATM    9  C   UNL     1     -11.585   6.440  72.230  1.00  0.00    -0.341 C  
BRANCH   9  10
HETATM   10  C   UNL     1     -10.752   7.618  72.709  1.00  0.00    -0.401 C  
BRANCH  10  11
HETATM   11  C   UNL     1     -11.233   8.912  72.076  1.00  0.00    -0.422 C  
BRANCH  11  12
HETATM   12  C   UNL     1     -12.745   9.011  72.191  1.00  0.00    -0.470 C  
BRANCH  12  13
HETATM   13  C   UNL     1     -13.254  10.363  71.707  1.00  0.00    -0.529 C  
BRANCH  13  14
HETATM   14  C   UNL     1     -12.189  11.142  70.934  1.00  0.00    -0.468 C  
BRANCH  14  15
HETATM   15  C   UNL     1     -12.409  11.201  69.419  1.00  0.00    -0.224 C  
BRANCH  15  16
HETATM   16  C   UNL     1     -11.564  12.277  68.732  1.00  0.00    -0.330 C  
BRANCH  16  17
HETATM   17  N   UNL     1     -10.793  11.766  67.502  1.00  0.00    -0.227 N  
HETATM   18  C   UNL     1     -11.462  12.230  66.214  1.00  0.00    -0.380 C  
HETATM   19  C   UNL     1      -9.350  12.269  67.532  1.00  0.00    -0.183 C  
BRANCH  17  20
HETATM   20  C   UNL     1     -10.794  10.198  67.575  1.00  0.00    -0.290 C  
BRANCH  20  21
HETATM   21  C   UNL     1      -9.479   9.594  68.001  1.00  0.00    -0.146 A  
HETATM   22  C   UNL     1      -8.608   9.038  67.049  1.00  0.00    -0.120 A  
HETATM   23  C   UNL     1      -7.536   8.245  67.456  1.00  0.00    -0.094 A  
HETATM   24  C   UNL     1      -7.305   8.030  68.813  1.00  0.00    -0.085 A  
HETATM   25  C   UNL     1      -8.105   8.653  69.765  1.00  0.00    -0.114 A  
HETATM   26  C   UNL     1      -9.173   9.454  69.363  1.00  0.00    -0.167 A  
ENDBRANCH  20  21
ENDBRANCH  17  20
ENDBRANCH  16  17
ENDBRANCH  15  16
ENDBRANCH  14  15
ENDBRANCH  13  14
ENDBRANCH  12  13
ENDBRANCH  11  12
ENDBRANCH  10  11
ENDBRANCH   9  10
ENDBRANCH   8   9
ENDBRANCH   7   8
ENDBRANCH   6   7
ENDBRANCH   5   6
ENDBRANCH   4   5
ENDBRANCH   3   4
ENDBRANCH   2   3
TORSDOF 17
ENDMDL
MODEL      154
REMARK 921   NORMALIZED FREE ENERGY PREDICTED BY IDOCK:   -3.66 KCAL/MOL
REMARK 922        TOTAL FREE ENERGY PREDICTED BY IDOCK:  -10.13 KCAL/MOL
REMARK 923 INTER-LIGAND FREE ENERGY PREDICTED BY IDOCK:   -8.39 KCAL/MOL
REMARK 924 INTRA-LIGAND FREE ENERGY PREDICTED BY IDOCK:   -1.74 KCAL/MOL
REMARK 927      BINDING AFFINITY PREDICTED BY RF-SCORE:    0.00 PKD
ROOT
HETATM    1  C   UNL     1     -10.968   7.776  73.190  1.00  0.00    -0.372 C  
HETATM    2  C   UNL     1     -11.868   7.767  71.966  1.00  0.00    -0.351 C  
ENDROOT
BRANCH   2   3
HETATM    3  C   UNL     1     -11.048   7.632  70.685  1.00  0.00    -0.269 C  
BRANCH   3   4
HETATM    4  C   UNL     1     -11.532   6.452  69.848  1.00  0.00    -0.483 C  
BRANCH   4   5
HETATM    5  C   UNL     1     -10.492   5.339  69.842  1.00  0.00    -0.351 C  
BRANCH   5   6
HETATM    6  C   UNL     1      -9.099   5.899  70.100  1.00  0.00    -0.155 C  
BRANCH   6   7
HETATM    7  C   UNL     1      -8.199   5.650  68.897  1.00  0.00    -0.100 C  
BRANCH   7   8
HETATM    8  C   UNL     1      -7.983   6.938  68.118  1.00  0.00    -0.115 C  
BRANCH   8   9
HETATM    9  C   UNL     1      -8.763   6.902  66.810  1.00  0.00    -0.122 C  
BRANCH   9  10
HETATM   10  C   UNL     1      -9.895   7.916  66.846  1.00  0.00    -0.309 C  
BRANCH  10  11
HETATM   11  C   UNL     1      -9.576   9.046  67.810  1.00  0.00    -0.178 C  
BRANCH  11  12
HETATM   12  C   UNL     1     -10.543  10.198  67.592  1.00  0.00    -0.316 C  
BRANCH  12  13
HETATM   13  C   UNL     1     -10.222  10.961  66.313  1.00  0.00    -0.300 C  
BRANCH  13  14
HETATM   14  C   UNL     1     -11.419  11.759  65.797  1.00  0.00    -0.258 C  
BRANCH  14  15
HETATM   15  C   UNL     1     -11.304  13.276  65.970  1.00  0.00    -0.329 C  
BRANCH  15  16
HETATM   16  C   UNL     1     -12.217  13.825  67.070  1.00  0.00    -0.340 C  
BRANCH  16  17
HETATM   17  N   UNL     1     -11.473  14.182  68.370  1.00  0.00    -0.283 N  
HETATM   18  C   UNL     1     -11.563  13.039  69.374  1.00  0.00    -0.299 C  
HETATM   19  C   UNL     1     -10.004  14.484  68.077  1.00  0.00    -0.222 C  
BRANCH  17  20
HETATM   20  C   UNL     1     -12.157  15.467  68.955  1.00  0.00    -0.221 C  
BRANCH  20  21
HETATM   21  C   UNL     1     -12.522  15.369  70.416  1.00  0.00    -0.447 A  
HETATM   22  C   UNL     1     -13.867  15.278  70.810  1.00  0.00    -0.177 A  
HETATM   23  C   UNL     1     -14.221  15.462  72.147  1.00  0.00    -0.660 A  
HETATM   24  C   UNL     1     -13.235  15.702  73.102  1.00  0.00    -0.674 A  
HETATM   25  C   UNL     1     -11.893  15.700  72.735  1.00  0.00    -0.580 A  
HETATM   26  C   UNL     1     -11.534  15.508  71.402  1.00  0.00    -0.478 A  
ENDBRANCH  20  21
ENDBRANCH  17  20
ENDBRANCH  16  17
ENDBRANCH  15  16
ENDBRANCH  14  15
ENDBRANCH  13  14
ENDBRANCH  12  13
ENDBRANCH  11  12
ENDBRANCH  10  11
ENDBRANCH   9  10
ENDBRANCH   8   9
ENDBRANCH   7   8
ENDBRANCH   6   7
ENDBRANCH   5   6
ENDBRANCH   4   5
ENDBRANCH   3   4
ENDBRANCH   2   3
TORSDOF 17
ENDMDL
MODEL      155
REMARK 921   NORMALIZED FREE ENERGY PREDICTED BY IDOCK:   -3.65 KCAL/MOL
REMARK 922        TOTAL FREE ENERGY PREDICTED BY IDOCK:  -10.12 KCAL/MOL
REMARK 923 INTER-LIGAND FREE ENERGY PREDICTED BY IDOCK:   -7.54 KCAL/MOL
REMARK 924 INTRA-LIGAND FREE ENERGY PREDICTED BY IDOCK:   -2.58 KCAL/MOL
REMARK 927      BINDING AFFINITY PREDICTED BY RF-SCORE:    0.00 PKD
ROOT
HETATM    1  C   UNL     1      -7.195  18.023  65.983  1.00  0.00    -0.316 C  
HETATM    2  C   UNL     1      -6.792  19.480  66.127  1.00  0.00    -0.247 C  
ENDROOT
BRANCH   2   3
HETATM    3  C   UNL     1      -7.225  20.036  67.481  1.00  0.00    -0.313 C  
BRANCH   3   4
HETATM    4  C   UNL     1      -8.350  19.199  68.081  1.00  0.00    -0.351 C  
BRANCH   4   5
HETATM    5  C   UNL     1      -9.684  19.924  67.951  1.00  0.00    -0.510 C  
BRANCH   5   6
HETATM    6  C   UNL     1     -10.741  19.009  67.349  1.00  0.00    -0.559 C  
BRANCH   6   7
HETATM    7  C   UNL     1     -10.281  17.559  67.407  1.00  0.00    -0.337 C  
BRANCH   7   8
HETATM    8  C   UNL     1     -11.162  16.758  68.354  1.00  0.00    -0.176 C  
BRANCH   8   9
HETATM    9  C   UNL     1     -10.440  16.521  69.675  1.00  0.00    -0.267 C  
BRANCH   9  10
HETATM   10  C   UNL     1     -11.251  15.584  70.555  1.00  0.00    -0.365 C  
BRANCH  10  11
HETATM   11  C   UNL     1     -12.067  14.621  69.710  1.00  0.00    -0.371 C  
BRANCH  11  12
HETATM   12  C   UNL     1     -12.184  13.284  70.421  1.00  0.00    -0.404 C  
BRANCH  12  13
HETATM   13  C   UNL     1     -11.814  12.127  69.500  1.00  0.00    -0.386 C  
BRANCH  13  14
HETATM   14  C   UNL     1     -11.987  10.768  70.177  1.00  0.00    -0.432 C  
BRANCH  14  15
HETATM   15  C   UNL     1     -10.709   9.929  70.272  1.00  0.00    -0.367 C  
BRANCH  15  16
HETATM   16  C   UNL     1     -10.308   9.294  68.937  1.00  0.00    -0.214 C  
BRANCH  16  17
HETATM   17  N   UNL     1      -8.790   9.089  68.782  1.00  0.00    -0.136 N  
HETATM   18  C   UNL     1      -8.042   9.667  69.977  1.00  0.00    -0.178 C  
HETATM   19  C   UNL     1      -8.465   7.601  68.653  1.00  0.00    -0.129 C  
BRANCH  17  20
HETATM   20  C   UNL     1      -8.357   9.827  67.467  1.00  0.00    -0.114 C  
BRANCH  20  21
HETATM   21  C   UNL     1      -8.961  11.199  67.294  1.00  0.00    -0.147 A  
HETATM   22  C   UNL     1      -9.943  11.428  66.316  1.00  0.00    -0.259 A  
HETATM   23  C   UNL     1     -10.301  12.731  65.972  1.00  0.00    -0.291 A  
HETATM   24  C   UNL     1      -9.709  13.811  66.624  1.00  0.00    -0.293 A  
HETATM   25  C   UNL     1      -8.805  13.592  67.659  1.00  0.00    -0.202 A  
HETATM   26  C   UNL     1      -8.451  12.291  68.012  1.00  0.00    -0.171 A  
ENDBRANCH  20  21
ENDBRANCH  17  20
ENDBRANCH  16  17
ENDBRANCH  15  16
ENDBRANCH  14  15
ENDBRANCH  13  14
ENDBRANCH  12  13
ENDBRANCH  11  12
ENDBRANCH  10  11
ENDBRANCH   9  10
ENDBRANCH   8   9
ENDBRANCH   7   8
ENDBRANCH   6   7
ENDBRANCH   5   6
ENDBRANCH   4   5
ENDBRANCH   3   4
ENDBRANCH   2   3
TORSDOF 17
ENDMDL
MODEL      156
REMARK 921   NORMALIZED FREE ENERGY PREDICTED BY IDOCK:   -3.65 KCAL/MOL
REMARK 922        TOTAL FREE ENERGY PREDICTED BY IDOCK:  -10.11 KCAL/MOL
REMARK 923 INTER-LIGAND FREE ENERGY PREDICTED BY IDOCK:   -8.93 KCAL/MOL
REMARK 924 INTRA-LIGAND FREE ENERGY PREDICTED BY IDOCK:   -1.19 KCAL/MOL
REMARK 927      BINDING AFFINITY PREDICTED BY RF-SCORE:    0.00 PKD
ROOT
HETATM    1  C   UNL     1     -10.214   5.689  72.250  1.00  0.00    -0.241 C  
HETATM    2  C   UNL     1     -10.863   7.046  72.462  1.00  0.00    -0.285 C  
ENDROOT
BRANCH   2   3
HETATM    3  C   UNL     1     -10.967   7.814  71.147  1.00  0.00    -0.259 C  
BRANCH   3   4
HETATM    4  C   UNL     1     -12.224   8.678  71.117  1.00  0.00    -0.272 C  
BRANCH   4   5
HETATM    5  C   UNL     1     -11.873  10.141  71.357  1.00  0.00    -0.414 C  
BRANCH   5   6
HETATM    6  C   UNL     1     -13.105  10.930  71.782  1.00  0.00    -0.564 C  
BRANCH   6   7
HETATM    7  C   UNL     1     -12.800  12.422  71.789  1.00  0.00    -0.350 C  
BRANCH   7   8
HETATM    8  C   UNL     1     -13.996  13.208  72.303  1.00  0.00    -0.490 C  
BRANCH   8   9
HETATM    9  C   UNL     1     -13.603  14.655  72.568  1.00  0.00    -0.572 C  
BRANCH   9  10
HETATM   10  C   UNL     1     -12.132  14.867  72.244  1.00  0.00    -0.407 C  
BRANCH  10  11
HETATM   11  C   UNL     1     -11.954  16.021  71.273  1.00  0.00    -0.475 C  
BRANCH  11  12
HETATM   12  C   UNL     1     -12.252  15.555  69.859  1.00  0.00    -0.351 C  
BRANCH  12  13
HETATM   13  C   UNL     1     -11.400  14.350  69.477  1.00  0.00    -0.318 C  
BRANCH  13  14
HETATM   14  C   UNL     1     -11.718  13.837  68.072  1.00  0.00    -0.390 C  
BRANCH  14  15
HETATM   15  C   UNL     1     -10.508  13.730  67.138  1.00  0.00    -0.272 C  
BRANCH  15  16
HETATM   16  C   UNL     1      -9.172  13.710  67.886  1.00  0.00    -0.203 C  
BRANCH  16  17
HETATM   17  N   UNL     1      -8.333  14.985  67.687  1.00  0.00    -0.153 N  
HETATM   18  C   UNL     1      -8.552  15.959  68.838  1.00  0.00    -0.221 C  
HETATM   19  C   UNL     1      -6.849  14.636  67.595  1.00  0.00    -0.183 C  
BRANCH  17  20
HETATM   20  C   UNL     1      -8.795  15.635  66.336  1.00  0.00    -0.330 C  
BRANCH  20  21
HETATM   21  C   UNL     1      -8.981  17.131  66.395  1.00  0.00    -0.291 A  
HETATM   22  C   UNL     1     -10.269  17.690  66.392  1.00  0.00    -0.364 A  
HETATM   23  C   UNL     1     -10.441  19.057  66.172  1.00  0.00    -0.541 A  
HETATM   24  C   UNL     1      -9.330  19.878  65.991  1.00  0.00    -0.370 A  
HETATM   25  C   UNL     1      -8.047  19.349  66.087  1.00  0.00    -0.323 A  
HETATM   26  C   UNL     1      -7.871  17.985  66.314  1.00  0.00    -0.288 A  
ENDBRANCH  20  21
ENDBRANCH  17  20
ENDBRANCH  16  17
ENDBRANCH  15  16
ENDBRANCH  14  15
ENDBRANCH  13  14
ENDBRANCH  12  13
ENDBRANCH  11  12
ENDBRANCH  10  11
ENDBRANCH   9  10
ENDBRANCH   8   9
ENDBRANCH   7   8
ENDBRANCH   6   7
ENDBRANCH   5   6
ENDBRANCH   4   5
ENDBRANCH   3   4
ENDBRANCH   2   3
TORSDOF 17
ENDMDL
MODEL      157
REMARK 921   NORMALIZED FREE ENERGY PREDICTED BY IDOCK:   -3.64 KCAL/MOL
REMARK 922        TOTAL FREE ENERGY PREDICTED BY IDOCK:  -10.10 KCAL/MOL
REMARK 923 INTER-LIGAND FREE ENERGY PREDICTED BY IDOCK:   -8.75 KCAL/MOL
REMARK 924 INTRA-LIGAND FREE ENERGY PREDICTED BY IDOCK:   -1.34 KCAL/MOL
REMARK 927      BINDING AFFINITY PREDICTED BY RF-SCORE:    0.00 PKD
ROOT
HETATM    1  C   UNL     1     -10.182   6.339  68.151  1.00  0.00    -0.200 C  
HETATM    2  C   UNL     1      -9.624   7.305  69.183  1.00  0.00    -0.155 C  
ENDROOT
BRANCH   2   3
HETATM    3  C   UNL     1     -10.291   7.101  70.541  1.00  0.00    -0.215 C  
BRANCH   3   4
HETATM    4  C   UNL     1     -11.674   6.477  70.381  1.00  0.00    -0.439 C  
BRANCH   4   5
HETATM    5  C   UNL     1     -12.586   6.902  71.525  1.00  0.00    -0.412 C  
BRANCH   5   6
HETATM    6  C   UNL     1     -12.145   8.241  72.101  1.00  0.00    -0.425 C  
BRANCH   6   7
HETATM    7  C   UNL     1     -13.331   9.191  72.197  1.00  0.00    -0.525 C  
BRANCH   7   8
HETATM    8  C   UNL     1     -12.985  10.539  71.581  1.00  0.00    -0.581 C  
BRANCH   8   9
HETATM    9  C   UNL     1     -11.748  10.415  70.701  1.00  0.00    -0.444 C  
BRANCH   9  10
HETATM   10  C   UNL     1     -11.875  11.322  69.487  1.00  0.00    -0.427 C  
BRANCH  10  11
HETATM   11  C   UNL     1     -11.288  10.658  68.254  1.00  0.00    -0.357 C  
BRANCH  11  12
HETATM   12  C   UNL     1     -11.244  11.652  67.106  1.00  0.00    -0.371 C  
BRANCH  12  13
HETATM   13  C   UNL     1     -11.847  12.993  67.505  1.00  0.00    -0.408 C  
BRANCH  13  14
HETATM   14  C   UNL     1     -11.820  14.005  66.359  1.00  0.00    -0.437 C  
BRANCH  14  15
HETATM   15  C   UNL     1     -11.014  15.276  66.643  1.00  0.00    -0.297 C  
BRANCH  15  16
HETATM   16  C   UNL     1      -9.501  15.064  66.531  1.00  0.00    -0.282 C  
BRANCH  16  17
HETATM   17  N   UNL     1      -8.690  15.821  67.599  1.00  0.00    -0.169 N  
HETATM   18  C   UNL     1      -8.801  15.129  68.952  1.00  0.00    -0.205 C  
HETATM   19  C   UNL     1      -7.220  15.902  67.191  1.00  0.00    -0.219 C  
BRANCH  17  20
HETATM   20  C   UNL     1      -9.282  17.271  67.685  1.00  0.00    -0.229 C  
BRANCH  20  21
HETATM   21  C   UNL     1      -8.264  18.371  67.511  1.00  0.00    -0.255 A  
HETATM   22  C   UNL     1      -7.544  18.856  68.615  1.00  0.00    -0.366 A  
HETATM   23  C   UNL     1      -6.813  20.040  68.513  1.00  0.00    -0.336 A  
HETATM   24  C   UNL     1      -6.768  20.727  67.301  1.00  0.00    -0.391 A  
HETATM   25  C   UNL     1      -7.400  20.204  66.178  1.00  0.00    -0.312 A  
HETATM   26  C   UNL     1      -8.124  19.017  66.274  1.00  0.00    -0.298 A  
ENDBRANCH  20  21
ENDBRANCH  17  20
ENDBRANCH  16  17
ENDBRANCH  15  16
ENDBRANCH  14  15
ENDBRANCH  13  14
ENDBRANCH  12  13
ENDBRANCH  11  12
ENDBRANCH  10  11
ENDBRANCH   9  10
ENDBRANCH   8   9
ENDBRANCH   7   8
ENDBRANCH   6   7
ENDBRANCH   5   6
ENDBRANCH   4   5
ENDBRANCH   3   4
ENDBRANCH   2   3
TORSDOF 17
ENDMDL
MODEL      158
REMARK 921   NORMALIZED FREE ENERGY PREDICTED BY IDOCK:   -3.63 KCAL/MOL
REMARK 922        TOTAL FREE ENERGY PREDICTED BY IDOCK:  -10.08 KCAL/MOL
REMARK 923 INTER-LIGAND FREE ENERGY PREDICTED BY IDOCK:   -9.16 KCAL/MOL
REMARK 924 INTRA-LIGAND FREE ENERGY PREDICTED BY IDOCK:   -0.92 KCAL/MOL
REMARK 927      BINDING AFFINITY PREDICTED BY RF-SCORE:    0.00 PKD
ROOT
HETATM    1  C   UNL     1     -11.576   1.963  73.571  1.00  0.00    -0.300 C  
HETATM    2  C   UNL     1     -10.410   2.137  72.613  1.00  0.00    -0.234 C  
ENDROOT
BRANCH   2   3
HETATM    3  C   UNL     1     -10.145   3.614  72.336  1.00  0.00    -0.233 C  
BRANCH   3   4
HETATM    4  C   UNL     1     -10.772   4.494  73.414  1.00  0.00    -0.320 C  
BRANCH   4   5
HETATM    5  C   UNL     1     -11.007   5.903  72.884  1.00  0.00    -0.303 C  
BRANCH   5   6
HETATM    6  C   UNL     1     -11.002   5.916  71.361  1.00  0.00    -0.327 C  
BRANCH   6   7
HETATM    7  C   UNL     1     -11.976   6.963  70.839  1.00  0.00    -0.430 C  
BRANCH   7   8
HETATM    8  C   UNL     1     -11.531   8.358  71.252  1.00  0.00    -0.325 C  
BRANCH   8   9
HETATM    9  C   UNL     1     -12.658   9.078  71.981  1.00  0.00    -0.464 C  
BRANCH   9  10
HETATM   10  C   UNL     1     -12.762  10.515  71.496  1.00  0.00    -0.558 C  
BRANCH  10  11
HETATM   11  C   UNL     1     -12.376  10.620  70.031  1.00  0.00    -0.341 C  
BRANCH  11  12
HETATM   12  C   UNL     1     -11.709  11.960  69.768  1.00  0.00    -0.403 C  
BRANCH  12  13
HETATM   13  C   UNL     1     -12.382  13.081  70.552  1.00  0.00    -0.365 C  
BRANCH  13  14
HETATM   14  C   UNL     1     -11.830  14.458  70.183  1.00  0.00    -0.380 C  
BRANCH  14  15
HETATM   15  C   UNL     1     -11.818  14.765  68.683  1.00  0.00    -0.334 C  
BRANCH  15  16
HETATM   16  C   UNL     1     -10.485  15.346  68.200  1.00  0.00    -0.247 C  
BRANCH  16  17
HETATM   17  N   UNL     1     -10.088  14.889  66.785  1.00  0.00    -0.247 N  
HETATM   18  C   UNL     1      -9.295  13.589  66.841  1.00  0.00    -0.253 C  
HETATM   19  C   UNL     1     -11.333  14.685  65.922  1.00  0.00    -0.338 C  
BRANCH  17  20
HETATM   20  C   UNL     1      -9.209  16.029  66.161  1.00  0.00    -0.352 C  
BRANCH  20  21
HETATM   21  C   UNL     1      -9.536  17.414  66.664  1.00  0.00    -0.283 A  
HETATM   22  C   UNL     1     -10.514  18.192  66.022  1.00  0.00    -0.346 A  
HETATM   23  C   UNL     1     -10.625  19.553  66.306  1.00  0.00    -0.580 A  
HETATM   24  C   UNL     1      -9.789  20.137  67.255  1.00  0.00    -0.580 A  
HETATM   25  C   UNL     1      -8.882  19.355  67.963  1.00  0.00    -0.369 A  
HETATM   26  C   UNL     1      -8.773  17.992  67.689  1.00  0.00    -0.247 A  
ENDBRANCH  20  21
ENDBRANCH  17  20
ENDBRANCH  16  17
ENDBRANCH  15  16
ENDBRANCH  14  15
ENDBRANCH  13  14
ENDBRANCH  12  13
ENDBRANCH  11  12
ENDBRANCH  10  11
ENDBRANCH   9  10
ENDBRANCH   8   9
ENDBRANCH   7   8
ENDBRANCH   6   7
ENDBRANCH   5   6
ENDBRANCH   4   5
ENDBRANCH   3   4
ENDBRANCH   2   3
TORSDOF 17
ENDMDL
MODEL      159
REMARK 921   NORMALIZED FREE ENERGY PREDICTED BY IDOCK:   -3.63 KCAL/MOL
REMARK 922        TOTAL FREE ENERGY PREDICTED BY IDOCK:  -10.07 KCAL/MOL
REMARK 923 INTER-LIGAND FREE ENERGY PREDICTED BY IDOCK:   -7.34 KCAL/MOL
REMARK 924 INTRA-LIGAND FREE ENERGY PREDICTED BY IDOCK:   -2.73 KCAL/MOL
REMARK 927      BINDING AFFINITY PREDICTED BY RF-SCORE:    0.00 PKD
ROOT
HETATM    1  C   UNL     1     -13.788  13.825  72.233  1.00  0.00    -0.679 C  
HETATM    2  C   UNL     1     -12.840  13.754  71.048  1.00  0.00    -0.376 C  
ENDROOT
BRANCH   2   3
HETATM    3  C   UNL     1     -12.420  12.314  70.767  1.00  0.00    -0.356 C  
BRANCH   3   4
HETATM    4  C   UNL     1     -13.024  11.359  71.794  1.00  0.00    -0.519 C  
BRANCH   4   5
HETATM    5  C   UNL     1     -13.358  10.021  71.147  1.00  0.00    -0.379 C  
BRANCH   5   6
HETATM    6  C   UNL     1     -13.766   8.998  72.199  1.00  0.00    -0.536 C  
BRANCH   6   7
HETATM    7  C   UNL     1     -13.892   7.617  71.572  1.00  0.00    -0.466 C  
BRANCH   7   8
HETATM    8  C   UNL     1     -12.525   6.961  71.449  1.00  0.00    -0.413 C  
BRANCH   8   9
HETATM    9  C   UNL     1     -11.587   7.488  72.528  1.00  0.00    -0.352 C  
BRANCH   9  10
HETATM   10  C   UNL     1     -10.178   7.628  71.976  1.00  0.00    -0.242 C  
BRANCH  10  11
HETATM   11  C   UNL     1      -9.921   9.048  71.503  1.00  0.00    -0.391 C  
BRANCH  11  12
HETATM   12  C   UNL     1      -9.320   9.026  70.108  1.00  0.00    -0.213 C  
BRANCH  12  13
HETATM   13  C   UNL     1      -9.395  10.397  69.446  1.00  0.00    -0.186 C  
BRANCH  13  14
HETATM   14  C   UNL     1      -9.830  10.313  67.983  1.00  0.00    -0.171 C  
BRANCH  14  15
HETATM   15  C   UNL     1      -8.693  10.441  66.966  1.00  0.00    -0.132 C  
BRANCH  15  16
HETATM   16  C   UNL     1      -7.788   9.206  66.919  1.00  0.00    -0.098 C  
BRANCH  16  17
HETATM   17  N   UNL     1      -7.609   8.624  65.505  1.00  0.00    -0.085 N  
HETATM   18  C   UNL     1      -8.016   9.643  64.447  1.00  0.00    -0.138 C  
HETATM   19  C   UNL     1      -6.154   8.214  65.278  1.00  0.00    -0.045 C  
BRANCH  17  20
HETATM   20  C   UNL     1      -8.523   7.353  65.409  1.00  0.00    -0.092 C  
BRANCH  20  21
HETATM   21  C   UNL     1      -9.068   6.876  66.732  1.00  0.00    -0.162 A  
HETATM   22  C   UNL     1      -8.238   6.203  67.644  1.00  0.00    -0.113 A  
HETATM   23  C   UNL     1      -8.791   5.528  68.732  1.00  0.00    -0.109 A  
HETATM   24  C   UNL     1     -10.169   5.549  68.937  1.00  0.00    -0.284 A  
HETATM   25  C   UNL     1     -10.989   6.292  68.093  1.00  0.00    -0.412 A  
HETATM   26  C   UNL     1     -10.439   6.975  67.009  1.00  0.00    -0.386 A  
ENDBRANCH  20  21
ENDBRANCH  17  20
ENDBRANCH  16  17
ENDBRANCH  15  16
ENDBRANCH  14  15
ENDBRANCH  13  14
ENDBRANCH  12  13
ENDBRANCH  11  12
ENDBRANCH  10  11
ENDBRANCH   9  10
ENDBRANCH   8   9
ENDBRANCH   7   8
ENDBRANCH   6   7
ENDBRANCH   5   6
ENDBRANCH   4   5
ENDBRANCH   3   4
ENDBRANCH   2   3
TORSDOF 17
ENDMDL
MODEL      160
REMARK 921   NORMALIZED FREE ENERGY PREDICTED BY IDOCK:   -3.63 KCAL/MOL
REMARK 922        TOTAL FREE ENERGY PREDICTED BY IDOCK:  -10.07 KCAL/MOL
REMARK 923 INTER-LIGAND FREE ENERGY PREDICTED BY IDOCK:   -7.18 KCAL/MOL
REMARK 924 INTRA-LIGAND FREE ENERGY PREDICTED BY IDOCK:   -2.89 KCAL/MOL
REMARK 927      BINDING AFFINITY PREDICTED BY RF-SCORE:    0.00 PKD
ROOT
HETATM    1  C   UNL     1      -8.047  10.342  69.453  1.00  0.00    -0.167 C  
HETATM    2  C   UNL     1      -7.059  10.146  68.316  1.00  0.00    -0.075 C  
ENDROOT
BRANCH   2   3
HETATM    3  C   UNL     1      -7.780   9.775  67.023  1.00  0.00    -0.095 C  
BRANCH   3   4
HETATM    4  C   UNL     1      -9.231   9.390  67.297  1.00  0.00    -0.151 C  
BRANCH   4   5
HETATM    5  C   UNL     1     -10.047   9.427  66.011  1.00  0.00    -0.302 C  
BRANCH   5   6
HETATM    6  C   UNL     1      -9.508  10.486  65.059  1.00  0.00    -0.296 C  
BRANCH   6   7
HETATM    7  C   UNL     1     -10.626  11.425  64.625  1.00  0.00    -0.380 C  
BRANCH   7   8
HETATM    8  C   UNL     1     -10.666  12.654  65.520  1.00  0.00    -0.303 C  
BRANCH   8   9
HETATM    9  C   UNL     1     -11.899  12.616  66.415  1.00  0.00    -0.466 C  
BRANCH   9  10
HETATM   10  C   UNL     1     -11.563  13.161  67.793  1.00  0.00    -0.379 C  
BRANCH  10  11
HETATM   11  C   UNL     1     -11.089  12.049  68.713  1.00  0.00    -0.298 C  
BRANCH  11  12
HETATM   12  C   UNL     1     -12.273  11.461  69.462  1.00  0.00    -0.303 C  
BRANCH  12  13
HETATM   13  C   UNL     1     -11.819  10.531  70.581  1.00  0.00    -0.458 C  
BRANCH  13  14
HETATM   14  C   UNL     1     -12.971   9.706  71.154  1.00  0.00    -0.389 C  
BRANCH  14  15
HETATM   15  C   UNL     1     -12.576   8.740  72.274  1.00  0.00    -0.460 C  
BRANCH  15  16
HETATM   16  C   UNL     1     -12.225   7.340  71.762  1.00  0.00    -0.334 C  
BRANCH  16  17
HETATM   17  N   UNL     1     -10.784   6.906  72.086  1.00  0.00    -0.215 N  
HETATM   18  C   UNL     1     -10.371   7.396  73.469  1.00  0.00    -0.353 C  
HETATM   19  C   UNL     1     -10.662   5.383  72.033  1.00  0.00    -0.220 C  
BRANCH  17  20
HETATM   20  C   UNL     1      -9.854   7.537  70.991  1.00  0.00    -0.179 C  
BRANCH  20  21
HETATM   21  C   UNL     1      -9.808   6.767  69.694  1.00  0.00    -0.173 A  
HETATM   22  C   UNL     1      -8.579   6.371  69.144  1.00  0.00    -0.125 A  
HETATM   23  C   UNL     1      -8.513   5.908  67.829  1.00  0.00    -0.107 A  
HETATM   24  C   UNL     1      -9.676   5.806  67.069  1.00  0.00    -0.155 A  
HETATM   25  C   UNL     1     -10.910   6.106  67.637  1.00  0.00    -0.421 A  
HETATM   26  C   UNL     1     -10.981   6.561  68.953  1.00  0.00    -0.376 A  
ENDBRANCH  20  21
ENDBRANCH  17  20
ENDBRANCH  16  17
ENDBRANCH  15  16
ENDBRANCH  14  15
ENDBRANCH  13  14
ENDBRANCH  12  13
ENDBRANCH  11  12
ENDBRANCH  10  11
ENDBRANCH   9  10
ENDBRANCH   8   9
ENDBRANCH   7   8
ENDBRANCH   6   7
ENDBRANCH   5   6
ENDBRANCH   4   5
ENDBRANCH   3   4
ENDBRANCH   2   3
TORSDOF 17
ENDMDL
MODEL      161
REMARK 921   NORMALIZED FREE ENERGY PREDICTED BY IDOCK:   -3.62 KCAL/MOL
REMARK 922        TOTAL FREE ENERGY PREDICTED BY IDOCK:  -10.06 KCAL/MOL
REMARK 923 INTER-LIGAND FREE ENERGY PREDICTED BY IDOCK:   -9.06 KCAL/MOL
REMARK 924 INTRA-LIGAND FREE ENERGY PREDICTED BY IDOCK:   -1.01 KCAL/MOL
REMARK 927      BINDING AFFINITY PREDICTED BY RF-SCORE:    0.00 PKD
ROOT
HETATM    1  C   UNL     1     -10.279   4.677  66.008  1.00  0.00    -0.306 C  
HETATM    2  C   UNL     1      -9.882   6.040  66.549  1.00  0.00    -0.186 C  
ENDROOT
BRANCH   2   3
HETATM    3  C   UNL     1     -11.058   6.716  67.248  1.00  0.00    -0.418 C  
BRANCH   3   4
HETATM    4  C   UNL     1     -10.963   6.550  68.762  1.00  0.00    -0.371 C  
BRANCH   4   5
HETATM    5  C   UNL     1     -10.268   7.751  69.389  1.00  0.00    -0.208 C  
BRANCH   5   6
HETATM    6  C   UNL     1     -10.628   7.876  70.864  1.00  0.00    -0.227 C  
BRANCH   6   7
HETATM    7  C   UNL     1     -10.809   9.339  71.242  1.00  0.00    -0.417 C  
BRANCH   7   8
HETATM    8  C   UNL     1     -12.212   9.581  71.777  1.00  0.00    -0.465 C  
BRANCH   8   9
HETATM    9  C   UNL     1     -12.960  10.556  70.876  1.00  0.00    -0.455 C  
BRANCH   9  10
HETATM   10  C   UNL     1     -12.296  11.923  70.917  1.00  0.00    -0.400 C  
BRANCH  10  11
HETATM   11  C   UNL     1     -13.306  13.004  71.260  1.00  0.00    -0.085 C  
BRANCH  11  12
HETATM   12  C   UNL     1     -12.865  13.745  72.511  1.00  0.00    -0.342 C  
BRANCH  12  13
HETATM   13  C   UNL     1     -11.892  14.870  72.179  1.00  0.00    -0.394 C  
BRANCH  13  14
HETATM   14  C   UNL     1     -12.271  15.604  70.893  1.00  0.00    -0.466 C  
BRANCH  14  15
HETATM   15  C   UNL     1     -11.162  15.671  69.840  1.00  0.00    -0.335 C  
BRANCH  15  16
HETATM   16  C   UNL     1     -11.696  15.699  68.405  1.00  0.00    -0.290 C  
BRANCH  16  17
HETATM   17  N   UNL     1     -11.053  14.647  67.484  1.00  0.00    -0.302 N  
HETATM   18  C   UNL     1     -10.299  15.317  66.342  1.00  0.00    -0.289 C  
HETATM   19  C   UNL     1     -10.089  13.765  68.277  1.00  0.00    -0.239 C  
BRANCH  17  20
HETATM   20  C   UNL     1     -12.215  13.759  66.916  1.00  0.00    -0.366 C  
BRANCH  20  21
HETATM   21  C   UNL     1     -11.776  12.737  65.896  1.00  0.00    -0.464 A  
HETATM   22  C   UNL     1     -11.076  11.587  66.295  1.00  0.00    -0.321 A  
HETATM   23  C   UNL     1     -10.437  10.789  65.346  1.00  0.00    -0.272 A  
HETATM   24  C   UNL     1     -10.524  11.112  63.993  1.00  0.00    -0.447 A  
HETATM   25  C   UNL     1     -11.294  12.195  63.581  1.00  0.00    -0.545 A  
HETATM   26  C   UNL     1     -11.941  12.990  64.526  1.00  0.00    -0.450 A  
ENDBRANCH  20  21
ENDBRANCH  17  20
ENDBRANCH  16  17
ENDBRANCH  15  16
ENDBRANCH  14  15
ENDBRANCH  13  14
ENDBRANCH  12  13
ENDBRANCH  11  12
ENDBRANCH  10  11
ENDBRANCH   9  10
ENDBRANCH   8   9
ENDBRANCH   7   8
ENDBRANCH   6   7
ENDBRANCH   5   6
ENDBRANCH   4   5
ENDBRANCH   3   4
ENDBRANCH   2   3
TORSDOF 17
ENDMDL
MODEL      162
REMARK 921   NORMALIZED FREE ENERGY PREDICTED BY IDOCK:   -3.62 KCAL/MOL
REMARK 922        TOTAL FREE ENERGY PREDICTED BY IDOCK:  -10.05 KCAL/MOL
REMARK 923 INTER-LIGAND FREE ENERGY PREDICTED BY IDOCK:   -7.97 KCAL/MOL
REMARK 924 INTRA-LIGAND FREE ENERGY PREDICTED BY IDOCK:   -2.08 KCAL/MOL
REMARK 927      BINDING AFFINITY PREDICTED BY RF-SCORE:    0.00 PKD
ROOT
HETATM    1  C   UNL     1     -10.607  16.091  65.172  1.00  0.00    -0.394 C  
HETATM    2  C   UNL     1     -10.054  14.682  65.301  1.00  0.00    -0.393 C  
ENDROOT
BRANCH   2   3
HETATM    3  C   UNL     1     -10.835  13.705  64.425  1.00  0.00    -0.374 C  
BRANCH   3   4
HETATM    4  C   UNL     1     -12.289  13.607  64.879  1.00  0.00    -0.442 C  
BRANCH   4   5
HETATM    5  C   UNL     1     -12.367  13.108  66.317  1.00  0.00    -0.346 C  
BRANCH   5   6
HETATM    6  C   UNL     1     -11.517  11.858  66.503  1.00  0.00    -0.381 C  
BRANCH   6   7
HETATM    7  C   UNL     1     -10.983  11.788  67.927  1.00  0.00    -0.272 C  
BRANCH   7   8
HETATM    8  C   UNL     1     -11.104  13.143  68.608  1.00  0.00    -0.304 C  
BRANCH   8   9
HETATM    9  C   UNL     1     -11.844  13.005  69.932  1.00  0.00    -0.377 C  
BRANCH   9  10
HETATM   10  C   UNL     1     -12.184  11.546  70.193  1.00  0.00    -0.387 C  
BRANCH  10  11
HETATM   11  C   UNL     1     -12.811  11.376  71.566  1.00  0.00    -0.508 C  
BRANCH  11  12
HETATM   12  C   UNL     1     -12.932   9.898  71.897  1.00  0.00    -0.545 C  
BRANCH  12  13
HETATM   13  C   UNL     1     -11.611   9.168  71.683  1.00  0.00    -0.449 C  
BRANCH  13  14
HETATM   14  C   UNL     1     -11.427   8.004  72.656  1.00  0.00    -0.465 C  
BRANCH  14  15
HETATM   15  C   UNL     1     -10.014   7.862  73.229  1.00  0.00    -0.331 C  
BRANCH  15  16
HETATM   16  C   UNL     1      -8.941   8.502  72.344  1.00  0.00    -0.214 C  
BRANCH  16  17
HETATM   17  N   UNL     1      -7.638   7.686  72.264  1.00  0.00    -0.078 N  
HETATM   18  C   UNL     1      -6.470   8.478  72.839  1.00  0.00    -0.076 C  
HETATM   19  C   UNL     1      -7.784   6.373  73.030  1.00  0.00    -0.098 C  
BRANCH  17  20
HETATM   20  C   UNL     1      -7.381   7.373  70.748  1.00  0.00    -0.069 C  
BRANCH  20  21
HETATM   21  C   UNL     1      -8.615   6.970  69.978  1.00  0.00    -0.141 A  
HETATM   22  C   UNL     1      -9.234   7.875  69.100  1.00  0.00    -0.144 A  
HETATM   23  C   UNL     1     -10.509   7.609  68.602  1.00  0.00    -0.203 A  
HETATM   24  C   UNL     1     -11.159   6.426  68.947  1.00  0.00    -0.420 A  
HETATM   25  C   UNL     1     -10.515   5.482  69.740  1.00  0.00    -0.389 A  
HETATM   26  C   UNL     1      -9.237   5.739  70.233  1.00  0.00    -0.174 A  
ENDBRANCH  20  21
ENDBRANCH  17  20
ENDBRANCH  16  17
ENDBRANCH  15  16
ENDBRANCH  14  15
ENDBRANCH  13  14
ENDBRANCH  12  13
ENDBRANCH  11  12
ENDBRANCH  10  11
ENDBRANCH   9  10
ENDBRANCH   8   9
ENDBRANCH   7   8
ENDBRANCH   6   7
ENDBRANCH   5   6
ENDBRANCH   4   5
ENDBRANCH   3   4
ENDBRANCH   2   3
TORSDOF 17
ENDMDL
MODEL      163
REMARK 921   NORMALIZED FREE ENERGY PREDICTED BY IDOCK:   -3.61 KCAL/MOL
REMARK 922        TOTAL FREE ENERGY PREDICTED BY IDOCK:  -10.04 KCAL/MOL
REMARK 923 INTER-LIGAND FREE ENERGY PREDICTED BY IDOCK:   -8.82 KCAL/MOL
REMARK 924 INTRA-LIGAND FREE ENERGY PREDICTED BY IDOCK:   -1.22 KCAL/MOL
REMARK 927      BINDING AFFINITY PREDICTED BY RF-SCORE:    0.00 PKD
ROOT
HETATM    1  C   UNL     1     -10.993   5.855  71.919  1.00  0.00    -0.321 C  
HETATM    2  C   UNL     1     -11.825   6.597  70.887  1.00  0.00    -0.434 C  
ENDROOT
BRANCH   2   3
HETATM    3  C   UNL     1     -12.992   7.326  71.548  1.00  0.00    -0.434 C  
BRANCH   3   4
HETATM    4  C   UNL     1     -12.521   8.606  72.231  1.00  0.00    -0.460 C  
BRANCH   4   5
HETATM    5  C   UNL     1     -13.398   9.783  71.825  1.00  0.00    -0.506 C  
BRANCH   5   6
HETATM    6  C   UNL     1     -12.567  10.874  71.161  1.00  0.00    -0.532 C  
BRANCH   6   7
HETATM    7  C   UNL     1     -11.978  10.366  69.853  1.00  0.00    -0.289 C  
BRANCH   7   8
HETATM    8  C   UNL     1     -10.466  10.234  69.965  1.00  0.00    -0.293 C  
BRANCH   8   9
HETATM    9  C   UNL     1      -9.982   9.021  69.181  1.00  0.00    -0.187 C  
BRANCH   9  10
HETATM   10  C   UNL     1     -10.141   9.264  67.689  1.00  0.00    -0.266 C  
BRANCH  10  11
HETATM   11  C   UNL     1      -9.160   8.418  66.896  1.00  0.00    -0.179 C  
BRANCH  11  12
HETATM   12  C   UNL     1      -8.967   9.013  65.512  1.00  0.00    -0.252 C  
BRANCH  12  13
HETATM   13  C   UNL     1     -10.047  10.039  65.190  1.00  0.00    -0.268 C  
BRANCH  13  14
HETATM   14  C   UNL     1      -9.809  10.731  63.848  1.00  0.00    -0.389 C  
BRANCH  14  15
HETATM   15  C   UNL     1     -10.479  12.101  63.703  1.00  0.00    -0.495 C  
BRANCH  15  16
HETATM   16  C   UNL     1     -11.775  12.223  64.509  1.00  0.00    -0.353 C  
BRANCH  16  17
HETATM   17  N   UNL     1     -11.709  13.279  65.628  1.00  0.00    -0.340 N  
HETATM   18  C   UNL     1     -12.821  14.308  65.464  1.00  0.00    -0.312 C  
HETATM   19  C   UNL     1     -11.836  12.611  66.997  1.00  0.00    -0.345 C  
BRANCH  17  20
HETATM   20  C   UNL     1     -10.308  13.977  65.523  1.00  0.00    -0.339 C  
BRANCH  20  21
HETATM   21  C   UNL     1     -10.159  15.208  66.382  1.00  0.00    -0.286 A  
HETATM   22  C   UNL     1     -10.087  15.097  67.780  1.00  0.00    -0.230 A  
HETATM   23  C   UNL     1     -10.224  16.229  68.583  1.00  0.00    -0.254 A  
HETATM   24  C   UNL     1     -10.398  17.481  67.997  1.00  0.00    -0.368 A  
HETATM   25  C   UNL     1     -10.376  17.613  66.612  1.00  0.00    -0.333 A  
HETATM   26  C   UNL     1     -10.231  16.485  65.806  1.00  0.00    -0.350 A  
ENDBRANCH  20  21
ENDBRANCH  17  20
ENDBRANCH  16  17
ENDBRANCH  15  16
ENDBRANCH  14  15
ENDBRANCH  13  14
ENDBRANCH  12  13
ENDBRANCH  11  12
ENDBRANCH  10  11
ENDBRANCH   9  10
ENDBRANCH   8   9
ENDBRANCH   7   8
ENDBRANCH   6   7
ENDBRANCH   5   6
ENDBRANCH   4   5
ENDBRANCH   3   4
ENDBRANCH   2   3
TORSDOF 17
ENDMDL
MODEL      164
REMARK 921   NORMALIZED FREE ENERGY PREDICTED BY IDOCK:   -3.61 KCAL/MOL
REMARK 922        TOTAL FREE ENERGY PREDICTED BY IDOCK:  -10.03 KCAL/MOL
REMARK 923 INTER-LIGAND FREE ENERGY PREDICTED BY IDOCK:   -8.28 KCAL/MOL
REMARK 924 INTRA-LIGAND FREE ENERGY PREDICTED BY IDOCK:   -1.75 KCAL/MOL
REMARK 927      BINDING AFFINITY PREDICTED BY RF-SCORE:    0.00 PKD
ROOT
HETATM    1  C   UNL     1      -7.882   9.875  68.116  1.00  0.00    -0.085 C  
HETATM    2  C   UNL     1      -8.432  10.380  66.792  1.00  0.00    -0.125 C  
ENDROOT
BRANCH   2   3
HETATM    3  C   UNL     1      -9.412   9.378  66.188  1.00  0.00    -0.287 C  
BRANCH   3   4
HETATM    4  C   UNL     1      -9.366   8.050  66.938  1.00  0.00    -0.209 C  
BRANCH   4   5
HETATM    5  C   UNL     1     -10.774   7.585  67.288  1.00  0.00    -0.365 C  
BRANCH   5   6
HETATM    6  C   UNL     1     -10.736   6.256  68.031  1.00  0.00    -0.369 C  
BRANCH   6   7
HETATM    7  C   UNL     1     -11.512   6.358  69.337  1.00  0.00    -0.374 C  
BRANCH   7   8
HETATM    8  C   UNL     1     -10.665   5.867  70.500  1.00  0.00    -0.363 C  
BRANCH   8   9
HETATM    9  C   UNL     1     -11.061   6.587  71.783  1.00  0.00    -0.299 C  
BRANCH   9  10
HETATM   10  C   UNL     1     -11.988   7.750  71.467  1.00  0.00    -0.329 C  
BRANCH  10  11
HETATM   11  C   UNL     1     -11.319   9.075  71.788  1.00  0.00    -0.447 C  
BRANCH  11  12
HETATM   12  C   UNL     1     -11.961  10.186  70.974  1.00  0.00    -0.474 C  
BRANCH  12  13
HETATM   13  C   UNL     1     -11.147  10.505  69.725  1.00  0.00    -0.354 C  
BRANCH  13  14
HETATM   14  C   UNL     1     -11.893  11.436  68.769  1.00  0.00    -0.388 C  
BRANCH  14  15
HETATM   15  C   UNL     1     -11.041  12.561  68.174  1.00  0.00    -0.282 C  
BRANCH  15  16
HETATM   16  C   UNL     1     -11.617  13.955  68.441  1.00  0.00    -0.332 C  
BRANCH  16  17
HETATM   17  N   UNL     1     -10.551  15.064  68.499  1.00  0.00    -0.230 N  
HETATM   18  C   UNL     1     -10.748  15.938  69.731  1.00  0.00    -0.324 C  
HETATM   19  C   UNL     1      -9.150  14.454  68.529  1.00  0.00    -0.193 C  
BRANCH  17  20
HETATM   20  C   UNL     1     -10.709  15.925  67.197  1.00  0.00    -0.301 C  
BRANCH  20  21
HETATM   21  C   UNL     1     -10.082  17.295  67.276  1.00  0.00    -0.300 A  
HETATM   22  C   UNL     1     -10.876  18.430  67.506  1.00  0.00    -0.304 A  
HETATM   23  C   UNL     1     -10.351  19.707  67.309  1.00  0.00    -0.577 A  
HETATM   24  C   UNL     1      -9.023  19.861  66.917  1.00  0.00    -0.434 A  
HETATM   25  C   UNL     1      -8.202  18.745  66.779  1.00  0.00    -0.286 A  
HETATM   26  C   UNL     1      -8.721  17.468  66.982  1.00  0.00    -0.254 A  
ENDBRANCH  20  21
ENDBRANCH  17  20
ENDBRANCH  16  17
ENDBRANCH  15  16
ENDBRANCH  14  15
ENDBRANCH  13  14
ENDBRANCH  12  13
ENDBRANCH  11  12
ENDBRANCH  10  11
ENDBRANCH   9  10
ENDBRANCH   8   9
ENDBRANCH   7   8
ENDBRANCH   6   7
ENDBRANCH   5   6
ENDBRANCH   4   5
ENDBRANCH   3   4
ENDBRANCH   2   3
TORSDOF 17
ENDMDL
MODEL      165
REMARK 921   NORMALIZED FREE ENERGY PREDICTED BY IDOCK:   -3.59 KCAL/MOL
REMARK 922        TOTAL FREE ENERGY PREDICTED BY IDOCK:  -10.00 KCAL/MOL
REMARK 923 INTER-LIGAND FREE ENERGY PREDICTED BY IDOCK:   -8.14 KCAL/MOL
REMARK 924 INTRA-LIGAND FREE ENERGY PREDICTED BY IDOCK:   -1.87 KCAL/MOL
REMARK 927      BINDING AFFINITY PREDICTED BY RF-SCORE:    0.00 PKD
ROOT
HETATM    1  C   UNL     1      -9.304   4.068  72.864  1.00  0.00    -0.140 C  
HETATM    2  C   UNL     1     -10.085   4.984  71.937  1.00  0.00    -0.257 C  
ENDROOT
BRANCH   2   3
HETATM    3  C   UNL     1     -11.317   5.551  72.638  1.00  0.00    -0.346 C  
BRANCH   3   4
HETATM    4  C   UNL     1     -12.092   6.483  71.711  1.00  0.00    -0.393 C  
BRANCH   4   5
HETATM    5  C   UNL     1     -11.151   7.482  71.049  1.00  0.00    -0.274 C  
BRANCH   5   6
HETATM    6  C   UNL     1     -10.992   8.729  71.910  1.00  0.00    -0.435 C  
BRANCH   6   7
HETATM    7  C   UNL     1     -11.809   9.877  71.333  1.00  0.00    -0.476 C  
BRANCH   7   8
HETATM    8  C   UNL     1     -11.175  10.389  70.049  1.00  0.00    -0.385 C  
BRANCH   8   9
HETATM    9  C   UNL     1     -11.797  11.721  69.648  1.00  0.00    -0.407 C  
BRANCH   9  10
HETATM   10  C   UNL     1     -12.681  12.245  70.767  1.00  0.00    -0.212 C  
BRANCH  10  11
HETATM   11  C   UNL     1     -12.419  13.721  71.016  1.00  0.00    -0.458 C  
BRANCH  11  12
HETATM   12  C   UNL     1     -11.555  14.285  69.901  1.00  0.00    -0.337 C  
BRANCH  12  13
HETATM   13  C   UNL     1     -11.660  15.804  69.828  1.00  0.00    -0.359 C  
BRANCH  13  14
HETATM   14  C   UNL     1     -11.156  16.357  68.495  1.00  0.00    -0.357 C  
BRANCH  14  15
HETATM   15  C   UNL     1     -10.470  15.329  67.591  1.00  0.00    -0.263 C  
BRANCH  15  16
HETATM   16  C   UNL     1     -10.817  15.505  66.110  1.00  0.00    -0.295 C  
BRANCH  16  17
HETATM   17  N   UNL     1     -11.439  14.252  65.467  1.00  0.00    -0.322 N  
HETATM   18  C   UNL     1     -12.266  13.478  66.486  1.00  0.00    -0.380 C  
HETATM   19  C   UNL     1     -12.326  14.645  64.287  1.00  0.00    -0.349 C  
BRANCH  17  20
HETATM   20  C   UNL     1     -10.254  13.364  64.948  1.00  0.00    -0.319 C  
BRANCH  20  21
HETATM   21  C   UNL     1      -9.984  12.136  65.782  1.00  0.00    -0.271 A  
HETATM   22  C   UNL     1      -9.080  12.188  66.856  1.00  0.00    -0.203 A  
HETATM   23  C   UNL     1      -8.625  11.011  67.449  1.00  0.00    -0.132 A  
HETATM   24  C   UNL     1      -9.095   9.778  66.999  1.00  0.00    -0.157 A  
HETATM   25  C   UNL     1     -10.061   9.721  66.001  1.00  0.00    -0.322 A  
HETATM   26  C   UNL     1     -10.525  10.896  65.411  1.00  0.00    -0.291 A  
ENDBRANCH  20  21
ENDBRANCH  17  20
ENDBRANCH  16  17
ENDBRANCH  15  16
ENDBRANCH  14  15
ENDBRANCH  13  14
ENDBRANCH  12  13
ENDBRANCH  11  12
ENDBRANCH  10  11
ENDBRANCH   9  10
ENDBRANCH   8   9
ENDBRANCH   7   8
ENDBRANCH   6   7
ENDBRANCH   5   6
ENDBRANCH   4   5
ENDBRANCH   3   4
ENDBRANCH   2   3
TORSDOF 17
ENDMDL
MODEL      166
REMARK 921   NORMALIZED FREE ENERGY PREDICTED BY IDOCK:   -3.57 KCAL/MOL
REMARK 922        TOTAL FREE ENERGY PREDICTED BY IDOCK:   -9.95 KCAL/MOL
REMARK 923 INTER-LIGAND FREE ENERGY PREDICTED BY IDOCK:   -7.09 KCAL/MOL
REMARK 924 INTRA-LIGAND FREE ENERGY PREDICTED BY IDOCK:   -2.86 KCAL/MOL
REMARK 927      BINDING AFFINITY PREDICTED BY RF-SCORE:    0.00 PKD
ROOT
HETATM    1  C   UNL     1      -7.201  10.561  69.848  1.00  0.00    -0.136 C  
HETATM    2  C   UNL     1      -8.041   9.297  69.799  1.00  0.00    -0.120 C  
ENDROOT
BRANCH   2   3
HETATM    3  C   UNL     1      -9.527   9.630  69.699  1.00  0.00    -0.226 C  
BRANCH   3   4
HETATM    4  C   UNL     1     -10.214   9.474  71.053  1.00  0.00    -0.332 C  
BRANCH   4   5
HETATM    5  C   UNL     1     -11.728   9.512  70.892  1.00  0.00    -0.391 C  
BRANCH   5   6
HETATM    6  C   UNL     1     -12.393   8.465  71.777  1.00  0.00    -0.375 C  
BRANCH   6   7
HETATM    7  C   UNL     1     -11.352   7.763  72.638  1.00  0.00    -0.449 C  
BRANCH   7   8
HETATM    8  C   UNL     1     -11.409   6.258  72.421  1.00  0.00    -0.333 C  
BRANCH   8   9
HETATM    9  C   UNL     1     -10.095   5.759  71.834  1.00  0.00    -0.228 C  
BRANCH   9  10
HETATM   10  C   UNL     1     -10.334   5.134  70.469  1.00  0.00    -0.314 C  
BRANCH  10  11
HETATM   11  C   UNL     1      -9.964   6.103  69.359  1.00  0.00    -0.205 C  
BRANCH  11  12
HETATM   12  C   UNL     1     -11.101   6.193  68.355  1.00  0.00    -0.343 C  
BRANCH  12  13
HETATM   13  C   UNL     1     -10.765   7.150  67.217  1.00  0.00    -0.399 C  
BRANCH  13  14
HETATM   14  C   UNL     1      -9.271   7.166  66.894  1.00  0.00    -0.174 C  
BRANCH  14  15
HETATM   15  C   UNL     1      -8.800   8.381  66.090  1.00  0.00    -0.198 C  
BRANCH  15  16
HETATM   16  C   UNL     1      -9.928   9.368  65.777  1.00  0.00    -0.208 C  
BRANCH  16  17
HETATM   17  N   UNL     1      -9.439  10.693  65.165  1.00  0.00    -0.208 N  
HETATM   18  C   UNL     1      -8.322  10.442  64.159  1.00  0.00    -0.139 C  
HETATM   19  C   UNL     1     -10.592  11.416  64.470  1.00  0.00    -0.328 C  
BRANCH  17  20
HETATM   20  C   UNL     1      -8.911  11.580  66.346  1.00  0.00    -0.197 C  
BRANCH  20  21
HETATM   21  C   UNL     1      -9.939  12.520  66.928  1.00  0.00    -0.229 A  
HETATM   22  C   UNL     1      -9.769  13.910  66.829  1.00  0.00    -0.282 A  
HETATM   23  C   UNL     1     -10.560  14.770  67.591  1.00  0.00    -0.262 A  
HETATM   24  C   UNL     1     -11.546  14.251  68.427  1.00  0.00    -0.354 A  
HETATM   25  C   UNL     1     -11.784  12.881  68.459  1.00  0.00    -0.374 A  
HETATM   26  C   UNL     1     -11.002  12.018  67.693  1.00  0.00    -0.287 A  
ENDBRANCH  20  21
ENDBRANCH  17  20
ENDBRANCH  16  17
ENDBRANCH  15  16
ENDBRANCH  14  15
ENDBRANCH  13  14
ENDBRANCH  12  13
ENDBRANCH  11  12
ENDBRANCH  10  11
ENDBRANCH   9  10
ENDBRANCH   8   9
ENDBRANCH   7   8
ENDBRANCH   6   7
ENDBRANCH   5   6
ENDBRANCH   4   5
ENDBRANCH   3   4
ENDBRANCH   2   3
TORSDOF 17
ENDMDL
MODEL      167
REMARK 921   NORMALIZED FREE ENERGY PREDICTED BY IDOCK:   -3.57 KCAL/MOL
REMARK 922        TOTAL FREE ENERGY PREDICTED BY IDOCK:   -9.95 KCAL/MOL
REMARK 923 INTER-LIGAND FREE ENERGY PREDICTED BY IDOCK:   -7.05 KCAL/MOL
REMARK 924 INTRA-LIGAND FREE ENERGY PREDICTED BY IDOCK:   -2.90 KCAL/MOL
REMARK 927      BINDING AFFINITY PREDICTED BY RF-SCORE:    0.00 PKD
ROOT
HETATM    1  C   UNL     1      -9.003  14.224  66.880  1.00  0.00    -0.255 C  
HETATM    2  C   UNL     1      -9.741  13.073  67.543  1.00  0.00    -0.206 C  
ENDROOT
BRANCH   2   3
HETATM    3  C   UNL     1     -11.247  13.185  67.316  1.00  0.00    -0.319 C  
BRANCH   3   4
HETATM    4  C   UNL     1     -11.571  14.333  66.364  1.00  0.00    -0.381 C  
BRANCH   4   5
HETATM    5  C   UNL     1     -12.758  13.973  65.479  1.00  0.00    -0.517 C  
BRANCH   5   6
HETATM    6  C   UNL     1     -12.556  12.610  64.830  1.00  0.00    -0.530 C  
BRANCH   6   7
HETATM    7  C   UNL     1     -11.902  12.767  63.464  1.00  0.00    -0.618 C  
BRANCH   7   8
HETATM    8  C   UNL     1     -10.510  12.154  63.465  1.00  0.00    -0.490 C  
BRANCH   8   9
HETATM    9  C   UNL     1     -10.448  10.986  64.441  1.00  0.00    -0.422 C  
BRANCH   9  10
HETATM   10  C   UNL     1      -9.147  10.221  64.261  1.00  0.00    -0.278 C  
BRANCH  10  11
HETATM   11  C   UNL     1      -8.193  10.501  65.409  1.00  0.00    -0.152 C  
BRANCH  11  12
HETATM   12  C   UNL     1      -6.797  10.020  65.049  1.00  0.00    -0.132 C  
BRANCH  12  13
HETATM   13  C   UNL     1      -6.713   8.498  65.053  1.00  0.00    -0.064 C  
BRANCH  13  14
HETATM   14  C   UNL     1      -6.856   7.913  66.458  1.00  0.00    -0.070 C  
BRANCH  14  15
HETATM   15  C   UNL     1      -7.415   6.488  66.507  1.00  0.00    -0.086 C  
BRANCH  15  16
HETATM   16  C   UNL     1      -8.707   6.322  65.702  1.00  0.00    -0.114 C  
BRANCH  16  17
HETATM   17  N   UNL     1      -9.618   5.194  66.221  1.00  0.00    -0.154 N  
HETATM   18  C   UNL     1      -9.996   4.244  65.091  1.00  0.00    -0.204 C  
HETATM   19  C   UNL     1      -8.916   4.410  67.328  1.00  0.00    -0.120 C  
BRANCH  17  20
HETATM   20  C   UNL     1     -10.905   5.874  66.807  1.00  0.00    -0.270 C  
BRANCH  20  21
HETATM   21  C   UNL     1     -10.634   7.083  67.668  1.00  0.00    -0.327 A  
HETATM   22  C   UNL     1     -10.572   6.962  69.066  1.00  0.00    -0.240 A  
HETATM   23  C   UNL     1     -10.596   8.100  69.872  1.00  0.00    -0.239 A  
HETATM   24  C   UNL     1     -10.646   9.364  69.289  1.00  0.00    -0.239 A  
HETATM   25  C   UNL     1     -10.612   9.497  67.904  1.00  0.00    -0.299 A  
HETATM   26  C   UNL     1     -10.580   8.362  67.095  1.00  0.00    -0.326 A  
ENDBRANCH  20  21
ENDBRANCH  17  20
ENDBRANCH  16  17
ENDBRANCH  15  16
ENDBRANCH  14  15
ENDBRANCH  13  14
ENDBRANCH  12  13
ENDBRANCH  11  12
ENDBRANCH  10  11
ENDBRANCH   9  10
ENDBRANCH   8   9
ENDBRANCH   7   8
ENDBRANCH   6   7
ENDBRANCH   5   6
ENDBRANCH   4   5
ENDBRANCH   3   4
ENDBRANCH   2   3
TORSDOF 17
ENDMDL
MODEL      168
REMARK 921   NORMALIZED FREE ENERGY PREDICTED BY IDOCK:   -3.55 KCAL/MOL
REMARK 922        TOTAL FREE ENERGY PREDICTED BY IDOCK:   -9.91 KCAL/MOL
REMARK 923 INTER-LIGAND FREE ENERGY PREDICTED BY IDOCK:   -7.64 KCAL/MOL
REMARK 924 INTRA-LIGAND FREE ENERGY PREDICTED BY IDOCK:   -2.26 KCAL/MOL
REMARK 927      BINDING AFFINITY PREDICTED BY RF-SCORE:    0.00 PKD
ROOT
HETATM    1  C   UNL     1      -8.977  14.465  66.650  1.00  0.00    -0.232 C  
HETATM    2  C   UNL     1      -9.540  15.657  65.896  1.00  0.00    -0.385 C  
ENDROOT
BRANCH   2   3
HETATM    3  C   UNL     1     -10.876  15.310  65.243  1.00  0.00    -0.417 C  
BRANCH   3   4
HETATM    4  C   UNL     1     -11.741  14.472  66.180  1.00  0.00    -0.355 C  
BRANCH   4   5
HETATM    5  C   UNL     1     -12.640  13.536  65.383  1.00  0.00    -0.531 C  
BRANCH   5   6
HETATM    6  C   UNL     1     -12.174  13.440  63.936  1.00  0.00    -0.478 C  
BRANCH   6   7
HETATM    7  C   UNL     1     -11.973  11.983  63.541  1.00  0.00    -0.605 C  
BRANCH   7   8
HETATM    8  C   UNL     1     -10.514  11.584  63.699  1.00  0.00    -0.483 C  
BRANCH   8   9
HETATM    9  C   UNL     1     -10.381  10.465  64.725  1.00  0.00    -0.221 C  
BRANCH   9  10
HETATM   10  C   UNL     1      -9.900  11.026  66.053  1.00  0.00    -0.273 C  
BRANCH  10  11
HETATM   11  C   UNL     1     -10.845  10.638  67.177  1.00  0.00    -0.328 C  
BRANCH  11  12
HETATM   12  C   UNL     1     -10.836  11.711  68.252  1.00  0.00    -0.260 C  
BRANCH  12  13
HETATM   13  C   UNL     1     -11.068  11.117  69.636  1.00  0.00    -0.297 C  
BRANCH  13  14
HETATM   14  C   UNL     1     -10.377   9.765  69.810  1.00  0.00    -0.274 C  
BRANCH  14  15
HETATM   15  C   UNL     1      -8.853   9.796  69.660  1.00  0.00    -0.224 C  
BRANCH  15  16
HETATM   16  C   UNL     1      -8.117   9.267  70.894  1.00  0.00    -0.124 C  
BRANCH  16  17
HETATM   17  N   UNL     1      -7.320   7.976  70.632  1.00  0.00    -0.055 N  
HETATM   18  C   UNL     1      -7.557   7.475  69.213  1.00  0.00    -0.100 C  
HETATM   19  C   UNL     1      -5.826   8.222  70.839  1.00  0.00    -0.033 C  
BRANCH  17  20
HETATM   20  C   UNL     1      -7.816   6.910  71.670  1.00  0.00    -0.100 C  
BRANCH  20  21
HETATM   21  C   UNL     1      -9.312   6.869  71.857  1.00  0.00    -0.145 A  
HETATM   22  C   UNL     1     -10.126   6.182  70.942  1.00  0.00    -0.237 A  
HETATM   23  C   UNL     1     -11.509   6.368  70.953  1.00  0.00    -0.406 A  
HETATM   24  C   UNL     1     -12.090   7.211  71.897  1.00  0.00    -0.357 A  
HETATM   25  C   UNL     1     -11.301   7.822  72.867  1.00  0.00    -0.406 A  
HETATM   26  C   UNL     1      -9.920   7.633  72.865  1.00  0.00    -0.319 A  
ENDBRANCH  20  21
ENDBRANCH  17  20
ENDBRANCH  16  17
ENDBRANCH  15  16
ENDBRANCH  14  15
ENDBRANCH  13  14
ENDBRANCH  12  13
ENDBRANCH  11  12
ENDBRANCH  10  11
ENDBRANCH   9  10
ENDBRANCH   8   9
ENDBRANCH   7   8
ENDBRANCH   6   7
ENDBRANCH   5   6
ENDBRANCH   4   5
ENDBRANCH   3   4
ENDBRANCH   2   3
TORSDOF 17
ENDMDL
MODEL      169
REMARK 921   NORMALIZED FREE ENERGY PREDICTED BY IDOCK:   -3.54 KCAL/MOL
REMARK 922        TOTAL FREE ENERGY PREDICTED BY IDOCK:   -9.90 KCAL/MOL
REMARK 923 INTER-LIGAND FREE ENERGY PREDICTED BY IDOCK:   -7.15 KCAL/MOL
REMARK 924 INTRA-LIGAND FREE ENERGY PREDICTED BY IDOCK:   -2.76 KCAL/MOL
REMARK 927      BINDING AFFINITY PREDICTED BY RF-SCORE:    0.00 PKD
ROOT
HETATM    1  C   UNL     1     -10.899   7.549  73.136  1.00  0.00    -0.448 C  
HETATM    2  C   UNL     1     -11.698   6.815  72.072  1.00  0.00    -0.343 C  
ENDROOT
BRANCH   2   3
HETATM    3  C   UNL     1     -12.763   7.724  71.464  1.00  0.00    -0.355 C  
BRANCH   3   4
HETATM    4  C   UNL     1     -13.059   8.908  72.380  1.00  0.00    -0.476 C  
BRANCH   4   5
HETATM    5  C   UNL     1     -13.134  10.200  71.576  1.00  0.00    -0.529 C  
BRANCH   5   6
HETATM    6  C   UNL     1     -11.827  10.454  70.837  1.00  0.00    -0.475 C  
BRANCH   6   7
HETATM    7  C   UNL     1     -11.935  11.716  69.991  1.00  0.00    -0.429 C  
BRANCH   7   8
HETATM    8  C   UNL     1     -12.581  12.838  70.789  1.00  0.00    -0.308 C  
BRANCH   8   9
HETATM    9  C   UNL     1     -12.114  14.192  70.268  1.00  0.00    -0.412 C  
BRANCH   9  10
HETATM   10  C   UNL     1     -10.933  14.014  69.328  1.00  0.00    -0.242 C  
BRANCH  10  11
HETATM   11  C   UNL     1     -11.127  14.825  68.058  1.00  0.00    -0.294 C  
BRANCH  11  12
HETATM   12  C   UNL     1     -12.118  14.124  67.145  1.00  0.00    -0.432 C  
BRANCH  12  13
HETATM   13  C   UNL     1     -11.410  13.369  66.027  1.00  0.00    -0.329 C  
BRANCH  13  14
HETATM   14  C   UNL     1     -11.528  11.853  66.184  1.00  0.00    -0.352 C  
BRANCH  14  15
HETATM   15  C   UNL     1     -10.201  11.092  66.104  1.00  0.00    -0.293 C  
BRANCH  15  16
HETATM   16  C   UNL     1      -8.983  11.981  66.370  1.00  0.00    -0.161 C  
BRANCH  16  17
HETATM   17  N   UNL     1      -7.948  11.345  67.315  1.00  0.00    -0.141 N  
HETATM   18  C   UNL     1      -7.411  10.045  66.730  1.00  0.00    -0.095 C  
HETATM   19  C   UNL     1      -6.786  12.308  67.557  1.00  0.00    -0.135 C  
BRANCH  17  20
HETATM   20  C   UNL     1      -8.676  11.064  68.676  1.00  0.00    -0.161 C  
BRANCH  20  21
HETATM   21  C   UNL     1      -8.281   9.767  69.337  1.00  0.00    -0.135 A  
HETATM   22  C   UNL     1      -9.098   8.630  69.222  1.00  0.00    -0.149 A  
HETATM   23  C   UNL     1      -8.883   7.524  70.044  1.00  0.00    -0.144 A  
HETATM   24  C   UNL     1      -7.833   7.531  70.960  1.00  0.00    -0.091 A  
HETATM   25  C   UNL     1      -6.962   8.614  71.015  1.00  0.00    -0.069 A  
HETATM   26  C   UNL     1      -7.168   9.718  70.189  1.00  0.00    -0.146 A  
ENDBRANCH  20  21
ENDBRANCH  17  20
ENDBRANCH  16  17
ENDBRANCH  15  16
ENDBRANCH  14  15
ENDBRANCH  13  14
ENDBRANCH  12  13
ENDBRANCH  11  12
ENDBRANCH  10  11
ENDBRANCH   9  10
ENDBRANCH   8   9
ENDBRANCH   7   8
ENDBRANCH   6   7
ENDBRANCH   5   6
ENDBRANCH   4   5
ENDBRANCH   3   4
ENDBRANCH   2   3
TORSDOF 17
ENDMDL
MODEL      170
REMARK 921   NORMALIZED FREE ENERGY PREDICTED BY IDOCK:   -3.54 KCAL/MOL
REMARK 922        TOTAL FREE ENERGY PREDICTED BY IDOCK:   -9.90 KCAL/MOL
REMARK 923 INTER-LIGAND FREE ENERGY PREDICTED BY IDOCK:   -7.22 KCAL/MOL
REMARK 924 INTRA-LIGAND FREE ENERGY PREDICTED BY IDOCK:   -2.68 KCAL/MOL
REMARK 927      BINDING AFFINITY PREDICTED BY RF-SCORE:    0.00 PKD
ROOT
HETATM    1  C   UNL     1     -13.613  14.016  72.542  1.00  0.00    -0.670 C  
HETATM    2  C   UNL     1     -12.715  13.899  71.323  1.00  0.00    -0.444 C  
ENDROOT
BRANCH   2   3
HETATM    3  C   UNL     1     -12.471  12.437  70.961  1.00  0.00    -0.353 C  
BRANCH   3   4
HETATM    4  C   UNL     1     -13.271  11.508  71.870  1.00  0.00    -0.479 C  
BRANCH   4   5
HETATM    5  C   UNL     1     -13.354  10.111  71.268  1.00  0.00    -0.394 C  
BRANCH   5   6
HETATM    6  C   UNL     1     -13.518   9.061  72.358  1.00  0.00    -0.524 C  
BRANCH   6   7
HETATM    7  C   UNL     1     -14.276   7.855  71.820  1.00  0.00    -0.555 C  
BRANCH   7   8
HETATM    8  C   UNL     1     -13.332   6.917  71.084  1.00  0.00    -0.114 C  
BRANCH   8   9
HETATM    9  C   UNL     1     -12.098   6.637  71.933  1.00  0.00    -0.385 C  
BRANCH   9  10
HETATM   10  C   UNL     1     -10.872   6.497  71.045  1.00  0.00    -0.301 C  
BRANCH  10  11
HETATM   11  C   UNL     1     -11.276   6.221  69.607  1.00  0.00    -0.506 C  
BRANCH  11  12
HETATM   12  C   UNL     1     -10.036   6.018  68.753  1.00  0.00    -0.186 C  
BRANCH  12  13
HETATM   13  C   UNL     1     -10.220   6.595  67.355  1.00  0.00    -0.243 C  
BRANCH  13  14
HETATM   14  C   UNL     1      -9.142   6.117  66.382  1.00  0.00    -0.158 C  
BRANCH  14  15
HETATM   15  C   UNL     1      -8.553   7.210  65.486  1.00  0.00    -0.093 C  
BRANCH  15  16
HETATM   16  C   UNL     1      -7.533   8.094  66.209  1.00  0.00    -0.082 C  
BRANCH  16  17
HETATM   17  N   UNL     1      -7.277   9.442  65.510  1.00  0.00    -0.086 N  
HETATM   18  C   UNL     1      -5.819   9.560  65.084  1.00  0.00    -0.064 C  
HETATM   19  C   UNL     1      -8.176   9.583  64.282  1.00  0.00    -0.157 C  
BRANCH  17  20
HETATM   20  C   UNL     1      -7.631  10.571  66.540  1.00  0.00    -0.128 C  
BRANCH  20  21
HETATM   21  C   UNL     1      -8.631  10.161  67.594  1.00  0.00    -0.118 A  
HETATM   22  C   UNL     1     -10.008  10.326  67.373  1.00  0.00    -0.230 A  
HETATM   23  C   UNL     1     -10.908  10.209  68.431  1.00  0.00    -0.284 A  
HETATM   24  C   UNL     1     -10.446   9.892  69.707  1.00  0.00    -0.292 A  
HETATM   25  C   UNL     1      -9.095   9.634  69.916  1.00  0.00    -0.250 A  
HETATM   26  C   UNL     1      -8.192   9.742  68.859  1.00  0.00    -0.117 A  
ENDBRANCH  20  21
ENDBRANCH  17  20
ENDBRANCH  16  17
ENDBRANCH  15  16
ENDBRANCH  14  15
ENDBRANCH  13  14
ENDBRANCH  12  13
ENDBRANCH  11  12
ENDBRANCH  10  11
ENDBRANCH   9  10
ENDBRANCH   8   9
ENDBRANCH   7   8
ENDBRANCH   6   7
ENDBRANCH   5   6
ENDBRANCH   4   5
ENDBRANCH   3   4
ENDBRANCH   2   3
TORSDOF 17
ENDMDL
MODEL      171
REMARK 921   NORMALIZED FREE ENERGY PREDICTED BY IDOCK:   -3.52 KCAL/MOL
REMARK 922        TOTAL FREE ENERGY PREDICTED BY IDOCK:   -9.87 KCAL/MOL
REMARK 923 INTER-LIGAND FREE ENERGY PREDICTED BY IDOCK:   -7.90 KCAL/MOL
REMARK 924 INTRA-LIGAND FREE ENERGY PREDICTED BY IDOCK:   -1.96 KCAL/MOL
REMARK 927      BINDING AFFINITY PREDICTED BY RF-SCORE:    0.00 PKD
ROOT
HETATM    1  C   UNL     1      -8.251  19.083  67.830  1.00  0.00    -0.311 C  
HETATM    2  C   UNL     1      -9.576  19.372  67.148  1.00  0.00    -0.412 C  
ENDROOT
BRANCH   2   3
HETATM    3  C   UNL     1     -10.660  18.409  67.626  1.00  0.00    -0.437 C  
BRANCH   3   4
HETATM    4  C   UNL     1     -10.139  16.975  67.660  1.00  0.00    -0.298 C  
BRANCH   4   5
HETATM    5  C   UNL     1     -11.237  16.019  68.108  1.00  0.00    -0.325 C  
BRANCH   5   6
HETATM    6  C   UNL     1     -10.660  14.647  68.433  1.00  0.00    -0.241 C  
BRANCH   6   7
HETATM    7  C   UNL     1     -11.749  13.585  68.358  1.00  0.00    -0.393 C  
BRANCH   7   8
HETATM    8  C   UNL     1     -11.877  12.859  69.689  1.00  0.00    -0.387 C  
BRANCH   8   9
HETATM    9  C   UNL     1     -12.091  11.368  69.459  1.00  0.00    -0.370 C  
BRANCH   9  10
HETATM   10  C   UNL     1     -11.924  10.607  70.764  1.00  0.00    -0.477 C  
BRANCH  10  11
HETATM   11  C   UNL     1     -13.276  10.273  71.370  1.00  0.00    -0.464 C  
BRANCH  11  12
HETATM   12  C   UNL     1     -13.136   9.103  72.330  1.00  0.00    -0.509 C  
BRANCH  12  13
HETATM   13  C   UNL     1     -11.913   8.255  72.001  1.00  0.00    -0.405 C  
BRANCH  13  14
HETATM   14  C   UNL     1     -12.292   6.866  71.487  1.00  0.00    -0.420 C  
BRANCH  14  15
HETATM   15  C   UNL     1     -11.741   6.521  70.101  1.00  0.00    -0.419 C  
BRANCH  15  16
HETATM   16  C   UNL     1     -10.631   7.471  69.642  1.00  0.00    -0.239 C  
BRANCH  16  17
HETATM   17  N   UNL     1      -9.254   6.795  69.508  1.00  0.00    -0.147 N  
HETATM   18  C   UNL     1      -8.380   7.110  70.716  1.00  0.00    -0.128 C  
HETATM   19  C   UNL     1      -9.415   5.281  69.381  1.00  0.00    -0.138 C  
BRANCH  17  20
HETATM   20  C   UNL     1      -8.590   7.355  68.202  1.00  0.00    -0.123 C  
BRANCH  20  21
HETATM   21  C   UNL     1      -9.110   8.703  67.766  1.00  0.00    -0.143 A  
HETATM   22  C   UNL     1      -9.988   8.810  66.675  1.00  0.00    -0.355 A  
HETATM   23  C   UNL     1     -10.251  10.055  66.104  1.00  0.00    -0.283 A  
HETATM   24  C   UNL     1      -9.669  11.203  66.639  1.00  0.00    -0.224 A  
HETATM   25  C   UNL     1      -8.874  11.117  67.777  1.00  0.00    -0.135 A  
HETATM   26  C   UNL     1      -8.615   9.875  68.356  1.00  0.00    -0.116 A  
ENDBRANCH  20  21
ENDBRANCH  17  20
ENDBRANCH  16  17
ENDBRANCH  15  16
ENDBRANCH  14  15
ENDBRANCH  13  14
ENDBRANCH  12  13
ENDBRANCH  11  12
ENDBRANCH  10  11
ENDBRANCH   9  10
ENDBRANCH   8   9
ENDBRANCH   7   8
ENDBRANCH   6   7
ENDBRANCH   5   6
ENDBRANCH   4   5
ENDBRANCH   3   4
ENDBRANCH   2   3
TORSDOF 17
ENDMDL
MODEL      172
REMARK 921   NORMALIZED FREE ENERGY PREDICTED BY IDOCK:   -3.52 KCAL/MOL
REMARK 922        TOTAL FREE ENERGY PREDICTED BY IDOCK:   -9.85 KCAL/MOL
REMARK 923 INTER-LIGAND FREE ENERGY PREDICTED BY IDOCK:   -7.82 KCAL/MOL
REMARK 924 INTRA-LIGAND FREE ENERGY PREDICTED BY IDOCK:   -2.04 KCAL/MOL
REMARK 927      BINDING AFFINITY PREDICTED BY RF-SCORE:    0.00 PKD
ROOT
HETATM    1  C   UNL     1      -8.161  12.019  67.944  1.00  0.00    -0.153 C  
HETATM    2  C   UNL     1      -8.292  11.204  66.669  1.00  0.00    -0.160 C  
ENDROOT
BRANCH   2   3
HETATM    3  C   UNL     1      -9.504  10.278  66.733  1.00  0.00    -0.198 C  
BRANCH   3   4
HETATM    4  C   UNL     1     -10.023   9.960  65.333  1.00  0.00    -0.349 C  
BRANCH   4   5
HETATM    5  C   UNL     1      -9.745  11.119  64.384  1.00  0.00    -0.312 C  
BRANCH   5   6
HETATM    6  C   UNL     1     -10.936  11.367  63.468  1.00  0.00    -0.406 C  
BRANCH   6   7
HETATM    7  C   UNL     1     -11.575  12.713  63.784  1.00  0.00    -0.550 C  
BRANCH   7   8
HETATM    8  C   UNL     1     -12.453  12.609  65.022  1.00  0.00    -0.556 C  
BRANCH   8   9
HETATM    9  C   UNL     1     -12.186  13.779  65.959  1.00  0.00    -0.495 C  
BRANCH   9  10
HETATM   10  C   UNL     1     -11.485  13.294  67.218  1.00  0.00    -0.378 C  
BRANCH  10  11
HETATM   11  C   UNL     1     -11.787  14.210  68.391  1.00  0.00    -0.388 C  
BRANCH  11  12
HETATM   12  C   UNL     1     -11.911  13.393  69.665  1.00  0.00    -0.386 C  
BRANCH  12  13
HETATM   13  C   UNL     1     -11.778  11.900  69.386  1.00  0.00    -0.401 C  
BRANCH  13  14
HETATM   14  C   UNL     1     -12.328  11.045  70.527  1.00  0.00    -0.462 C  
BRANCH  14  15
HETATM   15  C   UNL     1     -11.479   9.820  70.880  1.00  0.00    -0.447 C  
BRANCH  15  16
HETATM   16  C   UNL     1     -10.216   9.699  70.023  1.00  0.00    -0.255 C  
BRANCH  16  17
HETATM   17  N   UNL     1      -9.462   8.371  70.218  1.00  0.00    -0.163 N  
HETATM   18  C   UNL     1     -10.219   7.220  69.567  1.00  0.00    -0.198 C  
HETATM   19  C   UNL     1      -8.061   8.461  69.614  1.00  0.00    -0.115 C  
BRANCH  17  20
HETATM   20  C   UNL     1      -9.342   8.131  71.764  1.00  0.00    -0.181 C  
BRANCH  20  21
HETATM   21  C   UNL     1      -9.742   6.747  72.213  1.00  0.00    -0.156 A  
HETATM   22  C   UNL     1     -11.009   6.517  72.773  1.00  0.00    -0.286 A  
HETATM   23  C   UNL     1     -11.280   5.318  73.432  1.00  0.00    -0.314 A  
HETATM   24  C   UNL     1     -10.302   4.328  73.504  1.00  0.00    -0.242 A  
HETATM   25  C   UNL     1      -9.076   4.509  72.871  1.00  0.00    -0.132 A  
HETATM   26  C   UNL     1      -8.805   5.703  72.204  1.00  0.00    -0.137 A  
ENDBRANCH  20  21
ENDBRANCH  17  20
ENDBRANCH  16  17
ENDBRANCH  15  16
ENDBRANCH  14  15
ENDBRANCH  13  14
ENDBRANCH  12  13
ENDBRANCH  11  12
ENDBRANCH  10  11
ENDBRANCH   9  10
ENDBRANCH   8   9
ENDBRANCH   7   8
ENDBRANCH   6   7
ENDBRANCH   5   6
ENDBRANCH   4   5
ENDBRANCH   3   4
ENDBRANCH   2   3
TORSDOF 17
ENDMDL
MODEL      173
REMARK 921   NORMALIZED FREE ENERGY PREDICTED BY IDOCK:   -3.52 KCAL/MOL
REMARK 922        TOTAL FREE ENERGY PREDICTED BY IDOCK:   -9.85 KCAL/MOL
REMARK 923 INTER-LIGAND FREE ENERGY PREDICTED BY IDOCK:   -8.33 KCAL/MOL
REMARK 924 INTRA-LIGAND FREE ENERGY PREDICTED BY IDOCK:   -1.52 KCAL/MOL
REMARK 927      BINDING AFFINITY PREDICTED BY RF-SCORE:    0.00 PKD
ROOT
HETATM    1  C   UNL     1     -11.298   7.797  72.695  1.00  0.00    -0.449 C  
HETATM    2  C   UNL     1     -12.089   7.319  71.489  1.00  0.00    -0.365 C  
ENDROOT
BRANCH   2   3
HETATM    3  C   UNL     1     -11.245   7.388  70.219  1.00  0.00    -0.268 C  
BRANCH   3   4
HETATM    4  C   UNL     1     -11.206   6.035  69.515  1.00  0.00    -0.416 C  
BRANCH   4   5
HETATM    5  C   UNL     1      -9.873   5.340  69.766  1.00  0.00    -0.282 C  
BRANCH   5   6
HETATM    6  C   UNL     1      -8.768   6.361  70.003  1.00  0.00    -0.142 C  
BRANCH   6   7
HETATM    7  C   UNL     1      -7.913   6.514  68.752  1.00  0.00    -0.111 C  
BRANCH   7   8
HETATM    8  C   UNL     1      -8.249   7.812  68.033  1.00  0.00    -0.123 C  
BRANCH   8   9
HETATM    9  C   UNL     1      -9.149   7.536  66.836  1.00  0.00    -0.166 C  
BRANCH   9  10
HETATM   10  C   UNL     1     -10.326   8.498  66.832  1.00  0.00    -0.367 C  
BRANCH  10  11
HETATM   11  C   UNL     1      -9.964   9.796  67.532  1.00  0.00    -0.230 C  
BRANCH  11  12
HETATM   12  C   UNL     1     -11.050  10.831  67.293  1.00  0.00    -0.339 C  
BRANCH  12  13
HETATM   13  C   UNL     1     -10.811  11.603  66.001  1.00  0.00    -0.339 C  
BRANCH  13  14
HETATM   14  C   UNL     1     -11.983  12.519  65.648  1.00  0.00    -0.492 C  
BRANCH  14  15
HETATM   15  C   UNL     1     -11.700  14.016  65.811  1.00  0.00    -0.368 C  
BRANCH  15  16
HETATM   16  C   UNL     1     -11.910  14.513  67.245  1.00  0.00    -0.392 C  
BRANCH  16  17
HETATM   17  N   UNL     1     -10.676  15.213  67.843  1.00  0.00    -0.262 N  
HETATM   18  C   UNL     1     -11.094  16.244  68.884  1.00  0.00    -0.345 C  
HETATM   19  C   UNL     1      -9.745  14.189  68.490  1.00  0.00    -0.219 C  
BRANCH  17  20
HETATM   20  C   UNL     1      -9.925  15.917  66.658  1.00  0.00    -0.257 C  
BRANCH  20  21
HETATM   21  C   UNL     1      -9.654  17.385  66.877  1.00  0.00    -0.279 A  
HETATM   22  C   UNL     1      -8.637  17.799  67.752  1.00  0.00    -0.237 A  
HETATM   23  C   UNL     1      -8.563  19.130  68.163  1.00  0.00    -0.359 A  
HETATM   24  C   UNL     1      -9.479  20.060  67.678  1.00  0.00    -0.498 A  
HETATM   25  C   UNL     1     -10.431  19.678  66.738  1.00  0.00    -0.605 A  
HETATM   26  C   UNL     1     -10.503  18.351  66.318  1.00  0.00    -0.421 A  
ENDBRANCH  20  21
ENDBRANCH  17  20
ENDBRANCH  16  17
ENDBRANCH  15  16
ENDBRANCH  14  15
ENDBRANCH  13  14
ENDBRANCH  12  13
ENDBRANCH  11  12
ENDBRANCH  10  11
ENDBRANCH   9  10
ENDBRANCH   8   9
ENDBRANCH   7   8
ENDBRANCH   6   7
ENDBRANCH   5   6
ENDBRANCH   4   5
ENDBRANCH   3   4
ENDBRANCH   2   3
TORSDOF 17
ENDMDL
MODEL      174
REMARK 921   NORMALIZED FREE ENERGY PREDICTED BY IDOCK:   -3.51 KCAL/MOL
REMARK 922        TOTAL FREE ENERGY PREDICTED BY IDOCK:   -9.83 KCAL/MOL
REMARK 923 INTER-LIGAND FREE ENERGY PREDICTED BY IDOCK:   -7.34 KCAL/MOL
REMARK 924 INTRA-LIGAND FREE ENERGY PREDICTED BY IDOCK:   -2.49 KCAL/MOL
REMARK 927      BINDING AFFINITY PREDICTED BY RF-SCORE:    0.00 PKD
ROOT
HETATM    1  C   UNL     1     -10.280   4.540  71.407  1.00  0.00    -0.183 C  
HETATM    2  C   UNL     1     -10.080   5.007  69.975  1.00  0.00    -0.342 C  
ENDROOT
BRANCH   2   3
HETATM    3  C   UNL     1     -10.997   6.183  69.650  1.00  0.00    -0.459 C  
BRANCH   3   4
HETATM    4  C   UNL     1     -11.762   6.638  70.889  1.00  0.00    -0.431 C  
BRANCH   4   5
HETATM    5  C   UNL     1     -11.795   8.159  70.968  1.00  0.00    -0.279 C  
BRANCH   5   6
HETATM    6  C   UNL     1     -11.549   8.633  72.395  1.00  0.00    -0.385 C  
BRANCH   6   7
HETATM    7  C   UNL     1     -10.555   7.714  73.092  1.00  0.00    -0.438 C  
BRANCH   7   8
HETATM    8  C   UNL     1      -9.143   8.267  72.973  1.00  0.00    -0.319 C  
BRANCH   8   9
HETATM    9  C   UNL     1      -8.143   7.130  72.801  1.00  0.00    -0.119 C  
BRANCH   9  10
HETATM   10  C   UNL     1      -7.461   7.232  71.446  1.00  0.00    -0.082 C  
BRANCH  10  11
HETATM   11  C   UNL     1      -8.158   8.255  70.567  1.00  0.00    -0.105 C  
BRANCH  11  12
HETATM   12  C   UNL     1      -7.230   8.688  69.445  1.00  0.00    -0.057 C  
BRANCH  12  13
HETATM   13  C   UNL     1      -7.978   8.824  68.123  1.00  0.00    -0.106 C  
BRANCH  13  14
HETATM   14  C   UNL     1      -9.338   9.501  68.293  1.00  0.00    -0.139 C  
BRANCH  14  15
HETATM   15  C   UNL     1      -9.289  11.029  68.383  1.00  0.00    -0.179 C  
BRANCH  15  16
HETATM   16  C   UNL     1     -10.667  11.683  68.250  1.00  0.00    -0.213 C  
BRANCH  16  17
HETATM   17  N   UNL     1     -10.610  13.175  67.877  1.00  0.00    -0.229 N  
HETATM   18  C   UNL     1      -9.517  13.887  68.664  1.00  0.00    -0.123 C  
HETATM   19  C   UNL     1     -10.345  13.340  66.381  1.00  0.00    -0.286 C  
BRANCH  17  20
HETATM   20  C   UNL     1     -12.011  13.792  68.223  1.00  0.00    -0.357 C  
BRANCH  20  21
HETATM   21  C   UNL     1     -12.250  14.008  69.697  1.00  0.00    -0.383 A  
HETATM   22  C   UNL     1     -12.513  12.918  70.544  1.00  0.00    -0.294 A  
HETATM   23  C   UNL     1     -12.998  13.132  71.834  1.00  0.00    -0.414 A  
HETATM   24  C   UNL     1     -13.190  14.431  72.299  1.00  0.00    -0.494 A  
HETATM   25  C   UNL     1     -12.843  15.517  71.501  1.00  0.00    -0.519 A  
HETATM   26  C   UNL     1     -12.349  15.307  70.214  1.00  0.00    -0.407 A  
ENDBRANCH  20  21
ENDBRANCH  17  20
ENDBRANCH  16  17
ENDBRANCH  15  16
ENDBRANCH  14  15
ENDBRANCH  13  14
ENDBRANCH  12  13
ENDBRANCH  11  12
ENDBRANCH  10  11
ENDBRANCH   9  10
ENDBRANCH   8   9
ENDBRANCH   7   8
ENDBRANCH   6   7
ENDBRANCH   5   6
ENDBRANCH   4   5
ENDBRANCH   3   4
ENDBRANCH   2   3
TORSDOF 17
ENDMDL
MODEL      175
REMARK 921   NORMALIZED FREE ENERGY PREDICTED BY IDOCK:   -3.50 KCAL/MOL
REMARK 922        TOTAL FREE ENERGY PREDICTED BY IDOCK:   -9.82 KCAL/MOL
REMARK 923 INTER-LIGAND FREE ENERGY PREDICTED BY IDOCK:   -6.35 KCAL/MOL
REMARK 924 INTRA-LIGAND FREE ENERGY PREDICTED BY IDOCK:   -3.47 KCAL/MOL
REMARK 927      BINDING AFFINITY PREDICTED BY RF-SCORE:    0.00 PKD
ROOT
HETATM    1  C   UNL     1     -11.137  15.529  64.709  1.00  0.00    -0.421 C  
HETATM    2  C   UNL     1     -10.392  14.215  64.863  1.00  0.00    -0.435 C  
ENDROOT
BRANCH   2   3
HETATM    3  C   UNL     1     -11.193  13.058  64.271  1.00  0.00    -0.411 C  
BRANCH   3   4
HETATM    4  C   UNL     1     -12.014  12.355  65.349  1.00  0.00    -0.457 C  
BRANCH   4   5
HETATM    5  C   UNL     1     -11.907  13.100  66.673  1.00  0.00    -0.449 C  
BRANCH   5   6
HETATM    6  C   UNL     1     -11.882  12.124  67.842  1.00  0.00    -0.338 C  
BRANCH   6   7
HETATM    7  C   UNL     1     -10.589  12.278  68.631  1.00  0.00    -0.249 C  
BRANCH   7   8
HETATM    8  C   UNL     1      -9.936  13.618  68.328  1.00  0.00    -0.236 C  
BRANCH   8   9
HETATM    9  C   UNL     1      -8.488  13.416  67.900  1.00  0.00    -0.173 C  
BRANCH   9  10
HETATM   10  C   UNL     1      -8.297  12.014  67.344  1.00  0.00    -0.171 C  
BRANCH  10  11
HETATM   11  C   UNL     1      -6.824  11.641  67.315  1.00  0.00    -0.129 C  
BRANCH  11  12
HETATM   12  C   UNL     1      -6.603  10.356  68.094  1.00  0.00    -0.060 C  
BRANCH  12  13
HETATM   13  C   UNL     1      -7.814  10.006  68.951  1.00  0.00    -0.095 C  
BRANCH  13  14
HETATM   14  C   UNL     1      -7.463   9.046  70.087  1.00  0.00    -0.072 C  
BRANCH  14  15
HETATM   15  C   UNL     1      -8.668   8.481  70.846  1.00  0.00    -0.196 C  
BRANCH  15  16
HETATM   16  C   UNL     1      -9.921   8.354  69.975  1.00  0.00    -0.188 C  
BRANCH  16  17
HETATM   17  N   UNL     1     -10.411   6.905  69.804  1.00  0.00    -0.209 N  
HETATM   18  C   UNL     1      -9.323   5.917  70.205  1.00  0.00    -0.158 C  
HETATM   19  C   UNL     1     -11.656   6.661  70.655  1.00  0.00    -0.382 C  
BRANCH  17  20
HETATM   20  C   UNL     1     -10.777   6.717  68.289  1.00  0.00    -0.235 C  
BRANCH  20  21
HETATM   21  C   UNL     1      -9.919   7.514  67.337  1.00  0.00    -0.246 A  
HETATM   22  C   UNL     1     -10.413   8.686  66.743  1.00  0.00    -0.298 A  
HETATM   23  C   UNL     1      -9.739   9.267  65.669  1.00  0.00    -0.302 A  
HETATM   24  C   UNL     1      -8.552   8.704  65.206  1.00  0.00    -0.206 A  
HETATM   25  C   UNL     1      -8.005   7.599  65.850  1.00  0.00    -0.116 A  
HETATM   26  C   UNL     1      -8.671   7.020  66.928  1.00  0.00    -0.122 A  
ENDBRANCH  20  21
ENDBRANCH  17  20
ENDBRANCH  16  17
ENDBRANCH  15  16
ENDBRANCH  14  15
ENDBRANCH  13  14
ENDBRANCH  12  13
ENDBRANCH  11  12
ENDBRANCH  10  11
ENDBRANCH   9  10
ENDBRANCH   8   9
ENDBRANCH   7   8
ENDBRANCH   6   7
ENDBRANCH   5   6
ENDBRANCH   4   5
ENDBRANCH   3   4
ENDBRANCH   2   3
TORSDOF 17
ENDMDL
MODEL      176
REMARK 921   NORMALIZED FREE ENERGY PREDICTED BY IDOCK:   -3.50 KCAL/MOL
REMARK 922        TOTAL FREE ENERGY PREDICTED BY IDOCK:   -9.82 KCAL/MOL
REMARK 923 INTER-LIGAND FREE ENERGY PREDICTED BY IDOCK:   -8.83 KCAL/MOL
REMARK 924 INTRA-LIGAND FREE ENERGY PREDICTED BY IDOCK:   -0.99 KCAL/MOL
REMARK 927      BINDING AFFINITY PREDICTED BY RF-SCORE:    0.00 PKD
ROOT
HETATM    1  C   UNL     1      -9.072   4.693  72.300  1.00  0.00    -0.146 C  
HETATM    2  C   UNL     1      -9.328   4.843  70.810  1.00  0.00    -0.211 C  
ENDROOT
BRANCH   2   3
HETATM    3  C   UNL     1     -10.640   5.578  70.550  1.00  0.00    -0.339 C  
BRANCH   3   4
HETATM    4  C   UNL     1     -10.480   6.603  69.432  1.00  0.00    -0.254 C  
BRANCH   4   5
HETATM    5  C   UNL     1      -9.400   7.618  69.787  1.00  0.00    -0.150 C  
BRANCH   5   6
HETATM    6  C   UNL     1      -9.600   8.915  69.014  1.00  0.00    -0.158 C  
BRANCH   6   7
HETATM    7  C   UNL     1     -10.647   8.724  67.925  1.00  0.00    -0.236 C  
BRANCH   7   8
HETATM    8  C   UNL     1      -9.993   8.725  66.552  1.00  0.00    -0.360 C  
BRANCH   8   9
HETATM    9  C   UNL     1      -8.936   9.819  66.471  1.00  0.00    -0.172 C  
BRANCH   9  10
HETATM   10  C   UNL     1      -9.076  10.588  65.167  1.00  0.00    -0.227 C  
BRANCH  10  11
HETATM   11  C   UNL     1     -10.535  10.887  64.870  1.00  0.00    -0.352 C  
BRANCH  11  12
HETATM   12  C   UNL     1     -10.650  11.650  63.562  1.00  0.00    -0.496 C  
BRANCH  12  13
HETATM   13  C   UNL     1     -11.883  12.545  63.544  1.00  0.00    -0.616 C  
BRANCH  13  14
HETATM   14  C   UNL     1     -12.531  12.668  64.923  1.00  0.00    -0.564 C  
BRANCH  14  15
HETATM   15  C   UNL     1     -12.533  14.084  65.508  1.00  0.00    -0.533 C  
BRANCH  15  16
HETATM   16  C   UNL     1     -11.266  14.875  65.170  1.00  0.00    -0.386 C  
BRANCH  16  17
HETATM   17  N   UNL     1     -10.357  15.135  66.384  1.00  0.00    -0.276 N  
HETATM   18  C   UNL     1     -11.178  15.592  67.584  1.00  0.00    -0.291 C  
HETATM   19  C   UNL     1      -9.585  13.869  66.752  1.00  0.00    -0.283 C  
BRANCH  17  20
HETATM   20  C   UNL     1      -9.341  16.256  65.969  1.00  0.00    -0.326 C  
BRANCH  20  21
HETATM   21  C   UNL     1      -9.461  17.532  66.764  1.00  0.00    -0.282 A  
HETATM   22  C   UNL     1      -8.695  17.723  67.926  1.00  0.00    -0.251 A  
HETATM   23  C   UNL     1      -8.996  18.764  68.804  1.00  0.00    -0.315 A  
HETATM   24  C   UNL     1     -10.038  19.641  68.511  1.00  0.00    -0.557 A  
HETATM   25  C   UNL     1     -10.741  19.517  67.316  1.00  0.00    -0.604 A  
HETATM   26  C   UNL     1     -10.437  18.483  66.433  1.00  0.00    -0.443 A  
ENDBRANCH  20  21
ENDBRANCH  17  20
ENDBRANCH  16  17
ENDBRANCH  15  16
ENDBRANCH  14  15
ENDBRANCH  13  14
ENDBRANCH  12  13
ENDBRANCH  11  12
ENDBRANCH  10  11
ENDBRANCH   9  10
ENDBRANCH   8   9
ENDBRANCH   7   8
ENDBRANCH   6   7
ENDBRANCH   5   6
ENDBRANCH   4   5
ENDBRANCH   3   4
ENDBRANCH   2   3
TORSDOF 17
ENDMDL
MODEL      177
REMARK 921   NORMALIZED FREE ENERGY PREDICTED BY IDOCK:   -3.49 KCAL/MOL
REMARK 922        TOTAL FREE ENERGY PREDICTED BY IDOCK:   -9.80 KCAL/MOL
REMARK 923 INTER-LIGAND FREE ENERGY PREDICTED BY IDOCK:   -8.49 KCAL/MOL
REMARK 924 INTRA-LIGAND FREE ENERGY PREDICTED BY IDOCK:   -1.31 KCAL/MOL
REMARK 927      BINDING AFFINITY PREDICTED BY RF-SCORE:    0.00 PKD
ROOT
HETATM    1  C   UNL     1     -12.666  14.102  64.971  1.00  0.00    -0.336 C  
HETATM    2  C   UNL     1     -12.428  12.602  64.922  1.00  0.00    -0.564 C  
ENDROOT
BRANCH   2   3
HETATM    3  C   UNL     1     -11.592  12.220  63.703  1.00  0.00    -0.581 C  
BRANCH   3   4
HETATM    4  C   UNL     1     -10.399  11.359  64.107  1.00  0.00    -0.400 C  
BRANCH   4   5
HETATM    5  C   UNL     1     -10.137  11.478  65.603  1.00  0.00    -0.278 C  
BRANCH   5   6
HETATM    6  C   UNL     1     -10.015  10.100  66.242  1.00  0.00    -0.304 C  
BRANCH   6   7
HETATM    7  C   UNL     1      -8.768  10.031  67.114  1.00  0.00    -0.132 C  
BRANCH   7   8
HETATM    8  C   UNL     1      -9.137  10.167  68.583  1.00  0.00    -0.143 C  
BRANCH   8   9
HETATM    9  C   UNL     1     -10.588   9.756  68.804  1.00  0.00    -0.244 C  
BRANCH   9  10
HETATM   10  C   UNL     1     -11.068  10.237  70.164  1.00  0.00    -0.385 C  
BRANCH  10  11
HETATM   11  C   UNL     1     -12.245  11.185  70.016  1.00  0.00    -0.402 C  
BRANCH  11  12
HETATM   12  C   UNL     1     -12.420  11.992  71.291  1.00  0.00    -0.303 C  
BRANCH  12  13
HETATM   13  C   UNL     1     -12.580  13.478  70.994  1.00  0.00    -0.438 C  
BRANCH  13  14
HETATM   14  C   UNL     1     -12.178  13.830  69.561  1.00  0.00    -0.344 C  
BRANCH  14  15
HETATM   15  C   UNL     1     -11.367  15.122  69.420  1.00  0.00    -0.307 C  
BRANCH  15  16
HETATM   16  C   UNL     1     -11.176  15.555  67.964  1.00  0.00    -0.332 C  
BRANCH  16  17
HETATM   17  N   UNL     1      -9.706  15.793  67.577  1.00  0.00    -0.225 N  
HETATM   18  C   UNL     1      -8.896  14.510  67.724  1.00  0.00    -0.183 C  
HETATM   19  C   UNL     1      -9.609  16.290  66.135  1.00  0.00    -0.331 C  
BRANCH  17  20
HETATM   20  C   UNL     1      -9.147  16.896  68.542  1.00  0.00    -0.257 C  
BRANCH  20  21
HETATM   21  C   UNL     1      -9.020  18.264  67.917  1.00  0.00    -0.285 A  
HETATM   22  C   UNL     1      -7.760  18.767  67.553  1.00  0.00    -0.244 A  
HETATM   23  C   UNL     1      -7.607  20.116  67.234  1.00  0.00    -0.333 A  
HETATM   24  C   UNL     1      -8.713  20.963  67.243  1.00  0.00    -0.135 A  
HETATM   25  C   UNL     1      -9.980  20.454  67.510  1.00  0.00    -0.537 A  
HETATM   26  C   UNL     1     -10.139  19.104  67.821  1.00  0.00    -0.469 A  
ENDBRANCH  20  21
ENDBRANCH  17  20
ENDBRANCH  16  17
ENDBRANCH  15  16
ENDBRANCH  14  15
ENDBRANCH  13  14
ENDBRANCH  12  13
ENDBRANCH  11  12
ENDBRANCH  10  11
ENDBRANCH   9  10
ENDBRANCH   8   9
ENDBRANCH   7   8
ENDBRANCH   6   7
ENDBRANCH   5   6
ENDBRANCH   4   5
ENDBRANCH   3   4
ENDBRANCH   2   3
TORSDOF 17
ENDMDL
MODEL      178
REMARK 921   NORMALIZED FREE ENERGY PREDICTED BY IDOCK:   -3.48 KCAL/MOL
REMARK 922        TOTAL FREE ENERGY PREDICTED BY IDOCK:   -9.78 KCAL/MOL
REMARK 923 INTER-LIGAND FREE ENERGY PREDICTED BY IDOCK:   -7.10 KCAL/MOL
REMARK 924 INTRA-LIGAND FREE ENERGY PREDICTED BY IDOCK:   -2.68 KCAL/MOL
REMARK 927      BINDING AFFINITY PREDICTED BY RF-SCORE:    0.00 PKD
ROOT
HETATM    1  C   UNL     1     -13.629  13.489  72.334  1.00  0.00    -0.709 C  
HETATM    2  C   UNL     1     -12.567  13.772  71.286  1.00  0.00    -0.444 C  
ENDROOT
BRANCH   2   3
HETATM    3  C   UNL     1     -12.236  12.514  70.488  1.00  0.00    -0.382 C  
BRANCH   3   4
HETATM    4  C   UNL     1     -12.998  11.308  71.029  1.00  0.00    -0.304 C  
BRANCH   4   5
HETATM    5  C   UNL     1     -12.045  10.151  71.301  1.00  0.00    -0.489 C  
BRANCH   5   6
HETATM    6  C   UNL     1     -12.743   9.046  72.082  1.00  0.00    -0.470 C  
BRANCH   6   7
HETATM    7  C   UNL     1     -12.793   7.766  71.258  1.00  0.00    -0.265 C  
BRANCH   7   8
HETATM    8  C   UNL     1     -12.259   6.592  72.065  1.00  0.00    -0.337 C  
BRANCH   8   9
HETATM    9  C   UNL     1     -11.160   7.058  73.012  1.00  0.00    -0.295 C  
BRANCH   9  10
HETATM   10  C   UNL     1     -10.166   5.933  73.255  1.00  0.00    -0.217 C  
BRANCH  10  11
HETATM   11  C   UNL     1     -10.781   4.587  72.914  1.00  0.00    -0.281 C  
BRANCH  11  12
HETATM   12  C   UNL     1      -9.816   3.782  72.060  1.00  0.00    -0.243 C  
BRANCH  12  13
HETATM   13  C   UNL     1      -9.909   4.176  70.591  1.00  0.00    -0.249 C  
BRANCH  13  14
HETATM   14  C   UNL     1      -8.778   3.574  69.756  1.00  0.00    -0.129 C  
BRANCH  14  15
HETATM   15  C   UNL     1      -8.939   3.739  68.242  1.00  0.00    -0.168 C  
BRANCH  15  16
HETATM   16  C   UNL     1      -8.617   5.154  67.755  1.00  0.00    -0.103 C  
BRANCH  16  17
HETATM   17  N   UNL     1      -9.667   5.728  66.786  1.00  0.00    -0.145 N  
HETATM   18  C   UNL     1      -9.033   6.743  65.843  1.00  0.00    -0.070 C  
HETATM   19  C   UNL     1     -10.304   4.606  65.967  1.00  0.00    -0.284 C  
BRANCH  17  20
HETATM   20  C   UNL     1     -10.772   6.420  67.659  1.00  0.00    -0.311 C  
BRANCH  20  21
HETATM   21  C   UNL     1     -10.295   7.631  68.422  1.00  0.00    -0.228 A  
HETATM   22  C   UNL     1     -10.419   8.916  67.869  1.00  0.00    -0.281 A  
HETATM   23  C   UNL     1      -9.743   9.995  68.438  1.00  0.00    -0.157 A  
HETATM   24  C   UNL     1      -8.969   9.805  69.581  1.00  0.00    -0.229 A  
HETATM   25  C   UNL     1      -8.916   8.556  70.190  1.00  0.00    -0.148 A  
HETATM   26  C   UNL     1      -9.598   7.477  69.629  1.00  0.00    -0.159 A  
ENDBRANCH  20  21
ENDBRANCH  17  20
ENDBRANCH  16  17
ENDBRANCH  15  16
ENDBRANCH  14  15
ENDBRANCH  13  14
ENDBRANCH  12  13
ENDBRANCH  11  12
ENDBRANCH  10  11
ENDBRANCH   9  10
ENDBRANCH   8   9
ENDBRANCH   7   8
ENDBRANCH   6   7
ENDBRANCH   5   6
ENDBRANCH   4   5
ENDBRANCH   3   4
ENDBRANCH   2   3
TORSDOF 17
ENDMDL
MODEL      179
REMARK 921   NORMALIZED FREE ENERGY PREDICTED BY IDOCK:   -3.45 KCAL/MOL
REMARK 922        TOTAL FREE ENERGY PREDICTED BY IDOCK:   -9.72 KCAL/MOL
REMARK 923 INTER-LIGAND FREE ENERGY PREDICTED BY IDOCK:   -7.73 KCAL/MOL
REMARK 924 INTRA-LIGAND FREE ENERGY PREDICTED BY IDOCK:   -1.99 KCAL/MOL
REMARK 927      BINDING AFFINITY PREDICTED BY RF-SCORE:    0.00 PKD
ROOT
HETATM    1  C   UNL     1     -13.809   8.267  71.794  1.00  0.00    -0.450 C  
HETATM    2  C   UNL     1     -13.149   7.031  71.207  1.00  0.00    -0.329 C  
ENDROOT
BRANCH   2   3
HETATM    3  C   UNL     1     -11.858   6.694  71.948  1.00  0.00    -0.375 C  
BRANCH   3   4
HETATM    4  C   UNL     1     -10.714   6.446  70.969  1.00  0.00    -0.301 C  
BRANCH   4   5
HETATM    5  C   UNL     1     -11.239   6.378  69.541  1.00  0.00    -0.477 C  
BRANCH   5   6
HETATM    6  C   UNL     1     -10.468   7.330  68.635  1.00  0.00    -0.214 C  
BRANCH   6   7
HETATM    7  C   UNL     1      -9.435   8.105  69.441  1.00  0.00    -0.162 C  
BRANCH   7   8
HETATM    8  C   UNL     1      -9.652   9.602  69.285  1.00  0.00    -0.190 C  
BRANCH   8   9
HETATM    9  C   UNL     1     -10.612  10.111  70.353  1.00  0.00    -0.287 C  
BRANCH   9  10
HETATM   10  C   UNL     1     -11.906  10.586  69.711  1.00  0.00    -0.329 C  
BRANCH  10  11
HETATM   11  C   UNL     1     -11.845  12.073  69.410  1.00  0.00    -0.384 C  
BRANCH  11  12
HETATM   12  C   UNL     1     -11.782  12.293  67.909  1.00  0.00    -0.410 C  
BRANCH  12  13
HETATM   13  C   UNL     1     -10.794  13.395  67.546  1.00  0.00    -0.276 C  
BRANCH  13  14
HETATM   14  C   UNL     1      -9.377  12.860  67.342  1.00  0.00    -0.194 C  
BRANCH  14  15
HETATM   15  C   UNL     1      -8.336  13.921  66.974  1.00  0.00    -0.113 C  
BRANCH  15  16
HETATM   16  C   UNL     1      -7.509  14.393  68.173  1.00  0.00    -0.128 C  
BRANCH  16  17
HETATM   17  N   UNL     1      -7.703  15.882  68.510  1.00  0.00    -0.140 N  
HETATM   18  C   UNL     1      -9.018  16.101  69.250  1.00  0.00    -0.200 C  
HETATM   19  C   UNL     1      -6.548  16.388  69.373  1.00  0.00    -0.210 C  
BRANCH  17  20
HETATM   20  C   UNL     1      -7.714  16.666  67.151  1.00  0.00    -0.180 C  
BRANCH  20  21
HETATM   21  C   UNL     1      -8.723  17.785  67.084  1.00  0.00    -0.252 A  
HETATM   22  C   UNL     1      -9.869  17.663  66.281  1.00  0.00    -0.297 A  
HETATM   23  C   UNL     1     -10.654  18.782  66.003  1.00  0.00    -0.442 A  
HETATM   24  C   UNL     1     -10.322  20.019  66.552  1.00  0.00    -0.572 A  
HETATM   25  C   UNL     1      -9.244  20.129  67.425  1.00  0.00    -0.495 A  
HETATM   26  C   UNL     1      -8.462  19.011  67.712  1.00  0.00    -0.323 A  
ENDBRANCH  20  21
ENDBRANCH  17  20
ENDBRANCH  16  17
ENDBRANCH  15  16
ENDBRANCH  14  15
ENDBRANCH  13  14
ENDBRANCH  12  13
ENDBRANCH  11  12
ENDBRANCH  10  11
ENDBRANCH   9  10
ENDBRANCH   8   9
ENDBRANCH   7   8
ENDBRANCH   6   7
ENDBRANCH   5   6
ENDBRANCH   4   5
ENDBRANCH   3   4
ENDBRANCH   2   3
TORSDOF 17
ENDMDL
MODEL      180
REMARK 921   NORMALIZED FREE ENERGY PREDICTED BY IDOCK:   -3.44 KCAL/MOL
REMARK 922        TOTAL FREE ENERGY PREDICTED BY IDOCK:   -9.70 KCAL/MOL
REMARK 923 INTER-LIGAND FREE ENERGY PREDICTED BY IDOCK:   -8.07 KCAL/MOL
REMARK 924 INTRA-LIGAND FREE ENERGY PREDICTED BY IDOCK:   -1.64 KCAL/MOL
REMARK 927      BINDING AFFINITY PREDICTED BY RF-SCORE:    0.00 PKD
ROOT
HETATM    1  C   UNL     1      -5.272  10.595  65.573  1.00  0.00    -0.124 C  
HETATM    2  C   UNL     1      -6.737  10.192  65.552  1.00  0.00    -0.122 C  
ENDROOT
BRANCH   2   3
HETATM    3  C   UNL     1      -7.500  10.840  66.704  1.00  0.00    -0.135 C  
BRANCH   3   4
HETATM    4  C   UNL     1      -8.974  11.019  66.351  1.00  0.00    -0.190 C  
BRANCH   4   5
HETATM    5  C   UNL     1      -9.199  10.784  64.863  1.00  0.00    -0.243 C  
BRANCH   5   6
HETATM    6  C   UNL     1     -10.664  10.986  64.499  1.00  0.00    -0.335 C  
BRANCH   6   7
HETATM    7  C   UNL     1     -10.797  12.033  63.403  1.00  0.00    -0.471 C  
BRANCH   7   8
HETATM    8  C   UNL     1     -12.133  12.753  63.512  1.00  0.00    -0.642 C  
BRANCH   8   9
HETATM    9  C   UNL     1     -11.966  14.065  64.267  1.00  0.00    -0.463 C  
BRANCH   9  10
HETATM   10  C   UNL     1     -12.439  13.908  65.704  1.00  0.00    -0.538 C  
BRANCH  10  11
HETATM   11  C   UNL     1     -11.265  13.949  66.666  1.00  0.00    -0.328 C  
BRANCH  11  12
HETATM   12  C   UNL     1     -11.751  13.698  68.083  1.00  0.00    -0.392 C  
BRANCH  12  13
HETATM   13  C   UNL     1     -11.905  12.208  68.365  1.00  0.00    -0.360 C  
BRANCH  13  14
HETATM   14  C   UNL     1     -11.668  11.868  69.836  1.00  0.00    -0.383 C  
BRANCH  14  15
HETATM   15  C   UNL     1     -12.288  10.547  70.299  1.00  0.00    -0.377 C  
BRANCH  15  16
HETATM   16  C   UNL     1     -11.281   9.617  70.982  1.00  0.00    -0.375 C  
BRANCH  16  17
HETATM   17  N   UNL     1     -11.931   8.413  71.687  1.00  0.00    -0.290 N  
HETATM   18  C   UNL     1     -11.002   7.848  72.755  1.00  0.00    -0.393 C  
HETATM   19  C   UNL     1     -13.254   8.824  72.332  1.00  0.00    -0.394 C  
BRANCH  17  20
HETATM   20  C   UNL     1     -12.209   7.329  70.587  1.00  0.00    -0.145 C  
BRANCH  20  21
HETATM   21  C   UNL     1     -10.974   6.833  69.875  1.00  0.00    -0.340 A  
HETATM   22  C   UNL     1     -10.445   7.546  68.787  1.00  0.00    -0.212 A  
HETATM   23  C   UNL     1      -9.484   6.960  67.964  1.00  0.00    -0.124 A  
HETATM   24  C   UNL     1      -9.020   5.676  68.241  1.00  0.00    -0.114 A  
HETATM   25  C   UNL     1      -9.469   4.999  69.370  1.00  0.00    -0.206 A  
HETATM   26  C   UNL     1     -10.424   5.585  70.200  1.00  0.00    -0.370 A  
ENDBRANCH  20  21
ENDBRANCH  17  20
ENDBRANCH  16  17
ENDBRANCH  15  16
ENDBRANCH  14  15
ENDBRANCH  13  14
ENDBRANCH  12  13
ENDBRANCH  11  12
ENDBRANCH  10  11
ENDBRANCH   9  10
ENDBRANCH   8   9
ENDBRANCH   7   8
ENDBRANCH   6   7
ENDBRANCH   5   6
ENDBRANCH   4   5
ENDBRANCH   3   4
ENDBRANCH   2   3
TORSDOF 17
ENDMDL
MODEL      181
REMARK 921   NORMALIZED FREE ENERGY PREDICTED BY IDOCK:   -3.44 KCAL/MOL
REMARK 922        TOTAL FREE ENERGY PREDICTED BY IDOCK:   -9.69 KCAL/MOL
REMARK 923 INTER-LIGAND FREE ENERGY PREDICTED BY IDOCK:   -7.44 KCAL/MOL
REMARK 924 INTRA-LIGAND FREE ENERGY PREDICTED BY IDOCK:   -2.25 KCAL/MOL
REMARK 927      BINDING AFFINITY PREDICTED BY RF-SCORE:    0.00 PKD
ROOT
HETATM    1  C   UNL     1     -12.611  13.567  65.404  1.00  0.00    -0.531 C  
HETATM    2  C   UNL     1     -11.870  12.257  65.197  1.00  0.00    -0.404 C  
ENDROOT
BRANCH   2   3
HETATM    3  C   UNL     1     -11.175  11.813  66.481  1.00  0.00    -0.380 C  
BRANCH   3   4
HETATM    4  C   UNL     1     -11.811  12.471  67.703  1.00  0.00    -0.381 C  
BRANCH   4   5
HETATM    5  C   UNL     1     -10.737  12.986  68.652  1.00  0.00    -0.273 C  
BRANCH   5   6
HETATM    6  C   UNL     1      -9.715  13.832  67.905  1.00  0.00    -0.229 C  
BRANCH   6   7
HETATM    7  C   UNL     1      -9.804  15.285  68.351  1.00  0.00    -0.216 C  
BRANCH   7   8
HETATM    8  C   UNL     1     -10.045  15.368  69.851  1.00  0.00    -0.253 C  
BRANCH   8   9
HETATM    9  C   UNL     1     -11.105  16.419  70.158  1.00  0.00    -0.285 C  
BRANCH   9  10
HETATM   10  C   UNL     1     -11.835  16.067  71.445  1.00  0.00    -0.531 C  
BRANCH  10  11
HETATM   11  C   UNL     1     -12.104  14.574  71.521  1.00  0.00    -0.400 C  
BRANCH  11  12
HETATM   12  C   UNL     1     -13.336  14.315  72.372  1.00  0.00    -0.568 C  
BRANCH  12  13
HETATM   13  C   UNL     1     -13.732  12.844  72.348  1.00  0.00    -0.530 C  
BRANCH  13  14
HETATM   14  C   UNL     1     -12.978  12.057  71.276  1.00  0.00    -0.315 C  
BRANCH  14  15
HETATM   15  C   UNL     1     -12.780  10.571  71.589  1.00  0.00    -0.550 C  
BRANCH  15  16
HETATM   16  C   UNL     1     -12.467   9.732  70.347  1.00  0.00     0.034 C  
BRANCH  16  17
HETATM   17  N   UNL     1     -11.341   8.705  70.562  1.00  0.00    -0.248 N  
HETATM   18  C   UNL     1     -10.341   9.209  71.596  1.00  0.00    -0.318 C  
HETATM   19  C   UNL     1     -11.921   7.370  71.029  1.00  0.00    -0.306 C  
BRANCH  17  20
HETATM   20  C   UNL     1     -10.630   8.502  69.178  1.00  0.00    -0.173 C  
BRANCH  20  21
HETATM   21  C   UNL     1      -9.140   8.741  69.202  1.00  0.00    -0.141 A  
HETATM   22  C   UNL     1      -8.615   9.998  68.860  1.00  0.00    -0.138 A  
HETATM   23  C   UNL     1      -7.250  10.147  68.617  1.00  0.00    -0.080 A  
HETATM   24  C   UNL     1      -6.397   9.053  68.747  1.00  0.00    -0.049 A  
HETATM   25  C   UNL     1      -6.894   7.827  69.177  1.00  0.00    -0.049 A  
HETATM   26  C   UNL     1      -8.257   7.676  69.430  1.00  0.00    -0.129 A  
ENDBRANCH  20  21
ENDBRANCH  17  20
ENDBRANCH  16  17
ENDBRANCH  15  16
ENDBRANCH  14  15
ENDBRANCH  13  14
ENDBRANCH  12  13
ENDBRANCH  11  12
ENDBRANCH  10  11
ENDBRANCH   9  10
ENDBRANCH   8   9
ENDBRANCH   7   8
ENDBRANCH   6   7
ENDBRANCH   5   6
ENDBRANCH   4   5
ENDBRANCH   3   4
ENDBRANCH   2   3
TORSDOF 17
ENDMDL
MODEL      182
REMARK 921   NORMALIZED FREE ENERGY PREDICTED BY IDOCK:   -3.43 KCAL/MOL
REMARK 922        TOTAL FREE ENERGY PREDICTED BY IDOCK:   -9.68 KCAL/MOL
REMARK 923 INTER-LIGAND FREE ENERGY PREDICTED BY IDOCK:   -8.74 KCAL/MOL
REMARK 924 INTRA-LIGAND FREE ENERGY PREDICTED BY IDOCK:   -0.94 KCAL/MOL
REMARK 927      BINDING AFFINITY PREDICTED BY RF-SCORE:    0.00 PKD
ROOT
HETATM    1  C   UNL     1      -8.983   7.912  73.437  1.00  0.00    -0.339 C  
HETATM    2  C   UNL     1     -10.222   7.035  73.492  1.00  0.00    -0.371 C  
ENDROOT
BRANCH   2   3
HETATM    3  C   UNL     1     -11.148   7.322  72.313  1.00  0.00    -0.298 C  
BRANCH   3   4
HETATM    4  C   UNL     1     -11.287   6.095  71.416  1.00  0.00    -0.336 C  
BRANCH   4   5
HETATM    5  C   UNL     1     -11.589   6.513  69.982  1.00  0.00    -0.455 C  
BRANCH   5   6
HETATM    6  C   UNL     1     -10.373   6.301  69.089  1.00  0.00    -0.262 C  
BRANCH   6   7
HETATM    7  C   UNL     1     -10.789   6.286  67.625  1.00  0.00    -0.433 C  
BRANCH   7   8
HETATM    8  C   UNL     1     -10.710   7.686  67.034  1.00  0.00    -0.340 C  
BRANCH   8   9
HETATM    9  C   UNL     1      -9.487   8.418  67.572  1.00  0.00    -0.182 C  
BRANCH   9  10
HETATM   10  C   UNL     1      -8.817   9.207  66.459  1.00  0.00    -0.156 C  
BRANCH  10  11
HETATM   11  C   UNL     1      -9.838   9.668  65.433  1.00  0.00    -0.322 C  
BRANCH  11  12
HETATM   12  C   UNL     1      -9.848  11.185  65.362  1.00  0.00    -0.289 C  
BRANCH  12  13
HETATM   13  C   UNL     1     -11.270  11.734  65.332  1.00  0.00    -0.310 C  
BRANCH  13  14
HETATM   14  C   UNL     1     -11.419  12.907  64.364  1.00  0.00    -0.405 C  
BRANCH  14  15
HETATM   15  C   UNL     1     -12.051  14.164  64.970  1.00  0.00    -0.428 C  
BRANCH  15  16
HETATM   16  C   UNL     1     -11.899  14.239  66.492  1.00  0.00    -0.415 C  
BRANCH  16  17
HETATM   17  N   UNL     1     -10.772  15.180  66.955  1.00  0.00    -0.303 N  
HETATM   18  C   UNL     1     -11.179  15.926  68.220  1.00  0.00    -0.354 C  
HETATM   19  C   UNL     1      -9.493  14.389  67.222  1.00  0.00    -0.215 C  
BRANCH  17  20
HETATM   20  C   UNL     1     -10.514  16.199  65.789  1.00  0.00    -0.367 C  
BRANCH  20  21
HETATM   21  C   UNL     1      -9.920  17.514  66.231  1.00  0.00    -0.316 A  
HETATM   22  C   UNL     1     -10.693  18.687  66.210  1.00  0.00    -0.278 A  
HETATM   23  C   UNL     1     -10.082  19.933  66.352  1.00  0.00    -0.615 A  
HETATM   24  C   UNL     1      -8.705  20.014  66.550  1.00  0.00    -0.384 A  
HETATM   25  C   UNL     1      -7.946  18.854  66.667  1.00  0.00    -0.280 A  
HETATM   26  C   UNL     1      -8.554  17.606  66.534  1.00  0.00    -0.287 A  
ENDBRANCH  20  21
ENDBRANCH  17  20
ENDBRANCH  16  17
ENDBRANCH  15  16
ENDBRANCH  14  15
ENDBRANCH  13  14
ENDBRANCH  12  13
ENDBRANCH  11  12
ENDBRANCH  10  11
ENDBRANCH   9  10
ENDBRANCH   8   9
ENDBRANCH   7   8
ENDBRANCH   6   7
ENDBRANCH   5   6
ENDBRANCH   4   5
ENDBRANCH   3   4
ENDBRANCH   2   3
TORSDOF 17
ENDMDL
MODEL      183
REMARK 921   NORMALIZED FREE ENERGY PREDICTED BY IDOCK:   -3.43 KCAL/MOL
REMARK 922        TOTAL FREE ENERGY PREDICTED BY IDOCK:   -9.67 KCAL/MOL
REMARK 923 INTER-LIGAND FREE ENERGY PREDICTED BY IDOCK:   -8.51 KCAL/MOL
REMARK 924 INTRA-LIGAND FREE ENERGY PREDICTED BY IDOCK:   -1.17 KCAL/MOL
REMARK 927      BINDING AFFINITY PREDICTED BY RF-SCORE:    0.00 PKD
ROOT
HETATM    1  C   UNL     1      -8.904   7.822  74.199  1.00  0.00    -0.256 C  
HETATM    2  C   UNL     1      -8.618   7.360  72.780  1.00  0.00    -0.148 C  
ENDROOT
BRANCH   2   3
HETATM    3  C   UNL     1      -8.691   5.839  72.673  1.00  0.00    -0.119 C  
BRANCH   3   4
HETATM    4  C   UNL     1      -9.116   5.410  71.272  1.00  0.00    -0.162 C  
BRANCH   4   5
HETATM    5  C   UNL     1     -10.527   5.897  70.969  1.00  0.00    -0.296 C  
BRANCH   5   6
HETATM    6  C   UNL     1     -10.619   6.437  69.548  1.00  0.00    -0.308 C  
BRANCH   6   7
HETATM    7  C   UNL     1      -9.763   7.688  69.401  1.00  0.00    -0.165 C  
BRANCH   7   8
HETATM    8  C   UNL     1     -10.642   8.927  69.312  1.00  0.00    -0.219 C  
BRANCH   8   9
HETATM    9  C   UNL     1     -10.751   9.595  70.677  1.00  0.00    -0.388 C  
BRANCH   9  10
HETATM   10  C   UNL     1     -12.071   9.228  71.336  1.00  0.00    -0.424 C  
BRANCH  10  11
HETATM   11  C   UNL     1     -12.809  10.474  71.795  1.00  0.00    -0.559 C  
BRANCH  11  12
HETATM   12  C   UNL     1     -12.477  11.637  70.877  1.00  0.00    -0.440 C  
BRANCH  12  13
HETATM   13  C   UNL     1     -13.020  12.952  71.424  1.00  0.00    -0.362 C  
BRANCH  13  14
HETATM   14  C   UNL     1     -12.610  14.150  70.567  1.00  0.00    -0.410 C  
BRANCH  14  15
HETATM   15  C   UNL     1     -11.682  13.815  69.396  1.00  0.00    -0.379 C  
BRANCH  15  16
HETATM   16  C   UNL     1     -11.806  14.801  68.230  1.00  0.00    -0.284 C  
BRANCH  16  17
HETATM   17  N   UNL     1     -10.586  15.724  68.067  1.00  0.00    -0.270 N  
HETATM   18  C   UNL     1      -9.341  15.084  68.669  1.00  0.00    -0.202 C  
HETATM   19  C   UNL     1     -10.337  16.022  66.589  1.00  0.00    -0.298 C  
BRANCH  17  20
HETATM   20  C   UNL     1     -10.917  17.063  68.815  1.00  0.00    -0.180 C  
BRANCH  20  21
HETATM   21  C   UNL     1     -10.137  18.259  68.326  1.00  0.00    -0.406 A  
HETATM   22  C   UNL     1     -10.759  19.241  67.538  1.00  0.00    -0.571 A  
HETATM   23  C   UNL     1      -9.990  20.191  66.864  1.00  0.00    -0.600 A  
HETATM   24  C   UNL     1      -8.604  20.189  67.001  1.00  0.00    -0.408 A  
HETATM   25  C   UNL     1      -7.988  19.280  67.855  1.00  0.00    -0.327 A  
HETATM   26  C   UNL     1      -8.753  18.334  68.537  1.00  0.00    -0.325 A  
ENDBRANCH  20  21
ENDBRANCH  17  20
ENDBRANCH  16  17
ENDBRANCH  15  16
ENDBRANCH  14  15
ENDBRANCH  13  14
ENDBRANCH  12  13
ENDBRANCH  11  12
ENDBRANCH  10  11
ENDBRANCH   9  10
ENDBRANCH   8   9
ENDBRANCH   7   8
ENDBRANCH   6   7
ENDBRANCH   5   6
ENDBRANCH   4   5
ENDBRANCH   3   4
ENDBRANCH   2   3
TORSDOF 17
ENDMDL
MODEL      184
REMARK 921   NORMALIZED FREE ENERGY PREDICTED BY IDOCK:   -3.42 KCAL/MOL
REMARK 922        TOTAL FREE ENERGY PREDICTED BY IDOCK:   -9.66 KCAL/MOL
REMARK 923 INTER-LIGAND FREE ENERGY PREDICTED BY IDOCK:   -8.34 KCAL/MOL
REMARK 924 INTRA-LIGAND FREE ENERGY PREDICTED BY IDOCK:   -1.32 KCAL/MOL
REMARK 927      BINDING AFFINITY PREDICTED BY RF-SCORE:    0.00 PKD
ROOT
HETATM    1  C   UNL     1      -8.450  20.074  67.600  1.00  0.00    -0.378 C  
HETATM    2  C   UNL     1      -9.863  20.456  67.192  1.00  0.00    -0.601 C  
ENDROOT
BRANCH   2   3
HETATM    3  C   UNL     1     -10.821  19.281  67.369  1.00  0.00    -0.554 C  
BRANCH   3   4
HETATM    4  C   UNL     1     -10.152  18.142  68.134  1.00  0.00    -0.388 C  
BRANCH   4   5
HETATM    5  C   UNL     1     -10.501  16.799  67.505  1.00  0.00    -0.319 C  
BRANCH   5   6
HETATM    6  C   UNL     1     -10.093  16.766  66.038  1.00  0.00    -0.350 C  
BRANCH   6   7
HETATM    7  C   UNL     1     -10.292  15.369  65.466  1.00  0.00    -0.412 C  
BRANCH   7   8
HETATM    8  C   UNL     1     -11.673  14.839  65.821  1.00  0.00    -0.252 C  
BRANCH   8   9
HETATM    9  C   UNL     1     -11.663  13.316  65.851  1.00  0.00    -0.403 C  
BRANCH   9  10
HETATM   10  C   UNL     1     -10.447  12.785  65.110  1.00  0.00    -0.320 C  
BRANCH  10  11
HETATM   11  C   UNL     1     -10.005  11.450  65.685  1.00  0.00    -0.282 C  
BRANCH  11  12
HETATM   12  C   UNL     1     -10.079  11.492  67.202  1.00  0.00    -0.223 C  
BRANCH  12  13
HETATM   13  C   UNL     1      -8.846  12.158  67.802  1.00  0.00    -0.172 C  
BRANCH  13  14
HETATM   14  C   UNL     1      -8.235  11.333  68.935  1.00  0.00    -0.079 C  
BRANCH  14  15
HETATM   15  C   UNL     1      -8.849   9.942  69.121  1.00  0.00    -0.165 C  
BRANCH  15  16
HETATM   16  C   UNL     1      -8.414   9.263  70.423  1.00  0.00    -0.206 C  
BRANCH  16  17
HETATM   17  N   UNL     1      -9.042   7.874  70.636  1.00  0.00    -0.152 N  
HETATM   18  C   UNL     1      -8.146   6.784  70.059  1.00  0.00    -0.125 C  
HETATM   19  C   UNL     1      -9.263   7.612  72.125  1.00  0.00    -0.141 C  
BRANCH  17  20
HETATM   20  C   UNL     1     -10.428   7.876  69.901  1.00  0.00    -0.229 C  
BRANCH  20  21
HETATM   21  C   UNL     1     -11.615   8.077  70.811  1.00  0.00    -0.251 A  
HETATM   22  C   UNL     1     -12.488   7.012  71.088  1.00  0.00    -0.407 A  
HETATM   23  C   UNL     1     -13.720   7.254  71.696  1.00  0.00    -0.446 A  
HETATM   24  C   UNL     1     -14.073   8.551  72.062  1.00  0.00    -0.516 A  
HETATM   25  C   UNL     1     -13.175   9.597  71.877  1.00  0.00    -0.538 A  
HETATM   26  C   UNL     1     -11.939   9.359  71.278  1.00  0.00    -0.430 A  
ENDBRANCH  20  21
ENDBRANCH  17  20
ENDBRANCH  16  17
ENDBRANCH  15  16
ENDBRANCH  14  15
ENDBRANCH  13  14
ENDBRANCH  12  13
ENDBRANCH  11  12
ENDBRANCH  10  11
ENDBRANCH   9  10
ENDBRANCH   8   9
ENDBRANCH   7   8
ENDBRANCH   6   7
ENDBRANCH   5   6
ENDBRANCH   4   5
ENDBRANCH   3   4
ENDBRANCH   2   3
TORSDOF 17
ENDMDL
MODEL      185
REMARK 921   NORMALIZED FREE ENERGY PREDICTED BY IDOCK:   -3.42 KCAL/MOL
REMARK 922        TOTAL FREE ENERGY PREDICTED BY IDOCK:   -9.65 KCAL/MOL
REMARK 923 INTER-LIGAND FREE ENERGY PREDICTED BY IDOCK:   -7.90 KCAL/MOL
REMARK 924 INTRA-LIGAND FREE ENERGY PREDICTED BY IDOCK:   -1.76 KCAL/MOL
REMARK 927      BINDING AFFINITY PREDICTED BY RF-SCORE:    0.00 PKD
ROOT
HETATM    1  C   UNL     1      -9.351   7.770  73.586  1.00  0.00    -0.336 C  
HETATM    2  C   UNL     1      -8.410   7.630  72.402  1.00  0.00    -0.147 C  
ENDROOT
BRANCH   2   3
HETATM    3  C   UNL     1      -7.462   6.449  72.593  1.00  0.00    -0.091 C  
BRANCH   3   4
HETATM    4  C   UNL     1      -7.763   5.339  71.591  1.00  0.00    -0.108 C  
BRANCH   4   5
HETATM    5  C   UNL     1      -9.140   4.741  71.854  1.00  0.00    -0.163 C  
BRANCH   5   6
HETATM    6  C   UNL     1      -9.792   4.290  70.553  1.00  0.00    -0.269 C  
BRANCH   6   7
HETATM    7  C   UNL     1      -9.844   5.445  69.561  1.00  0.00    -0.264 C  
BRANCH   7   8
HETATM    8  C   UNL     1     -11.247   6.030  69.499  1.00  0.00    -0.416 C  
BRANCH   8   9
HETATM    9  C   UNL     1     -11.359   7.232  70.429  1.00  0.00    -0.299 C  
BRANCH   9  10
HETATM   10  C   UNL     1     -12.396   6.966  71.508  1.00  0.00    -0.420 C  
BRANCH  10  11
HETATM   11  C   UNL     1     -13.127   8.244  71.881  1.00  0.00    -0.367 C  
BRANCH  11  12
HETATM   12  C   UNL     1     -12.170   9.422  71.821  1.00  0.00    -0.465 C  
BRANCH  12  13
HETATM   13  C   UNL     1     -12.865  10.682  71.319  1.00  0.00    -0.535 C  
BRANCH  13  14
HETATM   14  C   UNL     1     -11.952  11.538  70.442  1.00  0.00    -0.459 C  
BRANCH  14  15
HETATM   15  C   UNL     1     -10.755  10.795  69.842  1.00  0.00    -0.202 C  
BRANCH  15  16
HETATM   16  C   UNL     1     -11.028  10.254  68.436  1.00  0.00    -0.260 C  
BRANCH  16  17
HETATM   17  N   UNL     1      -9.758  10.072  67.585  1.00  0.00    -0.155 N  
HETATM   18  C   UNL     1      -8.836  11.277  67.729  1.00  0.00    -0.141 C  
HETATM   19  C   UNL     1      -9.009   8.809  68.010  1.00  0.00    -0.140 C  
BRANCH  17  20
HETATM   20  C   UNL     1     -10.219   9.922  66.093  1.00  0.00    -0.207 C  
BRANCH  20  21
HETATM   21  C   UNL     1     -10.692  11.204  65.454  1.00  0.00    -0.259 A  
HETATM   22  C   UNL     1     -11.671  11.993  66.081  1.00  0.00    -0.313 A  
HETATM   23  C   UNL     1     -12.302  13.019  65.378  1.00  0.00    -0.538 A  
HETATM   24  C   UNL     1     -11.937  13.286  64.060  1.00  0.00    -0.525 A  
HETATM   25  C   UNL     1     -10.903  12.572  63.463  1.00  0.00    -0.443 A  
HETATM   26  C   UNL     1     -10.264  11.551  64.165  1.00  0.00    -0.374 A  
ENDBRANCH  20  21
ENDBRANCH  17  20
ENDBRANCH  16  17
ENDBRANCH  15  16
ENDBRANCH  14  15
ENDBRANCH  13  14
ENDBRANCH  12  13
ENDBRANCH  11  12
ENDBRANCH  10  11
ENDBRANCH   9  10
ENDBRANCH   8   9
ENDBRANCH   7   8
ENDBRANCH   6   7
ENDBRANCH   5   6
ENDBRANCH   4   5
ENDBRANCH   3   4
ENDBRANCH   2   3
TORSDOF 17
ENDMDL
MODEL      186
REMARK 921   NORMALIZED FREE ENERGY PREDICTED BY IDOCK:   -3.42 KCAL/MOL
REMARK 922        TOTAL FREE ENERGY PREDICTED BY IDOCK:   -9.65 KCAL/MOL
REMARK 923 INTER-LIGAND FREE ENERGY PREDICTED BY IDOCK:   -8.62 KCAL/MOL
REMARK 924 INTRA-LIGAND FREE ENERGY PREDICTED BY IDOCK:   -1.03 KCAL/MOL
REMARK 927      BINDING AFFINITY PREDICTED BY RF-SCORE:    0.00 PKD
ROOT
HETATM    1  C   UNL     1      -7.148  20.939  67.202  1.00  0.00    -0.413 C  
HETATM    2  C   UNL     1      -8.127  19.794  67.400  1.00  0.00    -0.332 C  
ENDROOT
BRANCH   2   3
HETATM    3  C   UNL     1      -9.460  20.089  66.718  1.00  0.00    -0.530 C  
BRANCH   3   4
HETATM    4  C   UNL     1     -10.576  19.230  67.306  1.00  0.00    -0.590 C  
BRANCH   4   5
HETATM    5  C   UNL     1     -10.183  17.759  67.291  1.00  0.00    -0.350 C  
BRANCH   5   6
HETATM    6  C   UNL     1     -10.464  17.109  68.639  1.00  0.00    -0.366 C  
BRANCH   6   7
HETATM    7  C   UNL     1     -11.392  15.914  68.467  1.00  0.00    -0.374 C  
BRANCH   7   8
HETATM    8  C   UNL     1     -11.122  15.217  67.142  1.00  0.00    -0.335 C  
BRANCH   8   9
HETATM    9  C   UNL     1     -12.137  14.103  66.915  1.00  0.00    -0.466 C  
BRANCH   9  10
HETATM   10  C   UNL     1     -12.256  13.797  65.430  1.00  0.00    -0.465 C  
BRANCH  10  11
HETATM   11  C   UNL     1     -12.020  12.321  65.163  1.00  0.00    -0.395 C  
BRANCH  11  12
HETATM   12  C   UNL     1     -10.601  12.107  64.664  1.00  0.00    -0.340 C  
BRANCH  12  13
HETATM   13  C   UNL     1      -9.782  11.277  65.645  1.00  0.00    -0.267 C  
BRANCH  13  14
HETATM   14  C   UNL     1      -9.162  12.131  66.751  1.00  0.00    -0.207 C  
BRANCH  14  15
HETATM   15  C   UNL     1      -9.163  11.485  68.139  1.00  0.00    -0.181 C  
BRANCH  15  16
HETATM   16  C   UNL     1     -10.512  10.864  68.511  1.00  0.00    -0.188 C  
BRANCH  16  17
HETATM   17  N   UNL     1     -10.392   9.499  69.214  1.00  0.00    -0.200 N  
HETATM   18  C   UNL     1     -10.410   8.366  68.196  1.00  0.00    -0.204 C  
HETATM   19  C   UNL     1      -9.099   9.430  70.025  1.00  0.00    -0.220 C  
BRANCH  17  20
HETATM   20  C   UNL     1     -11.618   9.371  70.185  1.00  0.00    -0.078 C  
BRANCH  20  21
HETATM   21  C   UNL     1     -11.511   8.240  71.178  1.00  0.00    -0.307 A  
HETATM   22  C   UNL     1     -10.926   8.451  72.437  1.00  0.00    -0.425 A  
HETATM   23  C   UNL     1     -10.580   7.365  73.241  1.00  0.00    -0.442 A  
HETATM   24  C   UNL     1     -10.846   6.067  72.811  1.00  0.00    -0.284 A  
HETATM   25  C   UNL     1     -11.510   5.853  71.607  1.00  0.00    -0.238 A  
HETATM   26  C   UNL     1     -11.866   6.935  70.805  1.00  0.00    -0.427 A  
ENDBRANCH  20  21
ENDBRANCH  17  20
ENDBRANCH  16  17
ENDBRANCH  15  16
ENDBRANCH  14  15
ENDBRANCH  13  14
ENDBRANCH  12  13
ENDBRANCH  11  12
ENDBRANCH  10  11
ENDBRANCH   9  10
ENDBRANCH   8   9
ENDBRANCH   7   8
ENDBRANCH   6   7
ENDBRANCH   5   6
ENDBRANCH   4   5
ENDBRANCH   3   4
ENDBRANCH   2   3
TORSDOF 17
ENDMDL
MODEL      187
REMARK 921   NORMALIZED FREE ENERGY PREDICTED BY IDOCK:   -3.41 KCAL/MOL
REMARK 922        TOTAL FREE ENERGY PREDICTED BY IDOCK:   -9.64 KCAL/MOL
REMARK 923 INTER-LIGAND FREE ENERGY PREDICTED BY IDOCK:   -7.78 KCAL/MOL
REMARK 924 INTRA-LIGAND FREE ENERGY PREDICTED BY IDOCK:   -1.86 KCAL/MOL
REMARK 927      BINDING AFFINITY PREDICTED BY RF-SCORE:    0.00 PKD
ROOT
HETATM    1  C   UNL     1     -10.822  17.148  65.310  1.00  0.00    -0.043 C  
HETATM    2  C   UNL     1     -10.480  15.814  65.950  1.00  0.00    -0.366 C  
ENDROOT
BRANCH   2   3
HETATM    3  C   UNL     1     -10.514  14.688  64.920  1.00  0.00    -0.415 C  
BRANCH   3   4
HETATM    4  C   UNL     1     -11.944  14.221  64.666  1.00  0.00    -0.468 C  
BRANCH   4   5
HETATM    5  C   UNL     1     -12.537  13.605  65.927  1.00  0.00    -0.478 C  
BRANCH   5   6
HETATM    6  C   UNL     1     -11.845  12.291  66.264  1.00  0.00    -0.387 C  
BRANCH   6   7
HETATM    7  C   UNL     1     -11.359  12.305  67.707  1.00  0.00    -0.362 C  
BRANCH   7   8
HETATM    8  C   UNL     1     -11.972  13.474  68.465  1.00  0.00    -0.379 C  
BRANCH   8   9
HETATM    9  C   UNL     1     -12.074  13.146  69.949  1.00  0.00    -0.357 C  
BRANCH   9  10
HETATM   10  C   UNL     1     -11.922  11.649  70.167  1.00  0.00    -0.441 C  
BRANCH  10  11
HETATM   11  C   UNL     1     -12.869  11.163  71.251  1.00  0.00    -0.515 C  
BRANCH  11  12
HETATM   12  C   UNL     1     -12.919   9.645  71.247  1.00  0.00    -0.446 C  
BRANCH  12  13
HETATM   13  C   UNL     1     -11.610   9.041  71.743  1.00  0.00    -0.444 C  
BRANCH  13  14
HETATM   14  C   UNL     1     -11.833   7.797  72.602  1.00  0.00    -0.317 C  
BRANCH  14  15
HETATM   15  C   UNL     1     -11.317   6.492  71.989  1.00  0.00    -0.326 C  
BRANCH  15  16
HETATM   16  C   UNL     1      -9.951   6.644  71.314  1.00  0.00    -0.180 C  
BRANCH  16  17
HETATM   17  N   UNL     1      -9.542   5.427  70.464  1.00  0.00    -0.167 N  
HETATM   18  C   UNL     1      -8.052   5.469  70.146  1.00  0.00    -0.098 C  
HETATM   19  C   UNL     1      -9.865   4.130  71.204  1.00  0.00    -0.174 C  
BRANCH  17  20
HETATM   20  C   UNL     1     -10.378   5.487  69.138  1.00  0.00    -0.248 C  
BRANCH  20  21
HETATM   21  C   UNL     1     -10.080   6.682  68.266  1.00  0.00    -0.170 A  
HETATM   22  C   UNL     1     -10.675   7.926  68.534  1.00  0.00    -0.069 A  
HETATM   23  C   UNL     1     -10.621   8.949  67.587  1.00  0.00    -0.292 A  
HETATM   24  C   UNL     1      -9.945   8.749  66.385  1.00  0.00    -0.346 A  
HETATM   25  C   UNL     1      -9.272   7.554  66.152  1.00  0.00    -0.156 A  
HETATM   26  C   UNL     1      -9.317   6.532  67.099  1.00  0.00    -0.138 A  
ENDBRANCH  20  21
ENDBRANCH  17  20
ENDBRANCH  16  17
ENDBRANCH  15  16
ENDBRANCH  14  15
ENDBRANCH  13  14
ENDBRANCH  12  13
ENDBRANCH  11  12
ENDBRANCH  10  11
ENDBRANCH   9  10
ENDBRANCH   8   9
ENDBRANCH   7   8
ENDBRANCH   6   7
ENDBRANCH   5   6
ENDBRANCH   4   5
ENDBRANCH   3   4
ENDBRANCH   2   3
TORSDOF 17
ENDMDL
MODEL      188
REMARK 921   NORMALIZED FREE ENERGY PREDICTED BY IDOCK:   -3.40 KCAL/MOL
REMARK 922        TOTAL FREE ENERGY PREDICTED BY IDOCK:   -9.63 KCAL/MOL
REMARK 923 INTER-LIGAND FREE ENERGY PREDICTED BY IDOCK:   -6.99 KCAL/MOL
REMARK 924 INTRA-LIGAND FREE ENERGY PREDICTED BY IDOCK:   -2.63 KCAL/MOL
REMARK 927      BINDING AFFINITY PREDICTED BY RF-SCORE:    0.00 PKD
ROOT
HETATM    1  C   UNL     1      -8.902   7.726  65.888  1.00  0.00    -0.176 C  
HETATM    2  C   UNL     1      -8.071   8.996  65.852  1.00  0.00    -0.108 C  
ENDROOT
BRANCH   2   3
HETATM    3  C   UNL     1      -8.641  10.051  66.797  1.00  0.00    -0.129 C  
BRANCH   3   4
HETATM    4  C   UNL     1      -9.234  11.220  66.016  1.00  0.00    -0.224 C  
BRANCH   4   5
HETATM    5  C   UNL     1     -10.617  10.863  65.486  1.00  0.00    -0.240 C  
BRANCH   5   6
HETATM    6  C   UNL     1     -10.768  11.295  64.034  1.00  0.00    -0.444 C  
BRANCH   6   7
HETATM    7  C   UNL     1     -11.269  12.731  63.959  1.00  0.00    -0.463 C  
BRANCH   7   8
HETATM    8  C   UNL     1     -12.420  12.945  64.930  1.00  0.00    -0.540 C  
BRANCH   8   9
HETATM    9  C   UNL     1     -12.312  14.318  65.581  1.00  0.00    -0.416 C  
BRANCH   9  10
HETATM   10  C   UNL     1     -11.424  14.247  66.813  1.00  0.00    -0.380 C  
BRANCH  10  11
HETATM   11  C   UNL     1     -12.142  13.551  67.956  1.00  0.00    -0.298 C  
BRANCH  11  12
HETATM   12  C   UNL     1     -11.143  12.771  68.794  1.00  0.00    -0.303 C  
BRANCH  12  13
HETATM   13  C   UNL     1     -11.687  11.402  69.182  1.00  0.00    -0.410 C  
BRANCH  13  14
HETATM   14  C   UNL     1     -12.262  11.385  70.598  1.00  0.00    -0.484 C  
BRANCH  14  15
HETATM   15  C   UNL     1     -12.070  10.068  71.355  1.00  0.00    -0.498 C  
BRANCH  15  16
HETATM   16  C   UNL     1     -11.231   9.048  70.580  1.00  0.00    -0.270 C  
BRANCH  16  17
HETATM   17  N   UNL     1     -11.137   7.674  71.269  1.00  0.00    -0.243 N  
HETATM   18  C   UNL     1     -12.060   7.614  72.480  1.00  0.00    -0.159 C  
HETATM   19  C   UNL     1     -11.513   6.562  70.291  1.00  0.00    -0.411 C  
BRANCH  17  20
HETATM   20  C   UNL     1      -9.646   7.484  71.717  1.00  0.00    -0.152 C  
BRANCH  20  21
HETATM   21  C   UNL     1      -8.627   7.905  70.688  1.00  0.00    -0.130 A  
HETATM   22  C   UNL     1      -8.174   6.993  69.720  1.00  0.00    -0.131 A  
HETATM   23  C   UNL     1      -7.048   7.288  68.950  1.00  0.00    -0.084 A  
HETATM   24  C   UNL     1      -6.390   8.505  69.116  1.00  0.00    -0.043 A  
HETATM   25  C   UNL     1      -6.888   9.452  70.005  1.00  0.00    -0.067 A  
HETATM   26  C   UNL     1      -8.017   9.165  70.770  1.00  0.00    -0.192 A  
ENDBRANCH  20  21
ENDBRANCH  17  20
ENDBRANCH  16  17
ENDBRANCH  15  16
ENDBRANCH  14  15
ENDBRANCH  13  14
ENDBRANCH  12  13
ENDBRANCH  11  12
ENDBRANCH  10  11
ENDBRANCH   9  10
ENDBRANCH   8   9
ENDBRANCH   7   8
ENDBRANCH   6   7
ENDBRANCH   5   6
ENDBRANCH   4   5
ENDBRANCH   3   4
ENDBRANCH   2   3
TORSDOF 17
ENDMDL
MODEL      189
REMARK 921   NORMALIZED FREE ENERGY PREDICTED BY IDOCK:   -3.39 KCAL/MOL
REMARK 922        TOTAL FREE ENERGY PREDICTED BY IDOCK:   -9.59 KCAL/MOL
REMARK 923 INTER-LIGAND FREE ENERGY PREDICTED BY IDOCK:   -6.63 KCAL/MOL
REMARK 924 INTRA-LIGAND FREE ENERGY PREDICTED BY IDOCK:   -2.96 KCAL/MOL
REMARK 927      BINDING AFFINITY PREDICTED BY RF-SCORE:    0.00 PKD
ROOT
HETATM    1  C   UNL     1     -11.411  14.977  64.923  1.00  0.00    -0.419 C  
HETATM    2  C   UNL     1     -11.410  13.460  65.013  1.00  0.00    -0.330 C  
ENDROOT
BRANCH   2   3
HETATM    3  C   UNL     1     -11.879  12.993  66.389  1.00  0.00    -0.465 C  
BRANCH   3   4
HETATM    4  C   UNL     1     -11.512  14.011  67.465  1.00  0.00    -0.369 C  
BRANCH   4   5
HETATM    5  C   UNL     1     -11.013  13.305  68.720  1.00  0.00    -0.294 C  
BRANCH   5   6
HETATM    6  C   UNL     1     -12.009  13.460  69.861  1.00  0.00    -0.408 C  
BRANCH   6   7
HETATM    7  C   UNL     1     -12.274  12.113  70.519  1.00  0.00    -0.392 C  
BRANCH   7   8
HETATM    8  C   UNL     1     -12.516  11.044  69.464  1.00  0.00    -0.148 C  
BRANCH   8   9
HETATM    9  C   UNL     1     -11.772   9.765  69.827  1.00  0.00    -0.008 C  
BRANCH   9  10
HETATM   10  C   UNL     1     -10.796  10.031  70.962  1.00  0.00    -0.186 C  
BRANCH  10  11
HETATM   11  C   UNL     1     -10.610   8.789  71.816  1.00  0.00    -0.417 C  
BRANCH  11  12
HETATM   12  C   UNL     1     -11.927   8.039  71.928  1.00  0.00    -0.359 C  
BRANCH  12  13
HETATM   13  C   UNL     1     -11.739   6.544  71.701  1.00  0.00    -0.374 C  
BRANCH  13  14
HETATM   14  C   UNL     1     -10.263   6.145  71.656  1.00  0.00    -0.235 C  
BRANCH  14  15
HETATM   15  C   UNL     1      -9.810   5.508  70.339  1.00  0.00    -0.259 C  
BRANCH  15  16
HETATM   16  C   UNL     1     -10.434   6.169  69.107  1.00  0.00    -0.251 C  
BRANCH  16  17
HETATM   17  N   UNL     1      -9.841   5.676  67.774  1.00  0.00    -0.125 N  
HETATM   18  C   UNL     1      -9.376   4.230  67.893  1.00  0.00    -0.156 C  
HETATM   19  C   UNL     1     -10.879   5.784  66.658  1.00  0.00    -0.214 C  
BRANCH  17  20
HETATM   20  C   UNL     1      -8.623   6.607  67.438  1.00  0.00    -0.119 C  
BRANCH  20  21
HETATM   21  C   UNL     1      -8.920   8.083  67.544  1.00  0.00    -0.143 A  
HETATM   22  C   UNL     1      -9.785   8.703  66.628  1.00  0.00    -0.315 A  
HETATM   23  C   UNL     1      -9.848  10.094  66.552  1.00  0.00    -0.268 A  
HETATM   24  C   UNL     1      -9.075  10.874  67.410  1.00  0.00    -0.144 A  
HETATM   25  C   UNL     1      -8.287  10.268  68.384  1.00  0.00    -0.119 A  
HETATM   26  C   UNL     1      -8.228   8.878  68.469  1.00  0.00    -0.116 A  
ENDBRANCH  20  21
ENDBRANCH  17  20
ENDBRANCH  16  17
ENDBRANCH  15  16
ENDBRANCH  14  15
ENDBRANCH  13  14
ENDBRANCH  12  13
ENDBRANCH  11  12
ENDBRANCH  10  11
ENDBRANCH   9  10
ENDBRANCH   8   9
ENDBRANCH   7   8
ENDBRANCH   6   7
ENDBRANCH   5   6
ENDBRANCH   4   5
ENDBRANCH   3   4
ENDBRANCH   2   3
TORSDOF 17
ENDMDL
MODEL      190
REMARK 921   NORMALIZED FREE ENERGY PREDICTED BY IDOCK:   -3.38 KCAL/MOL
REMARK 922        TOTAL FREE ENERGY PREDICTED BY IDOCK:   -9.58 KCAL/MOL
REMARK 923 INTER-LIGAND FREE ENERGY PREDICTED BY IDOCK:   -7.91 KCAL/MOL
REMARK 924 INTRA-LIGAND FREE ENERGY PREDICTED BY IDOCK:   -1.67 KCAL/MOL
REMARK 927      BINDING AFFINITY PREDICTED BY RF-SCORE:    0.00 PKD
ROOT
HETATM    1  C   UNL     1     -10.763   1.767  73.009  1.00  0.00    -0.238 C  
HETATM    2  C   UNL     1     -10.826   2.956  73.953  1.00  0.00    -0.291 C  
ENDROOT
BRANCH   2   3
HETATM    3  C   UNL     1     -10.623   4.266  73.198  1.00  0.00    -0.270 C  
BRANCH   3   4
HETATM    4  C   UNL     1      -9.972   4.019  71.840  1.00  0.00    -0.246 C  
BRANCH   4   5
HETATM    5  C   UNL     1      -8.741   4.901  71.669  1.00  0.00    -0.137 C  
BRANCH   5   6
HETATM    6  C   UNL     1      -8.585   5.847  72.852  1.00  0.00    -0.121 C  
BRANCH   6   7
HETATM    7  C   UNL     1      -8.392   7.276  72.364  1.00  0.00    -0.122 C  
BRANCH   7   8
HETATM    8  C   UNL     1      -9.417   8.201  73.002  1.00  0.00    -0.333 C  
BRANCH   8   9
HETATM    9  C   UNL     1     -10.813   7.881  72.483  1.00  0.00    -0.403 C  
BRANCH   9  10
HETATM   10  C   UNL     1     -11.278   8.967  71.527  1.00  0.00    -0.418 C  
BRANCH  10  11
HETATM   11  C   UNL     1     -10.715   8.739  70.135  1.00  0.00    -0.239 C  
BRANCH  11  12
HETATM   12  C   UNL     1     -10.075  10.018  69.621  1.00  0.00    -0.263 C  
BRANCH  12  13
HETATM   13  C   UNL     1     -10.632  10.413  68.259  1.00  0.00    -0.245 C  
BRANCH  13  14
HETATM   14  C   UNL     1     -11.849  11.331  68.374  1.00  0.00    -0.331 C  
BRANCH  14  15
HETATM   15  C   UNL     1     -11.544  12.742  68.884  1.00  0.00    -0.362 C  
BRANCH  15  16
HETATM   16  C   UNL     1     -11.941  13.838  67.892  1.00  0.00    -0.356 C  
BRANCH  16  17
HETATM   17  N   UNL     1     -10.900  14.965  67.765  1.00  0.00    -0.279 N  
HETATM   18  C   UNL     1     -11.460  16.279  68.296  1.00  0.00    -0.207 C  
HETATM   19  C   UNL     1      -9.631  14.606  68.539  1.00  0.00    -0.221 C  
BRANCH  17  20
HETATM   20  C   UNL     1     -10.553  15.104  66.242  1.00  0.00    -0.310 C  
BRANCH  20  21
HETATM   21  C   UNL     1     -10.873  13.883  65.415  1.00  0.00    -0.321 A  
HETATM   22  C   UNL     1     -10.038  12.755  65.457  1.00  0.00    -0.278 A  
HETATM   23  C   UNL     1     -10.173  11.745  64.505  1.00  0.00    -0.327 A  
HETATM   24  C   UNL     1     -11.163  11.836  63.529  1.00  0.00    -0.494 A  
HETATM   25  C   UNL     1     -12.056  12.904  63.538  1.00  0.00    -0.633 A  
HETATM   26  C   UNL     1     -11.929  13.911  64.493  1.00  0.00    -0.464 A  
ENDBRANCH  20  21
ENDBRANCH  17  20
ENDBRANCH  16  17
ENDBRANCH  15  16
ENDBRANCH  14  15
ENDBRANCH  13  14
ENDBRANCH  12  13
ENDBRANCH  11  12
ENDBRANCH  10  11
ENDBRANCH   9  10
ENDBRANCH   8   9
ENDBRANCH   7   8
ENDBRANCH   6   7
ENDBRANCH   5   6
ENDBRANCH   4   5
ENDBRANCH   3   4
ENDBRANCH   2   3
TORSDOF 17
ENDMDL
MODEL      191
REMARK 921   NORMALIZED FREE ENERGY PREDICTED BY IDOCK:   -3.38 KCAL/MOL
REMARK 922        TOTAL FREE ENERGY PREDICTED BY IDOCK:   -9.57 KCAL/MOL
REMARK 923 INTER-LIGAND FREE ENERGY PREDICTED BY IDOCK:   -7.24 KCAL/MOL
REMARK 924 INTRA-LIGAND FREE ENERGY PREDICTED BY IDOCK:   -2.33 KCAL/MOL
REMARK 927      BINDING AFFINITY PREDICTED BY RF-SCORE:    0.00 PKD
ROOT
HETATM    1  C   UNL     1     -11.881  11.278  68.815  1.00  0.00    -0.396 C  
HETATM    2  C   UNL     1     -11.893  11.619  70.295  1.00  0.00    -0.414 C  
ENDROOT
BRANCH   2   3
HETATM    3  C   UNL     1     -13.143  11.066  70.974  1.00  0.00    -0.257 C  
BRANCH   3   4
HETATM    4  C   UNL     1     -13.437  11.816  72.271  1.00  0.00    -0.143 C  
BRANCH   4   5
HETATM    5  C   UNL     1     -13.703  13.289  71.987  1.00  0.00    -0.519 C  
BRANCH   5   6
HETATM    6  C   UNL     1     -12.794  14.175  72.829  1.00  0.00    -0.445 C  
BRANCH   6   7
HETATM    7  C   UNL     1     -11.944  15.064  71.931  1.00  0.00    -0.454 C  
BRANCH   7   8
HETATM    8  C   UNL     1     -12.661  15.335  70.618  1.00  0.00    -0.471 C  
BRANCH   8   9
HETATM    9  C   UNL     1     -11.684  15.237  69.452  1.00  0.00    -0.361 C  
BRANCH   9  10
HETATM   10  C   UNL     1     -10.465  16.107  69.715  1.00  0.00    -0.286 C  
BRANCH  10  11
HETATM   11  C   UNL     1      -9.261  15.596  68.944  1.00  0.00    -0.226 C  
BRANCH  11  12
HETATM   12  C   UNL     1      -9.556  14.216  68.383  1.00  0.00    -0.225 C  
BRANCH  12  13
HETATM   13  C   UNL     1      -8.301  13.562  67.819  1.00  0.00    -0.181 C  
BRANCH  13  14
HETATM   14  C   UNL     1      -8.618  12.325  66.979  1.00  0.00    -0.191 C  
BRANCH  14  15
HETATM   15  C   UNL     1      -8.089  11.006  67.551  1.00  0.00    -0.117 C  
BRANCH  15  16
HETATM   16  C   UNL     1      -9.105   9.863  67.461  1.00  0.00    -0.134 C  
BRANCH  16  17
HETATM   17  N   UNL     1      -8.963   8.820  68.585  1.00  0.00    -0.138 N  
HETATM   18  C   UNL     1      -7.827   7.851  68.281  1.00  0.00    -0.120 C  
HETATM   19  C   UNL     1      -8.693   9.512  69.921  1.00  0.00    -0.210 C  
BRANCH  17  20
HETATM   20  C   UNL     1     -10.324   8.045  68.670  1.00  0.00    -0.200 C  
BRANCH  20  21
HETATM   21  C   UNL     1     -10.573   7.367  69.995  1.00  0.00    -0.241 A  
HETATM   22  C   UNL     1     -10.037   6.095  70.256  1.00  0.00    -0.237 A  
HETATM   23  C   UNL     1     -10.483   5.356  71.351  1.00  0.00    -0.294 A  
HETATM   24  C   UNL     1     -11.438   5.894  72.211  1.00  0.00    -0.351 A  
HETATM   25  C   UNL     1     -11.905   7.190  72.014  1.00  0.00    -0.333 A  
HETATM   26  C   UNL     1     -11.456   7.935  70.925  1.00  0.00    -0.294 A  
ENDBRANCH  20  21
ENDBRANCH  17  20
ENDBRANCH  16  17
ENDBRANCH  15  16
ENDBRANCH  14  15
ENDBRANCH  13  14
ENDBRANCH  12  13
ENDBRANCH  11  12
ENDBRANCH  10  11
ENDBRANCH   9  10
ENDBRANCH   8   9
ENDBRANCH   7   8
ENDBRANCH   6   7
ENDBRANCH   5   6
ENDBRANCH   4   5
ENDBRANCH   3   4
ENDBRANCH   2   3
TORSDOF 17
ENDMDL
MODEL      192
REMARK 921   NORMALIZED FREE ENERGY PREDICTED BY IDOCK:   -3.37 KCAL/MOL
REMARK 922        TOTAL FREE ENERGY PREDICTED BY IDOCK:   -9.56 KCAL/MOL
REMARK 923 INTER-LIGAND FREE ENERGY PREDICTED BY IDOCK:   -8.80 KCAL/MOL
REMARK 924 INTRA-LIGAND FREE ENERGY PREDICTED BY IDOCK:   -0.76 KCAL/MOL
REMARK 927      BINDING AFFINITY PREDICTED BY RF-SCORE:    0.00 PKD
ROOT
HETATM    1  C   UNL     1      -7.275  20.736  67.094  1.00  0.00    -0.394 C  
HETATM    2  C   UNL     1      -8.330  19.697  67.436  1.00  0.00    -0.335 C  
ENDROOT
BRANCH   2   3
HETATM    3  C   UNL     1      -9.668  20.041  66.787  1.00  0.00    -0.563 C  
BRANCH   3   4
HETATM    4  C   UNL     1     -10.763  19.087  67.256  1.00  0.00    -0.556 C  
BRANCH   4   5
HETATM    5  C   UNL     1     -10.411  17.650  66.893  1.00  0.00    -0.290 C  
BRANCH   5   6
HETATM    6  C   UNL     1     -10.445  16.757  68.127  1.00  0.00    -0.332 C  
BRANCH   6   7
HETATM    7  C   UNL     1     -11.259  15.501  67.848  1.00  0.00    -0.325 C  
BRANCH   7   8
HETATM    8  C   UNL     1     -10.934  14.951  66.468  1.00  0.00    -0.327 C  
BRANCH   8   9
HETATM    9  C   UNL     1     -12.101  14.126  65.940  1.00  0.00    -0.441 C  
BRANCH   9  10
HETATM   10  C   UNL     1     -12.160  14.213  64.423  1.00  0.00    -0.486 C  
BRANCH  10  11
HETATM   11  C   UNL     1     -12.289  12.831  63.808  1.00  0.00    -0.533 C  
BRANCH  11  12
HETATM   12  C   UNL     1     -10.928  12.350  63.332  1.00  0.00    -0.442 C  
BRANCH  12  13
HETATM   13  C   UNL     1     -10.423  11.184  64.171  1.00  0.00    -0.442 C  
BRANCH  13  14
HETATM   14  C   UNL     1      -9.610  11.648  65.380  1.00  0.00    -0.228 C  
BRANCH  14  15
HETATM   15  C   UNL     1      -9.695  10.731  66.603  1.00  0.00    -0.227 C  
BRANCH  15  16
HETATM   16  C   UNL     1     -10.278   9.352  66.280  1.00  0.00    -0.214 C  
BRANCH  16  17
HETATM   17  N   UNL     1      -9.692   8.216  67.139  1.00  0.00    -0.181 N  
HETATM   18  C   UNL     1      -8.348   7.760  66.584  1.00  0.00    -0.126 C  
HETATM   19  C   UNL     1      -9.513   8.680  68.584  1.00  0.00    -0.142 C  
BRANCH  17  20
HETATM   20  C   UNL     1     -10.721   7.032  67.101  1.00  0.00    -0.363 C  
BRANCH  20  21
HETATM   21  C   UNL     1     -10.622   6.084  68.271  1.00  0.00    -0.325 A  
HETATM   22  C   UNL     1     -11.225   6.402  69.499  1.00  0.00    -0.477 A  
HETATM   23  C   UNL     1     -10.911   5.673  70.646  1.00  0.00    -0.304 A  
HETATM   24  C   UNL     1     -10.023   4.602  70.568  1.00  0.00    -0.295 A  
HETATM   25  C   UNL     1      -9.495   4.220  69.339  1.00  0.00    -0.256 A  
HETATM   26  C   UNL     1      -9.813   4.941  68.189  1.00  0.00    -0.198 A  
ENDBRANCH  20  21
ENDBRANCH  17  20
ENDBRANCH  16  17
ENDBRANCH  15  16
ENDBRANCH  14  15
ENDBRANCH  13  14
ENDBRANCH  12  13
ENDBRANCH  11  12
ENDBRANCH  10  11
ENDBRANCH   9  10
ENDBRANCH   8   9
ENDBRANCH   7   8
ENDBRANCH   6   7
ENDBRANCH   5   6
ENDBRANCH   4   5
ENDBRANCH   3   4
ENDBRANCH   2   3
TORSDOF 17
ENDMDL
MODEL      193
REMARK 921   NORMALIZED FREE ENERGY PREDICTED BY IDOCK:   -3.37 KCAL/MOL
REMARK 922        TOTAL FREE ENERGY PREDICTED BY IDOCK:   -9.56 KCAL/MOL
REMARK 923 INTER-LIGAND FREE ENERGY PREDICTED BY IDOCK:   -7.89 KCAL/MOL
REMARK 924 INTRA-LIGAND FREE ENERGY PREDICTED BY IDOCK:   -1.67 KCAL/MOL
REMARK 927      BINDING AFFINITY PREDICTED BY RF-SCORE:    0.00 PKD
ROOT
HETATM    1  C   UNL     1      -8.994   4.528  65.116  1.00  0.00    -0.147 C  
HETATM    2  C   UNL     1      -9.920   4.913  66.257  1.00  0.00    -0.256 C  
ENDROOT
BRANCH   2   3
HETATM    3  C   UNL     1      -9.703   4.008  67.467  1.00  0.00    -0.177 C  
BRANCH   3   4
HETATM    4  C   UNL     1      -9.662   4.821  68.757  1.00  0.00    -0.235 C  
BRANCH   4   5
HETATM    5  C   UNL     1      -9.708   6.313  68.450  1.00  0.00    -0.130 C  
BRANCH   5   6
HETATM    6  C   UNL     1     -10.918   6.963  69.107  1.00  0.00    -0.240 C  
BRANCH   6   7
HETATM    7  C   UNL     1     -11.307   6.204  70.368  1.00  0.00    -0.399 C  
BRANCH   7   8
HETATM    8  C   UNL     1     -10.768   6.911  71.603  1.00  0.00    -0.246 C  
BRANCH   8   9
HETATM    9  C   UNL     1     -11.839   7.812  72.206  1.00  0.00    -0.378 C  
BRANCH   9  10
HETATM   10  C   UNL     1     -11.592   9.259  71.810  1.00  0.00    -0.458 C  
BRANCH  10  11
HETATM   11  C   UNL     1     -12.790   9.828  71.070  1.00  0.00    -0.374 C  
BRANCH  11  12
HETATM   12  C   UNL     1     -12.750  11.346  71.116  1.00  0.00    -0.479 C  
BRANCH  12  13
HETATM   13  C   UNL     1     -11.833  11.913  70.039  1.00  0.00    -0.407 C  
BRANCH  13  14
HETATM   14  C   UNL     1     -11.897  11.109  68.740  1.00  0.00    -0.388 C  
BRANCH  14  15
HETATM   15  C   UNL     1     -10.539  10.654  68.198  1.00  0.00    -0.237 C  
BRANCH  15  16
HETATM   16  C   UNL     1     -10.586  10.250  66.722  1.00  0.00    -0.185 C  
BRANCH  16  17
HETATM   17  N   UNL     1      -9.197  10.115  66.073  1.00  0.00    -0.152 N  
HETATM   18  C   UNL     1      -8.114  10.657  66.999  1.00  0.00    -0.120 C  
HETATM   19  C   UNL     1      -8.900   8.651  65.750  1.00  0.00    -0.193 C  
BRANCH  17  20
HETATM   20  C   UNL     1      -9.228  10.941  64.739  1.00  0.00    -0.201 C  
BRANCH  20  21
HETATM   21  C   UNL     1     -10.356  11.940  64.651  1.00  0.00    -0.326 A  
HETATM   22  C   UNL     1     -11.428  11.727  63.768  1.00  0.00    -0.510 A  
HETATM   23  C   UNL     1     -12.320  12.761  63.485  1.00  0.00    -0.559 A  
HETATM   24  C   UNL     1     -12.169  14.000  64.105  1.00  0.00    -0.433 A  
HETATM   25  C   UNL     1     -11.167  14.190  65.051  1.00  0.00    -0.356 A  
HETATM   26  C   UNL     1     -10.279  13.157  65.344  1.00  0.00    -0.301 A  
ENDBRANCH  20  21
ENDBRANCH  17  20
ENDBRANCH  16  17
ENDBRANCH  15  16
ENDBRANCH  14  15
ENDBRANCH  13  14
ENDBRANCH  12  13
ENDBRANCH  11  12
ENDBRANCH  10  11
ENDBRANCH   9  10
ENDBRANCH   8   9
ENDBRANCH   7   8
ENDBRANCH   6   7
ENDBRANCH   5   6
ENDBRANCH   4   5
ENDBRANCH   3   4
ENDBRANCH   2   3
TORSDOF 17
ENDMDL
MODEL      194
REMARK 921   NORMALIZED FREE ENERGY PREDICTED BY IDOCK:   -3.37 KCAL/MOL
REMARK 922        TOTAL FREE ENERGY PREDICTED BY IDOCK:   -9.55 KCAL/MOL
REMARK 923 INTER-LIGAND FREE ENERGY PREDICTED BY IDOCK:   -7.82 KCAL/MOL
REMARK 924 INTRA-LIGAND FREE ENERGY PREDICTED BY IDOCK:   -1.74 KCAL/MOL
REMARK 927      BINDING AFFINITY PREDICTED BY RF-SCORE:    0.00 PKD
ROOT
HETATM    1  C   UNL     1      -9.883  14.853  67.343  1.00  0.00    -0.221 C  
HETATM    2  C   UNL     1     -10.986  13.890  67.746  1.00  0.00    -0.271 C  
ENDROOT
BRANCH   2   3
HETATM    3  C   UNL     1     -12.090  13.850  66.692  1.00  0.00    -0.485 C  
BRANCH   3   4
HETATM    4  C   UNL     1     -11.595  14.409  65.361  1.00  0.00    -0.347 C  
BRANCH   4   5
HETATM    5  C   UNL     1     -11.856  13.417  64.235  1.00  0.00    -0.470 C  
BRANCH   5   6
HETATM    6  C   UNL     1     -11.704  11.984  64.730  1.00  0.00    -0.342 C  
BRANCH   6   7
HETATM    7  C   UNL     1     -10.555  11.295  64.007  1.00  0.00    -0.450 C  
BRANCH   7   8
HETATM    8  C   UNL     1      -9.417  11.002  64.974  1.00  0.00    -0.269 C  
BRANCH   8   9
HETATM    9  C   UNL     1      -9.964  10.748  66.373  1.00  0.00    -0.264 C  
BRANCH   9  10
HETATM   10  C   UNL     1     -10.432   9.307  66.498  1.00  0.00    -0.204 C  
BRANCH  10  11
HETATM   11  C   UNL     1      -9.302   8.412  66.978  1.00  0.00    -0.202 C  
BRANCH  11  12
HETATM   12  C   UNL     1      -9.592   6.969  66.602  1.00  0.00    -0.220 C  
BRANCH  12  13
HETATM   13  C   UNL     1     -10.747   6.401  67.418  1.00  0.00    -0.411 C  
BRANCH  13  14
HETATM   14  C   UNL     1     -10.277   5.396  68.469  1.00  0.00    -0.237 C  
BRANCH  14  15
HETATM   15  C   UNL     1     -10.805   5.650  69.883  1.00  0.00    -0.370 C  
BRANCH  15  16
HETATM   16  C   UNL     1     -11.780   6.829  69.957  1.00  0.00    -0.272 C  
BRANCH  16  17
HETATM   17  N   UNL     1     -12.143   7.241  71.395  1.00  0.00    -0.317 N  
HETATM   18  C   UNL     1     -13.649   7.159  71.615  1.00  0.00    -0.310 C  
HETATM   19  C   UNL     1     -11.435   6.337  72.403  1.00  0.00    -0.293 C  
BRANCH  17  20
HETATM   20  C   UNL     1     -11.650   8.718  71.591  1.00  0.00    -0.320 C  
BRANCH  20  21
HETATM   21  C   UNL     1     -10.149   8.874  71.620  1.00  0.00    -0.411 A  
HETATM   22  C   UNL     1      -9.463   9.361  70.495  1.00  0.00    -0.327 A  
HETATM   23  C   UNL     1      -8.074   9.251  70.418  1.00  0.00    -0.178 A  
HETATM   24  C   UNL     1      -7.361   8.689  71.475  1.00  0.00    -0.118 A  
HETATM   25  C   UNL     1      -8.024   8.291  72.632  1.00  0.00    -0.193 A  
HETATM   26  C   UNL     1      -9.410   8.407  72.716  1.00  0.00    -0.312 A  
ENDBRANCH  20  21
ENDBRANCH  17  20
ENDBRANCH  16  17
ENDBRANCH  15  16
ENDBRANCH  14  15
ENDBRANCH  13  14
ENDBRANCH  12  13
ENDBRANCH  11  12
ENDBRANCH  10  11
ENDBRANCH   9  10
ENDBRANCH   8   9
ENDBRANCH   7   8
ENDBRANCH   6   7
ENDBRANCH   5   6
ENDBRANCH   4   5
ENDBRANCH   3   4
ENDBRANCH   2   3
TORSDOF 17
ENDMDL
MODEL      195
REMARK 921   NORMALIZED FREE ENERGY PREDICTED BY IDOCK:   -3.37 KCAL/MOL
REMARK 922        TOTAL FREE ENERGY PREDICTED BY IDOCK:   -9.55 KCAL/MOL
REMARK 923 INTER-LIGAND FREE ENERGY PREDICTED BY IDOCK:   -7.81 KCAL/MOL
REMARK 924 INTRA-LIGAND FREE ENERGY PREDICTED BY IDOCK:   -1.74 KCAL/MOL
REMARK 927      BINDING AFFINITY PREDICTED BY RF-SCORE:    0.00 PKD
ROOT
HETATM    1  C   UNL     1      -8.544  13.516  67.566  1.00  0.00    -0.193 C  
HETATM    2  C   UNL     1      -9.850  13.617  68.333  1.00  0.00    -0.223 C  
ENDROOT
BRANCH   2   3
HETATM    3  C   UNL     1     -10.736  14.723  67.765  1.00  0.00    -0.268 C  
BRANCH   3   4
HETATM    4  C   UNL     1     -12.099  14.173  67.353  1.00  0.00    -0.379 C  
BRANCH   4   5
HETATM    5  C   UNL     1     -12.295  14.304  65.848  1.00  0.00    -0.420 C  
BRANCH   5   6
HETATM    6  C   UNL     1     -12.243  12.938  65.175  1.00  0.00    -0.519 C  
BRANCH   6   7
HETATM    7  C   UNL     1     -11.710  13.069  63.755  1.00  0.00    -0.547 C  
BRANCH   7   8
HETATM    8  C   UNL     1     -10.319  12.461  63.649  1.00  0.00    -0.434 C  
BRANCH   8   9
HETATM    9  C   UNL     1     -10.408  10.940  63.634  1.00  0.00    -0.364 C  
BRANCH   9  10
HETATM   10  C   UNL     1      -9.035  10.332  63.870  1.00  0.00    -0.259 C  
BRANCH  10  11
HETATM   11  C   UNL     1      -8.758  10.187  65.357  1.00  0.00    -0.176 C  
BRANCH  11  12
HETATM   12  C   UNL     1     -10.009   9.701  66.069  1.00  0.00    -0.344 C  
BRANCH  12  13
HETATM   13  C   UNL     1      -9.977  10.046  67.553  1.00  0.00    -0.232 C  
BRANCH  13  14
HETATM   14  C   UNL     1     -11.279  10.690  68.027  1.00  0.00    -0.373 C  
BRANCH  14  15
HETATM   15  C   UNL     1     -11.733  10.267  69.427  1.00  0.00    -0.166 C  
BRANCH  15  16
HETATM   16  C   UNL     1     -11.121   8.939  69.881  1.00  0.00    -0.136 C  
BRANCH  16  17
HETATM   17  N   UNL     1     -11.540   8.518  71.301  1.00  0.00    -0.274 N  
HETATM   18  C   UNL     1     -10.340   8.521  72.241  1.00  0.00    -0.332 C  
HETATM   19  C   UNL     1     -12.610   9.465  71.843  1.00  0.00    -0.401 C  
BRANCH  17  20
HETATM   20  C   UNL     1     -12.138   7.071  71.196  1.00  0.00    -0.369 C  
BRANCH  20  21
HETATM   21  C   UNL     1     -11.348   6.015  71.929  1.00  0.00    -0.335 A  
HETATM   22  C   UNL     1     -10.253   5.389  71.312  1.00  0.00    -0.287 A  
HETATM   23  C   UNL     1      -9.697   4.237  71.869  1.00  0.00    -0.231 A  
HETATM   24  C   UNL     1     -10.206   3.725  73.061  1.00  0.00    -0.229 A  
HETATM   25  C   UNL     1     -11.228   4.393  73.728  1.00  0.00    -0.272 A  
HETATM   26  C   UNL     1     -11.781   5.548  73.178  1.00  0.00    -0.045 A  
ENDBRANCH  20  21
ENDBRANCH  17  20
ENDBRANCH  16  17
ENDBRANCH  15  16
ENDBRANCH  14  15
ENDBRANCH  13  14
ENDBRANCH  12  13
ENDBRANCH  11  12
ENDBRANCH  10  11
ENDBRANCH   9  10
ENDBRANCH   8   9
ENDBRANCH   7   8
ENDBRANCH   6   7
ENDBRANCH   5   6
ENDBRANCH   4   5
ENDBRANCH   3   4
ENDBRANCH   2   3
TORSDOF 17
ENDMDL
MODEL      196
REMARK 921   NORMALIZED FREE ENERGY PREDICTED BY IDOCK:   -3.37 KCAL/MOL
REMARK 922        TOTAL FREE ENERGY PREDICTED BY IDOCK:   -9.55 KCAL/MOL
REMARK 923 INTER-LIGAND FREE ENERGY PREDICTED BY IDOCK:   -6.93 KCAL/MOL
REMARK 924 INTRA-LIGAND FREE ENERGY PREDICTED BY IDOCK:   -2.63 KCAL/MOL
REMARK 927      BINDING AFFINITY PREDICTED BY RF-SCORE:    0.00 PKD
ROOT
HETATM    1  C   UNL     1     -11.771   5.521  72.838  1.00  0.00    -0.216 C  
HETATM    2  C   UNL     1     -11.082   6.528  71.933  1.00  0.00    -0.300 C  
ENDROOT
BRANCH   2   3
HETATM    3  C   UNL     1     -11.396   7.958  72.366  1.00  0.00    -0.427 C  
BRANCH   3   4
HETATM    4  C   UNL     1     -10.612   8.966  71.530  1.00  0.00    -0.399 C  
BRANCH   4   5
HETATM    5  C   UNL     1     -11.110   8.968  70.090  1.00  0.00    -0.228 C  
BRANCH   5   6
HETATM    6  C   UNL     1      -9.942   8.910  69.114  1.00  0.00    -0.192 C  
BRANCH   6   7
HETATM    7  C   UNL     1     -10.419   8.433  67.748  1.00  0.00    -0.284 C  
BRANCH   7   8
HETATM    8  C   UNL     1      -9.369   8.725  66.686  1.00  0.00    -0.242 C  
BRANCH   8   9
HETATM    9  C   UNL     1      -9.913   9.717  65.666  1.00  0.00    -0.352 C  
BRANCH   9  10
HETATM   10  C   UNL     1      -8.997  10.927  65.570  1.00  0.00    -0.213 C  
BRANCH  10  11
HETATM   11  C   UNL     1      -8.214  11.114  66.859  1.00  0.00    -0.149 C  
BRANCH  11  12
HETATM   12  C   UNL     1      -7.771  12.561  66.987  1.00  0.00    -0.044 C  
BRANCH  12  13
HETATM   13  C   UNL     1      -8.169  13.149  68.336  1.00  0.00    -0.130 C  
BRANCH  13  14
HETATM   14  C   UNL     1      -7.358  14.397  68.686  1.00  0.00    -0.123 C  
BRANCH  14  15
HETATM   15  C   UNL     1      -8.154  15.705  68.673  1.00  0.00    -0.158 C  
BRANCH  15  16
HETATM   16  C   UNL     1      -9.134  15.800  67.499  1.00  0.00    -0.195 C  
BRANCH  16  17
HETATM   17  N   UNL     1     -10.188  16.910  67.661  1.00  0.00    -0.296 N  
HETATM   18  C   UNL     1      -9.774  17.891  68.751  1.00  0.00    -0.323 C  
HETATM   19  C   UNL     1     -10.373  17.664  66.345  1.00  0.00    -0.345 C  
BRANCH  17  20
HETATM   20  C   UNL     1     -11.538  16.211  68.050  1.00  0.00    -0.070 C  
BRANCH  20  21
HETATM   21  C   UNL     1     -11.488  14.704  68.029  1.00  0.00    -0.346 A  
HETATM   22  C   UNL     1     -11.593  14.004  66.816  1.00  0.00    -0.406 A  
HETATM   23  C   UNL     1     -11.820  12.628  66.816  1.00  0.00    -0.440 A  
HETATM   24  C   UNL     1     -11.909  11.937  68.023  1.00  0.00    -0.323 A  
HETATM   25  C   UNL     1     -11.713  12.606  69.226  1.00  0.00    -0.379 A  
HETATM   26  C   UNL     1     -11.477  13.980  69.230  1.00  0.00    -0.344 A  
ENDBRANCH  20  21
ENDBRANCH  17  20
ENDBRANCH  16  17
ENDBRANCH  15  16
ENDBRANCH  14  15
ENDBRANCH  13  14
ENDBRANCH  12  13
ENDBRANCH  11  12
ENDBRANCH  10  11
ENDBRANCH   9  10
ENDBRANCH   8   9
ENDBRANCH   7   8
ENDBRANCH   6   7
ENDBRANCH   5   6
ENDBRANCH   4   5
ENDBRANCH   3   4
ENDBRANCH   2   3
TORSDOF 17
ENDMDL
MODEL      197
REMARK 921   NORMALIZED FREE ENERGY PREDICTED BY IDOCK:   -3.36 KCAL/MOL
REMARK 922        TOTAL FREE ENERGY PREDICTED BY IDOCK:   -9.54 KCAL/MOL
REMARK 923 INTER-LIGAND FREE ENERGY PREDICTED BY IDOCK:   -8.08 KCAL/MOL
REMARK 924 INTRA-LIGAND FREE ENERGY PREDICTED BY IDOCK:   -1.46 KCAL/MOL
REMARK 927      BINDING AFFINITY PREDICTED BY RF-SCORE:    0.00 PKD
ROOT
HETATM    1  C   UNL     1     -14.033  15.518  71.991  1.00  0.00    -0.599 C  
HETATM    2  C   UNL     1     -13.010  14.746  71.175  1.00  0.00    -0.422 C  
ENDROOT
BRANCH   2   3
HETATM    3  C   UNL     1     -13.042  13.260  71.521  1.00  0.00    -0.414 C  
BRANCH   3   4
HETATM    4  C   UNL     1     -12.253  12.445  70.501  1.00  0.00    -0.382 C  
BRANCH   4   5
HETATM    5  C   UNL     1     -12.513  10.956  70.690  1.00  0.00    -0.460 C  
BRANCH   5   6
HETATM    6  C   UNL     1     -13.451  10.715  71.866  1.00  0.00    -0.341 C  
BRANCH   6   7
HETATM    7  C   UNL     1     -13.291   9.294  72.388  1.00  0.00    -0.521 C  
BRANCH   7   8
HETATM    8  C   UNL     1     -14.287   8.363  71.712  1.00  0.00    -0.558 C  
BRANCH   8   9
HETATM    9  C   UNL     1     -13.628   7.027  71.391  1.00  0.00    -0.312 C  
BRANCH   9  10
HETATM   10  C   UNL     1     -12.125   7.205  71.246  1.00  0.00    -0.386 C  
BRANCH  10  11
HETATM   11  C   UNL     1     -11.587   6.343  70.117  1.00  0.00    -0.449 C  
BRANCH  11  12
HETATM   12  C   UNL     1     -10.098   6.109  70.313  1.00  0.00    -0.237 C  
BRANCH  12  13
HETATM   13  C   UNL     1      -9.801   4.650  70.636  1.00  0.00    -0.296 C  
BRANCH  13  14
HETATM   14  C   UNL     1      -9.420   3.846  69.393  1.00  0.00    -0.260 C  
BRANCH  14  15
HETATM   15  C   UNL     1      -9.648   4.571  68.064  1.00  0.00    -0.209 C  
BRANCH  15  16
HETATM   16  C   UNL     1      -8.344   4.950  67.355  1.00  0.00    -0.105 C  
BRANCH  16  17
HETATM   17  N   UNL     1      -8.321   6.400  66.838  1.00  0.00    -0.109 N  
HETATM   18  C   UNL     1      -7.556   7.303  67.798  1.00  0.00    -0.110 C  
HETATM   19  C   UNL     1      -7.669   6.461  65.457  1.00  0.00    -0.096 C  
BRANCH  17  20
HETATM   20  C   UNL     1      -9.812   6.874  66.725  1.00  0.00    -0.181 C  
BRANCH  20  21
HETATM   21  C   UNL     1      -9.984   8.369  66.610  1.00  0.00    -0.354 A  
HETATM   22  C   UNL     1      -9.468   9.062  65.503  1.00  0.00    -0.220 A  
HETATM   23  C   UNL     1      -9.383  10.454  65.524  1.00  0.00    -0.244 A  
HETATM   24  C   UNL     1      -9.844  11.164  66.631  1.00  0.00    -0.231 A  
HETATM   25  C   UNL     1     -10.444  10.491  67.691  1.00  0.00    -0.276 A  
HETATM   26  C   UNL     1     -10.538   9.100  67.671  1.00  0.00    -0.307 A  
ENDBRANCH  20  21
ENDBRANCH  17  20
ENDBRANCH  16  17
ENDBRANCH  15  16
ENDBRANCH  14  15
ENDBRANCH  13  14
ENDBRANCH  12  13
ENDBRANCH  11  12
ENDBRANCH  10  11
ENDBRANCH   9  10
ENDBRANCH   8   9
ENDBRANCH   7   8
ENDBRANCH   6   7
ENDBRANCH   5   6
ENDBRANCH   4   5
ENDBRANCH   3   4
ENDBRANCH   2   3
TORSDOF 17
ENDMDL
MODEL      198
REMARK 921   NORMALIZED FREE ENERGY PREDICTED BY IDOCK:   -3.36 KCAL/MOL
REMARK 922        TOTAL FREE ENERGY PREDICTED BY IDOCK:   -9.54 KCAL/MOL
REMARK 923 INTER-LIGAND FREE ENERGY PREDICTED BY IDOCK:   -7.70 KCAL/MOL
REMARK 924 INTRA-LIGAND FREE ENERGY PREDICTED BY IDOCK:   -1.84 KCAL/MOL
REMARK 927      BINDING AFFINITY PREDICTED BY RF-SCORE:    0.00 PKD
ROOT
HETATM    1  C   UNL     1     -12.106  10.901  69.395  1.00  0.00    -0.362 C  
HETATM    2  C   UNL     1     -11.845  12.113  68.517  1.00  0.00    -0.365 C  
ENDROOT
BRANCH   2   3
HETATM    3  C   UNL     1     -11.551  13.349  69.363  1.00  0.00    -0.365 C  
BRANCH   3   4
HETATM    4  C   UNL     1     -11.614  14.617  68.517  1.00  0.00    -0.346 C  
BRANCH   4   5
HETATM    5  C   UNL     1     -11.927  14.277  67.066  1.00  0.00    -0.463 C  
BRANCH   5   6
HETATM    6  C   UNL     1     -10.985  15.012  66.122  1.00  0.00    -0.334 C  
BRANCH   6   7
HETATM    7  C   UNL     1     -11.366  14.736  64.674  1.00  0.00    -0.370 C  
BRANCH   7   8
HETATM    8  C   UNL     1     -12.339  13.570  64.592  1.00  0.00    -0.419 C  
BRANCH   8   9
HETATM    9  C   UNL     1     -11.913  12.602  63.496  1.00  0.00    -0.630 C  
BRANCH   9  10
HETATM   10  C   UNL     1     -10.655  11.857  63.913  1.00  0.00    -0.444 C  
BRANCH  10  11
HETATM   11  C   UNL     1     -10.804  11.290  65.315  1.00  0.00    -0.261 C  
BRANCH  11  12
HETATM   12  C   UNL     1      -9.433  10.991  65.897  1.00  0.00    -0.244 C  
BRANCH  12  13
HETATM   13  C   UNL     1      -9.436   9.689  66.690  1.00  0.00    -0.221 C  
BRANCH  13  14
HETATM   14  C   UNL     1      -8.682   9.815  68.014  1.00  0.00    -0.118 C  
BRANCH  14  15
HETATM   15  C   UNL     1      -9.299   9.037  69.181  1.00  0.00    -0.148 C  
BRANCH  15  16
HETATM   16  C   UNL     1      -8.823   9.531  70.550  1.00  0.00    -0.201 C  
BRANCH  16  17
HETATM   17  N   UNL     1      -8.187   8.430  71.417  1.00  0.00    -0.126 N  
HETATM   18  C   UNL     1      -8.274   7.077  70.721  1.00  0.00    -0.121 C  
HETATM   19  C   UNL     1      -6.722   8.758  71.704  1.00  0.00    -0.076 C  
BRANCH  17  20
HETATM   20  C   UNL     1      -8.981   8.392  72.770  1.00  0.00    -0.221 C  
BRANCH  20  21
HETATM   21  C   UNL     1     -10.405   7.910  72.644  1.00  0.00    -0.372 A  
HETATM   22  C   UNL     1     -10.719   6.556  72.846  1.00  0.00    -0.280 A  
HETATM   23  C   UNL     1     -11.967   6.061  72.467  1.00  0.00    -0.176 A  
HETATM   24  C   UNL     1     -12.919   6.918  71.919  1.00  0.00    -0.264 A  
HETATM   25  C   UNL     1     -12.650   8.278  71.803  1.00  0.00    -0.364 A  
HETATM   26  C   UNL     1     -11.407   8.779  72.188  1.00  0.00    -0.411 A  
ENDBRANCH  20  21
ENDBRANCH  17  20
ENDBRANCH  16  17
ENDBRANCH  15  16
ENDBRANCH  14  15
ENDBRANCH  13  14
ENDBRANCH  12  13
ENDBRANCH  11  12
ENDBRANCH  10  11
ENDBRANCH   9  10
ENDBRANCH   8   9
ENDBRANCH   7   8
ENDBRANCH   6   7
ENDBRANCH   5   6
ENDBRANCH   4   5
ENDBRANCH   3   4
ENDBRANCH   2   3
TORSDOF 17
ENDMDL
MODEL      199
REMARK 921   NORMALIZED FREE ENERGY PREDICTED BY IDOCK:   -3.35 KCAL/MOL
REMARK 922        TOTAL FREE ENERGY PREDICTED BY IDOCK:   -9.53 KCAL/MOL
REMARK 923 INTER-LIGAND FREE ENERGY PREDICTED BY IDOCK:   -7.50 KCAL/MOL
REMARK 924 INTRA-LIGAND FREE ENERGY PREDICTED BY IDOCK:   -2.02 KCAL/MOL
REMARK 927      BINDING AFFINITY PREDICTED BY RF-SCORE:    0.00 PKD
ROOT
HETATM    1  C   UNL     1      -9.987  19.896  69.120  1.00  0.00    -0.336 C  
HETATM    2  C   UNL     1     -10.358  18.607  68.407  1.00  0.00    -0.356 C  
ENDROOT
BRANCH   2   3
HETATM    3  C   UNL     1     -10.360  18.800  66.893  1.00  0.00    -0.456 C  
BRANCH   3   4
HETATM    4  C   UNL     1      -9.614  17.665  66.197  1.00  0.00    -0.206 C  
BRANCH   4   5
HETATM    5  C   UNL     1      -9.655  16.400  67.045  1.00  0.00    -0.244 C  
BRANCH   5   6
HETATM    6  C   UNL     1     -10.742  15.453  66.552  1.00  0.00    -0.308 C  
BRANCH   6   7
HETATM    7  C   UNL     1     -10.631  15.260  65.046  1.00  0.00    -0.444 C  
BRANCH   7   8
HETATM    8  C   UNL     1     -12.002  15.002  64.439  1.00  0.00    -0.366 C  
BRANCH   8   9
HETATM    9  C   UNL     1     -12.817  14.088  65.345  1.00  0.00    -0.442 C  
BRANCH   9  10
HETATM   10  C   UNL     1     -12.519  12.632  65.027  1.00  0.00    -0.556 C  
BRANCH  10  11
HETATM   11  C   UNL     1     -12.081  12.475  63.580  1.00  0.00    -0.642 C  
BRANCH  11  12
HETATM   12  C   UNL     1     -10.830  11.617  63.511  1.00  0.00    -0.497 C  
BRANCH  12  13
HETATM   13  C   UNL     1     -10.363  11.197  64.900  1.00  0.00    -0.375 C  
BRANCH  13  14
HETATM   14  C   UNL     1      -9.451   9.971  64.859  1.00  0.00    -0.355 C  
BRANCH  14  15
HETATM   15  C   UNL     1      -9.676   8.964  65.991  1.00  0.00    -0.308 C  
BRANCH  15  16
HETATM   16  C   UNL     1      -8.577   9.002  67.056  1.00  0.00    -0.116 C  
BRANCH  16  17
HETATM   17  N   UNL     1      -9.066   8.618  68.464  1.00  0.00    -0.139 N  
HETATM   18  C   UNL     1     -10.333   7.775  68.384  1.00  0.00    -0.196 C  
HETATM   19  C   UNL     1      -7.985   7.837  69.209  1.00  0.00    -0.125 C  
BRANCH  17  20
HETATM   20  C   UNL     1      -9.357   9.956  69.232  1.00  0.00    -0.206 C  
BRANCH  20  21
HETATM   21  C   UNL     1      -8.537  11.133  68.766  1.00  0.00    -0.133 A  
HETATM   22  C   UNL     1      -9.117  12.136  67.972  1.00  0.00    -0.190 A  
HETATM   23  C   UNL     1      -8.312  13.069  67.319  1.00  0.00    -0.186 A  
HETATM   24  C   UNL     1      -6.929  13.029  67.482  1.00  0.00    -0.155 A  
HETATM   25  C   UNL     1      -6.353  12.099  68.341  1.00  0.00    -0.054 A  
HETATM   26  C   UNL     1      -7.155  11.170  69.002  1.00  0.00    -0.113 A  
ENDBRANCH  20  21
ENDBRANCH  17  20
ENDBRANCH  16  17
ENDBRANCH  15  16
ENDBRANCH  14  15
ENDBRANCH  13  14
ENDBRANCH  12  13
ENDBRANCH  11  12
ENDBRANCH  10  11
ENDBRANCH   9  10
ENDBRANCH   8   9
ENDBRANCH   7   8
ENDBRANCH   6   7
ENDBRANCH   5   6
ENDBRANCH   4   5
ENDBRANCH   3   4
ENDBRANCH   2   3
TORSDOF 17
ENDMDL
MODEL      200
REMARK 921   NORMALIZED FREE ENERGY PREDICTED BY IDOCK:   -3.34 KCAL/MOL
REMARK 922        TOTAL FREE ENERGY PREDICTED BY IDOCK:   -9.51 KCAL/MOL
REMARK 923 INTER-LIGAND FREE ENERGY PREDICTED BY IDOCK:   -7.61 KCAL/MOL
REMARK 924 INTRA-LIGAND FREE ENERGY PREDICTED BY IDOCK:   -1.90 KCAL/MOL
REMARK 927      BINDING AFFINITY PREDICTED BY RF-SCORE:    0.00 PKD
ROOT
HETATM    1  C   UNL     1      -8.920  17.712  68.536  1.00  0.00    -0.289 C  
HETATM    2  C   UNL     1      -8.445  16.271  68.592  1.00  0.00    -0.221 C  
ENDROOT
BRANCH   2   3
HETATM    3  C   UNL     1      -9.421  15.344  67.871  1.00  0.00    -0.197 C  
BRANCH   3   4
HETATM    4  C   UNL     1     -10.812  15.968  67.797  1.00  0.00    -0.324 C  
BRANCH   4   5
HETATM    5  C   UNL     1     -11.853  15.023  68.383  1.00  0.00    -0.298 C  
BRANCH   5   6
HETATM    6  C   UNL     1     -12.055  15.295  69.868  1.00  0.00    -0.375 C  
BRANCH   6   7
HETATM    7  C   UNL     1     -12.131  13.985  70.640  1.00  0.00    -0.424 C  
BRANCH   7   8
HETATM    8  C   UNL     1     -13.138  14.092  71.774  1.00  0.00    -0.449 C  
BRANCH   8   9
HETATM    9  C   UNL     1     -13.579  12.704  72.222  1.00  0.00    -0.508 C  
BRANCH   9  10
HETATM   10  C   UNL     1     -12.814  11.638  71.455  1.00  0.00    -0.461 C  
BRANCH  10  11
HETATM   11  C   UNL     1     -13.285  10.248  71.846  1.00  0.00    -0.550 C  
BRANCH  11  12
HETATM   12  C   UNL     1     -12.247   9.217  71.438  1.00  0.00    -0.426 C  
BRANCH  12  13
HETATM   13  C   UNL     1     -12.802   7.801  71.525  1.00  0.00    -0.357 C  
BRANCH  13  14
HETATM   14  C   UNL     1     -11.989   6.807  70.696  1.00  0.00    -0.418 C  
BRANCH  14  15
HETATM   15  C   UNL     1     -10.648   7.341  70.185  1.00  0.00    -0.245 C  
BRANCH  15  16
HETATM   16  C   UNL     1     -10.610   7.512  68.664  1.00  0.00    -0.142 C  
BRANCH  16  17
HETATM   17  N   UNL     1      -9.263   7.117  68.031  1.00  0.00    -0.131 N  
HETATM   18  C   UNL     1      -8.566   6.050  68.867  1.00  0.00    -0.116 C  
HETATM   19  C   UNL     1      -9.477   6.588  66.613  1.00  0.00    -0.159 C  
BRANCH  17  20
HETATM   20  C   UNL     1      -8.383   8.414  67.970  1.00  0.00    -0.128 C  
BRANCH  20  21
HETATM   21  C   UNL     1      -9.161   9.685  67.736  1.00  0.00    -0.135 A  
HETATM   22  C   UNL     1      -9.531  10.504  68.815  1.00  0.00    -0.181 A  
HETATM   23  C   UNL     1     -10.471  11.519  68.638  1.00  0.00    -0.224 A  
HETATM   24  C   UNL     1     -11.021  11.746  67.378  1.00  0.00    -0.314 A  
HETATM   25  C   UNL     1     -10.590  11.002  66.284  1.00  0.00    -0.295 A  
HETATM   26  C   UNL     1      -9.645   9.992  66.455  1.00  0.00    -0.237 A  
ENDBRANCH  20  21
ENDBRANCH  17  20
ENDBRANCH  16  17
ENDBRANCH  15  16
ENDBRANCH  14  15
ENDBRANCH  13  14
ENDBRANCH  12  13
ENDBRANCH  11  12
ENDBRANCH  10  11
ENDBRANCH   9  10
ENDBRANCH   8   9
ENDBRANCH   7   8
ENDBRANCH   6   7
ENDBRANCH   5   6
ENDBRANCH   4   5
ENDBRANCH   3   4
ENDBRANCH   2   3
TORSDOF 17
ENDMDL
MODEL      201
REMARK 921   NORMALIZED FREE ENERGY PREDICTED BY IDOCK:   -3.34 KCAL/MOL
REMARK 922        TOTAL FREE ENERGY PREDICTED BY IDOCK:   -9.50 KCAL/MOL
REMARK 923 INTER-LIGAND FREE ENERGY PREDICTED BY IDOCK:   -8.36 KCAL/MOL
REMARK 924 INTRA-LIGAND FREE ENERGY PREDICTED BY IDOCK:   -1.13 KCAL/MOL
REMARK 927      BINDING AFFINITY PREDICTED BY RF-SCORE:    0.00 PKD
ROOT
HETATM    1  C   UNL     1      -9.468   8.282  72.769  1.00  0.00    -0.343 C  
HETATM    2  C   UNL     1      -9.300   8.950  71.415  1.00  0.00    -0.338 C  
ENDROOT
BRANCH   2   3
HETATM    3  C   UNL     1      -9.702   8.005  70.285  1.00  0.00    -0.175 C  
BRANCH   3   4
HETATM    4  C   UNL     1      -9.086   8.446  68.960  1.00  0.00    -0.147 C  
BRANCH   4   5
HETATM    5  C   UNL     1     -10.157   8.558  67.884  1.00  0.00    -0.258 C  
BRANCH   5   6
HETATM    6  C   UNL     1     -10.131   9.937  67.236  1.00  0.00    -0.264 C  
BRANCH   6   7
HETATM    7  C   UNL     1     -10.472  11.009  68.262  1.00  0.00    -0.212 C  
BRANCH   7   8
HETATM    8  C   UNL     1     -11.798  10.696  68.939  1.00  0.00    -0.216 C  
BRANCH   8   9
HETATM    9  C   UNL     1     -12.064  11.690  70.063  1.00  0.00    -0.395 C  
BRANCH   9  10
HETATM   10  C   UNL     1     -12.587  10.963  71.292  1.00  0.00    -0.526 C  
BRANCH  10  11
HETATM   11  C   UNL     1     -13.649  11.789  71.996  1.00  0.00    -0.167 C  
BRANCH  11  12
HETATM   12  C   UNL     1     -13.065  13.126  72.421  1.00  0.00    -0.413 C  
BRANCH  12  13
HETATM   13  C   UNL     1     -13.878  14.291  71.868  1.00  0.00    -0.545 C  
BRANCH  13  14
HETATM   14  C   UNL     1     -13.012  15.517  71.579  1.00  0.00    -0.545 C  
BRANCH  14  15
HETATM   15  C   UNL     1     -12.299  15.495  70.223  1.00  0.00    -0.431 C  
BRANCH  15  16
HETATM   16  C   UNL     1     -10.921  16.161  70.259  1.00  0.00    -0.340 C  
BRANCH  16  17
HETATM   17  N   UNL     1     -10.142  16.043  68.936  1.00  0.00    -0.218 N  
HETATM   18  C   UNL     1      -8.691  16.468  69.125  1.00  0.00    -0.150 C  
HETATM   19  C   UNL     1     -10.185  14.605  68.421  1.00  0.00    -0.235 C  
BRANCH  17  20
HETATM   20  C   UNL     1     -10.849  16.984  67.899  1.00  0.00    -0.302 C  
BRANCH  20  21
HETATM   21  C   UNL     1      -9.967  18.074  67.344  1.00  0.00    -0.328 A  
HETATM   22  C   UNL     1      -8.900  17.760  66.486  1.00  0.00    -0.283 A  
HETATM   23  C   UNL     1      -7.928  18.716  66.193  1.00  0.00    -0.229 A  
HETATM   24  C   UNL     1      -8.033  20.000  66.725  1.00  0.00    -0.349 A  
HETATM   25  C   UNL     1      -9.136  20.348  67.498  1.00  0.00    -0.447 A  
HETATM   26  C   UNL     1     -10.114  19.397  67.786  1.00  0.00    -0.508 A  
ENDBRANCH  20  21
ENDBRANCH  17  20
ENDBRANCH  16  17
ENDBRANCH  15  16
ENDBRANCH  14  15
ENDBRANCH  13  14
ENDBRANCH  12  13
ENDBRANCH  11  12
ENDBRANCH  10  11
ENDBRANCH   9  10
ENDBRANCH   8   9
ENDBRANCH   7   8
ENDBRANCH   6   7
ENDBRANCH   5   6
ENDBRANCH   4   5
ENDBRANCH   3   4
ENDBRANCH   2   3
TORSDOF 17
ENDMDL
MODEL      202
REMARK 921   NORMALIZED FREE ENERGY PREDICTED BY IDOCK:   -3.33 KCAL/MOL
REMARK 922        TOTAL FREE ENERGY PREDICTED BY IDOCK:   -9.47 KCAL/MOL
REMARK 923 INTER-LIGAND FREE ENERGY PREDICTED BY IDOCK:   -8.54 KCAL/MOL
REMARK 924 INTRA-LIGAND FREE ENERGY PREDICTED BY IDOCK:   -0.93 KCAL/MOL
REMARK 927      BINDING AFFINITY PREDICTED BY RF-SCORE:    0.00 PKD
ROOT
HETATM    1  C   UNL     1     -10.127   4.167  65.473  1.00  0.00    -0.198 C  
HETATM    2  C   UNL     1      -9.568   3.826  66.844  1.00  0.00    -0.207 C  
ENDROOT
BRANCH   2   3
HETATM    3  C   UNL     1      -9.761   4.985  67.818  1.00  0.00    -0.192 C  
BRANCH   3   4
HETATM    4  C   UNL     1      -9.561   4.526  69.260  1.00  0.00    -0.258 C  
BRANCH   4   5
HETATM    5  C   UNL     1      -9.645   5.710  70.214  1.00  0.00    -0.216 C  
BRANCH   5   6
HETATM    6  C   UNL     1     -11.012   5.771  70.882  1.00  0.00    -0.305 C  
BRANCH   6   7
HETATM    7  C   UNL     1     -11.684   7.106  70.591  1.00  0.00    -0.348 C  
BRANCH   7   8
HETATM    8  C   UNL     1     -10.651   8.220  70.529  1.00  0.00    -0.233 C  
BRANCH   8   9
HETATM    9  C   UNL     1     -11.139   9.436  71.306  1.00  0.00    -0.446 C  
BRANCH   9  10
HETATM   10  C   UNL     1     -12.544   9.194  71.832  1.00  0.00    -0.463 C  
BRANCH  10  11
HETATM   11  C   UNL     1     -13.318  10.497  71.926  1.00  0.00    -0.461 C  
BRANCH  11  12
HETATM   12  C   UNL     1     -12.608  11.576  71.127  1.00  0.00    -0.463 C  
BRANCH  12  13
HETATM   13  C   UNL     1     -13.009  12.971  71.592  1.00  0.00    -0.417 C  
BRANCH  13  14
HETATM   14  C   UNL     1     -12.370  14.072  70.745  1.00  0.00    -0.443 C  
BRANCH  14  15
HETATM   15  C   UNL     1     -12.019  13.658  69.313  1.00  0.00    -0.384 C  
BRANCH  15  16
HETATM   16  C   UNL     1     -11.453  14.810  68.477  1.00  0.00    -0.308 C  
BRANCH  16  17
HETATM   17  N   UNL     1     -11.125  14.418  67.026  1.00  0.00    -0.305 N  
HETATM   18  C   UNL     1     -10.101  13.290  66.990  1.00  0.00    -0.242 C  
HETATM   19  C   UNL     1     -12.391  13.974  66.295  1.00  0.00    -0.448 C  
BRANCH  17  20
HETATM   20  C   UNL     1     -10.544  15.695  66.322  1.00  0.00    -0.307 C  
BRANCH  20  21
HETATM   21  C   UNL     1      -9.888  16.679  67.259  1.00  0.00    -0.255 A  
HETATM   22  C   UNL     1     -10.556  17.854  67.640  1.00  0.00    -0.398 A  
HETATM   23  C   UNL     1      -9.860  18.883  68.275  1.00  0.00    -0.427 A  
HETATM   24  C   UNL     1      -8.506  18.732  68.565  1.00  0.00    -0.379 A  
HETATM   25  C   UNL     1      -7.859  17.534  68.277  1.00  0.00    -0.253 A  
HETATM   26  C   UNL     1      -8.553  16.500  67.650  1.00  0.00    -0.189 A  
ENDBRANCH  20  21
ENDBRANCH  17  20
ENDBRANCH  16  17
ENDBRANCH  15  16
ENDBRANCH  14  15
ENDBRANCH  13  14
ENDBRANCH  12  13
ENDBRANCH  11  12
ENDBRANCH  10  11
ENDBRANCH   9  10
ENDBRANCH   8   9
ENDBRANCH   7   8
ENDBRANCH   6   7
ENDBRANCH   5   6
ENDBRANCH   4   5
ENDBRANCH   3   4
ENDBRANCH   2   3
TORSDOF 17
ENDMDL
MODEL      203
REMARK 921   NORMALIZED FREE ENERGY PREDICTED BY IDOCK:   -3.33 KCAL/MOL
REMARK 922        TOTAL FREE ENERGY PREDICTED BY IDOCK:   -9.47 KCAL/MOL
REMARK 923 INTER-LIGAND FREE ENERGY PREDICTED BY IDOCK:   -8.34 KCAL/MOL
REMARK 924 INTRA-LIGAND FREE ENERGY PREDICTED BY IDOCK:   -1.13 KCAL/MOL
REMARK 927      BINDING AFFINITY PREDICTED BY RF-SCORE:    0.00 PKD
ROOT
HETATM    1  C   UNL     1     -10.712   9.648  71.013  1.00  0.00    -0.393 C  
HETATM    2  C   UNL     1     -11.890   8.689  71.034  1.00  0.00    -0.303 C  
ENDROOT
BRANCH   2   3
HETATM    3  C   UNL     1     -11.434   7.270  71.362  1.00  0.00    -0.294 C  
BRANCH   3   4
HETATM    4  C   UNL     1     -11.779   6.309  70.228  1.00  0.00    -0.289 C  
BRANCH   4   5
HETATM    5  C   UNL     1     -10.568   6.083  69.332  1.00  0.00    -0.365 C  
BRANCH   5   6
HETATM    6  C   UNL     1     -10.955   6.186  67.862  1.00  0.00    -0.399 C  
BRANCH   6   7
HETATM    7  C   UNL     1      -9.801   6.758  67.050  1.00  0.00    -0.217 C  
BRANCH   7   8
HETATM    8  C   UNL     1      -9.263   8.020  67.706  1.00  0.00    -0.142 C  
BRANCH   8   9
HETATM    9  C   UNL     1     -10.240   9.173  67.514  1.00  0.00    -0.304 C  
BRANCH   9  10
HETATM   10  C   UNL     1     -10.029   9.818  66.154  1.00  0.00    -0.338 C  
BRANCH  10  11
HETATM   11  C   UNL     1     -10.688  11.186  66.098  1.00  0.00    -0.285 C  
BRANCH  11  12
HETATM   12  C   UNL     1     -10.438  11.932  67.397  1.00  0.00    -0.242 C  
BRANCH  12  13
HETATM   13  C   UNL     1     -11.744  12.313  68.082  1.00  0.00    -0.408 C  
BRANCH  13  14
HETATM   14  C   UNL     1     -11.695  13.717  68.686  1.00  0.00    -0.389 C  
BRANCH  14  15
HETATM   15  C   UNL     1     -11.868  14.857  67.679  1.00  0.00    -0.268 C  
BRANCH  15  16
HETATM   16  C   UNL     1     -10.944  16.047  67.953  1.00  0.00    -0.327 C  
BRANCH  16  17
HETATM   17  N   UNL     1     -10.145  16.506  66.720  1.00  0.00    -0.279 N  
HETATM   18  C   UNL     1      -8.655  16.252  66.919  1.00  0.00    -0.215 C  
HETATM   19  C   UNL     1     -10.622  15.767  65.471  1.00  0.00    -0.406 C  
BRANCH  17  20
HETATM   20  C   UNL     1     -10.410  18.042  66.544  1.00  0.00    -0.373 C  
BRANCH  20  21
HETATM   21  C   UNL     1      -9.322  18.930  67.094  1.00  0.00    -0.328 A  
HETATM   22  C   UNL     1      -8.479  19.645  66.227  1.00  0.00    -0.383 A  
HETATM   23  C   UNL     1      -7.316  20.242  66.712  1.00  0.00    -0.325 A  
HETATM   24  C   UNL     1      -7.004  20.160  68.068  1.00  0.00    -0.325 A  
HETATM   25  C   UNL     1      -7.881  19.535  68.949  1.00  0.00    -0.349 A  
HETATM   26  C   UNL     1      -9.049  18.945  68.470  1.00  0.00    -0.392 A  
ENDBRANCH  20  21
ENDBRANCH  17  20
ENDBRANCH  16  17
ENDBRANCH  15  16
ENDBRANCH  14  15
ENDBRANCH  13  14
ENDBRANCH  12  13
ENDBRANCH  11  12
ENDBRANCH  10  11
ENDBRANCH   9  10
ENDBRANCH   8   9
ENDBRANCH   7   8
ENDBRANCH   6   7
ENDBRANCH   5   6
ENDBRANCH   4   5
ENDBRANCH   3   4
ENDBRANCH   2   3
TORSDOF 17
ENDMDL
MODEL      204
REMARK 921   NORMALIZED FREE ENERGY PREDICTED BY IDOCK:   -3.32 KCAL/MOL
REMARK 922        TOTAL FREE ENERGY PREDICTED BY IDOCK:   -9.45 KCAL/MOL
REMARK 923 INTER-LIGAND FREE ENERGY PREDICTED BY IDOCK:   -6.96 KCAL/MOL
REMARK 924 INTRA-LIGAND FREE ENERGY PREDICTED BY IDOCK:   -2.50 KCAL/MOL
REMARK 927      BINDING AFFINITY PREDICTED BY RF-SCORE:    0.00 PKD
ROOT
HETATM    1  C   UNL     1     -11.676  15.938  70.180  1.00  0.00    -0.342 C  
HETATM    2  C   UNL     1     -11.405  16.195  68.708  1.00  0.00    -0.359 C  
ENDROOT
BRANCH   2   3
HETATM    3  C   UNL     1     -10.260  15.322  68.201  1.00  0.00    -0.230 C  
BRANCH   3   4
HETATM    4  C   UNL     1     -10.715  14.447  67.037  1.00  0.00    -0.285 C  
BRANCH   4   5
HETATM    5  C   UNL     1     -11.969  13.668  67.412  1.00  0.00    -0.413 C  
BRANCH   5   6
HETATM    6  C   UNL     1     -11.607  12.314  68.008  1.00  0.00    -0.408 C  
BRANCH   6   7
HETATM    7  C   UNL     1     -11.718  12.359  69.526  1.00  0.00    -0.388 C  
BRANCH   7   8
HETATM    8  C   UNL     1     -12.283  11.050  70.058  1.00  0.00    -0.418 C  
BRANCH   8   9
HETATM    9  C   UNL     1     -12.876  11.256  71.446  1.00  0.00    -0.515 C  
BRANCH   9  10
HETATM   10  C   UNL     1     -13.125   9.914  72.114  1.00  0.00    -0.497 C  
BRANCH  10  11
HETATM   11  C   UNL     1     -12.370   8.806  71.400  1.00  0.00    -0.353 C  
BRANCH  11  12
HETATM   12  C   UNL     1     -11.379   8.161  72.353  1.00  0.00    -0.456 C  
BRANCH  12  13
HETATM   13  C   UNL     1      -9.980   8.742  72.182  1.00  0.00    -0.359 C  
BRANCH  13  14
HETATM   14  C   UNL     1      -8.893   7.670  72.261  1.00  0.00    -0.170 C  
BRANCH  14  15
HETATM   15  C   UNL     1      -9.362   6.253  71.919  1.00  0.00    -0.153 C  
BRANCH  15  16
HETATM   16  C   UNL     1      -8.553   5.608  70.790  1.00  0.00    -0.128 C  
BRANCH  16  17
HETATM   17  N   UNL     1      -9.389   5.280  69.540  1.00  0.00    -0.123 N  
HETATM   18  C   UNL     1      -9.485   3.773  69.336  1.00  0.00    -0.187 C  
HETATM   19  C   UNL     1     -10.795   5.863  69.672  1.00  0.00    -0.374 C  
BRANCH  17  20
HETATM   20  C   UNL     1      -8.668   5.945  68.315  1.00  0.00    -0.112 C  
BRANCH  20  21
HETATM   21  C   UNL     1      -8.410   7.423  68.470  1.00  0.00    -0.126 A  
HETATM   22  C   UNL     1      -7.141   7.889  68.851  1.00  0.00    -0.074 A  
HETATM   23  C   UNL     1      -6.971   9.213  69.258  1.00  0.00    -0.053 A  
HETATM   24  C   UNL     1      -8.057  10.086  69.253  1.00  0.00    -0.141 A  
HETATM   25  C   UNL     1      -9.296   9.659  68.788  1.00  0.00    -0.148 A  
HETATM   26  C   UNL     1      -9.468   8.339  68.373  1.00  0.00    -0.144 A  
ENDBRANCH  20  21
ENDBRANCH  17  20
ENDBRANCH  16  17
ENDBRANCH  15  16
ENDBRANCH  14  15
ENDBRANCH  13  14
ENDBRANCH  12  13
ENDBRANCH  11  12
ENDBRANCH  10  11
ENDBRANCH   9  10
ENDBRANCH   8   9
ENDBRANCH   7   8
ENDBRANCH   6   7
ENDBRANCH   5   6
ENDBRANCH   4   5
ENDBRANCH   3   4
ENDBRANCH   2   3
TORSDOF 17
ENDMDL
MODEL      205
REMARK 921   NORMALIZED FREE ENERGY PREDICTED BY IDOCK:   -3.31 KCAL/MOL
REMARK 922        TOTAL FREE ENERGY PREDICTED BY IDOCK:   -9.45 KCAL/MOL
REMARK 923 INTER-LIGAND FREE ENERGY PREDICTED BY IDOCK:   -8.39 KCAL/MOL
REMARK 924 INTRA-LIGAND FREE ENERGY PREDICTED BY IDOCK:   -1.06 KCAL/MOL
REMARK 927      BINDING AFFINITY PREDICTED BY RF-SCORE:    0.00 PKD
ROOT
HETATM    1  C   UNL     1      -9.972   3.920  65.373  1.00  0.00    -0.137 C  
HETATM    2  C   UNL     1      -9.087   3.935  66.608  1.00  0.00    -0.160 C  
ENDROOT
BRANCH   2   3
HETATM    3  C   UNL     1      -9.552   4.995  67.602  1.00  0.00    -0.173 C  
BRANCH   3   4
HETATM    4  C   UNL     1      -9.375   4.512  69.039  1.00  0.00    -0.211 C  
BRANCH   4   5
HETATM    5  C   UNL     1      -9.643   5.645  70.021  1.00  0.00    -0.214 C  
BRANCH   5   6
HETATM    6  C   UNL     1     -11.088   5.615  70.501  1.00  0.00    -0.199 C  
BRANCH   6   7
HETATM    7  C   UNL     1     -11.666   7.023  70.522  1.00  0.00    -0.359 C  
BRANCH   7   8
HETATM    8  C   UNL     1     -10.566   8.048  70.753  1.00  0.00    -0.228 C  
BRANCH   8   9
HETATM    9  C   UNL     1     -11.081   9.190  71.620  1.00  0.00    -0.445 C  
BRANCH   9  10
HETATM   10  C   UNL     1     -12.479   8.874  72.127  1.00  0.00    -0.459 C  
BRANCH  10  11
HETATM   11  C   UNL     1     -13.397  10.072  71.960  1.00  0.00    -0.513 C  
BRANCH  11  12
HETATM   12  C   UNL     1     -12.599  11.270  71.474  1.00  0.00    -0.418 C  
BRANCH  12  13
HETATM   13  C   UNL     1     -13.134  12.572  72.059  1.00  0.00    -0.472 C  
BRANCH  13  14
HETATM   14  C   UNL     1     -12.693  13.794  71.253  1.00  0.00    -0.450 C  
BRANCH  14  15
HETATM   15  C   UNL     1     -12.112  13.478  69.872  1.00  0.00    -0.408 C  
BRANCH  15  16
HETATM   16  C   UNL     1     -10.825  14.251  69.571  1.00  0.00    -0.115 C  
BRANCH  16  17
HETATM   17  N   UNL     1     -10.073  13.740  68.328  1.00  0.00    -0.234 N  
HETATM   18  C   UNL     1      -8.593  14.090  68.412  1.00  0.00    -0.174 C  
HETATM   19  C   UNL     1     -10.229  12.225  68.198  1.00  0.00    -0.212 C  
BRANCH  17  20
HETATM   20  C   UNL     1     -10.721  14.434  67.079  1.00  0.00    -0.285 C  
BRANCH  20  21
HETATM   21  C   UNL     1     -11.057  13.494  65.948  1.00  0.00    -0.292 A  
HETATM   22  C   UNL     1     -10.047  13.008  65.102  1.00  0.00    -0.238 A  
HETATM   23  C   UNL     1     -10.379  12.369  63.907  1.00  0.00    -0.450 A  
HETATM   24  C   UNL     1     -11.717  12.180  63.567  1.00  0.00    -0.579 A  
HETATM   25  C   UNL     1     -12.723  12.574  64.444  1.00  0.00    -0.447 A  
HETATM   26  C   UNL     1     -12.395  13.205  65.642  1.00  0.00    -0.519 A  
ENDBRANCH  20  21
ENDBRANCH  17  20
ENDBRANCH  16  17
ENDBRANCH  15  16
ENDBRANCH  14  15
ENDBRANCH  13  14
ENDBRANCH  12  13
ENDBRANCH  11  12
ENDBRANCH  10  11
ENDBRANCH   9  10
ENDBRANCH   8   9
ENDBRANCH   7   8
ENDBRANCH   6   7
ENDBRANCH   5   6
ENDBRANCH   4   5
ENDBRANCH   3   4
ENDBRANCH   2   3
TORSDOF 17
ENDMDL
MODEL      206
REMARK 921   NORMALIZED FREE ENERGY PREDICTED BY IDOCK:   -3.31 KCAL/MOL
REMARK 922        TOTAL FREE ENERGY PREDICTED BY IDOCK:   -9.44 KCAL/MOL
REMARK 923 INTER-LIGAND FREE ENERGY PREDICTED BY IDOCK:   -7.93 KCAL/MOL
REMARK 924 INTRA-LIGAND FREE ENERGY PREDICTED BY IDOCK:   -1.50 KCAL/MOL
REMARK 927      BINDING AFFINITY PREDICTED BY RF-SCORE:    0.00 PKD
ROOT
HETATM    1  C   UNL     1      -6.386   9.722  64.206  1.00  0.00    -0.117 C  
HETATM    2  C   UNL     1      -6.524  10.275  65.614  1.00  0.00    -0.118 C  
ENDROOT
BRANCH   2   3
HETATM    3  C   UNL     1      -7.832   9.819  66.255  1.00  0.00    -0.106 C  
BRANCH   3   4
HETATM    4  C   UNL     1      -8.883  10.924  66.195  1.00  0.00    -0.195 C  
BRANCH   4   5
HETATM    5  C   UNL     1     -10.141  10.426  65.493  1.00  0.00    -0.352 C  
BRANCH   5   6
HETATM    6  C   UNL     1      -9.989  10.521  63.980  1.00  0.00    -0.363 C  
BRANCH   6   7
HETATM    7  C   UNL     1     -10.228  11.950  63.513  1.00  0.00    -0.485 C  
BRANCH   7   8
HETATM    8  C   UNL     1     -11.702  12.308  63.628  1.00  0.00    -0.591 C  
BRANCH   8   9
HETATM    9  C   UNL     1     -11.861  13.752  64.085  1.00  0.00    -0.439 C  
BRANCH   9  10
HETATM   10  C   UNL     1     -12.770  13.820  65.302  1.00  0.00    -0.481 C  
BRANCH  10  11
HETATM   11  C   UNL     1     -12.117  13.154  66.501  1.00  0.00    -0.423 C  
BRANCH  11  12
HETATM   12  C   UNL     1     -11.850  14.187  67.582  1.00  0.00    -0.427 C  
BRANCH  12  13
HETATM   13  C   UNL     1     -11.734  13.540  68.957  1.00  0.00    -0.370 C  
BRANCH  13  14
HETATM   14  C   UNL     1     -11.106  12.148  68.892  1.00  0.00    -0.292 C  
BRANCH  14  15
HETATM   15  C   UNL     1     -11.784  11.094  69.773  1.00  0.00    -0.419 C  
BRANCH  15  16
HETATM   16  C   UNL     1     -11.049   9.751  69.775  1.00  0.00    -0.237 C  
BRANCH  16  17
HETATM   17  N   UNL     1     -11.341   8.889  71.017  1.00  0.00    -0.276 N  
HETATM   18  C   UNL     1     -12.507   9.465  71.811  1.00  0.00    -0.391 C  
HETATM   19  C   UNL     1     -11.670   7.455  70.604  1.00  0.00    -0.242 C  
BRANCH  17  20
HETATM   20  C   UNL     1     -10.040   8.887  71.894  1.00  0.00    -0.322 C  
BRANCH  20  21
HETATM   21  C   UNL     1      -9.709   7.553  72.515  1.00  0.00    -0.218 A  
HETATM   22  C   UNL     1     -10.465   7.060  73.591  1.00  0.00    -0.414 A  
HETATM   23  C   UNL     1     -10.002   5.975  74.336  1.00  0.00    -0.300 A  
HETATM   24  C   UNL     1      -8.804   5.354  73.991  1.00  0.00    -0.120 A  
HETATM   25  C   UNL     1      -8.097   5.775  72.869  1.00  0.00    -0.115 A  
HETATM   26  C   UNL     1      -8.560   6.854  72.117  1.00  0.00    -0.119 A  
ENDBRANCH  20  21
ENDBRANCH  17  20
ENDBRANCH  16  17
ENDBRANCH  15  16
ENDBRANCH  14  15
ENDBRANCH  13  14
ENDBRANCH  12  13
ENDBRANCH  11  12
ENDBRANCH  10  11
ENDBRANCH   9  10
ENDBRANCH   8   9
ENDBRANCH   7   8
ENDBRANCH   6   7
ENDBRANCH   5   6
ENDBRANCH   4   5
ENDBRANCH   3   4
ENDBRANCH   2   3
TORSDOF 17
ENDMDL
MODEL      207
REMARK 921   NORMALIZED FREE ENERGY PREDICTED BY IDOCK:   -3.31 KCAL/MOL
REMARK 922        TOTAL FREE ENERGY PREDICTED BY IDOCK:   -9.43 KCAL/MOL
REMARK 923 INTER-LIGAND FREE ENERGY PREDICTED BY IDOCK:   -7.15 KCAL/MOL
REMARK 924 INTRA-LIGAND FREE ENERGY PREDICTED BY IDOCK:   -2.28 KCAL/MOL
REMARK 927      BINDING AFFINITY PREDICTED BY RF-SCORE:    0.00 PKD
ROOT
HETATM    1  C   UNL     1      -9.095   3.312  67.043  1.00  0.00    -0.196 C  
HETATM    2  C   UNL     1      -8.484   3.469  68.425  1.00  0.00    -0.107 C  
ENDROOT
BRANCH   2   3
HETATM    3  C   UNL     1      -9.373   2.836  69.492  1.00  0.00    -0.191 C  
BRANCH   3   4
HETATM    4  C   UNL     1      -9.127   3.473  70.857  1.00  0.00    -0.182 C  
BRANCH   4   5
HETATM    5  C   UNL     1     -10.014   2.830  71.915  1.00  0.00    -0.210 C  
BRANCH   5   6
HETATM    6  C   UNL     1     -10.631   3.889  72.820  1.00  0.00    -0.206 C  
BRANCH   6   7
HETATM    7  C   UNL     1     -10.308   5.282  72.299  1.00  0.00    -0.265 C  
BRANCH   7   8
HETATM    8  C   UNL     1     -11.512   6.200  72.450  1.00  0.00    -0.349 C  
BRANCH   8   9
HETATM    9  C   UNL     1     -11.872   6.825  71.108  1.00  0.00    -0.410 C  
BRANCH   9  10
HETATM   10  C   UNL     1     -10.675   6.782  70.172  1.00  0.00    -0.274 C  
BRANCH  10  11
HETATM   11  C   UNL     1     -11.074   6.241  68.810  1.00  0.00    -0.424 C  
BRANCH  11  12
HETATM   12  C   UNL     1     -10.835   7.298  67.745  1.00  0.00    -0.214 C  
BRANCH  12  13
HETATM   13  C   UNL     1      -9.347   7.505  67.489  1.00  0.00    -0.157 C  
BRANCH  13  14
HETATM   14  C   UNL     1      -9.085   8.520  66.376  1.00  0.00    -0.229 C  
BRANCH  14  15
HETATM   15  C   UNL     1     -10.150   9.612  66.239  1.00  0.00    -0.322 C  
BRANCH  15  16
HETATM   16  C   UNL     1      -9.558  10.995  65.952  1.00  0.00    -0.218 C  
BRANCH  16  17
HETATM   17  N   UNL     1     -10.089  12.101  66.882  1.00  0.00    -0.205 N  
HETATM   18  C   UNL     1      -9.420  13.434  66.572  1.00  0.00    -0.245 C  
HETATM   19  C   UNL     1     -11.603  12.245  66.725  1.00  0.00    -0.369 C  
BRANCH  17  20
HETATM   20  C   UNL     1      -9.763  11.663  68.353  1.00  0.00    -0.199 C  
BRANCH  20  21
HETATM   21  C   UNL     1     -10.962  11.604  69.267  1.00  0.00    -0.246 A  
HETATM   22  C   UNL     1     -11.562  12.785  69.732  1.00  0.00    -0.288 A  
HETATM   23  C   UNL     1     -12.484  12.741  70.778  1.00  0.00    -0.357 A  
HETATM   24  C   UNL     1     -12.839  11.516  71.341  1.00  0.00    -0.489 A  
HETATM   25  C   UNL     1     -12.321  10.333  70.823  1.00  0.00    -0.445 A  
HETATM   26  C   UNL     1     -11.406  10.373  69.772  1.00  0.00    -0.353 A  
ENDBRANCH  20  21
ENDBRANCH  17  20
ENDBRANCH  16  17
ENDBRANCH  15  16
ENDBRANCH  14  15
ENDBRANCH  13  14
ENDBRANCH  12  13
ENDBRANCH  11  12
ENDBRANCH  10  11
ENDBRANCH   9  10
ENDBRANCH   8   9
ENDBRANCH   7   8
ENDBRANCH   6   7
ENDBRANCH   5   6
ENDBRANCH   4   5
ENDBRANCH   3   4
ENDBRANCH   2   3
TORSDOF 17
ENDMDL
MODEL      208
REMARK 921   NORMALIZED FREE ENERGY PREDICTED BY IDOCK:   -3.30 KCAL/MOL
REMARK 922        TOTAL FREE ENERGY PREDICTED BY IDOCK:   -9.42 KCAL/MOL
REMARK 923 INTER-LIGAND FREE ENERGY PREDICTED BY IDOCK:   -7.18 KCAL/MOL
REMARK 924 INTRA-LIGAND FREE ENERGY PREDICTED BY IDOCK:   -2.25 KCAL/MOL
REMARK 927      BINDING AFFINITY PREDICTED BY RF-SCORE:    0.00 PKD
ROOT
HETATM    1  C   UNL     1     -10.139   7.201  73.256  1.00  0.00    -0.318 C  
HETATM    2  C   UNL     1      -9.094   6.449  72.449  1.00  0.00    -0.137 C  
ENDROOT
BRANCH   2   3
HETATM    3  C   UNL     1      -9.743   5.379  71.575  1.00  0.00    -0.209 C  
BRANCH   3   4
HETATM    4  C   UNL     1     -11.091   5.854  71.040  1.00  0.00    -0.315 C  
BRANCH   4   5
HETATM    5  C   UNL     1     -11.138   5.726  69.523  1.00  0.00    -0.287 C  
BRANCH   5   6
HETATM    6  C   UNL     1      -9.812   5.208  68.982  1.00  0.00    -0.246 C  
BRANCH   6   7
HETATM    7  C   UNL     1      -9.510   5.841  67.630  1.00  0.00    -0.114 C  
BRANCH   7   8
HETATM    8  C   UNL     1      -8.358   6.828  67.750  1.00  0.00    -0.119 C  
BRANCH   8   9
HETATM    9  C   UNL     1      -8.889   8.227  68.034  1.00  0.00    -0.135 C  
BRANCH   9  10
HETATM   10  C   UNL     1      -8.153   8.838  69.216  1.00  0.00    -0.110 C  
BRANCH  10  11
HETATM   11  C   UNL     1      -9.091   9.688  70.055  1.00  0.00    -0.269 C  
BRANCH  11  12
HETATM   12  C   UNL     1     -10.520   9.201  69.885  1.00  0.00    -0.239 C  
BRANCH  12  13
HETATM   13  C   UNL     1     -11.525  10.311  70.165  1.00  0.00    -0.383 C  
BRANCH  13  14
HETATM   14  C   UNL     1     -11.846  11.132  68.916  1.00  0.00    -0.406 C  
BRANCH  14  15
HETATM   15  C   UNL     1     -11.584  12.635  69.050  1.00  0.00    -0.367 C  
BRANCH  15  16
HETATM   16  C   UNL     1     -10.646  13.180  67.970  1.00  0.00    -0.236 C  
BRANCH  16  17
HETATM   17  N   UNL     1     -10.635  14.717  67.879  1.00  0.00    -0.242 N  
HETATM   18  C   UNL     1     -11.341  15.334  69.080  1.00  0.00    -0.300 C  
HETATM   19  C   UNL     1      -9.199  15.235  67.816  1.00  0.00    -0.187 C  
BRANCH  17  20
HETATM   20  C   UNL     1     -11.382  15.106  66.555  1.00  0.00    -0.234 C  
BRANCH  20  21
HETATM   21  C   UNL     1     -11.499  13.985  65.552  1.00  0.00    -0.318 A  
HETATM   22  C   UNL     1     -10.425  13.677  64.701  1.00  0.00    -0.442 A  
HETATM   23  C   UNL     1     -10.618  12.839  63.603  1.00  0.00    -0.288 A  
HETATM   24  C   UNL     1     -11.871  12.276  63.368  1.00  0.00    -0.563 A  
HETATM   25  C   UNL     1     -12.915  12.501  64.260  1.00  0.00    -0.253 A  
HETATM   26  C   UNL     1     -12.725  13.331  65.363  1.00  0.00    -0.460 A  
ENDBRANCH  20  21
ENDBRANCH  17  20
ENDBRANCH  16  17
ENDBRANCH  15  16
ENDBRANCH  14  15
ENDBRANCH  13  14
ENDBRANCH  12  13
ENDBRANCH  11  12
ENDBRANCH  10  11
ENDBRANCH   9  10
ENDBRANCH   8   9
ENDBRANCH   7   8
ENDBRANCH   6   7
ENDBRANCH   5   6
ENDBRANCH   4   5
ENDBRANCH   3   4
ENDBRANCH   2   3
TORSDOF 17
ENDMDL
MODEL      209
REMARK 921   NORMALIZED FREE ENERGY PREDICTED BY IDOCK:   -3.30 KCAL/MOL
REMARK 922        TOTAL FREE ENERGY PREDICTED BY IDOCK:   -9.42 KCAL/MOL
REMARK 923 INTER-LIGAND FREE ENERGY PREDICTED BY IDOCK:   -7.97 KCAL/MOL
REMARK 924 INTRA-LIGAND FREE ENERGY PREDICTED BY IDOCK:   -1.44 KCAL/MOL
REMARK 927      BINDING AFFINITY PREDICTED BY RF-SCORE:    0.00 PKD
ROOT
HETATM    1  C   UNL     1      -8.293   7.023  73.519  1.00  0.00    -0.139 C  
HETATM    2  C   UNL     1      -9.326   8.135  73.452  1.00  0.00    -0.267 C  
ENDROOT
BRANCH   2   3
HETATM    3  C   UNL     1      -9.835   8.323  72.025  1.00  0.00    -0.327 C  
BRANCH   3   4
HETATM    4  C   UNL     1     -11.352   8.175  71.962  1.00  0.00    -0.378 C  
BRANCH   4   5
HETATM    5  C   UNL     1     -11.739   7.014  71.055  1.00  0.00    -0.375 C  
BRANCH   5   6
HETATM    6  C   UNL     1     -10.500   6.348  70.471  1.00  0.00    -0.270 C  
BRANCH   6   7
HETATM    7  C   UNL     1     -10.821   5.734  69.115  1.00  0.00    -0.355 C  
BRANCH   7   8
HETATM    8  C   UNL     1     -10.010   6.409  68.019  1.00  0.00    -0.144 C  
BRANCH   8   9
HETATM    9  C   UNL     1     -10.890   7.367  67.225  1.00  0.00    -0.326 C  
BRANCH   9  10
HETATM   10  C   UNL     1     -10.168   8.687  67.011  1.00  0.00    -0.360 C  
BRANCH  10  11
HETATM   11  C   UNL     1      -9.710   9.273  68.336  1.00  0.00    -0.168 C  
BRANCH  11  12
HETATM   12  C   UNL     1     -10.847  10.051  68.976  1.00  0.00    -0.253 C  
BRANCH  12  13
HETATM   13  C   UNL     1     -11.560  10.934  67.960  1.00  0.00    -0.295 C  
BRANCH  13  14
HETATM   14  C   UNL     1     -11.607  12.399  68.397  1.00  0.00    -0.373 C  
BRANCH  14  15
HETATM   15  C   UNL     1     -10.370  13.221  68.025  1.00  0.00    -0.243 C  
BRANCH  15  16
HETATM   16  C   UNL     1     -10.669  14.337  67.021  1.00  0.00    -0.290 C  
BRANCH  16  17
HETATM   17  N   UNL     1      -9.783  15.583  67.198  1.00  0.00    -0.221 N  
HETATM   18  C   UNL     1      -8.619  15.288  68.137  1.00  0.00    -0.160 C  
HETATM   19  C   UNL     1      -9.238  16.045  65.847  1.00  0.00    -0.286 C  
BRANCH  17  20
HETATM   20  C   UNL     1     -10.689  16.712  67.802  1.00  0.00    -0.327 C  
BRANCH  20  21
HETATM   21  C   UNL     1     -10.132  18.106  67.651  1.00  0.00    -0.367 A  
HETATM   22  C   UNL     1     -10.560  18.935  66.602  1.00  0.00    -0.469 A  
HETATM   23  C   UNL     1      -9.859  20.103  66.298  1.00  0.00    -0.541 A  
HETATM   24  C   UNL     1      -8.752  20.468  67.061  1.00  0.00    -0.340 A  
HETATM   25  C   UNL     1      -8.378  19.703  68.161  1.00  0.00    -0.347 A  
HETATM   26  C   UNL     1      -9.081  18.539  68.472  1.00  0.00    -0.353 A  
ENDBRANCH  20  21
ENDBRANCH  17  20
ENDBRANCH  16  17
ENDBRANCH  15  16
ENDBRANCH  14  15
ENDBRANCH  13  14
ENDBRANCH  12  13
ENDBRANCH  11  12
ENDBRANCH  10  11
ENDBRANCH   9  10
ENDBRANCH   8   9
ENDBRANCH   7   8
ENDBRANCH   6   7
ENDBRANCH   5   6
ENDBRANCH   4   5
ENDBRANCH   3   4
ENDBRANCH   2   3
TORSDOF 17
ENDMDL
MODEL      210
REMARK 921   NORMALIZED FREE ENERGY PREDICTED BY IDOCK:   -3.29 KCAL/MOL
REMARK 922        TOTAL FREE ENERGY PREDICTED BY IDOCK:   -9.41 KCAL/MOL
REMARK 923 INTER-LIGAND FREE ENERGY PREDICTED BY IDOCK:   -7.34 KCAL/MOL
REMARK 924 INTRA-LIGAND FREE ENERGY PREDICTED BY IDOCK:   -2.07 KCAL/MOL
REMARK 927      BINDING AFFINITY PREDICTED BY RF-SCORE:    0.00 PKD
ROOT
HETATM    1  C   UNL     1     -11.359   3.790  73.705  1.00  0.00    -0.231 C  
HETATM    2  C   UNL     1     -10.768   5.182  73.556  1.00  0.00    -0.339 C  
ENDROOT
BRANCH   2   3
HETATM    3  C   UNL     1     -10.582   5.543  72.084  1.00  0.00    -0.280 C  
BRANCH   3   4
HETATM    4  C   UNL     1     -11.713   6.444  71.596  1.00  0.00    -0.367 C  
BRANCH   4   5
HETATM    5  C   UNL     1     -11.814   6.398  70.076  1.00  0.00    -0.208 C  
BRANCH   5   6
HETATM    6  C   UNL     1     -10.573   5.754  69.471  1.00  0.00    -0.390 C  
BRANCH   6   7
HETATM    7  C   UNL     1     -10.083   6.569  68.281  1.00  0.00    -0.171 C  
BRANCH   7   8
HETATM    8  C   UNL     1      -8.582   6.796  68.374  1.00  0.00    -0.125 C  
BRANCH   8   9
HETATM    9  C   UNL     1      -8.160   6.949  69.830  1.00  0.00    -0.126 C  
BRANCH   9  10
HETATM   10  C   UNL     1      -8.010   8.421  70.181  1.00  0.00    -0.102 C  
BRANCH  10  11
HETATM   11  C   UNL     1      -9.199   8.907  70.991  1.00  0.00    -0.307 C  
BRANCH  11  12
HETATM   12  C   UNL     1     -10.035   9.863  70.157  1.00  0.00    -0.291 C  
BRANCH  12  13
HETATM   13  C   UNL     1     -11.416  10.073  70.765  1.00  0.00    -0.438 C  
BRANCH  13  14
HETATM   14  C   UNL     1     -12.331  10.894  69.857  1.00  0.00    -0.354 C  
BRANCH  14  15
HETATM   15  C   UNL     1     -11.620  11.969  69.030  1.00  0.00    -0.370 C  
BRANCH  15  16
HETATM   16  C   UNL     1     -11.742  11.744  67.520  1.00  0.00    -0.240 C  
BRANCH  16  17
HETATM   17  N   UNL     1     -11.417  12.993  66.681  1.00  0.00    -0.319 N  
HETATM   18  C   UNL     1      -9.929  13.053  66.357  1.00  0.00    -0.277 C  
HETATM   19  C   UNL     1     -12.218  12.982  65.379  1.00  0.00    -0.471 C  
BRANCH  17  20
HETATM   20  C   UNL     1     -11.834  14.243  67.532  1.00  0.00    -0.395 C  
BRANCH  20  21
HETATM   21  C   UNL     1     -10.776  15.314  67.627  1.00  0.00    -0.282 A  
HETATM   22  C   UNL     1     -10.004  15.452  68.792  1.00  0.00    -0.208 A  
HETATM   23  C   UNL     1      -9.227  16.593  68.990  1.00  0.00    -0.223 A  
HETATM   24  C   UNL     1      -9.188  17.586  68.013  1.00  0.00    -0.275 A  
HETATM   25  C   UNL     1      -9.874  17.414  66.815  1.00  0.00    -0.297 A  
HETATM   26  C   UNL     1     -10.645  16.271  66.610  1.00  0.00    -0.252 A  
ENDBRANCH  20  21
ENDBRANCH  17  20
ENDBRANCH  16  17
ENDBRANCH  15  16
ENDBRANCH  14  15
ENDBRANCH  13  14
ENDBRANCH  12  13
ENDBRANCH  11  12
ENDBRANCH  10  11
ENDBRANCH   9  10
ENDBRANCH   8   9
ENDBRANCH   7   8
ENDBRANCH   6   7
ENDBRANCH   5   6
ENDBRANCH   4   5
ENDBRANCH   3   4
ENDBRANCH   2   3
TORSDOF 17
ENDMDL
MODEL      211
REMARK 921   NORMALIZED FREE ENERGY PREDICTED BY IDOCK:   -3.27 KCAL/MOL
REMARK 922        TOTAL FREE ENERGY PREDICTED BY IDOCK:   -9.36 KCAL/MOL
REMARK 923 INTER-LIGAND FREE ENERGY PREDICTED BY IDOCK:   -7.06 KCAL/MOL
REMARK 924 INTRA-LIGAND FREE ENERGY PREDICTED BY IDOCK:   -2.30 KCAL/MOL
REMARK 927      BINDING AFFINITY PREDICTED BY RF-SCORE:    0.00 PKD
ROOT
HETATM    1  C   UNL     1      -6.641  10.974  69.847  1.00  0.00    -0.142 C  
HETATM    2  C   UNL     1      -7.232   9.577  69.772  1.00  0.00    -0.084 C  
ENDROOT
BRANCH   2   3
HETATM    3  C   UNL     1      -7.098   9.000  68.365  1.00  0.00    -0.076 C  
BRANCH   3   4
HETATM    4  C   UNL     1      -8.451   8.537  67.833  1.00  0.00    -0.130 C  
BRANCH   4   5
HETATM    5  C   UNL     1      -8.286   7.841  66.488  1.00  0.00    -0.128 C  
BRANCH   5   6
HETATM    6  C   UNL     1      -8.280   6.327  66.659  1.00  0.00    -0.111 C  
BRANCH   6   7
HETATM    7  C   UNL     1      -9.688   5.772  66.497  1.00  0.00    -0.185 C  
BRANCH   7   8
HETATM    8  C   UNL     1     -10.226   5.285  67.834  1.00  0.00    -0.203 C  
BRANCH   8   9
HETATM    9  C   UNL     1     -11.133   6.340  68.454  1.00  0.00    -0.371 C  
BRANCH   9  10
HETATM   10  C   UNL     1     -11.242   6.122  69.954  1.00  0.00    -0.484 C  
BRANCH  10  11
HETATM   11  C   UNL     1     -10.188   6.927  70.695  1.00  0.00    -0.212 C  
BRANCH  11  12
HETATM   12  C   UNL     1     -10.780   7.501  71.970  1.00  0.00    -0.264 C  
BRANCH  12  13
HETATM   13  C   UNL     1     -11.472   8.835  71.713  1.00  0.00    -0.413 C  
BRANCH  13  14
HETATM   14  C   UNL     1     -10.601   9.793  70.901  1.00  0.00    -0.344 C  
BRANCH  14  15
HETATM   15  C   UNL     1     -11.346  10.575  69.815  1.00  0.00    -0.367 C  
BRANCH  15  16
HETATM   16  C   UNL     1     -10.424  11.460  68.972  1.00  0.00    -0.168 C  
BRANCH  16  17
HETATM   17  N   UNL     1     -11.079  12.774  68.511  1.00  0.00    -0.251 N  
HETATM   18  C   UNL     1     -11.919  13.379  69.629  1.00  0.00    -0.324 C  
HETATM   19  C   UNL     1     -10.012  13.779  68.080  1.00  0.00    -0.242 C  
BRANCH  17  20
HETATM   20  C   UNL     1     -11.989  12.429  67.280  1.00  0.00    -0.176 C  
BRANCH  20  21
HETATM   21  C   UNL     1     -11.231  12.101  66.017  1.00  0.00    -0.382 A  
HETATM   22  C   UNL     1     -11.384  12.895  64.868  1.00  0.00    -0.340 A  
HETATM   23  C   UNL     1     -10.908  12.446  63.636  1.00  0.00    -0.509 A  
HETATM   24  C   UNL     1     -10.247  11.223  63.549  1.00  0.00    -0.456 A  
HETATM   25  C   UNL     1     -10.007  10.476  64.698  1.00  0.00    -0.415 A  
HETATM   26  C   UNL     1     -10.474  10.924  65.932  1.00  0.00    -0.285 A  
ENDBRANCH  20  21
ENDBRANCH  17  20
ENDBRANCH  16  17
ENDBRANCH  15  16
ENDBRANCH  14  15
ENDBRANCH  13  14
ENDBRANCH  12  13
ENDBRANCH  11  12
ENDBRANCH  10  11
ENDBRANCH   9  10
ENDBRANCH   8   9
ENDBRANCH   7   8
ENDBRANCH   6   7
ENDBRANCH   5   6
ENDBRANCH   4   5
ENDBRANCH   3   4
ENDBRANCH   2   3
TORSDOF 17
ENDMDL
MODEL      212
REMARK 921   NORMALIZED FREE ENERGY PREDICTED BY IDOCK:   -3.25 KCAL/MOL
REMARK 922        TOTAL FREE ENERGY PREDICTED BY IDOCK:   -9.32 KCAL/MOL
REMARK 923 INTER-LIGAND FREE ENERGY PREDICTED BY IDOCK:   -7.29 KCAL/MOL
REMARK 924 INTRA-LIGAND FREE ENERGY PREDICTED BY IDOCK:   -2.04 KCAL/MOL
REMARK 927      BINDING AFFINITY PREDICTED BY RF-SCORE:    0.00 PKD
ROOT
HETATM    1  C   UNL     1     -11.829  14.623  68.558  1.00  0.00    -0.346 C  
HETATM    2  C   UNL     1     -10.753  13.669  68.070  1.00  0.00    -0.258 C  
ENDROOT
BRANCH   2   3
HETATM    3  C   UNL     1     -10.681  13.657  66.545  1.00  0.00    -0.284 C  
BRANCH   3   4
HETATM    4  C   UNL     1     -12.005  13.198  65.940  1.00  0.00    -0.479 C  
BRANCH   4   5
HETATM    5  C   UNL     1     -12.023  13.453  64.438  1.00  0.00    -0.460 C  
BRANCH   5   6
HETATM    6  C   UNL     1     -11.970  12.142  63.666  1.00  0.00    -0.628 C  
BRANCH   6   7
HETATM    7  C   UNL     1     -10.526  11.762  63.369  1.00  0.00    -0.485 C  
BRANCH   7   8
HETATM    8  C   UNL     1     -10.139  10.501  64.128  1.00  0.00    -0.351 C  
BRANCH   8   9
HETATM    9  C   UNL     1      -8.828  10.715  64.873  1.00  0.00    -0.204 C  
BRANCH   9  10
HETATM   10  C   UNL     1      -8.924  10.141  66.278  1.00  0.00    -0.168 C  
BRANCH  10  11
HETATM   11  C   UNL     1     -10.374  10.025  66.716  1.00  0.00    -0.283 C  
BRANCH  11  12
HETATM   12  C   UNL     1     -10.578   8.731  67.486  1.00  0.00    -0.298 C  
BRANCH  12  13
HETATM   13  C   UNL     1     -10.071   7.528  66.700  1.00  0.00    -0.263 C  
BRANCH  13  14
HETATM   14  C   UNL     1     -10.918   6.279  66.941  1.00  0.00    -0.404 C  
BRANCH  14  15
HETATM   15  C   UNL     1     -10.118   4.987  67.135  1.00  0.00    -0.239 C  
BRANCH  15  16
HETATM   16  C   UNL     1      -9.884   4.641  68.609  1.00  0.00    -0.120 C  
BRANCH  16  17
HETATM   17  N   UNL     1      -8.441   4.893  69.082  1.00  0.00    -0.081 N  
HETATM   18  C   UNL     1      -7.931   3.717  69.906  1.00  0.00    -0.050 C  
HETATM   19  C   UNL     1      -7.518   5.108  67.883  1.00  0.00    -0.076 C  
BRANCH  17  20
HETATM   20  C   UNL     1      -8.463   6.195  69.957  1.00  0.00    -0.129 C  
BRANCH  20  21
HETATM   21  C   UNL     1      -9.670   6.325  70.851  1.00  0.00    -0.197 A  
HETATM   22  C   UNL     1      -9.853   5.449  71.934  1.00  0.00    -0.218 A  
HETATM   23  C   UNL     1     -11.083   5.388  72.588  1.00  0.00    -0.332 A  
HETATM   24  C   UNL     1     -12.125   6.223  72.191  1.00  0.00    -0.304 A  
HETATM   25  C   UNL     1     -11.924   7.160  71.182  1.00  0.00    -0.381 A  
HETATM   26  C   UNL     1     -10.693   7.230  70.531  1.00  0.00    -0.249 A  
ENDBRANCH  20  21
ENDBRANCH  17  20
ENDBRANCH  16  17
ENDBRANCH  15  16
ENDBRANCH  14  15
ENDBRANCH  13  14
ENDBRANCH  12  13
ENDBRANCH  11  12
ENDBRANCH  10  11
ENDBRANCH   9  10
ENDBRANCH   8   9
ENDBRANCH   7   8
ENDBRANCH   6   7
ENDBRANCH   5   6
ENDBRANCH   4   5
ENDBRANCH   3   4
ENDBRANCH   2   3
TORSDOF 17
ENDMDL
MODEL      213
REMARK 921   NORMALIZED FREE ENERGY PREDICTED BY IDOCK:   -3.25 KCAL/MOL
REMARK 922        TOTAL FREE ENERGY PREDICTED BY IDOCK:   -9.32 KCAL/MOL
REMARK 923 INTER-LIGAND FREE ENERGY PREDICTED BY IDOCK:   -8.33 KCAL/MOL
REMARK 924 INTRA-LIGAND FREE ENERGY PREDICTED BY IDOCK:   -0.99 KCAL/MOL
REMARK 927      BINDING AFFINITY PREDICTED BY RF-SCORE:    0.00 PKD
ROOT
HETATM    1  C   UNL     1      -9.846   7.755  73.206  1.00  0.00    -0.362 C  
HETATM    2  C   UNL     1     -11.333   7.884  72.926  1.00  0.00    -0.399 C  
ENDROOT
BRANCH   2   3
HETATM    3  C   UNL     1     -11.585   8.256  71.467  1.00  0.00    -0.326 C  
BRANCH   3   4
HETATM    4  C   UNL     1     -12.151   7.071  70.691  1.00  0.00    -0.332 C  
BRANCH   4   5
HETATM    5  C   UNL     1     -11.069   6.429  69.832  1.00  0.00    -0.444 C  
BRANCH   5   6
HETATM    6  C   UNL     1      -9.930   7.407  69.576  1.00  0.00    -0.179 C  
BRANCH   6   7
HETATM    7  C   UNL     1      -9.240   7.081  68.258  1.00  0.00    -0.128 C  
BRANCH   7   8
HETATM    8  C   UNL     1      -9.143   8.323  67.386  1.00  0.00    -0.155 C  
BRANCH   8   9
HETATM    9  C   UNL     1     -10.535   8.808  67.000  1.00  0.00    -0.338 C  
BRANCH   9  10
HETATM   10  C   UNL     1     -10.483  10.265  66.570  1.00  0.00    -0.241 C  
BRANCH  10  11
HETATM   11  C   UNL     1     -11.017  11.170  67.667  1.00  0.00    -0.323 C  
BRANCH  11  12
HETATM   12  C   UNL     1     -11.724  12.365  67.050  1.00  0.00    -0.423 C  
BRANCH  12  13
HETATM   13  C   UNL     1     -11.709  12.298  65.528  1.00  0.00    -0.433 C  
BRANCH  13  14
HETATM   14  C   UNL     1     -11.762  13.684  64.885  1.00  0.00    -0.379 C  
BRANCH  14  15
HETATM   15  C   UNL     1     -10.503  14.533  65.082  1.00  0.00    -0.439 C  
BRANCH  15  16
HETATM   16  C   UNL     1     -10.790  16.037  65.102  1.00  0.00    -0.395 C  
BRANCH  16  17
HETATM   17  N   UNL     1     -10.227  16.758  66.340  1.00  0.00    -0.313 N  
HETATM   18  C   UNL     1     -10.642  18.224  66.346  1.00  0.00    -0.293 C  
HETATM   19  C   UNL     1     -10.724  16.086  67.619  1.00  0.00    -0.320 C  
BRANCH  17  20
HETATM   20  C   UNL     1      -8.663  16.641  66.271  1.00  0.00    -0.324 C  
BRANCH  20  21
HETATM   21  C   UNL     1      -7.923  17.802  66.887  1.00  0.00    -0.251 A  
HETATM   22  C   UNL     1      -7.913  17.982  68.280  1.00  0.00    -0.294 A  
HETATM   23  C   UNL     1      -7.470  19.185  68.829  1.00  0.00    -0.379 A  
HETATM   24  C   UNL     1      -7.004  20.201  67.997  1.00  0.00    -0.325 A  
HETATM   25  C   UNL     1      -6.922  19.995  66.623  1.00  0.00    -0.255 A  
HETATM   26  C   UNL     1      -7.355  18.791  66.071  1.00  0.00    -0.283 A  
ENDBRANCH  20  21
ENDBRANCH  17  20
ENDBRANCH  16  17
ENDBRANCH  15  16
ENDBRANCH  14  15
ENDBRANCH  13  14
ENDBRANCH  12  13
ENDBRANCH  11  12
ENDBRANCH  10  11
ENDBRANCH   9  10
ENDBRANCH   8   9
ENDBRANCH   7   8
ENDBRANCH   6   7
ENDBRANCH   5   6
ENDBRANCH   4   5
ENDBRANCH   3   4
ENDBRANCH   2   3
TORSDOF 17
ENDMDL
MODEL      214
REMARK 921   NORMALIZED FREE ENERGY PREDICTED BY IDOCK:   -3.25 KCAL/MOL
REMARK 922        TOTAL FREE ENERGY PREDICTED BY IDOCK:   -9.31 KCAL/MOL
REMARK 923 INTER-LIGAND FREE ENERGY PREDICTED BY IDOCK:   -8.00 KCAL/MOL
REMARK 924 INTRA-LIGAND FREE ENERGY PREDICTED BY IDOCK:   -1.32 KCAL/MOL
REMARK 927      BINDING AFFINITY PREDICTED BY RF-SCORE:    0.00 PKD
ROOT
HETATM    1  C   UNL     1     -12.261   7.522  71.334  1.00  0.00    -0.363 C  
HETATM    2  C   UNL     1     -11.551   6.225  70.984  1.00  0.00    -0.337 C  
ENDROOT
BRANCH   2   3
HETATM    3  C   UNL     1     -11.118   6.216  69.521  1.00  0.00    -0.490 C  
BRANCH   3   4
HETATM    4  C   UNL     1      -9.724   5.614  69.368  1.00  0.00    -0.208 C  
BRANCH   4   5
HETATM    5  C   UNL     1      -8.664   6.582  69.878  1.00  0.00    -0.140 C  
BRANCH   5   6
HETATM    6  C   UNL     1      -9.070   8.023  69.600  1.00  0.00    -0.152 C  
BRANCH   6   7
HETATM    7  C   UNL     1      -8.669   8.422  68.187  1.00  0.00    -0.143 C  
BRANCH   7   8
HETATM    8  C   UNL     1      -9.842   9.067  67.463  1.00  0.00    -0.230 C  
BRANCH   8   9
HETATM    9  C   UNL     1     -10.739   9.796  68.455  1.00  0.00    -0.262 C  
BRANCH   9  10
HETATM   10  C   UNL     1     -10.406  11.280  68.470  1.00  0.00    -0.217 C  
BRANCH  10  11
HETATM   11  C   UNL     1     -11.568  12.099  67.934  1.00  0.00    -0.413 C  
BRANCH  11  12
HETATM   12  C   UNL     1     -11.423  12.279  66.433  1.00  0.00    -0.434 C  
BRANCH  12  13
HETATM   13  C   UNL     1     -11.989  13.617  65.974  1.00  0.00    -0.447 C  
BRANCH  13  14
HETATM   14  C   UNL     1     -10.915  14.528  65.379  1.00  0.00    -0.346 C  
BRANCH  14  15
HETATM   15  C   UNL     1     -10.573  15.756  66.227  1.00  0.00    -0.313 C  
BRANCH  15  16
HETATM   16  C   UNL     1      -9.091  15.832  66.605  1.00  0.00    -0.268 C  
BRANCH  16  17
HETATM   17  N   UNL     1      -8.818  15.561  68.095  1.00  0.00    -0.168 N  
HETATM   18  C   UNL     1     -10.125  15.429  68.867  1.00  0.00    -0.219 C  
HETATM   19  C   UNL     1      -8.000  14.281  68.262  1.00  0.00    -0.140 C  
BRANCH  17  20
HETATM   20  C   UNL     1      -7.990  16.776  68.641  1.00  0.00    -0.246 C  
BRANCH  20  21
HETATM   21  C   UNL     1      -8.493  18.126  68.191  1.00  0.00    -0.282 A  
HETATM   22  C   UNL     1      -9.689  18.649  68.708  1.00  0.00    -0.407 A  
HETATM   23  C   UNL     1     -10.293  19.751  68.103  1.00  0.00    -0.561 A  
HETATM   24  C   UNL     1      -9.690  20.359  67.004  1.00  0.00    -0.588 A  
HETATM   25  C   UNL     1      -8.458  19.906  66.545  1.00  0.00    -0.379 A  
HETATM   26  C   UNL     1      -7.847  18.810  67.151  1.00  0.00    -0.245 A  
ENDBRANCH  20  21
ENDBRANCH  17  20
ENDBRANCH  16  17
ENDBRANCH  15  16
ENDBRANCH  14  15
ENDBRANCH  13  14
ENDBRANCH  12  13
ENDBRANCH  11  12
ENDBRANCH  10  11
ENDBRANCH   9  10
ENDBRANCH   8   9
ENDBRANCH   7   8
ENDBRANCH   6   7
ENDBRANCH   5   6
ENDBRANCH   4   5
ENDBRANCH   3   4
ENDBRANCH   2   3
TORSDOF 17
ENDMDL
MODEL      215
REMARK 921   NORMALIZED FREE ENERGY PREDICTED BY IDOCK:   -3.25 KCAL/MOL
REMARK 922        TOTAL FREE ENERGY PREDICTED BY IDOCK:   -9.31 KCAL/MOL
REMARK 923 INTER-LIGAND FREE ENERGY PREDICTED BY IDOCK:   -6.11 KCAL/MOL
REMARK 924 INTRA-LIGAND FREE ENERGY PREDICTED BY IDOCK:   -3.20 KCAL/MOL
REMARK 927      BINDING AFFINITY PREDICTED BY RF-SCORE:    0.00 PKD
ROOT
HETATM    1  C   UNL     1     -11.581  12.284  66.208  1.00  0.00    -0.446 C  
HETATM    2  C   UNL     1     -12.056  12.980  67.472  1.00  0.00    -0.279 C  
ENDROOT
BRANCH   2   3
HETATM    3  C   UNL     1     -11.239  12.536  68.682  1.00  0.00    -0.319 C  
BRANCH   3   4
HETATM    4  C   UNL     1     -11.916  12.957  69.983  1.00  0.00    -0.380 C  
BRANCH   4   5
HETATM    5  C   UNL     1     -12.232  14.447  69.963  1.00  0.00    -0.408 C  
BRANCH   5   6
HETATM    6  C   UNL     1     -11.134  15.243  70.656  1.00  0.00    -0.341 C  
BRANCH   6   7
HETATM    7  C   UNL     1     -10.350  16.060  69.638  1.00  0.00    -0.283 C  
BRANCH   7   8
HETATM    8  C   UNL     1     -11.258  16.509  68.503  1.00  0.00    -0.296 C  
BRANCH   8   9
HETATM    9  C   UNL     1     -10.586  16.259  67.158  1.00  0.00    -0.291 C  
BRANCH   9  10
HETATM   10  C   UNL     1      -9.193  16.867  67.147  1.00  0.00    -0.238 C  
BRANCH  10  11
HETATM   11  C   UNL     1      -8.199  15.928  66.486  1.00  0.00    -0.307 C  
BRANCH  11  12
HETATM   12  C   UNL     1      -8.601  14.486  66.745  1.00  0.00    -0.163 C  
BRANCH  12  13
HETATM   13  C   UNL     1      -7.581  13.771  67.622  1.00  0.00    -0.189 C  
BRANCH  13  14
HETATM   14  C   UNL     1      -7.945  12.304  67.856  1.00  0.00    -0.152 C  
BRANCH  14  15
HETATM   15  C   UNL     1      -8.043  11.456  66.585  1.00  0.00    -0.155 C  
BRANCH  15  16
HETATM   16  C   UNL     1      -7.447  10.055  66.750  1.00  0.00    -0.096 C  
BRANCH  16  17
HETATM   17  N   UNL     1      -8.261   8.950  66.055  1.00  0.00    -0.114 N  
HETATM   18  C   UNL     1      -9.491   9.535  65.371  1.00  0.00    -0.269 C  
HETATM   19  C   UNL     1      -7.402   8.228  65.018  1.00  0.00    -0.086 C  
BRANCH  17  20
HETATM   20  C   UNL     1      -8.697   7.929  67.164  1.00  0.00    -0.131 C  
BRANCH  20  21
HETATM   21  C   UNL     1      -9.256   8.566  68.412  1.00  0.00    -0.135 A  
HETATM   22  C   UNL     1      -8.435   8.785  69.530  1.00  0.00    -0.128 A  
HETATM   23  C   UNL     1      -8.999   9.114  70.763  1.00  0.00    -0.296 A  
HETATM   24  C   UNL     1     -10.380   9.263  70.879  1.00  0.00    -0.367 A  
HETATM   25  C   UNL     1     -11.192   9.142  69.756  1.00  0.00    -0.073 A  
HETATM   26  C   UNL     1     -10.631   8.820  68.521  1.00  0.00    -0.171 A  
ENDBRANCH  20  21
ENDBRANCH  17  20
ENDBRANCH  16  17
ENDBRANCH  15  16
ENDBRANCH  14  15
ENDBRANCH  13  14
ENDBRANCH  12  13
ENDBRANCH  11  12
ENDBRANCH  10  11
ENDBRANCH   9  10
ENDBRANCH   8   9
ENDBRANCH   7   8
ENDBRANCH   6   7
ENDBRANCH   5   6
ENDBRANCH   4   5
ENDBRANCH   3   4
ENDBRANCH   2   3
TORSDOF 17
ENDMDL
MODEL      216
REMARK 921   NORMALIZED FREE ENERGY PREDICTED BY IDOCK:   -3.24 KCAL/MOL
REMARK 922        TOTAL FREE ENERGY PREDICTED BY IDOCK:   -9.30 KCAL/MOL
REMARK 923 INTER-LIGAND FREE ENERGY PREDICTED BY IDOCK:   -6.29 KCAL/MOL
REMARK 924 INTRA-LIGAND FREE ENERGY PREDICTED BY IDOCK:   -3.01 KCAL/MOL
REMARK 927      BINDING AFFINITY PREDICTED BY RF-SCORE:    0.00 PKD
ROOT
HETATM    1  C   UNL     1     -10.977   5.218  73.532  1.00  0.00    -0.353 C  
HETATM    2  C   UNL     1     -11.733   5.909  72.411  1.00  0.00    -0.307 C  
ENDROOT
BRANCH   2   3
HETATM    3  C   UNL     1     -11.059   5.664  71.063  1.00  0.00    -0.202 C  
BRANCH   3   4
HETATM    4  C   UNL     1     -11.689   6.527  69.973  1.00  0.00    -0.388 C  
BRANCH   4   5
HETATM    5  C   UNL     1     -11.028   6.254  68.628  1.00  0.00    -0.423 C  
BRANCH   5   6
HETATM    6  C   UNL     1      -9.912   5.228  68.771  1.00  0.00    -0.243 C  
BRANCH   6   7
HETATM    7  C   UNL     1      -8.771   5.552  67.817  1.00  0.00    -0.106 C  
BRANCH   7   8
HETATM    8  C   UNL     1      -7.485   5.802  68.590  1.00  0.00    -0.085 C  
BRANCH   8   9
HETATM    9  C   UNL     1      -7.671   5.436  70.058  1.00  0.00    -0.077 C  
BRANCH   9  10
HETATM   10  C   UNL     1      -6.905   6.407  70.941  1.00  0.00    -0.063 C  
BRANCH  10  11
HETATM   11  C   UNL     1      -7.794   6.947  72.049  1.00  0.00    -0.095 C  
BRANCH  11  12
HETATM   12  C   UNL     1      -7.942   8.451  71.904  1.00  0.00    -0.180 C  
BRANCH  12  13
HETATM   13  C   UNL     1      -9.392   8.849  71.655  1.00  0.00    -0.328 C  
BRANCH  13  14
HETATM   14  C   UNL     1      -9.561   9.647  70.362  1.00  0.00    -0.292 C  
BRANCH  14  15
HETATM   15  C   UNL     1      -8.882   9.034  69.134  1.00  0.00    -0.142 C  
BRANCH  15  16
HETATM   16  C   UNL     1      -7.927  10.002  68.430  1.00  0.00    -0.097 C  
BRANCH  16  17
HETATM   17  N   UNL     1      -7.940   9.877  66.896  1.00  0.00    -0.109 N  
HETATM   18  C   UNL     1      -7.489  11.179  66.245  1.00  0.00    -0.064 C  
HETATM   19  C   UNL     1      -7.022   8.742  66.446  1.00  0.00    -0.082 C  
BRANCH  17  20
HETATM   20  C   UNL     1      -9.415   9.546  66.472  1.00  0.00    -0.182 C  
BRANCH  20  21
HETATM   21  C   UNL     1     -10.168  10.710  65.877  1.00  0.00    -0.314 A  
HETATM   22  C   UNL     1     -10.848  11.617  66.705  1.00  0.00    -0.327 A  
HETATM   23  C   UNL     1     -11.760  12.521  66.158  1.00  0.00    -0.466 A  
HETATM   24  C   UNL     1     -11.971  12.548  64.781  1.00  0.00    -0.469 A  
HETATM   25  C   UNL     1     -11.232  11.718  63.944  1.00  0.00    -0.493 A  
HETATM   26  C   UNL     1     -10.314  10.820  64.486  1.00  0.00    -0.401 A  
ENDBRANCH  20  21
ENDBRANCH  17  20
ENDBRANCH  16  17
ENDBRANCH  15  16
ENDBRANCH  14  15
ENDBRANCH  13  14
ENDBRANCH  12  13
ENDBRANCH  11  12
ENDBRANCH  10  11
ENDBRANCH   9  10
ENDBRANCH   8   9
ENDBRANCH   7   8
ENDBRANCH   6   7
ENDBRANCH   5   6
ENDBRANCH   4   5
ENDBRANCH   3   4
ENDBRANCH   2   3
TORSDOF 17
ENDMDL
MODEL      217
REMARK 921   NORMALIZED FREE ENERGY PREDICTED BY IDOCK:   -3.24 KCAL/MOL
REMARK 922        TOTAL FREE ENERGY PREDICTED BY IDOCK:   -9.30 KCAL/MOL
REMARK 923 INTER-LIGAND FREE ENERGY PREDICTED BY IDOCK:   -7.50 KCAL/MOL
REMARK 924 INTRA-LIGAND FREE ENERGY PREDICTED BY IDOCK:   -1.80 KCAL/MOL
REMARK 927      BINDING AFFINITY PREDICTED BY RF-SCORE:    0.00 PKD
ROOT
HETATM    1  C   UNL     1     -10.874   3.822  73.530  1.00  0.00    -0.324 C  
HETATM    2  C   UNL     1     -10.804   5.237  72.981  1.00  0.00    -0.332 C  
ENDROOT
BRANCH   2   3
HETATM    3  C   UNL     1     -10.613   5.228  71.466  1.00  0.00    -0.254 C  
BRANCH   3   4
HETATM    4  C   UNL     1     -11.553   6.222  70.791  1.00  0.00    -0.347 C  
BRANCH   4   5
HETATM    5  C   UNL     1     -11.271   6.292  69.296  1.00  0.00    -0.458 C  
BRANCH   5   6
HETATM    6  C   UNL     1      -9.823   5.925  69.000  1.00  0.00    -0.193 C  
BRANCH   6   7
HETATM    7  C   UNL     1      -9.234   6.883  67.974  1.00  0.00    -0.121 C  
BRANCH   7   8
HETATM    8  C   UNL     1      -7.985   7.554  68.527  1.00  0.00    -0.123 C  
BRANCH   8   9
HETATM    9  C   UNL     1      -8.046   7.609  70.049  1.00  0.00    -0.120 C  
BRANCH   9  10
HETATM   10  C   UNL     1      -8.324   9.031  70.511  1.00  0.00    -0.205 C  
BRANCH  10  11
HETATM   11  C   UNL     1      -9.569   9.081  71.380  1.00  0.00    -0.356 C  
BRANCH  11  12
HETATM   12  C   UNL     1     -10.686   9.796  70.639  1.00  0.00    -0.394 C  
BRANCH  12  13
HETATM   13  C   UNL     1     -11.935   9.927  71.503  1.00  0.00    -0.473 C  
BRANCH  13  14
HETATM   14  C   UNL     1     -12.764  11.159  71.141  1.00  0.00    -0.510 C  
BRANCH  14  15
HETATM   15  C   UNL     1     -12.056  12.166  70.231  1.00  0.00    -0.385 C  
BRANCH  15  16
HETATM   16  C   UNL     1     -12.527  13.607  70.449  1.00  0.00    -0.294 C  
BRANCH  16  17
HETATM   17  N   UNL     1     -11.484  14.666  70.045  1.00  0.00    -0.262 N  
HETATM   18  C   UNL     1     -11.140  15.562  71.228  1.00  0.00    -0.284 C  
HETATM   19  C   UNL     1     -10.212  13.992  69.534  1.00  0.00     0.321 C  
BRANCH  17  20
HETATM   20  C   UNL     1     -12.116  15.518  68.889  1.00  0.00    -0.194 C  
BRANCH  20  21
HETATM   21  C   UNL     1     -11.633  15.150  67.508  1.00  0.00    -0.268 A  
HETATM   22  C   UNL     1     -12.072  13.968  66.891  1.00  0.00    -0.465 A  
HETATM   23  C   UNL     1     -11.429  13.490  65.749  1.00  0.00    -0.331 A  
HETATM   24  C   UNL     1     -10.369  14.206  65.196  1.00  0.00    -0.429 A  
HETATM   25  C   UNL     1      -9.989  15.427  65.746  1.00  0.00    -0.393 A  
HETATM   26  C   UNL     1     -10.635  15.912  66.882  1.00  0.00    -0.309 A  
ENDBRANCH  20  21
ENDBRANCH  17  20
ENDBRANCH  16  17
ENDBRANCH  15  16
ENDBRANCH  14  15
ENDBRANCH  13  14
ENDBRANCH  12  13
ENDBRANCH  11  12
ENDBRANCH  10  11
ENDBRANCH   9  10
ENDBRANCH   8   9
ENDBRANCH   7   8
ENDBRANCH   6   7
ENDBRANCH   5   6
ENDBRANCH   4   5
ENDBRANCH   3   4
ENDBRANCH   2   3
TORSDOF 17
ENDMDL
MODEL      218
REMARK 921   NORMALIZED FREE ENERGY PREDICTED BY IDOCK:   -3.24 KCAL/MOL
REMARK 922        TOTAL FREE ENERGY PREDICTED BY IDOCK:   -9.29 KCAL/MOL
REMARK 923 INTER-LIGAND FREE ENERGY PREDICTED BY IDOCK:   -7.78 KCAL/MOL
REMARK 924 INTRA-LIGAND FREE ENERGY PREDICTED BY IDOCK:   -1.51 KCAL/MOL
REMARK 927      BINDING AFFINITY PREDICTED BY RF-SCORE:    0.00 PKD
ROOT
HETATM    1  C   UNL     1      -7.821   2.260  67.005  1.00  0.00    -0.070 C  
HETATM    2  C   UNL     1      -7.919   3.144  65.774  1.00  0.00    -0.086 C  
ENDROOT
BRANCH   2   3
HETATM    3  C   UNL     1      -9.347   3.177  65.237  1.00  0.00    -0.135 C  
BRANCH   3   4
HETATM    4  C   UNL     1     -10.069   4.446  65.681  1.00  0.00    -0.256 C  
BRANCH   4   5
HETATM    5  C   UNL     1      -9.067   5.551  65.990  1.00  0.00    -0.162 C  
BRANCH   5   6
HETATM    6  C   UNL     1      -9.462   6.303  67.254  1.00  0.00    -0.126 C  
BRANCH   6   7
HETATM    7  C   UNL     1     -10.977   6.308  67.414  1.00  0.00    -0.447 C  
BRANCH   7   8
HETATM    8  C   UNL     1     -11.357   6.424  68.883  1.00  0.00    -0.292 C  
BRANCH   8   9
HETATM    9  C   UNL     1     -10.492   5.496  69.727  1.00  0.00    -0.389 C  
BRANCH   9  10
HETATM   10  C   UNL     1     -10.535   5.922  71.186  1.00  0.00    -0.291 C  
BRANCH  10  11
HETATM   11  C   UNL     1     -11.840   6.632  71.502  1.00  0.00    -0.387 C  
BRANCH  11  12
HETATM   12  C   UNL     1     -11.579   7.793  72.446  1.00  0.00    -0.410 C  
BRANCH  12  13
HETATM   13  C   UNL     1     -10.656   8.829  71.814  1.00  0.00    -0.417 C  
BRANCH  13  14
HETATM   14  C   UNL     1     -11.429   9.990  71.188  1.00  0.00    -0.432 C  
BRANCH  14  15
HETATM   15  C   UNL     1     -11.388  10.037  69.658  1.00  0.00    -0.253 C  
BRANCH  15  16
HETATM   16  C   UNL     1     -10.003  10.384  69.104  1.00  0.00    -0.223 C  
BRANCH  16  17
HETATM   17  N   UNL     1     -10.033  11.426  67.972  1.00  0.00    -0.177 N  
HETATM   18  C   UNL     1      -9.940  12.838  68.536  1.00  0.00    -0.164 C  
HETATM   19  C   UNL     1      -8.875  11.191  67.002  1.00  0.00    -0.149 C  
BRANCH  17  20
HETATM   20  C   UNL     1     -11.390  11.239  67.207  1.00  0.00    -0.255 C  
BRANCH  20  21
HETATM   21  C   UNL     1     -11.504  12.038  65.933  1.00  0.00    -0.392 A  
HETATM   22  C   UNL     1     -12.184  13.267  65.921  1.00  0.00    -0.497 A  
HETATM   23  C   UNL     1     -12.525  13.869  64.710  1.00  0.00    -0.386 A  
HETATM   24  C   UNL     1     -12.160  13.269  63.507  1.00  0.00    -0.550 A  
HETATM   25  C   UNL     1     -11.404  12.101  63.510  1.00  0.00    -0.535 A  
HETATM   26  C   UNL     1     -11.054  11.500  64.718  1.00  0.00    -0.300 A  
ENDBRANCH  20  21
ENDBRANCH  17  20
ENDBRANCH  16  17
ENDBRANCH  15  16
ENDBRANCH  14  15
ENDBRANCH  13  14
ENDBRANCH  12  13
ENDBRANCH  11  12
ENDBRANCH  10  11
ENDBRANCH   9  10
ENDBRANCH   8   9
ENDBRANCH   7   8
ENDBRANCH   6   7
ENDBRANCH   5   6
ENDBRANCH   4   5
ENDBRANCH   3   4
ENDBRANCH   2   3
TORSDOF 17
ENDMDL
MODEL      219
REMARK 921   NORMALIZED FREE ENERGY PREDICTED BY IDOCK:   -3.24 KCAL/MOL
REMARK 922        TOTAL FREE ENERGY PREDICTED BY IDOCK:   -9.29 KCAL/MOL
REMARK 923 INTER-LIGAND FREE ENERGY PREDICTED BY IDOCK:   -7.12 KCAL/MOL
REMARK 924 INTRA-LIGAND FREE ENERGY PREDICTED BY IDOCK:   -2.17 KCAL/MOL
REMARK 927      BINDING AFFINITY PREDICTED BY RF-SCORE:    0.00 PKD
ROOT
HETATM    1  C   UNL     1      -8.173  12.512  67.340  1.00  0.00    -0.183 C  
HETATM    2  C   UNL     1      -9.190  12.180  68.418  1.00  0.00    -0.154 C  
ENDROOT
BRANCH   2   3
HETATM    3  C   UNL     1     -10.429  13.062  68.292  1.00  0.00    -0.258 C  
BRANCH   3   4
HETATM    4  C   UNL     1     -11.633  12.249  67.825  1.00  0.00    -0.416 C  
BRANCH   4   5
HETATM    5  C   UNL     1     -11.885  12.473  66.339  1.00  0.00    -0.445 C  
BRANCH   5   6
HETATM    6  C   UNL     1     -11.187  11.407  65.505  1.00  0.00    -0.140 C  
BRANCH   6   7
HETATM    7  C   UNL     1     -11.347  11.707  64.021  1.00  0.00    -0.428 C  
BRANCH   7   8
HETATM    8  C   UNL     1      -9.988  11.800  63.346  1.00  0.00    -0.446 C  
BRANCH   8   9
HETATM    9  C   UNL     1      -9.495  10.411  62.957  1.00  0.00    -0.362 C  
BRANCH   9  10
HETATM   10  C   UNL     1      -7.976  10.363  62.998  1.00  0.00    -0.138 C  
BRANCH  10  11
HETATM   11  C   UNL     1      -7.488   9.879  64.353  1.00  0.00    -0.137 C  
BRANCH  11  12
HETATM   12  C   UNL     1      -8.322   8.694  64.808  1.00  0.00    -0.167 C  
BRANCH  12  13
HETATM   13  C   UNL     1      -8.291   8.538  66.323  1.00  0.00    -0.118 C  
BRANCH  13  14
HETATM   14  C   UNL     1      -9.690   8.379  66.920  1.00  0.00    -0.292 C  
BRANCH  14  15
HETATM   15  C   UNL     1      -9.849   8.929  68.340  1.00  0.00    -0.191 C  
BRANCH  15  16
HETATM   16  C   UNL     1     -10.346   7.879  69.338  1.00  0.00    -0.220 C  
BRANCH  16  17
HETATM   17  N   UNL     1      -9.340   7.569  70.461  1.00  0.00    -0.161 N  
HETATM   18  C   UNL     1      -9.485   6.127  70.932  1.00  0.00    -0.172 C  
HETATM   19  C   UNL     1      -7.910   7.800  69.973  1.00  0.00    -0.103 C  
BRANCH  17  20
HETATM   20  C   UNL     1      -9.648   8.555  71.642  1.00  0.00    -0.249 C  
BRANCH  20  21
HETATM   21  C   UNL     1     -11.072   9.051  71.684  1.00  0.00    -0.433 A  
HETATM   22  C   UNL     1     -12.084   8.264  72.257  1.00  0.00    -0.439 A  
HETATM   23  C   UNL     1     -13.426   8.590  72.057  1.00  0.00    -0.409 A  
HETATM   24  C   UNL     1     -13.764   9.720  71.315  1.00  0.00    -0.201 A  
HETATM   25  C   UNL     1     -12.768  10.557  70.824  1.00  0.00    -0.471 A  
HETATM   26  C   UNL     1     -11.426  10.240  71.029  1.00  0.00    -0.386 A  
ENDBRANCH  20  21
ENDBRANCH  17  20
ENDBRANCH  16  17
ENDBRANCH  15  16
ENDBRANCH  14  15
ENDBRANCH  13  14
ENDBRANCH  12  13
ENDBRANCH  11  12
ENDBRANCH  10  11
ENDBRANCH   9  10
ENDBRANCH   8   9
ENDBRANCH   7   8
ENDBRANCH   6   7
ENDBRANCH   5   6
ENDBRANCH   4   5
ENDBRANCH   3   4
ENDBRANCH   2   3
TORSDOF 17
ENDMDL
MODEL      220
REMARK 921   NORMALIZED FREE ENERGY PREDICTED BY IDOCK:   -3.23 KCAL/MOL
REMARK 922        TOTAL FREE ENERGY PREDICTED BY IDOCK:   -9.29 KCAL/MOL
REMARK 923 INTER-LIGAND FREE ENERGY PREDICTED BY IDOCK:   -6.95 KCAL/MOL
REMARK 924 INTRA-LIGAND FREE ENERGY PREDICTED BY IDOCK:   -2.34 KCAL/MOL
REMARK 927      BINDING AFFINITY PREDICTED BY RF-SCORE:    0.00 PKD
ROOT
HETATM    1  C   UNL     1     -13.664  13.992  72.432  1.00  0.00    -0.669 C  
HETATM    2  C   UNL     1     -12.527  14.033  71.426  1.00  0.00    -0.438 C  
ENDROOT
BRANCH   2   3
HETATM    3  C   UNL     1     -12.317  12.666  70.781  1.00  0.00    -0.372 C  
BRANCH   3   4
HETATM    4  C   UNL     1     -13.026  11.572  71.575  1.00  0.00    -0.485 C  
BRANCH   4   5
HETATM    5  C   UNL     1     -12.465  10.202  71.216  1.00  0.00    -0.510 C  
BRANCH   5   6
HETATM    6  C   UNL     1     -12.818   9.176  72.285  1.00  0.00    -0.472 C  
BRANCH   6   7
HETATM    7  C   UNL     1     -13.455   7.948  71.648  1.00  0.00    -0.386 C  
BRANCH   7   8
HETATM    8  C   UNL     1     -12.499   6.766  71.696  1.00  0.00    -0.398 C  
BRANCH   8   9
HETATM    9  C   UNL     1     -11.268   7.116  72.523  1.00  0.00    -0.327 C  
BRANCH   9  10
HETATM   10  C   UNL     1     -10.065   6.329  72.031  1.00  0.00    -0.205 C  
BRANCH  10  11
HETATM   11  C   UNL     1     -10.503   5.046  71.345  1.00  0.00    -0.213 C  
BRANCH  11  12
HETATM   12  C   UNL     1      -9.291   4.179  71.050  1.00  0.00    -0.219 C  
BRANCH  12  13
HETATM   13  C   UNL     1      -9.392   3.526  69.677  1.00  0.00    -0.244 C  
BRANCH  13  14
HETATM   14  C   UNL     1      -8.020   3.216  69.079  1.00  0.00    -0.061 C  
BRANCH  14  15
HETATM   15  C   UNL     1      -8.044   2.750  67.620  1.00  0.00    -0.078 C  
BRANCH  15  16
HETATM   16  C   UNL     1      -7.437   3.771  66.654  1.00  0.00    -0.080 C  
BRANCH  16  17
HETATM   17  N   UNL     1      -8.133   3.814  65.282  1.00  0.00    -0.096 N  
HETATM   18  C   UNL     1      -7.132   3.559  64.161  1.00  0.00    -0.050 C  
HETATM   19  C   UNL     1      -9.244   2.766  65.216  1.00  0.00    -0.130 C  
BRANCH  17  20
HETATM   20  C   UNL     1      -8.762   5.243  65.128  1.00  0.00    -0.146 C  
BRANCH  20  21
HETATM   21  C   UNL     1      -9.245   5.854  66.420  1.00  0.00    -0.160 A  
HETATM   22  C   UNL     1     -10.568   5.658  66.850  1.00  0.00    -0.367 A  
HETATM   23  C   UNL     1     -11.092   6.433  67.885  1.00  0.00    -0.370 A  
HETATM   24  C   UNL     1     -10.291   7.380  68.520  1.00  0.00    -0.221 A  
HETATM   25  C   UNL     1      -8.953   7.514  68.164  1.00  0.00    -0.129 A  
HETATM   26  C   UNL     1      -8.423   6.736  67.136  1.00  0.00    -0.120 A  
ENDBRANCH  20  21
ENDBRANCH  17  20
ENDBRANCH  16  17
ENDBRANCH  15  16
ENDBRANCH  14  15
ENDBRANCH  13  14
ENDBRANCH  12  13
ENDBRANCH  11  12
ENDBRANCH  10  11
ENDBRANCH   9  10
ENDBRANCH   8   9
ENDBRANCH   7   8
ENDBRANCH   6   7
ENDBRANCH   5   6
ENDBRANCH   4   5
ENDBRANCH   3   4
ENDBRANCH   2   3
TORSDOF 17
ENDMDL
MODEL      221
REMARK 921   NORMALIZED FREE ENERGY PREDICTED BY IDOCK:   -3.23 KCAL/MOL
REMARK 922        TOTAL FREE ENERGY PREDICTED BY IDOCK:   -9.28 KCAL/MOL
REMARK 923 INTER-LIGAND FREE ENERGY PREDICTED BY IDOCK:   -7.64 KCAL/MOL
REMARK 924 INTRA-LIGAND FREE ENERGY PREDICTED BY IDOCK:   -1.64 KCAL/MOL
REMARK 927      BINDING AFFINITY PREDICTED BY RF-SCORE:    0.00 PKD
ROOT
HETATM    1  C   UNL     1     -12.482  15.466  73.542  1.00  0.00    -0.666 C  
HETATM    2  C   UNL     1     -12.321  15.920  72.101  1.00  0.00    -0.557 C  
ENDROOT
BRANCH   2   3
HETATM    3  C   UNL     1     -10.954  15.520  71.551  1.00  0.00    -0.151 C  
BRANCH   3   4
HETATM    4  C   UNL     1     -11.063  15.060  70.100  1.00  0.00    -0.271 C  
BRANCH   4   5
HETATM    5  C   UNL     1     -12.381  14.331  69.868  1.00  0.00    -0.377 C  
BRANCH   5   6
HETATM    6  C   UNL     1     -12.160  12.826  69.788  1.00  0.00    -0.305 C  
BRANCH   6   7
HETATM    7  C   UNL     1     -12.474  12.175  71.128  1.00  0.00    -0.337 C  
BRANCH   7   8
HETATM    8  C   UNL     1     -13.019  10.770  70.923  1.00  0.00    -0.385 C  
BRANCH   8   9
HETATM    9  C   UNL     1     -13.399  10.150  72.262  1.00  0.00    -0.337 C  
BRANCH   9  10
HETATM   10  C   UNL     1     -12.617   8.866  72.487  1.00  0.00    -0.363 C  
BRANCH  10  11
HETATM   11  C   UNL     1     -12.892   7.865  71.379  1.00  0.00    -0.305 C  
BRANCH  11  12
HETATM   12  C   UNL     1     -11.904   6.714  71.467  1.00  0.00    -0.387 C  
BRANCH  12  13
HETATM   13  C   UNL     1     -10.524   7.124  70.968  1.00  0.00    -0.230 C  
BRANCH  13  14
HETATM   14  C   UNL     1      -9.600   5.923  70.763  1.00  0.00    -0.203 C  
BRANCH  14  15
HETATM   15  C   UNL     1     -10.000   4.993  69.614  1.00  0.00    -0.311 C  
BRANCH  15  16
HETATM   16  C   UNL     1      -8.936   4.904  68.516  1.00  0.00    -0.109 C  
BRANCH  16  17
HETATM   17  N   UNL     1      -9.247   5.772  67.283  1.00  0.00    -0.110 N  
HETATM   18  C   UNL     1      -8.612   5.177  66.032  1.00  0.00    -0.124 C  
HETATM   19  C   UNL     1     -10.757   5.886  67.080  1.00  0.00    -0.318 C  
BRANCH  17  20
HETATM   20  C   UNL     1      -8.654   7.198  67.561  1.00  0.00    -0.122 C  
BRANCH  20  21
HETATM   21  C   UNL     1      -9.405   8.325  66.897  1.00  0.00    -0.222 A  
HETATM   22  C   UNL     1      -9.067   8.739  65.598  1.00  0.00    -0.247 A  
HETATM   23  C   UNL     1      -9.563   9.940  65.091  1.00  0.00    -0.367 A  
HETATM   24  C   UNL     1     -10.427  10.716  65.861  1.00  0.00    -0.243 A  
HETATM   25  C   UNL     1     -10.843  10.267  67.110  1.00  0.00    -0.278 A  
HETATM   26  C   UNL     1     -10.355   9.064  67.617  1.00  0.00    -0.317 A  
ENDBRANCH  20  21
ENDBRANCH  17  20
ENDBRANCH  16  17
ENDBRANCH  15  16
ENDBRANCH  14  15
ENDBRANCH  13  14
ENDBRANCH  12  13
ENDBRANCH  11  12
ENDBRANCH  10  11
ENDBRANCH   9  10
ENDBRANCH   8   9
ENDBRANCH   7   8
ENDBRANCH   6   7
ENDBRANCH   5   6
ENDBRANCH   4   5
ENDBRANCH   3   4
ENDBRANCH   2   3
TORSDOF 17
ENDMDL
MODEL      222
REMARK 921   NORMALIZED FREE ENERGY PREDICTED BY IDOCK:   -3.23 KCAL/MOL
REMARK 922        TOTAL FREE ENERGY PREDICTED BY IDOCK:   -9.28 KCAL/MOL
REMARK 923 INTER-LIGAND FREE ENERGY PREDICTED BY IDOCK:   -7.25 KCAL/MOL
REMARK 924 INTRA-LIGAND FREE ENERGY PREDICTED BY IDOCK:   -2.03 KCAL/MOL
REMARK 927      BINDING AFFINITY PREDICTED BY RF-SCORE:    0.00 PKD
ROOT
HETATM    1  C   UNL     1      -9.327   3.052  67.297  1.00  0.00    -0.198 C  
HETATM    2  C   UNL     1      -8.661   3.210  68.653  1.00  0.00    -0.145 C  
ENDROOT
BRANCH   2   3
HETATM    3  C   UNL     1      -9.607   2.799  69.778  1.00  0.00    -0.077 C  
BRANCH   3   4
HETATM    4  C   UNL     1      -9.219   3.473  71.091  1.00  0.00    -0.192 C  
BRANCH   4   5
HETATM    5  C   UNL     1     -10.069   2.940  72.237  1.00  0.00    -0.222 C  
BRANCH   5   6
HETATM    6  C   UNL     1     -10.772   4.079  72.965  1.00  0.00    -0.251 C  
BRANCH   6   7
HETATM    7  C   UNL     1     -10.565   5.390  72.219  1.00  0.00    -0.280 C  
BRANCH   7   8
HETATM    8  C   UNL     1     -11.803   6.267  72.329  1.00  0.00    -0.326 C  
BRANCH   8   9
HETATM    9  C   UNL     1     -12.121   6.904  70.982  1.00  0.00    -0.429 C  
BRANCH   9  10
HETATM   10  C   UNL     1     -10.904   6.845  70.074  1.00  0.00    -0.299 C  
BRANCH  10  11
HETATM   11  C   UNL     1     -11.259   6.222  68.735  1.00  0.00    -0.357 C  
BRANCH  11  12
HETATM   12  C   UNL     1     -10.586   6.993  67.613  1.00  0.00    -0.327 C  
BRANCH  12  13
HETATM   13  C   UNL     1      -9.085   6.733  67.579  1.00  0.00    -0.117 C  
BRANCH  13  14
HETATM   14  C   UNL     1      -8.376   7.563  66.509  1.00  0.00    -0.126 C  
BRANCH  14  15
HETATM   15  C   UNL     1      -9.155   8.789  66.026  1.00  0.00    -0.265 C  
BRANCH  15  16
HETATM   16  C   UNL     1      -8.524  10.113  66.466  1.00  0.00    -0.127 C  
BRANCH  16  17
HETATM   17  N   UNL     1      -9.396  10.918  67.446  1.00  0.00    -0.154 N  
HETATM   18  C   UNL     1      -9.329  10.318  68.845  1.00  0.00    -0.178 C  
HETATM   19  C   UNL     1      -8.934  12.374  67.498  1.00  0.00    -0.183 C  
BRANCH  17  20
HETATM   20  C   UNL     1     -10.868  10.864  66.906  1.00  0.00    -0.249 C  
BRANCH  20  21
HETATM   21  C   UNL     1     -11.211  11.952  65.919  1.00  0.00    -0.373 A  
HETATM   22  C   UNL     1     -12.002  13.045  66.309  1.00  0.00    -0.477 A  
HETATM   23  C   UNL     1     -12.544  13.899  65.348  1.00  0.00    -0.538 A  
HETATM   24  C   UNL     1     -12.270  13.690  63.998  1.00  0.00    -0.443 A  
HETATM   25  C   UNL     1     -11.410  12.667  63.610  1.00  0.00    -0.544 A  
HETATM   26  C   UNL     1     -10.861  11.816  64.567  1.00  0.00    -0.377 A  
ENDBRANCH  20  21
ENDBRANCH  17  20
ENDBRANCH  16  17
ENDBRANCH  15  16
ENDBRANCH  14  15
ENDBRANCH  13  14
ENDBRANCH  12  13
ENDBRANCH  11  12
ENDBRANCH  10  11
ENDBRANCH   9  10
ENDBRANCH   8   9
ENDBRANCH   7   8
ENDBRANCH   6   7
ENDBRANCH   5   6
ENDBRANCH   4   5
ENDBRANCH   3   4
ENDBRANCH   2   3
TORSDOF 17
ENDMDL
MODEL      223
REMARK 921   NORMALIZED FREE ENERGY PREDICTED BY IDOCK:   -3.22 KCAL/MOL
REMARK 922        TOTAL FREE ENERGY PREDICTED BY IDOCK:   -9.26 KCAL/MOL
REMARK 923 INTER-LIGAND FREE ENERGY PREDICTED BY IDOCK:   -7.26 KCAL/MOL
REMARK 924 INTRA-LIGAND FREE ENERGY PREDICTED BY IDOCK:   -2.00 KCAL/MOL
REMARK 927      BINDING AFFINITY PREDICTED BY RF-SCORE:    0.00 PKD
ROOT
HETATM    1  C   UNL     1     -11.593  12.044  63.651  1.00  0.00    -0.578 C  
HETATM    2  C   UNL     1     -10.229  11.435  63.371  1.00  0.00    -0.457 C  
ENDROOT
BRANCH   2   3
HETATM    3  C   UNL     1      -9.838  10.444  64.464  1.00  0.00    -0.405 C  
BRANCH   3   4
HETATM    4  C   UNL     1     -10.186  10.988  65.846  1.00  0.00    -0.309 C  
BRANCH   4   5
HETATM    5  C   UNL     1      -8.920  11.245  66.653  1.00  0.00    -0.180 C  
BRANCH   5   6
HETATM    6  C   UNL     1      -8.981  12.604  67.338  1.00  0.00    -0.190 C  
BRANCH   6   7
HETATM    7  C   UNL     1      -9.650  13.625  66.427  1.00  0.00    -0.280 C  
BRANCH   7   8
HETATM    8  C   UNL     1     -10.420  14.648  67.249  1.00  0.00    -0.266 C  
BRANCH   8   9
HETATM    9  C   UNL     1     -11.614  13.990  67.928  1.00  0.00    -0.377 C  
BRANCH   9  10
HETATM   10  C   UNL     1     -11.367  13.870  69.423  1.00  0.00    -0.311 C  
BRANCH  10  11
HETATM   11  C   UNL     1     -11.895  12.548  69.953  1.00  0.00    -0.373 C  
BRANCH  11  12
HETATM   12  C   UNL     1     -12.757  12.792  71.180  1.00  0.00    -0.355 C  
BRANCH  12  13
HETATM   13  C   UNL     1     -13.032  11.497  71.935  1.00  0.00    -0.453 C  
BRANCH  13  14
HETATM   14  C   UNL     1     -12.840  10.261  71.057  1.00  0.00    -0.490 C  
BRANCH  14  15
HETATM   15  C   UNL     1     -12.273   9.038  71.784  1.00  0.00    -0.434 C  
BRANCH  15  16
HETATM   16  C   UNL     1     -11.625   8.023  70.838  1.00  0.00    -0.269 C  
BRANCH  16  17
HETATM   17  N   UNL     1     -10.103   8.200  70.689  1.00  0.00    -0.193 N  
HETATM   18  C   UNL     1      -9.575   9.201  71.710  1.00  0.00    -0.065 C  
HETATM   19  C   UNL     1      -9.391   6.861  70.878  1.00  0.00    -0.157 C  
BRANCH  17  20
HETATM   20  C   UNL     1      -9.839   8.724  69.234  1.00  0.00    -0.180 C  
BRANCH  20  21
HETATM   21  C   UNL     1      -9.665   7.637  68.203  1.00  0.00    -0.168 A  
HETATM   22  C   UNL     1      -8.409   7.403  67.619  1.00  0.00    -0.118 A  
HETATM   23  C   UNL     1      -8.300   6.598  66.484  1.00  0.00    -0.117 A  
HETATM   24  C   UNL     1      -9.436   5.995  65.948  1.00  0.00    -0.004 A  
HETATM   25  C   UNL     1     -10.668   6.145  66.575  1.00  0.00    -0.207 A  
HETATM   26  C   UNL     1     -10.780   6.941  67.713  1.00  0.00    -0.321 A  
ENDBRANCH  20  21
ENDBRANCH  17  20
ENDBRANCH  16  17
ENDBRANCH  15  16
ENDBRANCH  14  15
ENDBRANCH  13  14
ENDBRANCH  12  13
ENDBRANCH  11  12
ENDBRANCH  10  11
ENDBRANCH   9  10
ENDBRANCH   8   9
ENDBRANCH   7   8
ENDBRANCH   6   7
ENDBRANCH   5   6
ENDBRANCH   4   5
ENDBRANCH   3   4
ENDBRANCH   2   3
TORSDOF 17
ENDMDL
MODEL      224
REMARK 921   NORMALIZED FREE ENERGY PREDICTED BY IDOCK:   -3.22 KCAL/MOL
REMARK 922        TOTAL FREE ENERGY PREDICTED BY IDOCK:   -9.26 KCAL/MOL
REMARK 923 INTER-LIGAND FREE ENERGY PREDICTED BY IDOCK:   -8.17 KCAL/MOL
REMARK 924 INTRA-LIGAND FREE ENERGY PREDICTED BY IDOCK:   -1.09 KCAL/MOL
REMARK 927      BINDING AFFINITY PREDICTED BY RF-SCORE:    0.00 PKD
ROOT
HETATM    1  C   UNL     1      -6.013  17.496  68.999  1.00  0.00    -0.197 C  
HETATM    2  C   UNL     1      -6.677  17.537  67.633  1.00  0.00    -0.175 C  
ENDROOT
BRANCH   2   3
HETATM    3  C   UNL     1      -7.616  18.736  67.517  1.00  0.00    -0.243 C  
BRANCH   3   4
HETATM    4  C   UNL     1      -8.998  18.302  67.037  1.00  0.00    -0.274 C  
BRANCH   4   5
HETATM    5  C   UNL     1     -10.019  18.435  68.160  1.00  0.00    -0.388 C  
BRANCH   5   6
HETATM    6  C   UNL     1     -10.168  17.120  68.914  1.00  0.00    -0.332 C  
BRANCH   6   7
HETATM    7  C   UNL     1     -11.245  16.259  68.268  1.00  0.00    -0.324 C  
BRANCH   7   8
HETATM    8  C   UNL     1     -11.952  15.415  69.317  1.00  0.00    -0.335 C  
BRANCH   8   9
HETATM    9  C   UNL     1     -11.503  15.822  70.715  1.00  0.00    -0.423 C  
BRANCH   9  10
HETATM   10  C   UNL     1     -12.675  15.762  71.681  1.00  0.00    -0.515 C  
BRANCH  10  11
HETATM   11  C   UNL     1     -13.601  14.608  71.335  1.00  0.00    -0.474 C  
BRANCH  11  12
HETATM   12  C   UNL     1     -13.781  13.712  72.548  1.00  0.00    -0.663 C  
BRANCH  12  13
HETATM   13  C   UNL     1     -13.340  12.282  72.256  1.00  0.00    -0.375 C  
BRANCH  13  14
HETATM   14  C   UNL     1     -12.500  12.183  70.983  1.00  0.00    -0.369 C  
BRANCH  14  15
HETATM   15  C   UNL     1     -12.483  10.797  70.331  1.00  0.00    -0.430 C  
BRANCH  15  16
HETATM   16  C   UNL     1     -11.241   9.978  70.694  1.00  0.00    -0.350 C  
BRANCH  16  17
HETATM   17  N   UNL     1     -10.363   9.616  69.482  1.00  0.00    -0.207 N  
HETATM   18  C   UNL     1     -10.942  10.205  68.202  1.00  0.00    -0.259 C  
HETATM   19  C   UNL     1      -8.940  10.137  69.681  1.00  0.00    -0.169 C  
BRANCH  17  20
HETATM   20  C   UNL     1     -10.330   8.050  69.388  1.00  0.00    -0.217 C  
BRANCH  20  21
HETATM   21  C   UNL     1     -10.467   7.343  70.714  1.00  0.00    -0.221 A  
HETATM   22  C   UNL     1     -11.706   6.819  71.118  1.00  0.00    -0.394 A  
HETATM   23  C   UNL     1     -11.900   6.414  72.438  1.00  0.00    -0.255 A  
HETATM   24  C   UNL     1     -10.852   6.496  73.353  1.00  0.00    -0.249 A  
HETATM   25  C   UNL     1      -9.595   6.923  72.938  1.00  0.00    -0.170 A  
HETATM   26  C   UNL     1      -9.394   7.321  71.617  1.00  0.00    -0.160 A  
ENDBRANCH  20  21
ENDBRANCH  17  20
ENDBRANCH  16  17
ENDBRANCH  15  16
ENDBRANCH  14  15
ENDBRANCH  13  14
ENDBRANCH  12  13
ENDBRANCH  11  12
ENDBRANCH  10  11
ENDBRANCH   9  10
ENDBRANCH   8   9
ENDBRANCH   7   8
ENDBRANCH   6   7
ENDBRANCH   5   6
ENDBRANCH   4   5
ENDBRANCH   3   4
ENDBRANCH   2   3
TORSDOF 17
ENDMDL
MODEL      225
REMARK 921   NORMALIZED FREE ENERGY PREDICTED BY IDOCK:   -3.22 KCAL/MOL
REMARK 922        TOTAL FREE ENERGY PREDICTED BY IDOCK:   -9.25 KCAL/MOL
REMARK 923 INTER-LIGAND FREE ENERGY PREDICTED BY IDOCK:   -7.48 KCAL/MOL
REMARK 924 INTRA-LIGAND FREE ENERGY PREDICTED BY IDOCK:   -1.78 KCAL/MOL
REMARK 927      BINDING AFFINITY PREDICTED BY RF-SCORE:    0.00 PKD
ROOT
HETATM    1  C   UNL     1      -8.177   4.305  66.373  1.00  0.00    -0.102 C  
HETATM    2  C   UNL     1      -7.751   5.001  67.654  1.00  0.00    -0.087 C  
ENDROOT
BRANCH   2   3
HETATM    3  C   UNL     1      -8.965   5.400  68.490  1.00  0.00    -0.114 C  
BRANCH   3   4
HETATM    4  C   UNL     1     -10.060   5.999  67.611  1.00  0.00    -0.190 C  
BRANCH   4   5
HETATM    5  C   UNL     1     -11.277   6.365  68.450  1.00  0.00    -0.297 C  
BRANCH   5   6
HETATM    6  C   UNL     1     -11.013   6.109  69.928  1.00  0.00    -0.458 C  
BRANCH   6   7
HETATM    7  C   UNL     1     -11.718   7.155  70.781  1.00  0.00    -0.363 C  
BRANCH   7   8
HETATM    8  C   UNL     1     -10.990   7.344  72.103  1.00  0.00    -0.284 C  
BRANCH   8   9
HETATM    9  C   UNL     1     -10.224   8.661  72.101  1.00  0.00    -0.394 C  
BRANCH   9  10
HETATM   10  C   UNL     1      -8.857   8.472  71.464  1.00  0.00    -0.260 C  
BRANCH  10  11
HETATM   11  C   UNL     1      -8.556   9.597  70.489  1.00  0.00    -0.142 C  
BRANCH  11  12
HETATM   12  C   UNL     1      -9.207   9.305  69.148  1.00  0.00    -0.149 C  
BRANCH  12  13
HETATM   13  C   UNL     1      -9.929  10.529  68.599  1.00  0.00    -0.188 C  
BRANCH  13  14
HETATM   14  C   UNL     1     -10.625  10.245  67.268  1.00  0.00    -0.324 C  
BRANCH  14  15
HETATM   15  C   UNL     1     -10.889  11.481  66.403  1.00  0.00    -0.334 C  
BRANCH  15  16
HETATM   16  C   UNL     1     -10.036  12.688  66.805  1.00  0.00    -0.237 C  
BRANCH  16  17
HETATM   17  N   UNL     1     -10.392  13.978  66.044  1.00  0.00    -0.297 N  
HETATM   18  C   UNL     1      -9.317  15.038  66.247  1.00  0.00    -0.307 C  
HETATM   19  C   UNL     1     -10.543  13.690  64.551  1.00  0.00    -0.411 C  
BRANCH  17  20
HETATM   20  C   UNL     1     -11.764  14.485  66.612  1.00  0.00    -0.371 C  
BRANCH  20  21
HETATM   21  C   UNL     1     -11.744  14.818  68.084  1.00  0.00    -0.353 A  
HETATM   22  C   UNL     1     -11.255  16.058  68.527  1.00  0.00    -0.374 A  
HETATM   23  C   UNL     1     -10.982  16.262  69.880  1.00  0.00    -0.365 A  
HETATM   24  C   UNL     1     -11.228  15.246  70.801  1.00  0.00    -0.353 A  
HETATM   25  C   UNL     1     -11.802  14.049  70.383  1.00  0.00    -0.356 A  
HETATM   26  C   UNL     1     -12.084  13.844  69.034  1.00  0.00    -0.365 A  
ENDBRANCH  20  21
ENDBRANCH  17  20
ENDBRANCH  16  17
ENDBRANCH  15  16
ENDBRANCH  14  15
ENDBRANCH  13  14
ENDBRANCH  12  13
ENDBRANCH  11  12
ENDBRANCH  10  11
ENDBRANCH   9  10
ENDBRANCH   8   9
ENDBRANCH   7   8
ENDBRANCH   6   7
ENDBRANCH   5   6
ENDBRANCH   4   5
ENDBRANCH   3   4
ENDBRANCH   2   3
TORSDOF 17
ENDMDL
MODEL      226
REMARK 921   NORMALIZED FREE ENERGY PREDICTED BY IDOCK:   -3.21 KCAL/MOL
REMARK 922        TOTAL FREE ENERGY PREDICTED BY IDOCK:   -9.25 KCAL/MOL
REMARK 923 INTER-LIGAND FREE ENERGY PREDICTED BY IDOCK:   -7.78 KCAL/MOL
REMARK 924 INTRA-LIGAND FREE ENERGY PREDICTED BY IDOCK:   -1.46 KCAL/MOL
REMARK 927      BINDING AFFINITY PREDICTED BY RF-SCORE:    0.00 PKD
ROOT
HETATM    1  C   UNL     1      -9.088   2.231  67.823  1.00  0.00    -0.216 C  
HETATM    2  C   UNL     1      -8.384   2.976  66.701  1.00  0.00    -0.094 C  
ENDROOT
BRANCH   2   3
HETATM    3  C   UNL     1      -9.290   3.109  65.480  1.00  0.00    -0.117 C  
BRANCH   3   4
HETATM    4  C   UNL     1      -9.978   4.471  65.456  1.00  0.00    -0.230 C  
BRANCH   4   5
HETATM    5  C   UNL     1      -8.963   5.586  65.674  1.00  0.00    -0.152 C  
BRANCH   5   6
HETATM    6  C   UNL     1      -9.441   6.549  66.753  1.00  0.00    -0.188 C  
BRANCH   6   7
HETATM    7  C   UNL     1     -10.890   6.257  67.118  1.00  0.00    -0.460 C  
BRANCH   7   8
HETATM    8  C   UNL     1     -11.177   6.689  68.548  1.00  0.00    -0.227 C  
BRANCH   8   9
HETATM    9  C   UNL     1     -10.501   5.741  69.532  1.00  0.00    -0.364 C  
BRANCH   9  10
HETATM   10  C   UNL     1     -10.969   6.035  70.948  1.00  0.00    -0.355 C  
BRANCH  10  11
HETATM   11  C   UNL     1     -12.083   7.067  70.945  1.00  0.00    -0.403 C  
BRANCH  11  12
HETATM   12  C   UNL     1     -11.851   8.079  72.054  1.00  0.00    -0.376 C  
BRANCH  12  13
HETATM   13  C   UNL     1     -11.313   9.395  71.506  1.00  0.00    -0.464 C  
BRANCH  13  14
HETATM   14  C   UNL     1     -12.375  10.181  70.738  1.00  0.00    -0.422 C  
BRANCH  14  15
HETATM   15  C   UNL     1     -11.911  10.742  69.391  1.00  0.00    -0.370 C  
BRANCH  15  16
HETATM   16  C   UNL     1     -10.973  11.944  69.532  1.00  0.00    -0.028 C  
BRANCH  16  17
HETATM   17  N   UNL     1     -10.885  12.813  68.264  1.00  0.00    -0.238 N  
HETATM   18  C   UNL     1      -9.547  13.538  68.198  1.00  0.00    -0.215 C  
HETATM   19  C   UNL     1     -11.055  11.949  67.015  1.00  0.00    -0.302 C  
BRANCH  17  20
HETATM   20  C   UNL     1     -12.059  13.853  68.335  1.00  0.00    -0.291 C  
BRANCH  20  21
HETATM   21  C   UNL     1     -12.219  14.520  69.679  1.00  0.00    -0.336 A  
HETATM   22  C   UNL     1     -11.475  15.667  69.998  1.00  0.00    -0.352 A  
HETATM   23  C   UNL     1     -11.415  16.121  71.316  1.00  0.00    -0.433 A  
HETATM   24  C   UNL     1     -12.124  15.456  72.314  1.00  0.00    -0.498 A  
HETATM   25  C   UNL     1     -12.938  14.376  71.991  1.00  0.00    -0.432 A  
HETATM   26  C   UNL     1     -13.008  13.924  70.674  1.00  0.00    -0.219 A  
ENDBRANCH  20  21
ENDBRANCH  17  20
ENDBRANCH  16  17
ENDBRANCH  15  16
ENDBRANCH  14  15
ENDBRANCH  13  14
ENDBRANCH  12  13
ENDBRANCH  11  12
ENDBRANCH  10  11
ENDBRANCH   9  10
ENDBRANCH   8   9
ENDBRANCH   7   8
ENDBRANCH   6   7
ENDBRANCH   5   6
ENDBRANCH   4   5
ENDBRANCH   3   4
ENDBRANCH   2   3
TORSDOF 17
ENDMDL
MODEL      227
REMARK 921   NORMALIZED FREE ENERGY PREDICTED BY IDOCK:   -3.21 KCAL/MOL
REMARK 922        TOTAL FREE ENERGY PREDICTED BY IDOCK:   -9.23 KCAL/MOL
REMARK 923 INTER-LIGAND FREE ENERGY PREDICTED BY IDOCK:   -6.63 KCAL/MOL
REMARK 924 INTRA-LIGAND FREE ENERGY PREDICTED BY IDOCK:   -2.60 KCAL/MOL
REMARK 927      BINDING AFFINITY PREDICTED BY RF-SCORE:    0.00 PKD
ROOT
HETATM    1  C   UNL     1     -10.186   5.036  69.589  1.00  0.00    -0.306 C  
HETATM    2  C   UNL     1     -10.970   6.320  69.385  1.00  0.00    -0.440 C  
ENDROOT
BRANCH   2   3
HETATM    3  C   UNL     1     -11.068   6.673  67.903  1.00  0.00    -0.310 C  
BRANCH   3   4
HETATM    4  C   UNL     1     -10.128   5.804  67.072  1.00  0.00    -0.224 C  
BRANCH   4   5
HETATM    5  C   UNL     1      -9.131   6.671  66.314  1.00  0.00    -0.168 C  
BRANCH   5   6
HETATM    6  C   UNL     1      -9.411   8.149  66.547  1.00  0.00    -0.286 C  
BRANCH   6   7
HETATM    7  C   UNL     1      -8.107   8.909  66.747  1.00  0.00    -0.111 C  
BRANCH   7   8
HETATM    8  C   UNL     1      -7.309   8.305  67.893  1.00  0.00    -0.096 C  
BRANCH   8   9
HETATM    9  C   UNL     1      -8.006   8.573  69.221  1.00  0.00    -0.111 C  
BRANCH   9  10
HETATM   10  C   UNL     1      -7.996  10.061  69.528  1.00  0.00    -0.161 C  
BRANCH  10  11
HETATM   11  C   UNL     1      -6.574  10.566  69.705  1.00  0.00    -0.098 C  
BRANCH  11  12
HETATM   12  C   UNL     1      -6.500  12.038  69.334  1.00  0.00    -0.115 C  
BRANCH  12  13
HETATM   13  C   UNL     1      -7.777  12.504  68.645  1.00  0.00    -0.063 C  
BRANCH  13  14
HETATM   14  C   UNL     1      -7.493  13.452  67.479  1.00  0.00    -0.170 C  
BRANCH  14  15
HETATM   15  C   UNL     1      -8.556  14.532  67.256  1.00  0.00    -0.231 C  
BRANCH  15  16
HETATM   16  C   UNL     1      -9.233  14.985  68.552  1.00  0.00    -0.192 C  
BRANCH  16  17
HETATM   17  N   UNL     1     -10.595  15.669  68.332  1.00  0.00    -0.244 N  
HETATM   18  C   UNL     1     -11.281  15.946  69.665  1.00  0.00    -0.331 C  
HETATM   19  C   UNL     1     -10.414  16.983  67.573  1.00  0.00    -0.334 C  
BRANCH  17  20
HETATM   20  C   UNL     1     -11.468  14.691  67.470  1.00  0.00    -0.361 C  
BRANCH  20  21
HETATM   21  C   UNL     1     -11.631  13.313  68.062  1.00  0.00    -0.371 A  
HETATM   22  C   UNL     1     -11.950  13.155  69.421  1.00  0.00    -0.347 A  
HETATM   23  C   UNL     1     -11.833  11.905  70.029  1.00  0.00    -0.407 A  
HETATM   24  C   UNL     1     -11.431  10.801  69.280  1.00  0.00    -0.369 A  
HETATM   25  C   UNL     1     -11.204  10.930  67.913  1.00  0.00    -0.387 A  
HETATM   26  C   UNL     1     -11.329  12.176  67.300  1.00  0.00    -0.398 A  
ENDBRANCH  20  21
ENDBRANCH  17  20
ENDBRANCH  16  17
ENDBRANCH  15  16
ENDBRANCH  14  15
ENDBRANCH  13  14
ENDBRANCH  12  13
ENDBRANCH  11  12
ENDBRANCH  10  11
ENDBRANCH   9  10
ENDBRANCH   8   9
ENDBRANCH   7   8
ENDBRANCH   6   7
ENDBRANCH   5   6
ENDBRANCH   4   5
ENDBRANCH   3   4
ENDBRANCH   2   3
TORSDOF 17
ENDMDL
MODEL      228
REMARK 921   NORMALIZED FREE ENERGY PREDICTED BY IDOCK:   -3.20 KCAL/MOL
REMARK 922        TOTAL FREE ENERGY PREDICTED BY IDOCK:   -9.23 KCAL/MOL
REMARK 923 INTER-LIGAND FREE ENERGY PREDICTED BY IDOCK:   -7.68 KCAL/MOL
REMARK 924 INTRA-LIGAND FREE ENERGY PREDICTED BY IDOCK:   -1.55 KCAL/MOL
REMARK 927      BINDING AFFINITY PREDICTED BY RF-SCORE:    0.00 PKD
ROOT
HETATM    1  C   UNL     1     -12.784  11.120  69.709  1.00  0.00    -0.007 C  
HETATM    2  C   UNL     1     -12.332  10.843  71.133  1.00  0.00    -0.479 C  
ENDROOT
BRANCH   2   3
HETATM    3  C   UNL     1     -13.341   9.962  71.866  1.00  0.00    -0.524 C  
BRANCH   3   4
HETATM    4  C   UNL     1     -12.720   8.622  72.248  1.00  0.00    -0.450 C  
BRANCH   4   5
HETATM    5  C   UNL     1     -11.209   8.660  72.059  1.00  0.00    -0.434 C  
BRANCH   5   6
HETATM    6  C   UNL     1     -10.602   7.279  72.274  1.00  0.00    -0.257 C  
BRANCH   6   7
HETATM    7  C   UNL     1     -11.355   6.238  71.458  1.00  0.00    -0.352 C  
BRANCH   7   8
HETATM    8  C   UNL     1     -10.787   6.153  70.049  1.00  0.00    -0.408 C  
BRANCH   8   9
HETATM    9  C   UNL     1      -9.977   4.874  69.882  1.00  0.00    -0.317 C  
BRANCH   9  10
HETATM   10  C   UNL     1      -9.902   4.488  68.414  1.00  0.00    -0.153 C  
BRANCH  10  11
HETATM   11  C   UNL     1     -10.586   5.531  67.546  1.00  0.00    -0.252 C  
BRANCH  11  12
HETATM   12  C   UNL     1      -9.654   5.962  66.427  1.00  0.00    -0.173 C  
BRANCH  12  13
HETATM   13  C   UNL     1      -9.523   7.478  66.362  1.00  0.00    -0.208 C  
BRANCH  13  14
HETATM   14  C   UNL     1     -10.522   8.187  67.277  1.00  0.00    -0.379 C  
BRANCH  14  15
HETATM   15  C   UNL     1     -10.539   9.713  67.150  1.00  0.00    -0.298 C  
BRANCH  15  16
HETATM   16  C   UNL     1      -9.250  10.280  66.549  1.00  0.00    -0.153 C  
BRANCH  16  17
HETATM   17  N   UNL     1      -8.697  11.499  67.310  1.00  0.00    -0.147 N  
HETATM   18  C   UNL     1      -9.510  11.762  68.571  1.00  0.00    -0.163 C  
HETATM   19  C   UNL     1      -7.234  11.270  67.689  1.00  0.00    -0.092 C  
BRANCH  17  20
HETATM   20  C   UNL     1      -8.791  12.730  66.341  1.00  0.00     0.046 C  
BRANCH  20  21
HETATM   21  C   UNL     1     -10.093  12.830  65.586  1.00  0.00    -0.281 A  
HETATM   22  C   UNL     1     -11.217  13.427  66.179  1.00  0.00    -0.311 A  
HETATM   23  C   UNL     1     -12.479  13.279  65.602  1.00  0.00    -0.510 A  
HETATM   24  C   UNL     1     -12.621  12.567  64.413  1.00  0.00    -0.497 A  
HETATM   25  C   UNL     1     -11.500  12.053  63.769  1.00  0.00    -0.547 A  
HETATM   26  C   UNL     1     -10.237  12.205  64.338  1.00  0.00    -0.333 A  
ENDBRANCH  20  21
ENDBRANCH  17  20
ENDBRANCH  16  17
ENDBRANCH  15  16
ENDBRANCH  14  15
ENDBRANCH  13  14
ENDBRANCH  12  13
ENDBRANCH  11  12
ENDBRANCH  10  11
ENDBRANCH   9  10
ENDBRANCH   8   9
ENDBRANCH   7   8
ENDBRANCH   6   7
ENDBRANCH   5   6
ENDBRANCH   4   5
ENDBRANCH   3   4
ENDBRANCH   2   3
TORSDOF 17
ENDMDL
MODEL      229
REMARK 921   NORMALIZED FREE ENERGY PREDICTED BY IDOCK:   -3.20 KCAL/MOL
REMARK 922        TOTAL FREE ENERGY PREDICTED BY IDOCK:   -9.22 KCAL/MOL
REMARK 923 INTER-LIGAND FREE ENERGY PREDICTED BY IDOCK:   -8.39 KCAL/MOL
REMARK 924 INTRA-LIGAND FREE ENERGY PREDICTED BY IDOCK:   -0.83 KCAL/MOL
REMARK 927      BINDING AFFINITY PREDICTED BY RF-SCORE:    0.00 PKD
ROOT
HETATM    1  C   UNL     1     -10.587   5.511  66.866  1.00  0.00    -0.348 C  
HETATM    2  C   UNL     1     -10.616   5.494  68.385  1.00  0.00    -0.210 C  
ENDROOT
BRANCH   2   3
HETATM    3  C   UNL     1     -10.642   6.913  68.948  1.00  0.00    -0.244 C  
BRANCH   3   4
HETATM    4  C   UNL     1     -11.104   6.914  70.403  1.00  0.00    -0.341 C  
BRANCH   4   5
HETATM    5  C   UNL     1     -10.835   8.268  71.047  1.00  0.00    -0.269 C  
BRANCH   5   6
HETATM    6  C   UNL     1     -11.719   8.470  72.271  1.00  0.00    -0.443 C  
BRANCH   6   7
HETATM    7  C   UNL     1     -12.720   9.589  72.021  1.00  0.00    -0.479 C  
BRANCH   7   8
HETATM    8  C   UNL     1     -12.479  10.226  70.661  1.00  0.00    -0.407 C  
BRANCH   8   9
HETATM    9  C   UNL     1     -12.520  11.745  70.774  1.00  0.00    -0.405 C  
BRANCH   9  10
HETATM   10  C   UNL     1     -13.310  12.158  72.006  1.00  0.00    -0.470 C  
BRANCH  10  11
HETATM   11  C   UNL     1     -13.425  13.670  72.092  1.00  0.00    -0.606 C  
BRANCH  11  12
HETATM   12  C   UNL     1     -12.738  14.308  70.896  1.00  0.00    -0.427 C  
BRANCH  12  13
HETATM   13  C   UNL     1     -12.114  15.649  71.261  1.00  0.00    -0.463 C  
BRANCH  13  14
HETATM   14  C   UNL     1     -10.845  15.936  70.459  1.00  0.00    -0.283 C  
BRANCH  14  15
HETATM   15  C   UNL     1     -11.083  16.544  69.074  1.00  0.00    -0.284 C  
BRANCH  15  16
HETATM   16  C   UNL     1      -9.950  17.471  68.622  1.00  0.00    -0.347 C  
BRANCH  16  17
HETATM   17  N   UNL     1      -9.952  17.757  67.109  1.00  0.00    -0.309 N  
HETATM   18  C   UNL     1     -10.533  16.578  66.338  1.00  0.00    -0.274 C  
HETATM   19  C   UNL     1     -10.769  19.012  66.807  1.00  0.00    -0.364 C  
BRANCH  17  20
HETATM   20  C   UNL     1      -8.461  17.998  66.684  1.00  0.00    -0.262 C  
BRANCH  20  21
HETATM   21  C   UNL     1      -7.443  17.316  67.565  1.00  0.00    -0.186 A  
HETATM   22  C   UNL     1      -7.200  15.939  67.438  1.00  0.00    -0.227 A  
HETATM   23  C   UNL     1      -6.475  15.261  68.418  1.00  0.00    -0.105 A  
HETATM   24  C   UNL     1      -5.958  15.957  69.508  1.00  0.00    -0.145 A  
HETATM   25  C   UNL     1      -6.113  17.337  69.592  1.00  0.00    -0.244 A  
HETATM   26  C   UNL     1      -6.830  18.020  68.611  1.00  0.00    -0.249 A  
ENDBRANCH  20  21
ENDBRANCH  17  20
ENDBRANCH  16  17
ENDBRANCH  15  16
ENDBRANCH  14  15
ENDBRANCH  13  14
ENDBRANCH  12  13
ENDBRANCH  11  12
ENDBRANCH  10  11
ENDBRANCH   9  10
ENDBRANCH   8   9
ENDBRANCH   7   8
ENDBRANCH   6   7
ENDBRANCH   5   6
ENDBRANCH   4   5
ENDBRANCH   3   4
ENDBRANCH   2   3
TORSDOF 17
ENDMDL
MODEL      230
REMARK 921   NORMALIZED FREE ENERGY PREDICTED BY IDOCK:   -3.19 KCAL/MOL
REMARK 922        TOTAL FREE ENERGY PREDICTED BY IDOCK:   -9.20 KCAL/MOL
REMARK 923 INTER-LIGAND FREE ENERGY PREDICTED BY IDOCK:   -7.17 KCAL/MOL
REMARK 924 INTRA-LIGAND FREE ENERGY PREDICTED BY IDOCK:   -2.04 KCAL/MOL
REMARK 927      BINDING AFFINITY PREDICTED BY RF-SCORE:    0.00 PKD
ROOT
HETATM    1  C   UNL     1      -6.834  10.192  70.084  1.00  0.00    -0.146 C  
HETATM    2  C   UNL     1      -7.734   8.977  69.939  1.00  0.00    -0.076 C  
ENDROOT
BRANCH   2   3
HETATM    3  C   UNL     1      -9.174   9.395  69.652  1.00  0.00    -0.195 C  
BRANCH   3   4
HETATM    4  C   UNL     1      -9.997   9.436  70.937  1.00  0.00    -0.353 C  
BRANCH   4   5
HETATM    5  C   UNL     1     -11.476   9.236  70.632  1.00  0.00    -0.327 C  
BRANCH   5   6
HETATM    6  C   UNL     1     -12.266   9.004  71.913  1.00  0.00    -0.451 C  
BRANCH   6   7
HETATM    7  C   UNL     1     -11.645   7.871  72.719  1.00  0.00    -0.387 C  
BRANCH   7   8
HETATM    8  C   UNL     1     -11.894   6.534  72.038  1.00  0.00    -0.374 C  
BRANCH   8   9
HETATM    9  C   UNL     1     -10.608   5.718  71.991  1.00  0.00    -0.276 C  
BRANCH   9  10
HETATM   10  C   UNL     1     -10.516   4.960  70.676  1.00  0.00    -0.163 C  
BRANCH  10  11
HETATM   11  C   UNL     1     -10.020   5.867  69.564  1.00  0.00    -0.238 C  
BRANCH  11  12
HETATM   12  C   UNL     1     -11.195   6.363  68.740  1.00  0.00    -0.358 C  
BRANCH  12  13
HETATM   13  C   UNL     1     -10.873   6.362  67.250  1.00  0.00    -0.463 C  
BRANCH  13  14
HETATM   14  C   UNL     1      -9.373   6.480  66.981  1.00  0.00    -0.155 C  
BRANCH  14  15
HETATM   15  C   UNL     1      -9.004   7.325  65.758  1.00  0.00    -0.052 C  
BRANCH  15  16
HETATM   16  C   UNL     1      -9.208   8.826  65.982  1.00  0.00    -0.222 C  
BRANCH  16  17
HETATM   17  N   UNL     1      -8.033   9.690  65.491  1.00  0.00    -0.112 N  
HETATM   18  C   UNL     1      -6.783   9.423  66.322  1.00  0.00    -0.075 C  
HETATM   19  C   UNL     1      -7.735   9.399  64.021  1.00  0.00    -0.121 C  
BRANCH  17  20
HETATM   20  C   UNL     1      -8.469  11.190  65.642  1.00  0.00    -0.043 C  
BRANCH  20  21
HETATM   21  C   UNL     1      -9.904  11.463  65.264  1.00  0.00    -0.290 A  
HETATM   22  C   UNL     1     -10.326  11.337  63.931  1.00  0.00    -0.439 A  
HETATM   23  C   UNL     1     -11.563  11.845  63.535  1.00  0.00    -0.537 A  
HETATM   24  C   UNL     1     -12.400  12.449  64.471  1.00  0.00    -0.519 A  
HETATM   25  C   UNL     1     -12.030  12.493  65.812  1.00  0.00    -0.482 A  
HETATM   26  C   UNL     1     -10.798  11.979  66.213  1.00  0.00    -0.316 A  
ENDBRANCH  20  21
ENDBRANCH  17  20
ENDBRANCH  16  17
ENDBRANCH  15  16
ENDBRANCH  14  15
ENDBRANCH  13  14
ENDBRANCH  12  13
ENDBRANCH  11  12
ENDBRANCH  10  11
ENDBRANCH   9  10
ENDBRANCH   8   9
ENDBRANCH   7   8
ENDBRANCH   6   7
ENDBRANCH   5   6
ENDBRANCH   4   5
ENDBRANCH   3   4
ENDBRANCH   2   3
TORSDOF 17
ENDMDL
MODEL      231
REMARK 921   NORMALIZED FREE ENERGY PREDICTED BY IDOCK:   -3.19 KCAL/MOL
REMARK 922        TOTAL FREE ENERGY PREDICTED BY IDOCK:   -9.20 KCAL/MOL
REMARK 923 INTER-LIGAND FREE ENERGY PREDICTED BY IDOCK:   -7.62 KCAL/MOL
REMARK 924 INTRA-LIGAND FREE ENERGY PREDICTED BY IDOCK:   -1.59 KCAL/MOL
REMARK 927      BINDING AFFINITY PREDICTED BY RF-SCORE:    0.00 PKD
ROOT
HETATM    1  C   UNL     1      -8.544  10.021  63.092  1.00  0.00    -0.197 C  
HETATM    2  C   UNL     1      -9.352  10.739  64.159  1.00  0.00    -0.286 C  
ENDROOT
BRANCH   2   3
HETATM    3  C   UNL     1     -10.115  11.921  63.566  1.00  0.00    -0.464 C  
BRANCH   3   4
HETATM    4  C   UNL     1     -11.622  11.719  63.697  1.00  0.00    -0.521 C  
BRANCH   4   5
HETATM    5  C   UNL     1     -12.364  13.012  63.382  1.00  0.00    -0.478 C  
BRANCH   5   6
HETATM    6  C   UNL     1     -11.906  14.136  64.302  1.00  0.00    -0.420 C  
BRANCH   6   7
HETATM    7  C   UNL     1     -12.602  14.030  65.652  1.00  0.00    -0.542 C  
BRANCH   7   8
HETATM    8  C   UNL     1     -11.650  14.419  66.773  1.00  0.00    -0.399 C  
BRANCH   8   9
HETATM    9  C   UNL     1     -10.838  13.210  67.220  1.00  0.00    -0.270 C  
BRANCH   9  10
HETATM   10  C   UNL     1      -9.383  13.377  66.811  1.00  0.00    -0.260 C  
BRANCH  10  11
HETATM   11  C   UNL     1      -8.721  14.485  67.611  1.00  0.00    -0.186 C  
BRANCH  11  12
HETATM   12  C   UNL     1      -7.226  14.234  67.702  1.00  0.00    -0.200 C  
BRANCH  12  13
HETATM   13  C   UNL     1      -6.890  12.769  67.445  1.00  0.00    -0.137 C  
BRANCH  13  14
HETATM   14  C   UNL     1      -6.455  12.042  68.718  1.00  0.00    -0.077 C  
BRANCH  14  15
HETATM   15  C   UNL     1      -7.095  10.666  68.923  1.00  0.00    -0.078 C  
BRANCH  15  16
HETATM   16  C   UNL     1      -8.625  10.716  68.957  1.00  0.00    -0.146 C  
BRANCH  16  17
HETATM   17  N   UNL     1      -9.284   9.337  69.146  1.00  0.00    -0.146 N  
HETATM   18  C   UNL     1     -10.660   9.303  68.492  1.00  0.00    -0.183 C  
HETATM   19  C   UNL     1      -8.409   8.241  68.539  1.00  0.00    -0.129 C  
BRANCH  17  20
HETATM   20  C   UNL     1      -9.416   9.096  70.691  1.00  0.00    -0.261 C  
BRANCH  20  21
HETATM   21  C   UNL     1     -10.782   8.635  71.135  1.00  0.00    -0.303 A  
HETATM   22  C   UNL     1     -11.140   7.279  71.048  1.00  0.00    -0.281 A  
HETATM   23  C   UNL     1     -12.472   6.894  71.196  1.00  0.00    -0.398 A  
HETATM   24  C   UNL     1     -13.448   7.851  71.466  1.00  0.00    -0.352 A  
HETATM   25  C   UNL     1     -13.088   9.183  71.648  1.00  0.00    -0.431 A  
HETATM   26  C   UNL     1     -11.757   9.571  71.510  1.00  0.00    -0.472 A  
ENDBRANCH  20  21
ENDBRANCH  17  20
ENDBRANCH  16  17
ENDBRANCH  15  16
ENDBRANCH  14  15
ENDBRANCH  13  14
ENDBRANCH  12  13
ENDBRANCH  11  12
ENDBRANCH  10  11
ENDBRANCH   9  10
ENDBRANCH   8   9
ENDBRANCH   7   8
ENDBRANCH   6   7
ENDBRANCH   5   6
ENDBRANCH   4   5
ENDBRANCH   3   4
ENDBRANCH   2   3
TORSDOF 17
ENDMDL
MODEL      232
REMARK 921   NORMALIZED FREE ENERGY PREDICTED BY IDOCK:   -3.19 KCAL/MOL
REMARK 922        TOTAL FREE ENERGY PREDICTED BY IDOCK:   -9.19 KCAL/MOL
REMARK 923 INTER-LIGAND FREE ENERGY PREDICTED BY IDOCK:   -7.21 KCAL/MOL
REMARK 924 INTRA-LIGAND FREE ENERGY PREDICTED BY IDOCK:   -1.98 KCAL/MOL
REMARK 927      BINDING AFFINITY PREDICTED BY RF-SCORE:    0.00 PKD
ROOT
HETATM    1  C   UNL     1      -9.424   4.233  69.633  1.00  0.00    -0.258 C  
HETATM    2  C   UNL     1      -9.776   4.206  71.110  1.00  0.00    -0.258 C  
ENDROOT
BRANCH   2   3
HETATM    3  C   UNL     1     -10.596   5.433  71.500  1.00  0.00    -0.285 C  
BRANCH   3   4
HETATM    4  C   UNL     1     -11.282   6.042  70.281  1.00  0.00    -0.392 C  
BRANCH   4   5
HETATM    5  C   UNL     1     -11.765   7.453  70.589  1.00  0.00    -0.270 C  
BRANCH   5   6
HETATM    6  C   UNL     1     -11.083   7.999  71.836  1.00  0.00    -0.333 C  
BRANCH   6   7
HETATM    7  C   UNL     1     -10.082   9.083  71.459  1.00  0.00    -0.409 C  
BRANCH   7   8
HETATM    8  C   UNL     1      -8.731   8.469  71.128  1.00  0.00    -0.215 C  
BRANCH   8   9
HETATM    9  C   UNL     1      -7.919   9.417  70.255  1.00  0.00    -0.172 C  
BRANCH   9  10
HETATM   10  C   UNL     1      -8.456   9.410  68.833  1.00  0.00    -0.122 C  
BRANCH  10  11
HETATM   11  C   UNL     1      -8.520   7.994  68.287  1.00  0.00    -0.123 C  
BRANCH  11  12
HETATM   12  C   UNL     1      -9.678   7.869  67.312  1.00  0.00    -0.230 C  
BRANCH  12  13
HETATM   13  C   UNL     1     -10.375   9.207  67.099  1.00  0.00    -0.337 C  
BRANCH  13  14
HETATM   14  C   UNL     1     -10.184   9.741  65.679  1.00  0.00    -0.178 C  
BRANCH  14  15
HETATM   15  C   UNL     1      -9.994  11.258  65.584  1.00  0.00    -0.292 C  
BRANCH  15  16
HETATM   16  C   UNL     1     -11.129  11.959  64.831  1.00  0.00    -0.307 C  
BRANCH  16  17
HETATM   17  N   UNL     1     -11.354  13.417  65.270  1.00  0.00    -0.293 N  
HETATM   18  C   UNL     1     -12.099  14.195  64.192  1.00  0.00    -0.406 C  
HETATM   19  C   UNL     1     -12.154  13.463  66.571  1.00  0.00    -0.388 C  
BRANCH  17  20
HETATM   20  C   UNL     1      -9.939  14.050  65.511  1.00  0.00    -0.276 C  
BRANCH  20  21
HETATM   21  C   UNL     1      -9.945  15.266  66.405  1.00  0.00    -0.291 A  
HETATM   22  C   UNL     1     -10.236  16.535  65.879  1.00  0.00    -0.368 A  
HETATM   23  C   UNL     1      -9.977  17.683  66.630  1.00  0.00    -0.328 A  
HETATM   24  C   UNL     1      -9.462  17.569  67.919  1.00  0.00    -0.277 A  
HETATM   25  C   UNL     1      -9.260  16.313  68.483  1.00  0.00    -0.211 A  
HETATM   26  C   UNL     1      -9.524  15.164  67.739  1.00  0.00    -0.194 A  
ENDBRANCH  20  21
ENDBRANCH  17  20
ENDBRANCH  16  17
ENDBRANCH  15  16
ENDBRANCH  14  15
ENDBRANCH  13  14
ENDBRANCH  12  13
ENDBRANCH  11  12
ENDBRANCH  10  11
ENDBRANCH   9  10
ENDBRANCH   8   9
ENDBRANCH   7   8
ENDBRANCH   6   7
ENDBRANCH   5   6
ENDBRANCH   4   5
ENDBRANCH   3   4
ENDBRANCH   2   3
TORSDOF 17
ENDMDL
MODEL      233
REMARK 921   NORMALIZED FREE ENERGY PREDICTED BY IDOCK:   -3.19 KCAL/MOL
REMARK 922        TOTAL FREE ENERGY PREDICTED BY IDOCK:   -9.19 KCAL/MOL
REMARK 923 INTER-LIGAND FREE ENERGY PREDICTED BY IDOCK:   -7.02 KCAL/MOL
REMARK 924 INTRA-LIGAND FREE ENERGY PREDICTED BY IDOCK:   -2.17 KCAL/MOL
REMARK 927      BINDING AFFINITY PREDICTED BY RF-SCORE:    0.00 PKD
ROOT
HETATM    1  C   UNL     1     -12.306  14.551  64.520  1.00  0.00    -0.434 C  
HETATM    2  C   UNL     1     -11.578  13.238  64.284  1.00  0.00    -0.444 C  
ENDROOT
BRANCH   2   3
HETATM    3  C   UNL     1     -11.518  12.408  65.564  1.00  0.00    -0.404 C  
BRANCH   3   4
HETATM    4  C   UNL     1     -11.876  13.255  66.782  1.00  0.00    -0.448 C  
BRANCH   4   5
HETATM    5  C   UNL     1     -11.193  12.711  68.030  1.00  0.00    -0.308 C  
BRANCH   5   6
HETATM    6  C   UNL     1     -11.891  11.450  68.524  1.00  0.00    -0.364 C  
BRANCH   6   7
HETATM    7  C   UNL     1     -10.874  10.345  68.772  1.00  0.00    -0.269 C  
BRANCH   7   8
HETATM    8  C   UNL     1     -10.524   9.641  67.469  1.00  0.00    -0.321 C  
BRANCH   8   9
HETATM    9  C   UNL     1      -9.058   9.225  67.471  1.00  0.00    -0.133 C  
BRANCH   9  10
HETATM   10  C   UNL     1      -8.266  10.100  68.429  1.00  0.00    -0.112 C  
BRANCH  10  11
HETATM   11  C   UNL     1      -6.993   9.399  68.872  1.00  0.00    -0.063 C  
BRANCH  11  12
HETATM   12  C   UNL     1      -6.520   9.978  70.195  1.00  0.00    -0.107 C  
BRANCH  12  13
HETATM   13  C   UNL     1      -6.199   8.880  71.202  1.00  0.00    -0.057 C  
BRANCH  13  14
HETATM   14  C   UNL     1      -7.323   7.851  71.317  1.00  0.00    -0.068 C  
BRANCH  14  15
HETATM   15  C   UNL     1      -8.575   8.346  72.047  1.00  0.00    -0.254 C  
BRANCH  15  16
HETATM   16  C   UNL     1      -9.869   8.072  71.275  1.00  0.00    -0.163 C  
BRANCH  16  17
HETATM   17  N   UNL     1     -10.998   7.491  72.145  1.00  0.00    -0.237 N  
HETATM   18  C   UNL     1     -10.523   7.288  73.579  1.00  0.00    -0.374 C  
HETATM   19  C   UNL     1     -12.208   8.424  72.140  1.00  0.00    -0.374 C  
BRANCH  17  20
HETATM   20  C   UNL     1     -11.405   6.114  71.513  1.00  0.00    -0.280 C  
BRANCH  20  21
HETATM   21  C   UNL     1     -10.719   5.800  70.207  1.00  0.00    -0.380 A  
HETATM   22  C   UNL     1     -11.194   6.346  69.003  1.00  0.00    -0.402 A  
HETATM   23  C   UNL     1     -10.743   5.851  67.780  1.00  0.00    -0.346 A  
HETATM   24  C   UNL     1      -9.790   4.834  67.750  1.00  0.00    -0.194 A  
HETATM   25  C   UNL     1      -9.245   4.353  68.936  1.00  0.00    -0.199 A  
HETATM   26  C   UNL     1      -9.687   4.851  70.160  1.00  0.00    -0.283 A  
ENDBRANCH  20  21
ENDBRANCH  17  20
ENDBRANCH  16  17
ENDBRANCH  15  16
ENDBRANCH  14  15
ENDBRANCH  13  14
ENDBRANCH  12  13
ENDBRANCH  11  12
ENDBRANCH  10  11
ENDBRANCH   9  10
ENDBRANCH   8   9
ENDBRANCH   7   8
ENDBRANCH   6   7
ENDBRANCH   5   6
ENDBRANCH   4   5
ENDBRANCH   3   4
ENDBRANCH   2   3
TORSDOF 17
ENDMDL
MODEL      234
REMARK 921   NORMALIZED FREE ENERGY PREDICTED BY IDOCK:   -3.18 KCAL/MOL
REMARK 922        TOTAL FREE ENERGY PREDICTED BY IDOCK:   -9.19 KCAL/MOL
REMARK 923 INTER-LIGAND FREE ENERGY PREDICTED BY IDOCK:   -7.20 KCAL/MOL
REMARK 924 INTRA-LIGAND FREE ENERGY PREDICTED BY IDOCK:   -1.98 KCAL/MOL
REMARK 927      BINDING AFFINITY PREDICTED BY RF-SCORE:    0.00 PKD
ROOT
HETATM    1  C   UNL     1      -7.733   9.174  70.076  1.00  0.00    -0.088 C  
HETATM    2  C   UNL     1      -7.613  10.062  68.849  1.00  0.00    -0.086 C  
ENDROOT
BRANCH   2   3
HETATM    3  C   UNL     1      -8.392   9.480  67.673  1.00  0.00    -0.125 C  
BRANCH   3   4
HETATM    4  C   UNL     1      -8.747   8.017  67.923  1.00  0.00    -0.128 C  
BRANCH   4   5
HETATM    5  C   UNL     1     -10.212   7.760  67.598  1.00  0.00    -0.282 C  
BRANCH   5   6
HETATM    6  C   UNL     1     -10.570   6.298  67.833  1.00  0.00    -0.327 C  
BRANCH   6   7
HETATM    7  C   UNL     1     -11.192   6.121  69.212  1.00  0.00    -0.438 C  
BRANCH   7   8
HETATM    8  C   UNL     1     -10.234   5.386  70.137  1.00  0.00    -0.342 C  
BRANCH   8   9
HETATM    9  C   UNL     1     -10.691   5.521  71.585  1.00  0.00    -0.296 C  
BRANCH   9  10
HETATM   10  C   UNL     1     -11.837   6.515  71.683  1.00  0.00    -0.384 C  
BRANCH  10  11
HETATM   11  C   UNL     1     -11.446   7.706  72.541  1.00  0.00    -0.405 C  
BRANCH  11  12
HETATM   12  C   UNL     1     -11.991   8.984  71.927  1.00  0.00    -0.445 C  
BRANCH  12  13
HETATM   13  C   UNL     1     -11.012   9.584  70.924  1.00  0.00    -0.407 C  
BRANCH  13  14
HETATM   14  C   UNL     1     -11.721  10.355  69.811  1.00  0.00    -0.310 C  
BRANCH  14  15
HETATM   15  C   UNL     1     -10.906  11.501  69.204  1.00  0.00    -0.241 C  
BRANCH  15  16
HETATM   16  C   UNL     1     -11.676  12.285  68.137  1.00  0.00    -0.349 C  
BRANCH  16  17
HETATM   17  N   UNL     1     -10.969  13.577  67.689  1.00  0.00    -0.259 N  
HETATM   18  C   UNL     1     -11.732  14.242  66.550  1.00  0.00    -0.394 C  
HETATM   19  C   UNL     1     -10.855  14.554  68.859  1.00  0.00    -0.253 C  
BRANCH  17  20
HETATM   20  C   UNL     1      -9.530  13.175  67.211  1.00  0.00    -0.225 C  
BRANCH  20  21
HETATM   21  C   UNL     1      -8.553  14.322  67.140  1.00  0.00    -0.234 A  
HETATM   22  C   UNL     1      -7.397  14.325  67.938  1.00  0.00    -0.163 A  
HETATM   23  C   UNL     1      -6.643  15.490  68.080  1.00  0.00    -0.156 A  
HETATM   24  C   UNL     1      -7.016  16.647  67.399  1.00  0.00    -0.190 A  
HETATM   25  C   UNL     1      -8.105  16.627  66.533  1.00  0.00    -0.337 A  
HETATM   26  C   UNL     1      -8.856  15.463  66.382  1.00  0.00    -0.340 A  
ENDBRANCH  20  21
ENDBRANCH  17  20
ENDBRANCH  16  17
ENDBRANCH  15  16
ENDBRANCH  14  15
ENDBRANCH  13  14
ENDBRANCH  12  13
ENDBRANCH  11  12
ENDBRANCH  10  11
ENDBRANCH   9  10
ENDBRANCH   8   9
ENDBRANCH   7   8
ENDBRANCH   6   7
ENDBRANCH   5   6
ENDBRANCH   4   5
ENDBRANCH   3   4
ENDBRANCH   2   3
TORSDOF 17
ENDMDL
MODEL      235
REMARK 921   NORMALIZED FREE ENERGY PREDICTED BY IDOCK:   -3.17 KCAL/MOL
REMARK 922        TOTAL FREE ENERGY PREDICTED BY IDOCK:   -9.16 KCAL/MOL
REMARK 923 INTER-LIGAND FREE ENERGY PREDICTED BY IDOCK:   -7.47 KCAL/MOL
REMARK 924 INTRA-LIGAND FREE ENERGY PREDICTED BY IDOCK:   -1.69 KCAL/MOL
REMARK 927      BINDING AFFINITY PREDICTED BY RF-SCORE:    0.00 PKD
ROOT
HETATM    1  C   UNL     1     -10.619  12.300  66.117  1.00  0.00    -0.281 C  
HETATM    2  C   UNL     1     -11.851  12.879  66.792  1.00  0.00    -0.452 C  
ENDROOT
BRANCH   2   3
HETATM    3  C   UNL     1     -11.518  13.396  68.189  1.00  0.00    -0.339 C  
BRANCH   3   4
HETATM    4  C   UNL     1     -11.232  14.895  68.162  1.00  0.00    -0.310 C  
BRANCH   4   5
HETATM    5  C   UNL     1     -11.845  15.578  69.379  1.00  0.00    -0.392 C  
BRANCH   5   6
HETATM    6  C   UNL     1     -10.853  15.616  70.534  1.00  0.00    -0.347 C  
BRANCH   6   7
HETATM    7  C   UNL     1     -11.565  15.987  71.828  1.00  0.00    -0.534 C  
BRANCH   7   8
HETATM    8  C   UNL     1     -13.000  15.484  71.811  1.00  0.00    -0.528 C  
BRANCH   8   9
HETATM    9  C   UNL     1     -13.172  14.342  72.804  1.00  0.00    -0.614 C  
BRANCH   9  10
HETATM   10  C   UNL     1     -13.724  13.113  72.101  1.00  0.00    -0.588 C  
BRANCH  10  11
HETATM   11  C   UNL     1     -12.623  12.376  71.358  1.00  0.00    -0.299 C  
BRANCH  11  12
HETATM   12  C   UNL     1     -13.011  10.918  71.176  1.00  0.00    -0.449 C  
BRANCH  12  13
HETATM   13  C   UNL     1     -11.783  10.017  71.116  1.00  0.00    -0.472 C  
BRANCH  13  14
HETATM   14  C   UNL     1     -10.807  10.438  70.017  1.00  0.00    -0.348 C  
BRANCH  14  15
HETATM   15  C   UNL     1     -10.661   9.435  68.869  1.00  0.00    -0.231 C  
BRANCH  15  16
HETATM   16  C   UNL     1     -10.711   7.977  69.335  1.00  0.00    -0.159 C  
BRANCH  16  17
HETATM   17  N   UNL     1     -10.181   6.976  68.292  1.00  0.00    -0.174 N  
HETATM   18  C   UNL     1     -10.537   5.548  68.687  1.00  0.00    -0.145 C  
HETATM   19  C   UNL     1     -10.769   7.282  66.915  1.00  0.00    -0.276 C  
BRANCH  17  20
HETATM   20  C   UNL     1      -8.623   7.148  68.237  1.00  0.00    -0.122 C  
BRANCH  20  21
HETATM   21  C   UNL     1      -7.918   6.863  69.541  1.00  0.00    -0.125 A  
HETATM   22  C   UNL     1      -7.727   7.885  70.485  1.00  0.00    -0.086 A  
HETATM   23  C   UNL     1      -6.849   7.700  71.553  1.00  0.00    -0.049 A  
HETATM   24  C   UNL     1      -6.186   6.484  71.706  1.00  0.00    -0.042 A  
HETATM   25  C   UNL     1      -6.441   5.434  70.829  1.00  0.00    -0.035 A  
HETATM   26  C   UNL     1      -7.324   5.613  69.765  1.00  0.00    -0.070 A  
ENDBRANCH  20  21
ENDBRANCH  17  20
ENDBRANCH  16  17
ENDBRANCH  15  16
ENDBRANCH  14  15
ENDBRANCH  13  14
ENDBRANCH  12  13
ENDBRANCH  11  12
ENDBRANCH  10  11
ENDBRANCH   9  10
ENDBRANCH   8   9
ENDBRANCH   7   8
ENDBRANCH   6   7
ENDBRANCH   5   6
ENDBRANCH   4   5
ENDBRANCH   3   4
ENDBRANCH   2   3
TORSDOF 17
ENDMDL
MODEL      236
REMARK 921   NORMALIZED FREE ENERGY PREDICTED BY IDOCK:   -3.17 KCAL/MOL
REMARK 922        TOTAL FREE ENERGY PREDICTED BY IDOCK:   -9.15 KCAL/MOL
REMARK 923 INTER-LIGAND FREE ENERGY PREDICTED BY IDOCK:   -6.84 KCAL/MOL
REMARK 924 INTRA-LIGAND FREE ENERGY PREDICTED BY IDOCK:   -2.31 KCAL/MOL
REMARK 927      BINDING AFFINITY PREDICTED BY RF-SCORE:    0.00 PKD
ROOT
HETATM    1  C   UNL     1      -7.596   6.925  70.004  1.00  0.00    -0.099 C  
HETATM    2  C   UNL     1      -7.735   7.775  68.753  1.00  0.00    -0.113 C  
ENDROOT
BRANCH   2   3
HETATM    3  C   UNL     1      -7.610   6.920  67.494  1.00  0.00    -0.109 C  
BRANCH   3   4
HETATM    4  C   UNL     1      -6.871   7.675  66.393  1.00  0.00    -0.062 C  
BRANCH   4   5
HETATM    5  C   UNL     1      -7.847   8.149  65.323  1.00  0.00    -0.115 C  
BRANCH   5   6
HETATM    6  C   UNL     1      -7.446   9.520  64.794  1.00  0.00    -0.112 C  
BRANCH   6   7
HETATM    7  C   UNL     1      -8.507  10.553  65.147  1.00  0.00    -0.170 C  
BRANCH   7   8
HETATM    8  C   UNL     1      -9.840   9.875  65.422  1.00  0.00    -0.384 C  
BRANCH   8   9
HETATM    9  C   UNL     1     -10.755  10.807  66.207  1.00  0.00    -0.205 C  
BRANCH   9  10
HETATM   10  C   UNL     1     -10.374  10.798  67.679  1.00  0.00    -0.236 C  
BRANCH  10  11
HETATM   11  C   UNL     1     -11.609  10.893  68.557  1.00  0.00    -0.360 C  
BRANCH  11  12
HETATM   12  C   UNL     1     -11.316  11.764  69.766  1.00  0.00    -0.245 C  
BRANCH  12  13
HETATM   13  C   UNL     1     -12.583  12.421  70.302  1.00  0.00    -0.021 C  
BRANCH  13  14
HETATM   14  C   UNL     1     -12.299  13.761  70.979  1.00  0.00    -0.452 C  
BRANCH  14  15
HETATM   15  C   UNL     1     -12.078  14.933  70.019  1.00  0.00    -0.387 C  
BRANCH  15  16
HETATM   16  C   UNL     1     -10.723  15.620  70.212  1.00  0.00    -0.338 C  
BRANCH  16  17
HETATM   17  N   UNL     1      -9.947  15.838  68.900  1.00  0.00    -0.212 N  
HETATM   18  C   UNL     1     -10.648  16.869  68.024  1.00  0.00    -0.367 C  
HETATM   19  C   UNL     1      -8.524  16.309  69.196  1.00  0.00    -0.218 C  
BRANCH  17  20
HETATM   20  C   UNL     1      -9.889  14.454  68.163  1.00  0.00    -0.223 C  
BRANCH  20  21
HETATM   21  C   UNL     1     -10.700  14.390  66.893  1.00  0.00    -0.292 A  
HETATM   22  C   UNL     1     -12.079  14.125  66.939  1.00  0.00    -0.466 A  
HETATM   23  C   UNL     1     -12.771  13.797  65.774  1.00  0.00    -0.494 A  
HETATM   24  C   UNL     1     -12.102  13.767  64.552  1.00  0.00    -0.463 A  
HETATM   25  C   UNL     1     -10.758  14.120  64.483  1.00  0.00    -0.323 A  
HETATM   26  C   UNL     1     -10.064  14.456  65.644  1.00  0.00    -0.377 A  
ENDBRANCH  20  21
ENDBRANCH  17  20
ENDBRANCH  16  17
ENDBRANCH  15  16
ENDBRANCH  14  15
ENDBRANCH  13  14
ENDBRANCH  12  13
ENDBRANCH  11  12
ENDBRANCH  10  11
ENDBRANCH   9  10
ENDBRANCH   8   9
ENDBRANCH   7   8
ENDBRANCH   6   7
ENDBRANCH   5   6
ENDBRANCH   4   5
ENDBRANCH   3   4
ENDBRANCH   2   3
TORSDOF 17
ENDMDL
MODEL      237
REMARK 921   NORMALIZED FREE ENERGY PREDICTED BY IDOCK:   -3.16 KCAL/MOL
REMARK 922        TOTAL FREE ENERGY PREDICTED BY IDOCK:   -9.15 KCAL/MOL
REMARK 923 INTER-LIGAND FREE ENERGY PREDICTED BY IDOCK:   -8.10 KCAL/MOL
REMARK 924 INTRA-LIGAND FREE ENERGY PREDICTED BY IDOCK:   -1.05 KCAL/MOL
REMARK 927      BINDING AFFINITY PREDICTED BY RF-SCORE:    0.00 PKD
ROOT
HETATM    1  C   UNL     1     -10.995   9.538  71.225  1.00  0.00    -0.440 C  
HETATM    2  C   UNL     1     -11.918   8.374  71.544  1.00  0.00    -0.344 C  
ENDROOT
BRANCH   2   3
HETATM    3  C   UNL     1     -11.370   7.542  72.700  1.00  0.00    -0.395 C  
BRANCH   3   4
HETATM    4  C   UNL     1     -11.357   6.057  72.346  1.00  0.00    -0.349 C  
BRANCH   4   5
HETATM    5  C   UNL     1     -10.113   5.711  71.538  1.00  0.00    -0.253 C  
BRANCH   5   6
HETATM    6  C   UNL     1     -10.489   5.262  70.132  1.00  0.00    -0.338 C  
BRANCH   6   7
HETATM    7  C   UNL     1      -9.431   5.710  69.133  1.00  0.00    -0.161 C  
BRANCH   7   8
HETATM    8  C   UNL     1      -9.077   7.173  69.354  1.00  0.00    -0.145 C  
BRANCH   8   9
HETATM    9  C   UNL     1      -9.534   8.012  68.166  1.00  0.00    -0.152 C  
BRANCH   9  10
HETATM   10  C   UNL     1      -8.393   8.186  67.177  1.00  0.00    -0.120 C  
BRANCH  10  11
HETATM   11  C   UNL     1      -8.506   9.516  66.452  1.00  0.00    -0.131 C  
BRANCH  11  12
HETATM   12  C   UNL     1      -9.700   9.492  65.514  1.00  0.00    -0.344 C  
BRANCH  12  13
HETATM   13  C   UNL     1      -9.552  10.517  64.396  1.00  0.00    -0.357 C  
BRANCH  13  14
HETATM   14  C   UNL     1     -10.748  11.466  64.318  1.00  0.00    -0.420 C  
BRANCH  14  15
HETATM   15  C   UNL     1     -10.448  12.913  64.721  1.00  0.00    -0.371 C  
BRANCH  15  16
HETATM   16  C   UNL     1     -10.024  13.052  66.186  1.00  0.00    -0.278 C  
BRANCH  16  17
HETATM   17  N   UNL     1     -11.199  13.296  67.149  1.00  0.00    -0.289 N  
HETATM   18  C   UNL     1     -12.347  13.997  66.432  1.00  0.00    -0.431 C  
HETATM   19  C   UNL     1     -11.697  11.972  67.728  1.00  0.00    -0.309 C  
BRANCH  17  20
HETATM   20  C   UNL     1     -10.661  14.199  68.314  1.00  0.00    -0.249 C  
BRANCH  20  21
HETATM   21  C   UNL     1     -11.547  14.234  69.535  1.00  0.00    -0.353 A  
HETATM   22  C   UNL     1     -11.794  13.062  70.270  1.00  0.00    -0.294 A  
HETATM   23  C   UNL     1     -12.814  13.032  71.222  1.00  0.00    -0.370 A  
HETATM   24  C   UNL     1     -13.568  14.177  71.471  1.00  0.00    -0.405 A  
HETATM   25  C   UNL     1     -13.268  15.367  70.816  1.00  0.00    -0.440 A  
HETATM   26  C   UNL     1     -12.244  15.404  69.870  1.00  0.00    -0.363 A  
ENDBRANCH  20  21
ENDBRANCH  17  20
ENDBRANCH  16  17
ENDBRANCH  15  16
ENDBRANCH  14  15
ENDBRANCH  13  14
ENDBRANCH  12  13
ENDBRANCH  11  12
ENDBRANCH  10  11
ENDBRANCH   9  10
ENDBRANCH   8   9
ENDBRANCH   7   8
ENDBRANCH   6   7
ENDBRANCH   5   6
ENDBRANCH   4   5
ENDBRANCH   3   4
ENDBRANCH   2   3
TORSDOF 17
ENDMDL
MODEL      238
REMARK 921   NORMALIZED FREE ENERGY PREDICTED BY IDOCK:   -3.16 KCAL/MOL
REMARK 922        TOTAL FREE ENERGY PREDICTED BY IDOCK:   -9.14 KCAL/MOL
REMARK 923 INTER-LIGAND FREE ENERGY PREDICTED BY IDOCK:   -7.06 KCAL/MOL
REMARK 924 INTRA-LIGAND FREE ENERGY PREDICTED BY IDOCK:   -2.08 KCAL/MOL
REMARK 927      BINDING AFFINITY PREDICTED BY RF-SCORE:    0.00 PKD
ROOT
HETATM    1  C   UNL     1     -11.794  15.609  72.068  1.00  0.00    -0.548 C  
HETATM    2  C   UNL     1     -11.645  16.031  70.617  1.00  0.00    -0.409 C  
ENDROOT
BRANCH   2   3
HETATM    3  C   UNL     1     -10.334  15.517  70.029  1.00  0.00    -0.315 C  
BRANCH   3   4
HETATM    4  C   UNL     1     -10.562  14.870  68.666  1.00  0.00    -0.251 C  
BRANCH   4   5
HETATM    5  C   UNL     1     -11.871  14.091  68.657  1.00  0.00    -0.396 C  
BRANCH   5   6
HETATM    6  C   UNL     1     -11.636  12.633  69.030  1.00  0.00    -0.367 C  
BRANCH   6   7
HETATM    7  C   UNL     1     -12.136  12.362  70.442  1.00  0.00    -0.381 C  
BRANCH   7   8
HETATM    8  C   UNL     1     -12.400  10.877  70.638  1.00  0.00    -0.470 C  
BRANCH   8   9
HETATM    9  C   UNL     1     -13.145  10.640  71.946  1.00  0.00    -0.563 C  
BRANCH   9  10
HETATM   10  C   UNL     1     -13.280   9.149  72.210  1.00  0.00    -0.528 C  
BRANCH  10  11
HETATM   11  C   UNL     1     -12.348   8.355  71.311  1.00  0.00    -0.289 C  
BRANCH  11  12
HETATM   12  C   UNL     1     -11.749   7.194  72.085  1.00  0.00    -0.322 C  
BRANCH  12  13
HETATM   13  C   UNL     1     -10.794   7.680  73.169  1.00  0.00    -0.440 C  
BRANCH  13  14
HETATM   14  C   UNL     1     -10.220   6.529  73.995  1.00  0.00    -0.374 C  
BRANCH  14  15
HETATM   15  C   UNL     1      -9.647   5.371  73.173  1.00  0.00    -0.156 C  
BRANCH  15  16
HETATM   16  C   UNL     1      -8.122   5.426  73.040  1.00  0.00    -0.105 C  
BRANCH  16  17
HETATM   17  N   UNL     1      -7.639   5.942  71.673  1.00  0.00    -0.098 N  
HETATM   18  C   UNL     1      -6.424   5.153  71.197  1.00  0.00    -0.031 C  
HETATM   19  C   UNL     1      -8.755   5.826  70.635  1.00  0.00    -0.136 C  
BRANCH  17  20
HETATM   20  C   UNL     1      -7.261   7.454  71.857  1.00  0.00    -0.067 C  
BRANCH  20  21
HETATM   21  C   UNL     1      -7.629   8.335  70.689  1.00  0.00    -0.071 A  
HETATM   22  C   UNL     1      -8.795   9.117  70.727  1.00  0.00    -0.291 A  
HETATM   23  C   UNL     1      -9.280   9.713  69.563  1.00  0.00    -0.214 A  
HETATM   24  C   UNL     1      -8.586   9.563  68.364  1.00  0.00    -0.120 A  
HETATM   25  C   UNL     1      -7.380   8.870  68.337  1.00  0.00    -0.082 A  
HETATM   26  C   UNL     1      -6.888   8.279  69.500  1.00  0.00    -0.042 A  
ENDBRANCH  20  21
ENDBRANCH  17  20
ENDBRANCH  16  17
ENDBRANCH  15  16
ENDBRANCH  14  15
ENDBRANCH  13  14
ENDBRANCH  12  13
ENDBRANCH  11  12
ENDBRANCH  10  11
ENDBRANCH   9  10
ENDBRANCH   8   9
ENDBRANCH   7   8
ENDBRANCH   6   7
ENDBRANCH   5   6
ENDBRANCH   4   5
ENDBRANCH   3   4
ENDBRANCH   2   3
TORSDOF 17
ENDMDL
MODEL      239
REMARK 921   NORMALIZED FREE ENERGY PREDICTED BY IDOCK:   -3.16 KCAL/MOL
REMARK 922        TOTAL FREE ENERGY PREDICTED BY IDOCK:   -9.14 KCAL/MOL
REMARK 923 INTER-LIGAND FREE ENERGY PREDICTED BY IDOCK:   -7.48 KCAL/MOL
REMARK 924 INTRA-LIGAND FREE ENERGY PREDICTED BY IDOCK:   -1.66 KCAL/MOL
REMARK 927      BINDING AFFINITY PREDICTED BY RF-SCORE:    0.00 PKD
ROOT
HETATM    1  C   UNL     1      -9.290   5.219  66.143  1.00  0.00    -0.164 C  
HETATM    2  C   UNL     1      -8.982   6.642  66.577  1.00  0.00    -0.155 C  
ENDROOT
BRANCH   2   3
HETATM    3  C   UNL     1     -10.218   7.314  67.167  1.00  0.00    -0.339 C  
BRANCH   3   4
HETATM    4  C   UNL     1     -11.099   6.299  67.890  1.00  0.00    -0.360 C  
BRANCH   4   5
HETATM    5  C   UNL     1     -10.638   6.121  69.331  1.00  0.00    -0.349 C  
BRANCH   5   6
HETATM    6  C   UNL     1     -11.748   6.498  70.304  1.00  0.00    -0.430 C  
BRANCH   6   7
HETATM    7  C   UNL     1     -11.295   7.638  71.206  1.00  0.00    -0.286 C  
BRANCH   7   8
HETATM    8  C   UNL     1     -12.284   7.843  72.343  1.00  0.00    -0.295 C  
BRANCH   8   9
HETATM    9  C   UNL     1     -12.742   9.295  72.391  1.00  0.00    -0.383 C  
BRANCH   9  10
HETATM   10  C   UNL     1     -12.132  10.075  71.237  1.00  0.00    -0.487 C  
BRANCH  10  11
HETATM   11  C   UNL     1     -13.016  11.249  70.853  1.00  0.00    -0.237 C  
BRANCH  11  12
HETATM   12  C   UNL     1     -13.287  12.112  72.073  1.00  0.00    -0.470 C  
BRANCH  12  13
HETATM   13  C   UNL     1     -12.489  13.409  72.028  1.00  0.00     0.007 C  
BRANCH  13  14
HETATM   14  C   UNL     1     -13.324  14.587  71.528  1.00  0.00    -0.435 C  
BRANCH  14  15
HETATM   15  C   UNL     1     -12.584  15.550  70.594  1.00  0.00    -0.493 C  
BRANCH  15  16
HETATM   16  C   UNL     1     -11.153  15.102  70.282  1.00  0.00    -0.262 C  
BRANCH  16  17
HETATM   17  N   UNL     1     -10.619  15.632  68.939  1.00  0.00    -0.218 N  
HETATM   18  C   UNL     1     -11.735  15.698  67.903  1.00  0.00    -0.090 C  
HETATM   19  C   UNL     1     -10.012  17.022  69.119  1.00  0.00    -0.229 C  
BRANCH  17  20
HETATM   20  C   UNL     1      -9.501  14.639  68.464  1.00  0.00    -0.216 C  
BRANCH  20  21
HETATM   21  C   UNL     1     -10.020  13.387  67.800  1.00  0.00    -0.233 A  
HETATM   22  C   UNL     1     -10.521  12.326  68.572  1.00  0.00    -0.248 A  
HETATM   23  C   UNL     1     -10.743  11.078  67.991  1.00  0.00    -0.260 A  
HETATM   24  C   UNL     1     -10.501  10.890  66.632  1.00  0.00    -0.307 A  
HETATM   25  C   UNL     1     -10.095  11.960  65.840  1.00  0.00    -0.265 A  
HETATM   26  C   UNL     1      -9.880  13.211  66.416  1.00  0.00    -0.279 A  
ENDBRANCH  20  21
ENDBRANCH  17  20
ENDBRANCH  16  17
ENDBRANCH  15  16
ENDBRANCH  14  15
ENDBRANCH  13  14
ENDBRANCH  12  13
ENDBRANCH  11  12
ENDBRANCH  10  11
ENDBRANCH   9  10
ENDBRANCH   8   9
ENDBRANCH   7   8
ENDBRANCH   6   7
ENDBRANCH   5   6
ENDBRANCH   4   5
ENDBRANCH   3   4
ENDBRANCH   2   3
TORSDOF 17
ENDMDL
MODEL      240
REMARK 921   NORMALIZED FREE ENERGY PREDICTED BY IDOCK:   -3.15 KCAL/MOL
REMARK 922        TOTAL FREE ENERGY PREDICTED BY IDOCK:   -9.12 KCAL/MOL
REMARK 923 INTER-LIGAND FREE ENERGY PREDICTED BY IDOCK:   -7.23 KCAL/MOL
REMARK 924 INTRA-LIGAND FREE ENERGY PREDICTED BY IDOCK:   -1.89 KCAL/MOL
REMARK 927      BINDING AFFINITY PREDICTED BY RF-SCORE:    0.00 PKD
ROOT
HETATM    1  C   UNL     1      -8.210  18.083  68.382  1.00  0.00    -0.305 C  
HETATM    2  C   UNL     1      -9.266  18.870  67.625  1.00  0.00    -0.318 C  
ENDROOT
BRANCH   2   3
HETATM    3  C   UNL     1     -10.543  18.051  67.456  1.00  0.00    -0.402 C  
BRANCH   3   4
HETATM    4  C   UNL     1     -10.343  16.620  67.948  1.00  0.00    -0.310 C  
BRANCH   4   5
HETATM    5  C   UNL     1     -10.976  15.629  66.980  1.00  0.00    -0.261 C  
BRANCH   5   6
HETATM    6  C   UNL     1     -10.904  16.148  65.549  1.00  0.00    -0.280 C  
BRANCH   6   7
HETATM    7  C   UNL     1     -11.339  15.064  64.572  1.00  0.00    -0.294 C  
BRANCH   7   8
HETATM    8  C   UNL     1     -12.574  14.344  65.090  1.00  0.00    -0.323 C  
BRANCH   8   9
HETATM    9  C   UNL     1     -12.435  12.841  64.882  1.00  0.00    -0.563 C  
BRANCH   9  10
HETATM   10  C   UNL     1     -11.408  12.554  63.799  1.00  0.00    -0.534 C  
BRANCH  10  11
HETATM   11  C   UNL     1     -10.543  11.364  64.177  1.00  0.00    -0.430 C  
BRANCH  11  12
HETATM   12  C   UNL     1     -10.294  11.363  65.675  1.00  0.00    -0.307 C  
BRANCH  12  13
HETATM   13  C   UNL     1      -9.311  12.456  66.079  1.00  0.00    -0.116 C  
BRANCH  13  14
HETATM   14  C   UNL     1      -8.185  11.926  66.966  1.00  0.00    -0.170 C  
BRANCH  14  15
HETATM   15  C   UNL     1      -7.909  10.426  66.827  1.00  0.00    -0.117 C  
BRANCH  15  16
HETATM   16  C   UNL     1      -7.553   9.755  68.156  1.00  0.00    -0.082 C  
BRANCH  16  17
HETATM   17  N   UNL     1      -8.059   8.306  68.273  1.00  0.00    -0.122 N  
HETATM   18  C   UNL     1      -7.433   7.428  67.196  1.00  0.00    -0.106 C  
HETATM   19  C   UNL     1      -7.724   7.734  69.650  1.00  0.00    -0.101 C  
BRANCH  17  20
HETATM   20  C   UNL     1      -9.617   8.346  68.097  1.00  0.00    -0.143 C  
BRANCH  20  21
HETATM   21  C   UNL     1     -10.366   8.882  69.292  1.00  0.00    -0.221 A  
HETATM   22  C   UNL     1     -10.935   8.004  70.228  1.00  0.00    -0.242 A  
HETATM   23  C   UNL     1     -11.849   8.478  71.171  1.00  0.00    -0.322 A  
HETATM   24  C   UNL     1     -12.172   9.833  71.207  1.00  0.00    -0.465 A  
HETATM   25  C   UNL     1     -11.541  10.724  70.345  1.00  0.00    -0.431 A  
HETATM   26  C   UNL     1     -10.622  10.256  69.407  1.00  0.00    -0.262 A  
ENDBRANCH  20  21
ENDBRANCH  17  20
ENDBRANCH  16  17
ENDBRANCH  15  16
ENDBRANCH  14  15
ENDBRANCH  13  14
ENDBRANCH  12  13
ENDBRANCH  11  12
ENDBRANCH  10  11
ENDBRANCH   9  10
ENDBRANCH   8   9
ENDBRANCH   7   8
ENDBRANCH   6   7
ENDBRANCH   5   6
ENDBRANCH   4   5
ENDBRANCH   3   4
ENDBRANCH   2   3
TORSDOF 17
ENDMDL
MODEL      241
REMARK 921   NORMALIZED FREE ENERGY PREDICTED BY IDOCK:   -3.14 KCAL/MOL
REMARK 922        TOTAL FREE ENERGY PREDICTED BY IDOCK:   -9.09 KCAL/MOL
REMARK 923 INTER-LIGAND FREE ENERGY PREDICTED BY IDOCK:   -5.83 KCAL/MOL
REMARK 924 INTRA-LIGAND FREE ENERGY PREDICTED BY IDOCK:   -3.26 KCAL/MOL
REMARK 927      BINDING AFFINITY PREDICTED BY RF-SCORE:    0.00 PKD
ROOT
HETATM    1  C   UNL     1      -6.288   6.123  68.054  1.00  0.00    -0.036 C  
HETATM    2  C   UNL     1      -6.506   7.272  69.022  1.00  0.00    -0.036 C  
ENDROOT
BRANCH   2   3
HETATM    3  C   UNL     1      -6.935   8.537  68.283  1.00  0.00    -0.070 C  
BRANCH   3   4
HETATM    4  C   UNL     1      -6.876   8.333  66.772  1.00  0.00    -0.069 C  
BRANCH   4   5
HETATM    5  C   UNL     1      -8.214   8.682  66.133  1.00  0.00    -0.121 C  
BRANCH   5   6
HETATM    6  C   UNL     1      -8.352   8.018  64.769  1.00  0.00    -0.086 C  
BRANCH   6   7
HETATM    7  C   UNL     1      -7.285   6.946  64.593  1.00  0.00    -0.076 C  
BRANCH   7   8
HETATM    8  C   UNL     1      -7.888   5.687  63.989  1.00  0.00    -0.112 C  
BRANCH   8   9
HETATM    9  C   UNL     1      -7.691   4.504  64.928  1.00  0.00    -0.081 C  
BRANCH   9  10
HETATM   10  C   UNL     1      -9.030   3.854  65.239  1.00  0.00    -0.132 C  
BRANCH  10  11
HETATM   11  C   UNL     1      -9.636   4.444  66.501  1.00  0.00    -0.209 C  
BRANCH  11  12
HETATM   12  C   UNL     1     -10.829   5.313  66.142  1.00  0.00    -0.142 C  
BRANCH  12  13
HETATM   13  C   UNL     1     -11.027   6.435  67.153  1.00  0.00    -0.476 C  
BRANCH  13  14
HETATM   14  C   UNL     1     -10.100   6.298  68.361  1.00  0.00    -0.179 C  
BRANCH  14  15
HETATM   15  C   UNL     1     -10.803   5.932  69.672  1.00  0.00    -0.444 C  
BRANCH  15  16
HETATM   16  C   UNL     1     -10.002   6.333  70.914  1.00  0.00    -0.186 C  
BRANCH  16  17
HETATM   17  N   UNL     1     -10.869   6.908  72.049  1.00  0.00    -0.221 N  
HETATM   18  C   UNL     1     -12.339   6.927  71.649  1.00  0.00    -0.371 C  
HETATM   19  C   UNL     1     -10.701   6.076  73.320  1.00  0.00    -0.262 C  
BRANCH  17  20
HETATM   20  C   UNL     1     -10.365   8.369  72.320  1.00  0.00    -0.333 C  
BRANCH  20  21
HETATM   21  C   UNL     1     -10.720   9.361  71.239  1.00  0.00    -0.421 A  
HETATM   22  C   UNL     1     -11.948  10.043  71.274  1.00  0.00    -0.483 A  
HETATM   23  C   UNL     1     -12.394  10.743  70.153  1.00  0.00    -0.401 A  
HETATM   24  C   UNL     1     -11.605  10.797  69.006  1.00  0.00    -0.370 A  
HETATM   25  C   UNL     1     -10.346  10.204  68.996  1.00  0.00    -0.230 A  
HETATM   26  C   UNL     1      -9.893   9.510  70.117  1.00  0.00    -0.288 A  
ENDBRANCH  20  21
ENDBRANCH  17  20
ENDBRANCH  16  17
ENDBRANCH  15  16
ENDBRANCH  14  15
ENDBRANCH  13  14
ENDBRANCH  12  13
ENDBRANCH  11  12
ENDBRANCH  10  11
ENDBRANCH   9  10
ENDBRANCH   8   9
ENDBRANCH   7   8
ENDBRANCH   6   7
ENDBRANCH   5   6
ENDBRANCH   4   5
ENDBRANCH   3   4
ENDBRANCH   2   3
TORSDOF 17
ENDMDL
MODEL      242
REMARK 921   NORMALIZED FREE ENERGY PREDICTED BY IDOCK:   -3.14 KCAL/MOL
REMARK 922        TOTAL FREE ENERGY PREDICTED BY IDOCK:   -9.09 KCAL/MOL
REMARK 923 INTER-LIGAND FREE ENERGY PREDICTED BY IDOCK:   -7.03 KCAL/MOL
REMARK 924 INTRA-LIGAND FREE ENERGY PREDICTED BY IDOCK:   -2.06 KCAL/MOL
REMARK 927      BINDING AFFINITY PREDICTED BY RF-SCORE:    0.00 PKD
ROOT
HETATM    1  C   UNL     1     -11.773  12.520  66.445  1.00  0.00    -0.458 C  
HETATM    2  C   UNL     1     -12.080  13.338  67.688  1.00  0.00    -0.295 C  
ENDROOT
BRANCH   2   3
HETATM    3  C   UNL     1     -11.783  12.540  68.955  1.00  0.00    -0.367 C  
BRANCH   3   4
HETATM    4  C   UNL     1     -12.029  13.384  70.202  1.00  0.00    -0.396 C  
BRANCH   4   5
HETATM    5  C   UNL     1     -12.382  14.815  69.818  1.00  0.00    -0.291 C  
BRANCH   5   6
HETATM    6  C   UNL     1     -11.482  15.808  70.542  1.00  0.00    -0.401 C  
BRANCH   6   7
HETATM    7  C   UNL     1     -10.411  16.337  69.599  1.00  0.00    -0.294 C  
BRANCH   7   8
HETATM    8  C   UNL     1     -11.008  16.643  68.233  1.00  0.00    -0.341 C  
BRANCH   8   9
HETATM    9  C   UNL     1     -10.128  16.068  67.131  1.00  0.00    -0.270 C  
BRANCH   9  10
HETATM   10  C   UNL     1      -8.663  16.159  67.528  1.00  0.00    -0.195 C  
BRANCH  10  11
HETATM   11  C   UNL     1      -7.927  14.879  67.172  1.00  0.00    -0.227 C  
BRANCH  11  12
HETATM   12  C   UNL     1      -8.452  13.730  68.015  1.00  0.00    -0.176 C  
BRANCH  12  13
HETATM   13  C   UNL     1      -8.016  12.382  67.456  1.00  0.00    -0.173 C  
BRANCH  13  14
HETATM   14  C   UNL     1      -8.519  11.212  68.302  1.00  0.00    -0.145 C  
BRANCH  14  15
HETATM   15  C   UNL     1      -9.172  10.077  67.507  1.00  0.00    -0.151 C  
BRANCH  15  16
HETATM   16  C   UNL     1      -9.853   9.035  68.397  1.00  0.00    -0.166 C  
BRANCH  16  17
HETATM   17  N   UNL     1      -9.437   7.586  68.084  1.00  0.00    -0.143 N  
HETATM   18  C   UNL     1      -8.936   7.468  66.649  1.00  0.00    -0.153 C  
HETATM   19  C   UNL     1      -8.338   7.129  69.042  1.00  0.00    -0.126 C  
BRANCH  17  20
HETATM   20  C   UNL     1     -10.706   6.687  68.287  1.00  0.00    -0.257 C  
BRANCH  20  21
HETATM   21  C   UNL     1     -10.956   6.276  69.717  1.00  0.00    -0.444 A  
HETATM   22  C   UNL     1     -11.687   7.109  70.580  1.00  0.00    -0.348 A  
HETATM   23  C   UNL     1     -11.688   6.869  71.954  1.00  0.00    -0.334 A  
HETATM   24  C   UNL     1     -10.989   5.780  72.471  1.00  0.00    -0.309 A  
HETATM   25  C   UNL     1     -10.341   4.896  71.615  1.00  0.00    -0.241 A  
HETATM   26  C   UNL     1     -10.345   5.127  70.240  1.00  0.00    -0.331 A  
ENDBRANCH  20  21
ENDBRANCH  17  20
ENDBRANCH  16  17
ENDBRANCH  15  16
ENDBRANCH  14  15
ENDBRANCH  13  14
ENDBRANCH  12  13
ENDBRANCH  11  12
ENDBRANCH  10  11
ENDBRANCH   9  10
ENDBRANCH   8   9
ENDBRANCH   7   8
ENDBRANCH   6   7
ENDBRANCH   5   6
ENDBRANCH   4   5
ENDBRANCH   3   4
ENDBRANCH   2   3
TORSDOF 17
ENDMDL
MODEL      243
REMARK 921   NORMALIZED FREE ENERGY PREDICTED BY IDOCK:   -3.13 KCAL/MOL
REMARK 922        TOTAL FREE ENERGY PREDICTED BY IDOCK:   -9.09 KCAL/MOL
REMARK 923 INTER-LIGAND FREE ENERGY PREDICTED BY IDOCK:   -7.69 KCAL/MOL
REMARK 924 INTRA-LIGAND FREE ENERGY PREDICTED BY IDOCK:   -1.40 KCAL/MOL
REMARK 927      BINDING AFFINITY PREDICTED BY RF-SCORE:    0.00 PKD
ROOT
HETATM    1  C   UNL     1      -9.585   7.560  73.574  1.00  0.00    -0.339 C  
HETATM    2  C   UNL     1     -10.632   8.057  72.591  1.00  0.00    -0.419 C  
ENDROOT
BRANCH   2   3
HETATM    3  C   UNL     1     -10.370   7.510  71.190  1.00  0.00    -0.208 C  
BRANCH   3   4
HETATM    4  C   UNL     1     -11.232   6.282  70.913  1.00  0.00    -0.386 C  
BRANCH   4   5
HETATM    5  C   UNL     1     -10.389   5.014  70.964  1.00  0.00    -0.254 C  
BRANCH   5   6
HETATM    6  C   UNL     1      -9.273   5.064  69.929  1.00  0.00    -0.175 C  
BRANCH   6   7
HETATM    7  C   UNL     1      -9.749   4.471  68.610  1.00  0.00    -0.203 C  
BRANCH   7   8
HETATM    8  C   UNL     1      -9.641   5.500  67.494  1.00  0.00    -0.131 C  
BRANCH   8   9
HETATM    9  C   UNL     1     -10.971   6.221  67.310  1.00  0.00    -0.455 C  
BRANCH   9  10
HETATM   10  C   UNL     1     -10.738   7.712  67.132  1.00  0.00    -0.361 C  
BRANCH  10  11
HETATM   11  C   UNL     1      -9.450   8.142  67.813  1.00  0.00    -0.164 C  
BRANCH  11  12
HETATM   12  C   UNL     1      -9.197   9.617  67.551  1.00  0.00    -0.149 C  
BRANCH  12  13
HETATM   13  C   UNL     1      -9.678  10.030  66.166  1.00  0.00    -0.286 C  
BRANCH  13  14
HETATM   14  C   UNL     1     -10.544  11.289  66.203  1.00  0.00    -0.312 C  
BRANCH  14  15
HETATM   15  C   UNL     1      -9.765  12.601  66.332  1.00  0.00    -0.259 C  
BRANCH  15  16
HETATM   16  C   UNL     1     -10.184  13.653  65.302  1.00  0.00    -0.323 C  
BRANCH  16  17
HETATM   17  N   UNL     1     -11.241  14.643  65.824  1.00  0.00    -0.332 N  
HETATM   18  C   UNL     1     -12.642  14.202  65.416  1.00  0.00    -0.466 C  
HETATM   19  C   UNL     1     -11.167  14.746  67.346  1.00  0.00    -0.339 C  
BRANCH  17  20
HETATM   20  C   UNL     1     -10.913  16.043  65.195  1.00  0.00    -0.348 C  
BRANCH  20  21
HETATM   21  C   UNL     1     -10.106  16.953  66.088  1.00  0.00    -0.347 A  
HETATM   22  C   UNL     1      -8.726  16.753  66.249  1.00  0.00    -0.342 A  
HETATM   23  C   UNL     1      -8.035  17.408  67.269  1.00  0.00    -0.218 A  
HETATM   24  C   UNL     1      -8.709  18.291  68.109  1.00  0.00    -0.293 A  
HETATM   25  C   UNL     1     -10.056  18.567  67.897  1.00  0.00    -0.398 A  
HETATM   26  C   UNL     1     -10.748  17.921  66.874  1.00  0.00    -0.185 A  
ENDBRANCH  20  21
ENDBRANCH  17  20
ENDBRANCH  16  17
ENDBRANCH  15  16
ENDBRANCH  14  15
ENDBRANCH  13  14
ENDBRANCH  12  13
ENDBRANCH  11  12
ENDBRANCH  10  11
ENDBRANCH   9  10
ENDBRANCH   8   9
ENDBRANCH   7   8
ENDBRANCH   6   7
ENDBRANCH   5   6
ENDBRANCH   4   5
ENDBRANCH   3   4
ENDBRANCH   2   3
TORSDOF 17
ENDMDL
MODEL      244
REMARK 921   NORMALIZED FREE ENERGY PREDICTED BY IDOCK:   -3.12 KCAL/MOL
REMARK 922        TOTAL FREE ENERGY PREDICTED BY IDOCK:   -9.06 KCAL/MOL
REMARK 923 INTER-LIGAND FREE ENERGY PREDICTED BY IDOCK:   -6.16 KCAL/MOL
REMARK 924 INTRA-LIGAND FREE ENERGY PREDICTED BY IDOCK:   -2.90 KCAL/MOL
REMARK 927      BINDING AFFINITY PREDICTED BY RF-SCORE:    0.00 PKD
ROOT
HETATM    1  C   UNL     1      -6.909  11.287  69.361  1.00  0.00    -0.121 C  
HETATM    2  C   UNL     1      -7.625  10.155  68.644  1.00  0.00    -0.086 C  
ENDROOT
BRANCH   2   3
HETATM    3  C   UNL     1      -9.115  10.153  68.974  1.00  0.00    -0.176 C  
BRANCH   3   4
HETATM    4  C   UNL     1      -9.950  10.453  67.733  1.00  0.00    -0.203 C  
BRANCH   4   5
HETATM    5  C   UNL     1     -11.385  10.784  68.121  1.00  0.00    -0.377 C  
BRANCH   5   6
HETATM    6  C   UNL     1     -11.474  12.181  68.724  1.00  0.00    -0.359 C  
BRANCH   6   7
HETATM    7  C   UNL     1     -11.957  12.104  70.166  1.00  0.00    -0.394 C  
BRANCH   7   8
HETATM    8  C   UNL     1     -12.775  10.842  70.387  1.00  0.00    -0.346 C  
BRANCH   8   9
HETATM    9  C   UNL     1     -13.213  10.745  71.843  1.00  0.00    -0.524 C  
BRANCH   9  10
HETATM   10  C   UNL     1     -13.200   9.295  72.300  1.00  0.00    -0.535 C  
BRANCH  10  11
HETATM   11  C   UNL     1     -11.800   8.712  72.202  1.00  0.00    -0.447 C  
BRANCH  11  12
HETATM   12  C   UNL     1     -11.781   7.588  71.181  1.00  0.00    -0.315 C  
BRANCH  12  13
HETATM   13  C   UNL     1     -11.985   6.230  71.842  1.00  0.00    -0.342 C  
BRANCH  13  14
HETATM   14  C   UNL     1     -10.881   5.902  72.847  1.00  0.00    -0.293 C  
BRANCH  14  15
HETATM   15  C   UNL     1     -10.085   4.631  72.537  1.00  0.00    -0.229 C  
BRANCH  15  16
HETATM   16  C   UNL     1      -9.908   4.385  71.036  1.00  0.00    -0.190 C  
BRANCH  16  17
HETATM   17  N   UNL     1      -8.471   4.620  70.536  1.00  0.00    -0.088 N  
HETATM   18  C   UNL     1      -7.464   4.370  71.652  1.00  0.00    -0.069 C  
HETATM   19  C   UNL     1      -8.160   3.699  69.358  1.00  0.00    -0.053 C  
BRANCH  17  20
HETATM   20  C   UNL     1      -8.387   6.113  70.059  1.00  0.00    -0.125 C  
BRANCH  20  21
HETATM   21  C   UNL     1      -8.660   6.314  68.589  1.00  0.00    -0.121 A  
HETATM   22  C   UNL     1      -7.600   6.496  67.686  1.00  0.00    -0.105 A  
HETATM   23  C   UNL     1      -7.850   6.950  66.391  1.00  0.00    -0.103 A  
HETATM   24  C   UNL     1      -9.159   7.189  65.978  1.00  0.00    -0.108 A  
HETATM   25  C   UNL     1     -10.221   6.921  66.835  1.00  0.00    -0.310 A  
HETATM   26  C   UNL     1      -9.976   6.460  68.128  1.00  0.00    -0.143 A  
ENDBRANCH  20  21
ENDBRANCH  17  20
ENDBRANCH  16  17
ENDBRANCH  15  16
ENDBRANCH  14  15
ENDBRANCH  13  14
ENDBRANCH  12  13
ENDBRANCH  11  12
ENDBRANCH  10  11
ENDBRANCH   9  10
ENDBRANCH   8   9
ENDBRANCH   7   8
ENDBRANCH   6   7
ENDBRANCH   5   6
ENDBRANCH   4   5
ENDBRANCH   3   4
ENDBRANCH   2   3
TORSDOF 17
ENDMDL
MODEL      245
REMARK 921   NORMALIZED FREE ENERGY PREDICTED BY IDOCK:   -3.11 KCAL/MOL
REMARK 922        TOTAL FREE ENERGY PREDICTED BY IDOCK:   -9.04 KCAL/MOL
REMARK 923 INTER-LIGAND FREE ENERGY PREDICTED BY IDOCK:   -7.07 KCAL/MOL
REMARK 924 INTRA-LIGAND FREE ENERGY PREDICTED BY IDOCK:   -1.97 KCAL/MOL
REMARK 927      BINDING AFFINITY PREDICTED BY RF-SCORE:    0.00 PKD
ROOT
HETATM    1  C   UNL     1      -7.815  16.031  66.644  1.00  0.00    -0.266 C  
HETATM    2  C   UNL     1      -9.060  16.782  66.204  1.00  0.00    -0.288 C  
ENDROOT
BRANCH   2   3
HETATM    3  C   UNL     1     -10.318  15.963  66.478  1.00  0.00    -0.304 C  
BRANCH   3   4
HETATM    4  C   UNL     1     -10.010  14.773  67.383  1.00  0.00    -0.223 C  
BRANCH   4   5
HETATM    5  C   UNL     1     -11.183  13.802  67.407  1.00  0.00    -0.330 C  
BRANCH   5   6
HETATM    6  C   UNL     1     -12.109  14.042  66.222  1.00  0.00    -0.482 C  
BRANCH   6   7
HETATM    7  C   UNL     1     -12.295  12.756  65.428  1.00  0.00    -0.528 C  
BRANCH   7   8
HETATM    8  C   UNL     1     -10.968  12.030  65.272  1.00  0.00    -0.356 C  
BRANCH   8   9
HETATM    9  C   UNL     1     -10.971  10.742  66.086  1.00  0.00    -0.037 C  
BRANCH   9  10
HETATM   10  C   UNL     1      -9.792   9.868  65.690  1.00  0.00    -0.368 C  
BRANCH  10  11
HETATM   11  C   UNL     1      -8.940   9.530  66.901  1.00  0.00    -0.148 C  
BRANCH  11  12
HETATM   12  C   UNL     1      -8.730  10.774  67.747  1.00  0.00    -0.130 C  
BRANCH  12  13
HETATM   13  C   UNL     1      -8.095  10.435  69.090  1.00  0.00    -0.151 C  
BRANCH  13  14
HETATM   14  C   UNL     1      -8.805   9.277  69.792  1.00  0.00    -0.174 C  
BRANCH  14  15
HETATM   15  C   UNL     1     -10.060   9.673  70.576  1.00  0.00    -0.338 C  
BRANCH  15  16
HETATM   16  C   UNL     1     -11.285   8.827  70.215  1.00  0.00    -0.195 C  
BRANCH  16  17
HETATM   17  N   UNL     1     -11.852   8.024  71.399  1.00  0.00    -0.289 N  
HETATM   18  C   UNL     1     -10.913   8.094  72.597  1.00  0.00    -0.370 C  
HETATM   19  C   UNL     1     -13.224   8.564  71.800  1.00  0.00    -0.364 C  
BRANCH  17  20
HETATM   20  C   UNL     1     -12.003   6.538  70.919  1.00  0.00    -0.291 C  
BRANCH  20  21
HETATM   21  C   UNL     1     -10.991   6.111  69.884  1.00  0.00    -0.458 A  
HETATM   22  C   UNL     1      -9.743   5.601  70.275  1.00  0.00    -0.232 A  
HETATM   23  C   UNL     1      -8.715   5.465  69.342  1.00  0.00    -0.110 A  
HETATM   24  C   UNL     1      -8.937   5.803  68.008  1.00  0.00    -0.111 A  
HETATM   25  C   UNL     1     -10.199   6.220  67.594  1.00  0.00    -0.206 A  
HETATM   26  C   UNL     1     -11.231   6.349  68.522  1.00  0.00    -0.321 A  
ENDBRANCH  20  21
ENDBRANCH  17  20
ENDBRANCH  16  17
ENDBRANCH  15  16
ENDBRANCH  14  15
ENDBRANCH  13  14
ENDBRANCH  12  13
ENDBRANCH  11  12
ENDBRANCH  10  11
ENDBRANCH   9  10
ENDBRANCH   8   9
ENDBRANCH   7   8
ENDBRANCH   6   7
ENDBRANCH   5   6
ENDBRANCH   4   5
ENDBRANCH   3   4
ENDBRANCH   2   3
TORSDOF 17
ENDMDL
MODEL      246
REMARK 921   NORMALIZED FREE ENERGY PREDICTED BY IDOCK:   -3.09 KCAL/MOL
REMARK 922        TOTAL FREE ENERGY PREDICTED BY IDOCK:   -9.00 KCAL/MOL
REMARK 923 INTER-LIGAND FREE ENERGY PREDICTED BY IDOCK:   -6.77 KCAL/MOL
REMARK 924 INTRA-LIGAND FREE ENERGY PREDICTED BY IDOCK:   -2.23 KCAL/MOL
REMARK 927      BINDING AFFINITY PREDICTED BY RF-SCORE:    0.00 PKD
ROOT
HETATM    1  C   UNL     1     -11.239   3.705  73.634  1.00  0.00    -0.278 C  
HETATM    2  C   UNL     1     -10.860   5.172  73.731  1.00  0.00    -0.345 C  
ENDROOT
BRANCH   2   3
HETATM    3  C   UNL     1     -10.669   5.781  72.344  1.00  0.00    -0.280 C  
BRANCH   3   4
HETATM    4  C   UNL     1     -11.781   6.777  72.027  1.00  0.00    -0.343 C  
BRANCH   4   5
HETATM    5  C   UNL     1     -12.117   6.748  70.542  1.00  0.00    -0.332 C  
BRANCH   5   6
HETATM    6  C   UNL     1     -11.102   5.913  69.773  1.00  0.00    -0.422 C  
BRANCH   6   7
HETATM    7  C   UNL     1     -10.681   6.633  68.500  1.00  0.00    -0.308 C  
BRANCH   7   8
HETATM    8  C   UNL     1      -9.166   6.751  68.430  1.00  0.00    -0.123 C  
BRANCH   8   9
HETATM    9  C   UNL     1      -8.596   7.059  69.809  1.00  0.00    -0.141 C  
BRANCH   9  10
HETATM   10  C   UNL     1      -8.326   8.549  69.944  1.00  0.00    -0.123 C  
BRANCH  10  11
HETATM   11  C   UNL     1      -9.346   9.201  70.861  1.00  0.00    -0.335 C  
BRANCH  11  12
HETATM   12  C   UNL     1     -10.368   9.964  70.035  1.00  0.00    -0.320 C  
BRANCH  12  13
HETATM   13  C   UNL     1     -11.604  10.310  70.856  1.00  0.00    -0.454 C  
BRANCH  13  14
HETATM   14  C   UNL     1     -12.271  11.602  70.386  1.00  0.00    -0.434 C  
BRANCH  14  15
HETATM   15  C   UNL     1     -11.335  12.588  69.679  1.00  0.00    -0.182 C  
BRANCH  15  16
HETATM   16  C   UNL     1     -12.034  13.397  68.583  1.00  0.00    -0.327 C  
BRANCH  16  17
HETATM   17  N   UNL     1     -11.469  13.145  67.173  1.00  0.00    -0.316 N  
HETATM   18  C   UNL     1     -11.333  11.651  66.906  1.00  0.00    -0.295 C  
HETATM   19  C   UNL     1     -12.380  13.767  66.116  1.00  0.00    -0.452 C  
BRANCH  17  20
HETATM   20  C   UNL     1     -10.061  13.834  67.110  1.00  0.00    -0.241 C  
BRANCH  20  21
HETATM   21  C   UNL     1      -8.896  12.877  67.154  1.00  0.00    -0.210 A  
HETATM   22  C   UNL     1      -8.698  11.947  66.121  1.00  0.00    -0.009 A  
HETATM   23  C   UNL     1      -7.799  10.893  66.286  1.00  0.00    -0.158 A  
HETATM   24  C   UNL     1      -7.068  10.781  67.467  1.00  0.00    -0.089 A  
HETATM   25  C   UNL     1      -7.187  11.751  68.457  1.00  0.00    -0.095 A  
HETATM   26  C   UNL     1      -8.078  12.810  68.292  1.00  0.00    -0.154 A  
ENDBRANCH  20  21
ENDBRANCH  17  20
ENDBRANCH  16  17
ENDBRANCH  15  16
ENDBRANCH  14  15
ENDBRANCH  13  14
ENDBRANCH  12  13
ENDBRANCH  11  12
ENDBRANCH  10  11
ENDBRANCH   9  10
ENDBRANCH   8   9
ENDBRANCH   7   8
ENDBRANCH   6   7
ENDBRANCH   5   6
ENDBRANCH   4   5
ENDBRANCH   3   4
ENDBRANCH   2   3
TORSDOF 17
ENDMDL
MODEL      247
REMARK 921   NORMALIZED FREE ENERGY PREDICTED BY IDOCK:   -3.08 KCAL/MOL
REMARK 922        TOTAL FREE ENERGY PREDICTED BY IDOCK:   -8.98 KCAL/MOL
REMARK 923 INTER-LIGAND FREE ENERGY PREDICTED BY IDOCK:   -7.37 KCAL/MOL
REMARK 924 INTRA-LIGAND FREE ENERGY PREDICTED BY IDOCK:   -1.61 KCAL/MOL
REMARK 927      BINDING AFFINITY PREDICTED BY RF-SCORE:    0.00 PKD
ROOT
HETATM    1  C   UNL     1      -8.763  19.866  67.862  1.00  0.00    -0.348 C  
HETATM    2  C   UNL     1     -10.028  20.169  67.077  1.00  0.00    -0.596 C  
ENDROOT
BRANCH   2   3
HETATM    3  C   UNL     1     -11.012  19.005  67.154  1.00  0.00    -0.338 C  
BRANCH   3   4
HETATM    4  C   UNL     1     -10.458  17.878  68.021  1.00  0.00    -0.390 C  
BRANCH   4   5
HETATM    5  C   UNL     1     -10.726  16.525  67.374  1.00  0.00    -0.260 C  
BRANCH   5   6
HETATM    6  C   UNL     1     -10.609  16.617  65.859  1.00  0.00    -0.257 C  
BRANCH   6   7
HETATM    7  C   UNL     1     -11.024  15.301  65.216  1.00  0.00    -0.403 C  
BRANCH   7   8
HETATM    8  C   UNL     1     -12.391  14.868  65.723  1.00  0.00     0.138 C  
BRANCH   8   9
HETATM    9  C   UNL     1     -12.518  13.350  65.669  1.00  0.00    -0.519 C  
BRANCH   9  10
HETATM   10  C   UNL     1     -11.473  12.769  64.730  1.00  0.00    -0.356 C  
BRANCH  10  11
HETATM   11  C   UNL     1     -11.019  11.401  65.209  1.00  0.00    -0.251 C  
BRANCH  11  12
HETATM   12  C   UNL     1     -10.651  11.466  66.681  1.00  0.00    -0.302 C  
BRANCH  12  13
HETATM   13  C   UNL     1      -9.267  12.070  66.885  1.00  0.00    -0.197 C  
BRANCH  13  14
HETATM   14  C   UNL     1      -8.453  11.314  67.936  1.00  0.00    -0.133 C  
BRANCH  14  15
HETATM   15  C   UNL     1      -9.111  10.034  68.460  1.00  0.00    -0.127 C  
BRANCH  15  16
HETATM   16  C   UNL     1      -8.809   9.766  69.937  1.00  0.00    -0.225 C  
BRANCH  16  17
HETATM   17  N   UNL     1      -9.865   8.890  70.635  1.00  0.00    -0.196 N  
HETATM   18  C   UNL     1      -9.645   7.417  70.309  1.00  0.00    -0.165 C  
HETATM   19  C   UNL     1      -9.805   9.088  72.149  1.00  0.00    -0.013 C  
BRANCH  17  20
HETATM   20  C   UNL     1     -11.269   9.353  70.110  1.00  0.00    -0.219 C  
BRANCH  20  21
HETATM   21  C   UNL     1     -11.743  10.670  70.675  1.00  0.00    -0.454 A  
HETATM   22  C   UNL     1     -12.632  10.700  71.762  1.00  0.00    -0.411 A  
HETATM   23  C   UNL     1     -13.279  11.887  72.108  1.00  0.00    -0.366 A  
HETATM   24  C   UNL     1     -13.015  13.055  71.396  1.00  0.00    -0.373 A  
HETATM   25  C   UNL     1     -12.065  13.055  70.380  1.00  0.00    -0.391 A  
HETATM   26  C   UNL     1     -11.411  11.873  70.036  1.00  0.00    -0.213 A  
ENDBRANCH  20  21
ENDBRANCH  17  20
ENDBRANCH  16  17
ENDBRANCH  15  16
ENDBRANCH  14  15
ENDBRANCH  13  14
ENDBRANCH  12  13
ENDBRANCH  11  12
ENDBRANCH  10  11
ENDBRANCH   9  10
ENDBRANCH   8   9
ENDBRANCH   7   8
ENDBRANCH   6   7
ENDBRANCH   5   6
ENDBRANCH   4   5
ENDBRANCH   3   4
ENDBRANCH   2   3
TORSDOF 17
ENDMDL
MODEL      248
REMARK 921   NORMALIZED FREE ENERGY PREDICTED BY IDOCK:   -3.08 KCAL/MOL
REMARK 922        TOTAL FREE ENERGY PREDICTED BY IDOCK:   -8.98 KCAL/MOL
REMARK 923 INTER-LIGAND FREE ENERGY PREDICTED BY IDOCK:   -6.95 KCAL/MOL
REMARK 924 INTRA-LIGAND FREE ENERGY PREDICTED BY IDOCK:   -2.02 KCAL/MOL
REMARK 927      BINDING AFFINITY PREDICTED BY RF-SCORE:    0.00 PKD
ROOT
HETATM    1  C   UNL     1     -10.664  19.279  66.698  1.00  0.00    -0.504 C  
HETATM    2  C   UNL     1     -10.310  19.469  68.163  1.00  0.00    -0.550 C  
ENDROOT
BRANCH   2   3
HETATM    3  C   UNL     1      -8.812  19.708  68.338  1.00  0.00    -0.362 C  
BRANCH   3   4
HETATM    4  C   UNL     1      -8.163  20.095  67.012  1.00  0.00    -0.374 C  
BRANCH   4   5
HETATM    5  C   UNL     1      -6.937  19.231  66.745  1.00  0.00    -0.210 C  
BRANCH   5   6
HETATM    6  C   UNL     1      -6.553  18.438  67.988  1.00  0.00    -0.210 C  
BRANCH   6   7
HETATM    7  C   UNL     1      -6.458  16.954  67.660  1.00  0.00    -0.165 C  
BRANCH   7   8
HETATM    8  C   UNL     1      -7.186  16.648  66.360  1.00  0.00    -0.168 C  
BRANCH   8   9
HETATM    9  C   UNL     1      -8.494  15.920  66.646  1.00  0.00    -0.322 C  
BRANCH   9  10
HETATM   10  C   UNL     1      -9.448  16.074  65.472  1.00  0.00    -0.035 C  
BRANCH  10  11
HETATM   11  C   UNL     1     -10.874  15.763  65.892  1.00  0.00    -0.272 C  
BRANCH  11  12
HETATM   12  C   UNL     1     -11.687  15.342  64.680  1.00  0.00    -0.308 C  
BRANCH  12  13
HETATM   13  C   UNL     1     -12.506  14.089  64.966  1.00  0.00    -0.446 C  
BRANCH  13  14
HETATM   14  C   UNL     1     -11.894  12.839  64.333  1.00  0.00    -0.446 C  
BRANCH  14  15
HETATM   15  C   UNL     1     -11.322  11.828  65.331  1.00  0.00    -0.284 C  
BRANCH  15  16
HETATM   16  C   UNL     1     -10.029  12.308  65.997  1.00  0.00    -0.252 C  
BRANCH  16  17
HETATM   17  N   UNL     1      -9.707  11.582  67.316  1.00  0.00    -0.182 N  
HETATM   18  C   UNL     1     -10.973  11.006  67.937  1.00  0.00    -0.264 C  
HETATM   19  C   UNL     1      -8.705  10.455  67.072  1.00  0.00    -0.130 C  
BRANCH  17  20
HETATM   20  C   UNL     1      -9.067  12.642  68.280  1.00  0.00    -0.181 C  
BRANCH  20  21
HETATM   21  C   UNL     1     -10.048  13.634  68.855  1.00  0.00    -0.049 A  
HETATM   22  C   UNL     1     -11.430  13.410  68.753  1.00  0.00    -0.344 A  
HETATM   23  C   UNL     1     -12.331  14.439  69.032  1.00  0.00    -0.130 A  
HETATM   24  C   UNL     1     -11.860  15.682  69.447  1.00  0.00    -0.391 A  
HETATM   25  C   UNL     1     -10.497  15.884  69.643  1.00  0.00    -0.295 A  
HETATM   26  C   UNL     1      -9.595  14.856  69.373  1.00  0.00    -0.080 A  
ENDBRANCH  20  21
ENDBRANCH  17  20
ENDBRANCH  16  17
ENDBRANCH  15  16
ENDBRANCH  14  15
ENDBRANCH  13  14
ENDBRANCH  12  13
ENDBRANCH  11  12
ENDBRANCH  10  11
ENDBRANCH   9  10
ENDBRANCH   8   9
ENDBRANCH   7   8
ENDBRANCH   6   7
ENDBRANCH   5   6
ENDBRANCH   4   5
ENDBRANCH   3   4
ENDBRANCH   2   3
TORSDOF 17
ENDMDL
MODEL      249
REMARK 921   NORMALIZED FREE ENERGY PREDICTED BY IDOCK:   -3.08 KCAL/MOL
REMARK 922        TOTAL FREE ENERGY PREDICTED BY IDOCK:   -8.97 KCAL/MOL
REMARK 923 INTER-LIGAND FREE ENERGY PREDICTED BY IDOCK:   -6.65 KCAL/MOL
REMARK 924 INTRA-LIGAND FREE ENERGY PREDICTED BY IDOCK:   -2.32 KCAL/MOL
REMARK 927      BINDING AFFINITY PREDICTED BY RF-SCORE:    0.00 PKD
ROOT
HETATM    1  C   UNL     1     -12.487   8.624  71.396  1.00  0.00    -0.337 C  
HETATM    2  C   UNL     1     -11.209   8.225  72.113  1.00  0.00    -0.413 C  
ENDROOT
BRANCH   2   3
HETATM    3  C   UNL     1     -10.032   9.081  71.652  1.00  0.00    -0.383 C  
BRANCH   3   4
HETATM    4  C   UNL     1      -9.033   8.250  70.852  1.00  0.00    -0.174 C  
BRANCH   4   5
HETATM    5  C   UNL     1      -7.852   9.108  70.417  1.00  0.00    -0.140 C  
BRANCH   5   6
HETATM    6  C   UNL     1      -6.998   8.373  69.392  1.00  0.00    -0.050 C  
BRANCH   6   7
HETATM    7  C   UNL     1      -7.321   6.885  69.405  1.00  0.00    -0.091 C  
BRANCH   7   8
HETATM    8  C   UNL     1      -7.284   6.320  67.993  1.00  0.00    -0.087 C  
BRANCH   8   9
HETATM    9  C   UNL     1      -7.407   7.444  66.971  1.00  0.00    -0.097 C  
BRANCH   9  10
HETATM   10  C   UNL     1      -8.602   7.200  66.064  1.00  0.00    -0.158 C  
BRANCH  10  11
HETATM   11  C   UNL     1      -9.553   8.384  66.092  1.00  0.00    -0.246 C  
BRANCH  11  12
HETATM   12  C   UNL     1     -10.537   8.227  67.238  1.00  0.00    -0.335 C  
BRANCH  12  13
HETATM   13  C   UNL     1     -10.710   9.531  68.009  1.00  0.00    -0.266 C  
BRANCH  13  14
HETATM   14  C   UNL     1      -9.729  10.610  67.550  1.00  0.00    -0.189 C  
BRANCH  14  15
HETATM   15  C   UNL     1      -9.581  11.794  68.511  1.00  0.00    -0.173 C  
BRANCH  15  16
HETATM   16  C   UNL     1     -10.896  12.541  68.749  1.00  0.00    -0.239 C  
BRANCH  16  17
HETATM   17  N   UNL     1     -10.822  14.043  68.421  1.00  0.00    -0.242 N  
HETATM   18  C   UNL     1      -9.708  14.714  69.216  1.00  0.00    -0.041 C  
HETATM   19  C   UNL     1     -10.573  14.250  66.928  1.00  0.00    -0.273 C  
BRANCH  17  20
HETATM   20  C   UNL     1     -12.209  14.668  68.804  1.00  0.00    -0.119 C  
BRANCH  20  21
HETATM   21  C   UNL     1     -12.470  14.746  70.288  1.00  0.00    -0.393 A  
HETATM   22  C   UNL     1     -12.146  15.907  71.009  1.00  0.00    -0.438 A  
HETATM   23  C   UNL     1     -12.129  15.886  72.404  1.00  0.00    -0.605 A  
HETATM   24  C   UNL     1     -12.468  14.719  73.086  1.00  0.00    -0.478 A  
HETATM   25  C   UNL     1     -12.882  13.593  72.382  1.00  0.00    -0.322 A  
HETATM   26  C   UNL     1     -12.909  13.612  70.989  1.00  0.00    -0.360 A  
ENDBRANCH  20  21
ENDBRANCH  17  20
ENDBRANCH  16  17
ENDBRANCH  15  16
ENDBRANCH  14  15
ENDBRANCH  13  14
ENDBRANCH  12  13
ENDBRANCH  11  12
ENDBRANCH  10  11
ENDBRANCH   9  10
ENDBRANCH   8   9
ENDBRANCH   7   8
ENDBRANCH   6   7
ENDBRANCH   5   6
ENDBRANCH   4   5
ENDBRANCH   3   4
ENDBRANCH   2   3
TORSDOF 17
ENDMDL
MODEL      250
REMARK 921   NORMALIZED FREE ENERGY PREDICTED BY IDOCK:   -3.06 KCAL/MOL
REMARK 922        TOTAL FREE ENERGY PREDICTED BY IDOCK:   -8.95 KCAL/MOL
REMARK 923 INTER-LIGAND FREE ENERGY PREDICTED BY IDOCK:   -7.61 KCAL/MOL
REMARK 924 INTRA-LIGAND FREE ENERGY PREDICTED BY IDOCK:   -1.34 KCAL/MOL
REMARK 927      BINDING AFFINITY PREDICTED BY RF-SCORE:    0.00 PKD
ROOT
HETATM    1  C   UNL     1      -9.543   7.970  73.033  1.00  0.00    -0.347 C  
HETATM    2  C   UNL     1      -9.336   6.658  72.297  1.00  0.00    -0.139 C  
ENDROOT
BRANCH   2   3
HETATM    3  C   UNL     1     -10.586   6.266  71.513  1.00  0.00    -0.282 C  
BRANCH   3   4
HETATM    4  C   UNL     1     -11.196   7.479  70.816  1.00  0.00    -0.287 C  
BRANCH   4   5
HETATM    5  C   UNL     1     -10.694   7.580  69.382  1.00  0.00    -0.200 C  
BRANCH   5   6
HETATM    6  C   UNL     1     -10.986   6.297  68.615  1.00  0.00    -0.423 C  
BRANCH   6   7
HETATM    7  C   UNL     1     -10.957   6.560  67.115  1.00  0.00    -0.480 C  
BRANCH   7   8
HETATM    8  C   UNL     1      -9.536   6.843  66.651  1.00  0.00    -0.218 C  
BRANCH   8   9
HETATM    9  C   UNL     1      -9.410   8.288  66.188  1.00  0.00    -0.254 C  
BRANCH   9  10
HETATM   10  C   UNL     1      -7.944   8.674  66.068  1.00  0.00    -0.107 C  
BRANCH  10  11
HETATM   11  C   UNL     1      -7.631   9.882  66.934  1.00  0.00    -0.095 C  
BRANCH  11  12
HETATM   12  C   UNL     1      -7.766   9.513  68.401  1.00  0.00    -0.085 C  
BRANCH  12  13
HETATM   13  C   UNL     1      -8.225  10.702  69.236  1.00  0.00    -0.122 C  
BRANCH  13  14
HETATM   14  C   UNL     1      -9.650  11.137  68.893  1.00  0.00    -0.154 C  
BRANCH  14  15
HETATM   15  C   UNL     1      -9.753  12.478  68.160  1.00  0.00    -0.222 C  
BRANCH  15  16
HETATM   16  C   UNL     1     -10.541  13.531  68.945  1.00  0.00    -0.165 C  
BRANCH  16  17
HETATM   17  N   UNL     1     -11.119  14.654  68.065  1.00  0.00    -0.270 N  
HETATM   18  C   UNL     1     -10.011  15.360  67.293  1.00  0.00    -0.226 C  
HETATM   19  C   UNL     1     -12.138  14.084  67.078  1.00  0.00    -0.420 C  
BRANCH  17  20
HETATM   20  C   UNL     1     -11.839  15.667  69.022  1.00  0.00    -0.364 C  
BRANCH  20  21
HETATM   21  C   UNL     1     -12.096  15.137  70.411  1.00  0.00    -0.373 A  
HETATM   22  C   UNL     1     -13.059  14.137  70.626  1.00  0.00    -0.211 A  
HETATM   23  C   UNL     1     -13.490  13.843  71.919  1.00  0.00    -0.511 A  
HETATM   24  C   UNL     1     -12.938  14.517  73.007  1.00  0.00    -0.596 A  
HETATM   25  C   UNL     1     -11.917  15.440  72.811  1.00  0.00    -0.552 A  
HETATM   26  C   UNL     1     -11.477  15.732  71.521  1.00  0.00    -0.504 A  
ENDBRANCH  20  21
ENDBRANCH  17  20
ENDBRANCH  16  17
ENDBRANCH  15  16
ENDBRANCH  14  15
ENDBRANCH  13  14
ENDBRANCH  12  13
ENDBRANCH  11  12
ENDBRANCH  10  11
ENDBRANCH   9  10
ENDBRANCH   8   9
ENDBRANCH   7   8
ENDBRANCH   6   7
ENDBRANCH   5   6
ENDBRANCH   4   5
ENDBRANCH   3   4
ENDBRANCH   2   3
TORSDOF 17
ENDMDL
MODEL      251
REMARK 921   NORMALIZED FREE ENERGY PREDICTED BY IDOCK:   -3.06 KCAL/MOL
REMARK 922        TOTAL FREE ENERGY PREDICTED BY IDOCK:   -8.95 KCAL/MOL
REMARK 923 INTER-LIGAND FREE ENERGY PREDICTED BY IDOCK:   -7.77 KCAL/MOL
REMARK 924 INTRA-LIGAND FREE ENERGY PREDICTED BY IDOCK:   -1.18 KCAL/MOL
REMARK 927      BINDING AFFINITY PREDICTED BY RF-SCORE:    0.00 PKD
ROOT
HETATM    1  C   UNL     1      -8.721   2.039  64.866  1.00  0.00    -0.112 C  
HETATM    2  C   UNL     1      -9.385   2.930  63.830  1.00  0.00    -0.106 C  
ENDROOT
BRANCH   2   3
HETATM    3  C   UNL     1     -10.364   3.899  64.487  1.00  0.00    -0.231 C  
BRANCH   3   4
HETATM    4  C   UNL     1      -9.628   4.901  65.374  1.00  0.00    -0.115 C  
BRANCH   4   5
HETATM    5  C   UNL     1     -10.389   5.122  66.675  1.00  0.00    -0.325 C  
BRANCH   5   6
HETATM    6  C   UNL     1     -10.720   6.597  66.864  1.00  0.00    -0.401 C  
BRANCH   6   7
HETATM    7  C   UNL     1      -9.479   7.450  66.638  1.00  0.00    -0.240 C  
BRANCH   7   8
HETATM    8  C   UNL     1      -9.858   8.917  66.507  1.00  0.00    -0.344 C  
BRANCH   8   9
HETATM    9  C   UNL     1     -10.730   9.344  67.681  1.00  0.00    -0.295 C  
BRANCH   9  10
HETATM   10  C   UNL     1     -11.247  10.758  67.464  1.00  0.00    -0.346 C  
BRANCH  10  11
HETATM   11  C   UNL     1     -10.421  11.478  66.413  1.00  0.00    -0.292 C  
BRANCH  11  12
HETATM   12  C   UNL     1     -11.339  12.112  65.382  1.00  0.00    -0.388 C  
BRANCH  12  13
HETATM   13  C   UNL     1     -10.654  13.265  64.657  1.00  0.00    -0.421 C  
BRANCH  13  14
HETATM   14  C   UNL     1     -11.223  14.625  65.062  1.00  0.00    -0.388 C  
BRANCH  14  15
HETATM   15  C   UNL     1     -10.205  15.590  65.676  1.00  0.00    -0.403 C  
BRANCH  15  16
HETATM   16  C   UNL     1     -10.739  16.320  66.911  1.00  0.00    -0.217 C  
BRANCH  16  17
HETATM   17  N   UNL     1      -9.639  16.971  67.769  1.00  0.00    -0.241 N  
HETATM   18  C   UNL     1      -8.428  17.326  66.915  1.00  0.00    -0.226 C  
HETATM   19  C   UNL     1     -10.169  18.234  68.445  1.00  0.00    -0.380 C  
BRANCH  17  20
HETATM   20  C   UNL     1      -9.235  15.928  68.870  1.00  0.00    -0.232 C  
BRANCH  20  21
HETATM   21  C   UNL     1     -10.402  15.285  69.578  1.00  0.00    -0.267 A  
HETATM   22  C   UNL     1     -10.807  13.982  69.245  1.00  0.00    -0.192 A  
HETATM   23  C   UNL     1     -12.034  13.492  69.692  1.00  0.00    -0.397 A  
HETATM   24  C   UNL     1     -12.846  14.283  70.501  1.00  0.00    -0.336 A  
HETATM   25  C   UNL     1     -12.410  15.538  70.914  1.00  0.00    -0.474 A  
HETATM   26  C   UNL     1     -11.181  16.028  70.476  1.00  0.00    -0.397 A  
ENDBRANCH  20  21
ENDBRANCH  17  20
ENDBRANCH  16  17
ENDBRANCH  15  16
ENDBRANCH  14  15
ENDBRANCH  13  14
ENDBRANCH  12  13
ENDBRANCH  11  12
ENDBRANCH  10  11
ENDBRANCH   9  10
ENDBRANCH   8   9
ENDBRANCH   7   8
ENDBRANCH   6   7
ENDBRANCH   5   6
ENDBRANCH   4   5
ENDBRANCH   3   4
ENDBRANCH   2   3
TORSDOF 17
ENDMDL
MODEL      252
REMARK 921   NORMALIZED FREE ENERGY PREDICTED BY IDOCK:   -3.05 KCAL/MOL
REMARK 922        TOTAL FREE ENERGY PREDICTED BY IDOCK:   -8.92 KCAL/MOL
REMARK 923 INTER-LIGAND FREE ENERGY PREDICTED BY IDOCK:   -7.76 KCAL/MOL
REMARK 924 INTRA-LIGAND FREE ENERGY PREDICTED BY IDOCK:   -1.17 KCAL/MOL
REMARK 927      BINDING AFFINITY PREDICTED BY RF-SCORE:    0.00 PKD
ROOT
HETATM    1  C   UNL     1     -10.308  20.004  67.322  1.00  0.00    -0.550 C  
HETATM    2  C   UNL     1      -9.610  19.287  68.464  1.00  0.00    -0.465 C  
ENDROOT
BRANCH   2   3
HETATM    3  C   UNL     1      -8.134  19.671  68.531  1.00  0.00    -0.339 C  
BRANCH   3   4
HETATM    4  C   UNL     1      -7.842  20.874  67.637  1.00  0.00    -0.129 C  
BRANCH   4   5
HETATM    5  C   UNL     1      -6.699  20.563  66.680  1.00  0.00    -0.308 C  
BRANCH   5   6
HETATM    6  C   UNL     1      -5.727  19.569  67.301  1.00  0.00    -0.177 C  
BRANCH   6   7
HETATM    7  C   UNL     1      -5.129  18.672  66.226  1.00  0.00    -0.164 C  
BRANCH   7   8
HETATM    8  C   UNL     1      -6.205  17.792  65.607  1.00  0.00    -0.142 C  
BRANCH   8   9
HETATM    9  C   UNL     1      -6.774  16.839  66.651  1.00  0.00    -0.241 C  
BRANCH   9  10
HETATM   10  C   UNL     1      -8.232  16.538  66.346  1.00  0.00    -0.364 C  
BRANCH  10  11
HETATM   11  C   UNL     1      -8.920  15.922  67.553  1.00  0.00    -0.201 C  
BRANCH  11  12
HETATM   12  C   UNL     1     -10.076  15.049  67.097  1.00  0.00    -0.239 C  
BRANCH  12  13
HETATM   13  C   UNL     1     -11.343  15.340  67.893  1.00  0.00    -0.339 C  
BRANCH  13  14
HETATM   14  C   UNL     1     -12.106  14.066  68.256  1.00  0.00    -0.312 C  
BRANCH  14  15
HETATM   15  C   UNL     1     -11.634  12.805  67.527  1.00  0.00    -0.412 C  
BRANCH  15  16
HETATM   16  C   UNL     1     -11.515  11.588  68.449  1.00  0.00    -0.298 C  
BRANCH  16  17
HETATM   17  N   UNL     1     -10.227  10.772  68.234  1.00  0.00    -0.161 N  
HETATM   18  C   UNL     1     -10.515   9.513  67.427  1.00  0.00    -0.272 C  
HETATM   19  C   UNL     1      -9.181  11.613  67.504  1.00  0.00    -0.172 C  
BRANCH  17  20
HETATM   20  C   UNL     1      -9.681  10.389  69.654  1.00  0.00    -0.124 C  
BRANCH  20  21
HETATM   21  C   UNL     1     -10.668   9.646  70.522  1.00  0.00    -0.374 A  
HETATM   22  C   UNL     1     -11.908  10.222  70.843  1.00  0.00    -0.473 A  
HETATM   23  C   UNL     1     -12.698   9.670  71.852  1.00  0.00    -0.499 A  
HETATM   24  C   UNL     1     -12.273   8.524  72.520  1.00  0.00    -0.383 A  
HETATM   25  C   UNL     1     -11.092   7.893  72.144  1.00  0.00    -0.351 A  
HETATM   26  C   UNL     1     -10.303   8.437  71.130  1.00  0.00    -0.264 A  
ENDBRANCH  20  21
ENDBRANCH  17  20
ENDBRANCH  16  17
ENDBRANCH  15  16
ENDBRANCH  14  15
ENDBRANCH  13  14
ENDBRANCH  12  13
ENDBRANCH  11  12
ENDBRANCH  10  11
ENDBRANCH   9  10
ENDBRANCH   8   9
ENDBRANCH   7   8
ENDBRANCH   6   7
ENDBRANCH   5   6
ENDBRANCH   4   5
ENDBRANCH   3   4
ENDBRANCH   2   3
TORSDOF 17
ENDMDL
MODEL      253
REMARK 921   NORMALIZED FREE ENERGY PREDICTED BY IDOCK:   -3.04 KCAL/MOL
REMARK 922        TOTAL FREE ENERGY PREDICTED BY IDOCK:   -8.90 KCAL/MOL
REMARK 923 INTER-LIGAND FREE ENERGY PREDICTED BY IDOCK:   -6.59 KCAL/MOL
REMARK 924 INTRA-LIGAND FREE ENERGY PREDICTED BY IDOCK:   -2.32 KCAL/MOL
REMARK 927      BINDING AFFINITY PREDICTED BY RF-SCORE:    0.00 PKD
ROOT
HETATM    1  C   UNL     1     -12.785  13.771  65.639  1.00  0.00    -0.523 C  
HETATM    2  C   UNL     1     -11.969  13.745  64.358  1.00  0.00    -0.480 C  
ENDROOT
BRANCH   2   3
HETATM    3  C   UNL     1     -10.549  13.249  64.624  1.00  0.00    -0.421 C  
BRANCH   3   4
HETATM    4  C   UNL     1     -10.402  12.760  66.062  1.00  0.00    -0.291 C  
BRANCH   4   5
HETATM    5  C   UNL     1      -9.433  13.649  66.832  1.00  0.00    -0.263 C  
BRANCH   5   6
HETATM    6  C   UNL     1      -9.382  15.046  66.226  1.00  0.00    -0.341 C  
BRANCH   6   7
HETATM    7  C   UNL     1      -9.991  16.059  67.185  1.00  0.00    -0.249 C  
BRANCH   7   8
HETATM    8  C   UNL     1     -10.279  15.413  68.532  1.00  0.00    -0.219 C  
BRANCH   8   9
HETATM    9  C   UNL     1     -11.648  15.843  69.043  1.00  0.00    -0.392 C  
BRANCH   9  10
HETATM   10  C   UNL     1     -11.906  15.248  70.418  1.00  0.00    -0.361 C  
BRANCH  10  11
HETATM   11  C   UNL     1     -12.889  14.093  70.330  1.00  0.00    -0.256 C  
BRANCH  11  12
HETATM   12  C   UNL     1     -12.636  13.115  71.464  1.00  0.00    -0.292 C  
BRANCH  12  13
HETATM   13  C   UNL     1     -12.581  11.678  70.960  1.00  0.00    -0.431 C  
BRANCH  13  14
HETATM   14  C   UNL     1     -12.100  11.589  69.512  1.00  0.00    -0.351 C  
BRANCH  14  15
HETATM   15  C   UNL     1     -10.701  10.993  69.334  1.00  0.00    -0.247 C  
BRANCH  15  16
HETATM   16  C   UNL     1     -10.615   9.525  69.763  1.00  0.00    -0.236 C  
BRANCH  16  17
HETATM   17  N   UNL     1     -10.050   8.594  68.675  1.00  0.00    -0.185 N  
HETATM   18  C   UNL     1     -10.283   7.134  69.041  1.00  0.00    -0.190 C  
HETATM   19  C   UNL     1     -10.708   8.890  67.328  1.00  0.00    -0.149 C  
BRANCH  17  20
HETATM   20  C   UNL     1      -8.512   8.885  68.572  1.00  0.00    -0.129 C  
BRANCH  20  21
HETATM   21  C   UNL     1      -7.994   9.010  67.161  1.00  0.00    -0.102 A  
HETATM   22  C   UNL     1      -7.708   7.863  66.403  1.00  0.00    -0.096 A  
HETATM   23  C   UNL     1      -6.981   7.967  65.217  1.00  0.00    -0.063 A  
HETATM   24  C   UNL     1      -6.567   9.217  64.762  1.00  0.00    -0.076 A  
HETATM   25  C   UNL     1      -6.927  10.368  65.457  1.00  0.00    -0.134 A  
HETATM   26  C   UNL     1      -7.660  10.268  66.639  1.00  0.00    -0.110 A  
ENDBRANCH  20  21
ENDBRANCH  17  20
ENDBRANCH  16  17
ENDBRANCH  15  16
ENDBRANCH  14  15
ENDBRANCH  13  14
ENDBRANCH  12  13
ENDBRANCH  11  12
ENDBRANCH  10  11
ENDBRANCH   9  10
ENDBRANCH   8   9
ENDBRANCH   7   8
ENDBRANCH   6   7
ENDBRANCH   5   6
ENDBRANCH   4   5
ENDBRANCH   3   4
ENDBRANCH   2   3
TORSDOF 17
ENDMDL
MODEL      254
REMARK 921   NORMALIZED FREE ENERGY PREDICTED BY IDOCK:   -3.04 KCAL/MOL
REMARK 922        TOTAL FREE ENERGY PREDICTED BY IDOCK:   -8.89 KCAL/MOL
REMARK 923 INTER-LIGAND FREE ENERGY PREDICTED BY IDOCK:   -7.22 KCAL/MOL
REMARK 924 INTRA-LIGAND FREE ENERGY PREDICTED BY IDOCK:   -1.68 KCAL/MOL
REMARK 927      BINDING AFFINITY PREDICTED BY RF-SCORE:    0.00 PKD
ROOT
HETATM    1  C   UNL     1     -10.739  16.745  67.334  1.00  0.00    -0.244 C  
HETATM    2  C   UNL     1      -9.811  16.392  66.184  1.00  0.00    -0.362 C  
ENDROOT
BRANCH   2   3
HETATM    3  C   UNL     1     -10.575  15.708  65.054  1.00  0.00    -0.422 C  
BRANCH   3   4
HETATM    4  C   UNL     1     -10.664  14.202  65.287  1.00  0.00    -0.374 C  
BRANCH   4   5
HETATM    5  C   UNL     1     -11.855  13.615  64.541  1.00  0.00    -0.445 C  
BRANCH   5   6
HETATM    6  C   UNL     1     -11.490  12.282  63.902  1.00  0.00    -0.512 C  
BRANCH   6   7
HETATM    7  C   UNL     1     -10.093  11.855  64.331  1.00  0.00    -0.310 C  
BRANCH   7   8
HETATM    8  C   UNL     1     -10.158  10.594  65.180  1.00  0.00    -0.374 C  
BRANCH   8   9
HETATM    9  C   UNL     1      -8.979   9.683  64.864  1.00  0.00    -0.260 C  
BRANCH   9  10
HETATM   10  C   UNL     1      -8.750   8.706  66.006  1.00  0.00    -0.196 C  
BRANCH  10  11
HETATM   11  C   UNL     1      -7.559   9.129  66.848  1.00  0.00    -0.091 C  
BRANCH  11  12
HETATM   12  C   UNL     1      -7.295   8.092  67.925  1.00  0.00    -0.093 C  
BRANCH  12  13
HETATM   13  C   UNL     1      -6.758   8.733  69.199  1.00  0.00    -0.051 C  
BRANCH  13  14
HETATM   14  C   UNL     1      -7.753   8.648  70.356  1.00  0.00    -0.081 C  
BRANCH  14  15
HETATM   15  C   UNL     1      -8.976   9.560  70.221  1.00  0.00    -0.288 C  
BRANCH  15  16
HETATM   16  C   UNL     1     -10.025   9.323  71.312  1.00  0.00    -0.271 C  
BRANCH  16  17
HETATM   17  N   UNL     1     -11.259   8.543  70.824  1.00  0.00    -0.255 N  
HETATM   18  C   UNL     1     -10.997   7.919  69.458  1.00  0.00    -0.071 C  
HETATM   19  C   UNL     1     -11.622   7.444  71.821  1.00  0.00    -0.272 C  
BRANCH  17  20
HETATM   20  C   UNL     1     -12.445   9.566  70.730  1.00  0.00    -0.124 C  
BRANCH  20  21
HETATM   21  C   UNL     1     -12.104  10.852  70.018  1.00  0.00    -0.433 A  
HETATM   22  C   UNL     1     -12.153  12.079  70.700  1.00  0.00    -0.369 A  
HETATM   23  C   UNL     1     -12.108  13.279  69.992  1.00  0.00    -0.385 A  
HETATM   24  C   UNL     1     -11.978  13.264  68.604  1.00  0.00    -0.345 A  
HETATM   25  C   UNL     1     -11.833  12.055  67.930  1.00  0.00    -0.320 A  
HETATM   26  C   UNL     1     -11.870  10.854  68.636  1.00  0.00    -0.269 A  
ENDBRANCH  20  21
ENDBRANCH  17  20
ENDBRANCH  16  17
ENDBRANCH  15  16
ENDBRANCH  14  15
ENDBRANCH  13  14
ENDBRANCH  12  13
ENDBRANCH  11  12
ENDBRANCH  10  11
ENDBRANCH   9  10
ENDBRANCH   8   9
ENDBRANCH   7   8
ENDBRANCH   6   7
ENDBRANCH   5   6
ENDBRANCH   4   5
ENDBRANCH   3   4
ENDBRANCH   2   3
TORSDOF 17
ENDMDL
MODEL      255
REMARK 921   NORMALIZED FREE ENERGY PREDICTED BY IDOCK:   -3.02 KCAL/MOL
REMARK 922        TOTAL FREE ENERGY PREDICTED BY IDOCK:   -8.85 KCAL/MOL
REMARK 923 INTER-LIGAND FREE ENERGY PREDICTED BY IDOCK:   -7.09 KCAL/MOL
REMARK 924 INTRA-LIGAND FREE ENERGY PREDICTED BY IDOCK:   -1.76 KCAL/MOL
REMARK 927      BINDING AFFINITY PREDICTED BY RF-SCORE:    0.00 PKD
ROOT
HETATM    1  C   UNL     1      -6.546  13.709  69.232  1.00  0.00    -0.110 C  
HETATM    2  C   UNL     1      -7.820  13.882  68.422  1.00  0.00    -0.138 C  
ENDROOT
BRANCH   2   3
HETATM    3  C   UNL     1      -8.204  15.356  68.314  1.00  0.00    -0.145 C  
BRANCH   3   4
HETATM    4  C   UNL     1      -8.513  15.735  66.869  1.00  0.00    -0.281 C  
BRANCH   4   5
HETATM    5  C   UNL     1     -10.002  15.587  66.584  1.00  0.00    -0.272 C  
BRANCH   5   6
HETATM    6  C   UNL     1     -10.237  14.683  65.381  1.00  0.00    -0.415 C  
BRANCH   6   7
HETATM    7  C   UNL     1     -11.707  14.698  64.988  1.00  0.00    -0.385 C  
BRANCH   7   8
HETATM    8  C   UNL     1     -12.445  13.537  65.638  1.00  0.00    -0.528 C  
BRANCH   8   9
HETATM    9  C   UNL     1     -11.734  12.224  65.337  1.00  0.00    -0.424 C  
BRANCH   9  10
HETATM   10  C   UNL     1     -11.095  11.672  66.602  1.00  0.00    -0.364 C  
BRANCH  10  11
HETATM   11  C   UNL     1     -11.787  12.218  67.838  1.00  0.00    -0.358 C  
BRANCH  11  12
HETATM   12  C   UNL     1     -10.801  12.287  68.992  1.00  0.00    -0.197 C  
BRANCH  12  13
HETATM   13  C   UNL     1     -10.468  10.899  69.525  1.00  0.00    -0.176 C  
BRANCH  13  14
HETATM   14  C   UNL     1     -11.644  10.264  70.267  1.00  0.00    -0.396 C  
BRANCH  14  15
HETATM   15  C   UNL     1     -11.255   9.416  71.481  1.00  0.00    -0.457 C  
BRANCH  15  16
HETATM   16  C   UNL     1     -11.555   7.926  71.294  1.00  0.00    -0.276 C  
BRANCH  16  17
HETATM   17  N   UNL     1     -10.654   7.003  72.134  1.00  0.00    -0.210 N  
HETATM   18  C   UNL     1      -9.738   7.820  73.037  1.00  0.00    -0.267 C  
HETATM   19  C   UNL     1     -11.503   6.065  72.990  1.00  0.00    -0.063 C  
BRANCH  17  20
HETATM   20  C   UNL     1      -9.800   6.152  71.129  1.00  0.00    -0.181 C  
BRANCH  20  21
HETATM   21  C   UNL     1      -9.980   6.533  69.680  1.00  0.00    -0.186 A  
HETATM   22  C   UNL     1     -10.912   5.857  68.876  1.00  0.00    -0.337 A  
HETATM   23  C   UNL     1     -10.889   6.014  67.490  1.00  0.00    -0.393 A  
HETATM   24  C   UNL     1      -9.962   6.873  66.903  1.00  0.00    -0.264 A  
HETATM   25  C   UNL     1      -9.099   7.619  67.699  1.00  0.00    -0.133 A  
HETATM   26  C   UNL     1      -9.124   7.470  69.084  1.00  0.00    -0.138 A  
ENDBRANCH  20  21
ENDBRANCH  17  20
ENDBRANCH  16  17
ENDBRANCH  15  16
ENDBRANCH  14  15
ENDBRANCH  13  14
ENDBRANCH  12  13
ENDBRANCH  11  12
ENDBRANCH  10  11
ENDBRANCH   9  10
ENDBRANCH   8   9
ENDBRANCH   7   8
ENDBRANCH   6   7
ENDBRANCH   5   6
ENDBRANCH   4   5
ENDBRANCH   3   4
ENDBRANCH   2   3
TORSDOF 17
ENDMDL
MODEL      256
REMARK 921   NORMALIZED FREE ENERGY PREDICTED BY IDOCK:   -3.02 KCAL/MOL
REMARK 922        TOTAL FREE ENERGY PREDICTED BY IDOCK:   -8.85 KCAL/MOL
REMARK 923 INTER-LIGAND FREE ENERGY PREDICTED BY IDOCK:   -5.46 KCAL/MOL
REMARK 924 INTRA-LIGAND FREE ENERGY PREDICTED BY IDOCK:   -3.39 KCAL/MOL
REMARK 927      BINDING AFFINITY PREDICTED BY RF-SCORE:    0.00 PKD
ROOT
HETATM    1  C   UNL     1     -12.470   8.317  71.725  1.00  0.00    -0.367 C  
HETATM    2  C   UNL     1     -11.335   7.940  72.662  1.00  0.00    -0.468 C  
ENDROOT
BRANCH   2   3
HETATM    3  C   UNL     1      -9.998   8.460  72.141  1.00  0.00    -0.376 C  
BRANCH   3   4
HETATM    4  C   UNL     1      -8.988   7.325  72.001  1.00  0.00    -0.143 C  
BRANCH   4   5
HETATM    5  C   UNL     1      -7.878   7.714  71.032  1.00  0.00    -0.090 C  
BRANCH   5   6
HETATM    6  C   UNL     1      -7.592   6.582  70.055  1.00  0.00    -0.100 C  
BRANCH   6   7
HETATM    7  C   UNL     1      -8.418   5.354  70.411  1.00  0.00    -0.117 C  
BRANCH   7   8
HETATM    8  C   UNL     1      -8.645   4.489  69.181  1.00  0.00    -0.103 C  
BRANCH   8   9
HETATM    9  C   UNL     1      -8.740   5.359  67.934  1.00  0.00    -0.106 C  
BRANCH   9  10
HETATM   10  C   UNL     1     -10.090   5.166  67.262  1.00  0.00    -0.235 C  
BRANCH  10  11
HETATM   11  C   UNL     1     -10.802   6.497  67.089  1.00  0.00    -0.472 C  
BRANCH  11  12
HETATM   12  C   UNL     1     -10.898   7.208  68.428  1.00  0.00    -0.148 C  
BRANCH  12  13
HETATM   13  C   UNL     1     -10.423   8.652  68.328  1.00  0.00    -0.234 C  
BRANCH  13  14
HETATM   14  C   UNL     1      -9.580   8.901  67.077  1.00  0.00    -0.232 C  
BRANCH  14  15
HETATM   15  C   UNL     1      -8.099   9.185  67.345  1.00  0.00    -0.107 C  
BRANCH  15  16
HETATM   16  C   UNL     1      -7.871  10.454  68.170  1.00  0.00    -0.108 C  
BRANCH  16  17
HETATM   17  N   UNL     1      -6.871  11.435  67.532  1.00  0.00    -0.080 N  
HETATM   18  C   UNL     1      -5.624  11.573  68.398  1.00  0.00    -0.045 C  
HETATM   19  C   UNL     1      -6.468  10.954  66.139  1.00  0.00    -0.114 C  
BRANCH  17  20
HETATM   20  C   UNL     1      -7.597  12.820  67.410  1.00  0.00    -0.152 C  
BRANCH  20  21
HETATM   21  C   UNL     1      -9.088  12.726  67.200  1.00  0.00    -0.219 A  
HETATM   22  C   UNL     1      -9.965  12.765  68.297  1.00  0.00    -0.230 A  
HETATM   23  C   UNL     1     -11.304  12.407  68.138  1.00  0.00    -0.341 A  
HETATM   24  C   UNL     1     -11.784  12.044  66.881  1.00  0.00    -0.342 A  
HETATM   25  C   UNL     1     -10.945  12.094  65.773  1.00  0.00    -0.338 A  
HETATM   26  C   UNL     1      -9.608  12.459  65.925  1.00  0.00    -0.193 A  
ENDBRANCH  20  21
ENDBRANCH  17  20
ENDBRANCH  16  17
ENDBRANCH  15  16
ENDBRANCH  14  15
ENDBRANCH  13  14
ENDBRANCH  12  13
ENDBRANCH  11  12
ENDBRANCH  10  11
ENDBRANCH   9  10
ENDBRANCH   8   9
ENDBRANCH   7   8
ENDBRANCH   6   7
ENDBRANCH   5   6
ENDBRANCH   4   5
ENDBRANCH   3   4
ENDBRANCH   2   3
TORSDOF 17
ENDMDL
MODEL      257
REMARK 921   NORMALIZED FREE ENERGY PREDICTED BY IDOCK:   -3.02 KCAL/MOL
REMARK 922        TOTAL FREE ENERGY PREDICTED BY IDOCK:   -8.85 KCAL/MOL
REMARK 923 INTER-LIGAND FREE ENERGY PREDICTED BY IDOCK:   -7.59 KCAL/MOL
REMARK 924 INTRA-LIGAND FREE ENERGY PREDICTED BY IDOCK:   -1.26 KCAL/MOL
REMARK 927      BINDING AFFINITY PREDICTED BY RF-SCORE:    0.00 PKD
ROOT
HETATM    1  C   UNL     1      -6.940  14.204  68.537  1.00  0.00    -0.104 C  
HETATM    2  C   UNL     1      -7.749  14.484  67.282  1.00  0.00    -0.177 C  
ENDROOT
BRANCH   2   3
HETATM    3  C   UNL     1      -8.801  15.561  67.537  1.00  0.00    -0.191 C  
BRANCH   3   4
HETATM    4  C   UNL     1      -9.472  15.988  66.235  1.00  0.00    -0.347 C  
BRANCH   4   5
HETATM    5  C   UNL     1     -10.831  15.315  66.089  1.00  0.00    -0.320 C  
BRANCH   5   6
HETATM    6  C   UNL     1     -10.965  14.658  64.721  1.00  0.00    -0.399 C  
BRANCH   6   7
HETATM    7  C   UNL     1     -12.364  14.081  64.547  1.00  0.00    -0.409 C  
BRANCH   7   8
HETATM    8  C   UNL     1     -12.400  12.628  64.996  1.00  0.00    -0.561 C  
BRANCH   8   9
HETATM    9  C   UNL     1     -11.140  11.903  64.542  1.00  0.00    -0.381 C  
BRANCH   9  10
HETATM   10  C   UNL     1     -10.393  11.347  65.744  1.00  0.00    -0.304 C  
BRANCH  10  11
HETATM   11  C   UNL     1     -11.255  11.413  66.993  1.00  0.00    -0.350 C  
BRANCH  11  12
HETATM   12  C   UNL     1     -10.493  12.107  68.109  1.00  0.00    -0.225 C  
BRANCH  12  13
HETATM   13  C   UNL     1      -9.481  11.171  68.760  1.00  0.00    -0.173 C  
BRANCH  13  14
HETATM   14  C   UNL     1     -10.022   9.750  68.915  1.00  0.00    -0.183 C  
BRANCH  14  15
HETATM   15  C   UNL     1     -10.367   9.346  70.351  1.00  0.00    -0.318 C  
BRANCH  15  16
HETATM   16  C   UNL     1     -11.193   8.060  70.432  1.00  0.00    -0.229 C  
BRANCH  16  17
HETATM   17  N   UNL     1     -12.064   7.962  71.697  1.00  0.00    -0.288 N  
HETATM   18  C   UNL     1     -12.627   9.328  72.071  1.00  0.00    -0.390 C  
HETATM   19  C   UNL     1     -13.216   6.983  71.476  1.00  0.00    -0.317 C  
BRANCH  17  20
HETATM   20  C   UNL     1     -11.145   7.425  72.850  1.00  0.00    -0.349 C  
BRANCH  20  21
HETATM   21  C   UNL     1     -10.601   6.037  72.617  1.00  0.00    -0.251 A  
HETATM   22  C   UNL     1      -9.845   5.752  71.468  1.00  0.00    -0.209 A  
HETATM   23  C   UNL     1      -9.576   4.429  71.114  1.00  0.00    -0.245 A  
HETATM   24  C   UNL     1     -10.028   3.387  71.921  1.00  0.00    -0.210 A  
HETATM   25  C   UNL     1     -10.695   3.664  73.110  1.00  0.00    -0.268 A  
HETATM   26  C   UNL     1     -10.959   4.984  73.472  1.00  0.00    -0.393 A  
ENDBRANCH  20  21
ENDBRANCH  17  20
ENDBRANCH  16  17
ENDBRANCH  15  16
ENDBRANCH  14  15
ENDBRANCH  13  14
ENDBRANCH  12  13
ENDBRANCH  11  12
ENDBRANCH  10  11
ENDBRANCH   9  10
ENDBRANCH   8   9
ENDBRANCH   7   8
ENDBRANCH   6   7
ENDBRANCH   5   6
ENDBRANCH   4   5
ENDBRANCH   3   4
ENDBRANCH   2   3
TORSDOF 17
ENDMDL
MODEL      258
REMARK 921   NORMALIZED FREE ENERGY PREDICTED BY IDOCK:   -3.01 KCAL/MOL
REMARK 922        TOTAL FREE ENERGY PREDICTED BY IDOCK:   -8.84 KCAL/MOL
REMARK 923 INTER-LIGAND FREE ENERGY PREDICTED BY IDOCK:   -7.44 KCAL/MOL
REMARK 924 INTRA-LIGAND FREE ENERGY PREDICTED BY IDOCK:   -1.41 KCAL/MOL
REMARK 927      BINDING AFFINITY PREDICTED BY RF-SCORE:    0.00 PKD
ROOT
HETATM    1  C   UNL     1     -12.513  15.301  74.092  1.00  0.00    -0.739 C  
HETATM    2  C   UNL     1     -13.544  15.653  73.033  1.00  0.00    -0.619 C  
ENDROOT
BRANCH   2   3
HETATM    3  C   UNL     1     -13.463  14.691  71.850  1.00  0.00    -0.461 C  
BRANCH   3   4
HETATM    4  C   UNL     1     -12.982  15.411  70.593  1.00  0.00    -0.450 C  
BRANCH   4   5
HETATM    5  C   UNL     1     -11.590  14.931  70.202  1.00  0.00    -0.333 C  
BRANCH   5   6
HETATM    6  C   UNL     1     -11.673  13.791  69.196  1.00  0.00    -0.379 C  
BRANCH   6   7
HETATM    7  C   UNL     1     -10.875  14.130  67.945  1.00  0.00    -0.253 C  
BRANCH   7   8
HETATM    8  C   UNL     1     -11.786  14.711  66.874  1.00  0.00    -0.366 C  
BRANCH   8   9
HETATM    9  C   UNL     1     -12.425  13.592  66.061  1.00  0.00    -0.456 C  
BRANCH   9  10
HETATM   10  C   UNL     1     -12.041  13.722  64.596  1.00  0.00    -0.452 C  
BRANCH  10  11
HETATM   11  C   UNL     1     -10.751  12.975  64.307  1.00  0.00    -0.430 C  
BRANCH  11  12
HETATM   12  C   UNL     1     -10.983  11.479  64.431  1.00  0.00    -0.390 C  
BRANCH  12  13
HETATM   13  C   UNL     1     -10.056  10.854  65.467  1.00  0.00    -0.325 C  
BRANCH  13  14
HETATM   14  C   UNL     1     -10.778  10.539  66.777  1.00  0.00    -0.252 C  
BRANCH  14  15
HETATM   15  C   UNL     1      -9.859  10.338  67.985  1.00  0.00    -0.171 C  
BRANCH  15  16
HETATM   16  C   UNL     1      -8.541   9.643  67.629  1.00  0.00    -0.126 C  
BRANCH  16  17
HETATM   17  N   UNL     1      -7.796   9.068  68.847  1.00  0.00    -0.094 N  
HETATM   18  C   UNL     1      -7.182   7.714  68.513  1.00  0.00    -0.086 C  
HETATM   19  C   UNL     1      -6.694  10.026  69.297  1.00  0.00    -0.057 C  
BRANCH  17  20
HETATM   20  C   UNL     1      -8.848   8.913  70.001  1.00  0.00    -0.160 C  
BRANCH  20  21
HETATM   21  C   UNL     1      -8.697   7.653  70.816  1.00  0.00    -0.139 A  
HETATM   22  C   UNL     1      -9.446   6.507  70.501  1.00  0.00    -0.173 A  
HETATM   23  C   UNL     1      -9.516   5.444  71.402  1.00  0.00    -0.188 A  
HETATM   24  C   UNL     1      -8.813   5.503  72.603  1.00  0.00    -0.123 A  
HETATM   25  C   UNL     1      -7.994   6.592  72.881  1.00  0.00    -0.103 A  
HETATM   26  C   UNL     1      -7.915   7.653  71.980  1.00  0.00    -0.112 A  
ENDBRANCH  20  21
ENDBRANCH  17  20
ENDBRANCH  16  17
ENDBRANCH  15  16
ENDBRANCH  14  15
ENDBRANCH  13  14
ENDBRANCH  12  13
ENDBRANCH  11  12
ENDBRANCH  10  11
ENDBRANCH   9  10
ENDBRANCH   8   9
ENDBRANCH   7   8
ENDBRANCH   6   7
ENDBRANCH   5   6
ENDBRANCH   4   5
ENDBRANCH   3   4
ENDBRANCH   2   3
TORSDOF 17
ENDMDL
MODEL      259
REMARK 921   NORMALIZED FREE ENERGY PREDICTED BY IDOCK:   -3.01 KCAL/MOL
REMARK 922        TOTAL FREE ENERGY PREDICTED BY IDOCK:   -8.84 KCAL/MOL
REMARK 923 INTER-LIGAND FREE ENERGY PREDICTED BY IDOCK:   -6.12 KCAL/MOL
REMARK 924 INTRA-LIGAND FREE ENERGY PREDICTED BY IDOCK:   -2.72 KCAL/MOL
REMARK 927      BINDING AFFINITY PREDICTED BY RF-SCORE:    0.00 PKD
ROOT
HETATM    1  C   UNL     1      -5.270  15.918  70.332  1.00  0.00    -0.160 C  
HETATM    2  C   UNL     1      -6.226  14.781  70.648  1.00  0.00    -0.080 C  
ENDROOT
BRANCH   2   3
HETATM    3  C   UNL     1      -6.083  13.648  69.635  1.00  0.00    -0.120 C  
BRANCH   3   4
HETATM    4  C   UNL     1      -7.362  13.482  68.818  1.00  0.00    -0.086 C  
BRANCH   4   5
HETATM    5  C   UNL     1      -7.161  14.002  67.400  1.00  0.00    -0.117 C  
BRANCH   5   6
HETATM    6  C   UNL     1      -7.520  15.479  67.310  1.00  0.00    -0.258 C  
BRANCH   6   7
HETATM    7  C   UNL     1      -8.646  15.689  66.307  1.00  0.00    -0.265 C  
BRANCH   7   8
HETATM    8  C   UNL     1      -9.209  17.097  66.425  1.00  0.00    -0.285 C  
BRANCH   8   9
HETATM    9  C   UNL     1      -8.669  17.779  67.676  1.00  0.00    -0.244 C  
BRANCH   9  10
HETATM   10  C   UNL     1      -9.816  18.201  68.580  1.00  0.00    -0.393 C  
BRANCH  10  11
HETATM   11  C   UNL     1     -10.849  17.093  68.694  1.00  0.00    -0.250 C  
BRANCH  11  12
HETATM   12  C   UNL     1     -10.341  16.010  69.630  1.00  0.00    -0.283 C  
BRANCH  12  13
HETATM   13  C   UNL     1     -10.968  14.658  69.312  1.00  0.00    -0.278 C  
BRANCH  13  14
HETATM   14  C   UNL     1     -11.772  14.683  68.012  1.00  0.00    -0.371 C  
BRANCH  14  15
HETATM   15  C   UNL     1     -12.001  13.311  67.371  1.00  0.00    -0.383 C  
BRANCH  15  16
HETATM   16  C   UNL     1     -10.750  12.753  66.686  1.00  0.00    -0.261 C  
BRANCH  16  17
HETATM   17  N   UNL     1     -10.990  12.296  65.236  1.00  0.00    -0.297 N  
HETATM   18  C   UNL     1     -12.472  12.359  64.889  1.00  0.00    -0.361 C  
HETATM   19  C   UNL     1     -10.205  13.177  64.264  1.00  0.00    -0.261 C  
BRANCH  17  20
HETATM   20  C   UNL     1     -10.472  10.819  65.125  1.00  0.00    -0.229 C  
BRANCH  20  21
HETATM   21  C   UNL     1      -9.821  10.291  66.379  1.00  0.00    -0.272 A  
HETATM   22  C   UNL     1      -8.457  10.520  66.624  1.00  0.00    -0.129 A  
HETATM   23  C   UNL     1      -7.795   9.813  67.628  1.00  0.00    -0.095 A  
HETATM   24  C   UNL     1      -8.496   8.902  68.415  1.00  0.00    -0.129 A  
HETATM   25  C   UNL     1      -9.866   8.739  68.242  1.00  0.00    -0.185 A  
HETATM   26  C   UNL     1     -10.533   9.449  67.246  1.00  0.00    -0.332 A  
ENDBRANCH  20  21
ENDBRANCH  17  20
ENDBRANCH  16  17
ENDBRANCH  15  16
ENDBRANCH  14  15
ENDBRANCH  13  14
ENDBRANCH  12  13
ENDBRANCH  11  12
ENDBRANCH  10  11
ENDBRANCH   9  10
ENDBRANCH   8   9
ENDBRANCH   7   8
ENDBRANCH   6   7
ENDBRANCH   5   6
ENDBRANCH   4   5
ENDBRANCH   3   4
ENDBRANCH   2   3
TORSDOF 17
ENDMDL
MODEL      260
REMARK 921   NORMALIZED FREE ENERGY PREDICTED BY IDOCK:   -3.01 KCAL/MOL
REMARK 922        TOTAL FREE ENERGY PREDICTED BY IDOCK:   -8.84 KCAL/MOL
REMARK 923 INTER-LIGAND FREE ENERGY PREDICTED BY IDOCK:   -6.05 KCAL/MOL
REMARK 924 INTRA-LIGAND FREE ENERGY PREDICTED BY IDOCK:   -2.79 KCAL/MOL
REMARK 927      BINDING AFFINITY PREDICTED BY RF-SCORE:    0.00 PKD
ROOT
HETATM    1  C   UNL     1      -9.240   2.590  67.905  1.00  0.00    -0.250 C  
HETATM    2  C   UNL     1      -8.687   2.593  69.320  1.00  0.00    -0.134 C  
ENDROOT
BRANCH   2   3
HETATM    3  C   UNL     1      -9.786   2.890  70.337  1.00  0.00    -0.062 C  
BRANCH   3   4
HETATM    4  C   UNL     1      -9.258   2.765  71.764  1.00  0.00    -0.171 C  
BRANCH   4   5
HETATM    5  C   UNL     1     -10.390   2.424  72.724  1.00  0.00    -0.240 C  
BRANCH   5   6
HETATM    6  C   UNL     1     -10.713   3.610  73.623  1.00  0.00    -0.307 C  
BRANCH   6   7
HETATM    7  C   UNL     1      -9.644   4.685  73.485  1.00  0.00    -0.138 C  
BRANCH   7   8
HETATM    8  C   UNL     1     -10.098   5.977  74.146  1.00  0.00    -0.287 C  
BRANCH   8   9
HETATM    9  C   UNL     1     -10.640   6.944  73.101  1.00  0.00    -0.330 C  
BRANCH   9  10
HETATM   10  C   UNL     1     -10.458   6.364  71.707  1.00  0.00    -0.246 C  
BRANCH  10  11
HETATM   11  C   UNL     1     -11.756   6.436  70.920  1.00  0.00    -0.366 C  
BRANCH  11  12
HETATM   12  C   UNL     1     -11.461   6.343  69.433  1.00  0.00    -0.374 C  
BRANCH  12  13
HETATM   13  C   UNL     1      -9.967   6.438  69.152  1.00  0.00    -0.173 C  
BRANCH  13  14
HETATM   14  C   UNL     1      -9.636   6.201  67.678  1.00  0.00    -0.113 C  
BRANCH  14  15
HETATM   15  C   UNL     1      -9.658   7.458  66.804  1.00  0.00    -0.249 C  
BRANCH  15  16
HETATM   16  C   UNL     1      -8.490   8.406  67.087  1.00  0.00    -0.123 C  
BRANCH  16  17
HETATM   17  N   UNL     1      -8.603   9.761  66.364  1.00  0.00    -0.123 N  
HETATM   18  C   UNL     1      -7.322  10.074  65.601  1.00  0.00    -0.127 C  
HETATM   19  C   UNL     1      -9.781   9.747  65.391  1.00  0.00    -0.313 C  
BRANCH  17  20
HETATM   20  C   UNL     1      -8.856  10.851  67.463  1.00  0.00    -0.133 C  
BRANCH  20  21
HETATM   21  C   UNL     1      -9.854  10.451  68.521  1.00  0.00    -0.176 A  
HETATM   22  C   UNL     1     -11.210  10.791  68.386  1.00  0.00    -0.345 A  
HETATM   23  C   UNL     1     -12.078  10.667  69.471  1.00  0.00    -0.285 A  
HETATM   24  C   UNL     1     -11.606  10.172  70.686  1.00  0.00    -0.429 A  
HETATM   25  C   UNL     1     -10.287   9.744  70.801  1.00  0.00    -0.298 A  
HETATM   26  C   UNL     1      -9.420   9.858  69.715  1.00  0.00    -0.254 A  
ENDBRANCH  20  21
ENDBRANCH  17  20
ENDBRANCH  16  17
ENDBRANCH  15  16
ENDBRANCH  14  15
ENDBRANCH  13  14
ENDBRANCH  12  13
ENDBRANCH  11  12
ENDBRANCH  10  11
ENDBRANCH   9  10
ENDBRANCH   8   9
ENDBRANCH   7   8
ENDBRANCH   6   7
ENDBRANCH   5   6
ENDBRANCH   4   5
ENDBRANCH   3   4
ENDBRANCH   2   3
TORSDOF 17
ENDMDL
MODEL      261
REMARK 921   NORMALIZED FREE ENERGY PREDICTED BY IDOCK:   -3.00 KCAL/MOL
REMARK 922        TOTAL FREE ENERGY PREDICTED BY IDOCK:   -8.83 KCAL/MOL
REMARK 923 INTER-LIGAND FREE ENERGY PREDICTED BY IDOCK:   -6.77 KCAL/MOL
REMARK 924 INTRA-LIGAND FREE ENERGY PREDICTED BY IDOCK:   -2.05 KCAL/MOL
REMARK 927      BINDING AFFINITY PREDICTED BY RF-SCORE:    0.00 PKD
ROOT
HETATM    1  C   UNL     1      -7.614   8.342  66.985  1.00  0.00    -0.092 C  
HETATM    2  C   UNL     1      -8.984   8.662  66.412  1.00  0.00    -0.197 C  
ENDROOT
BRANCH   2   3
HETATM    3  C   UNL     1      -8.889   9.738  65.332  1.00  0.00    -0.199 C  
BRANCH   3   4
HETATM    4  C   UNL     1     -10.269  10.289  64.987  1.00  0.00    -0.277 C  
BRANCH   4   5
HETATM    5  C   UNL     1     -10.211  11.800  64.806  1.00  0.00    -0.324 C  
BRANCH   5   6
HETATM    6  C   UNL     1     -11.482  12.315  64.143  1.00  0.00    -0.453 C  
BRANCH   6   7
HETATM    7  C   UNL     1     -12.415  12.916  65.186  1.00  0.00    -0.561 C  
BRANCH   7   8
HETATM    8  C   UNL     1     -11.657  13.873  66.092  1.00  0.00    -0.371 C  
BRANCH   8   9
HETATM    9  C   UNL     1     -12.014  13.615  67.550  1.00  0.00    -0.393 C  
BRANCH   9  10
HETATM   10  C   UNL     1     -10.761  13.297  68.349  1.00  0.00    -0.273 C  
BRANCH  10  11
HETATM   11  C   UNL     1     -10.418  11.820  68.250  1.00  0.00    -0.224 C  
BRANCH  11  12
HETATM   12  C   UNL     1     -11.685  10.989  68.359  1.00  0.00    -0.329 C  
BRANCH  12  13
HETATM   13  C   UNL     1     -11.937  10.543  69.794  1.00  0.00    -0.309 C  
BRANCH  13  14
HETATM   14  C   UNL     1     -10.659  10.077  70.491  1.00  0.00    -0.313 C  
BRANCH  14  15
HETATM   15  C   UNL     1     -10.203   8.663  70.121  1.00  0.00    -0.204 C  
BRANCH  15  16
HETATM   16  C   UNL     1     -10.541   7.623  71.194  1.00  0.00    -0.221 C  
BRANCH  16  17
HETATM   17  N   UNL     1     -10.153   6.185  70.805  1.00  0.00    -0.188 N  
HETATM   18  C   UNL     1      -8.692   6.118  70.376  1.00  0.00    -0.142 C  
HETATM   19  C   UNL     1     -10.379   5.237  71.982  1.00  0.00    -0.215 C  
BRANCH  17  20
HETATM   20  C   UNL     1     -11.084   5.762  69.615  1.00  0.00    -0.236 C  
BRANCH  20  21
HETATM   21  C   UNL     1     -10.364   5.099  68.466  1.00  0.00    -0.140 A  
HETATM   22  C   UNL     1     -10.449   5.632  67.170  1.00  0.00    -0.334 A  
HETATM   23  C   UNL     1     -10.021   4.884  66.073  1.00  0.00    -0.243 A  
HETATM   24  C   UNL     1      -9.474   3.617  66.266  1.00  0.00    -0.177 A  
HETATM   25  C   UNL     1      -9.299   3.120  67.554  1.00  0.00    -0.241 A  
HETATM   26  C   UNL     1      -9.718   3.868  68.653  1.00  0.00    -0.114 A  
ENDBRANCH  20  21
ENDBRANCH  17  20
ENDBRANCH  16  17
ENDBRANCH  15  16
ENDBRANCH  14  15
ENDBRANCH  13  14
ENDBRANCH  12  13
ENDBRANCH  11  12
ENDBRANCH  10  11
ENDBRANCH   9  10
ENDBRANCH   8   9
ENDBRANCH   7   8
ENDBRANCH   6   7
ENDBRANCH   5   6
ENDBRANCH   4   5
ENDBRANCH   3   4
ENDBRANCH   2   3
TORSDOF 17
ENDMDL
MODEL      262
REMARK 921   NORMALIZED FREE ENERGY PREDICTED BY IDOCK:   -3.00 KCAL/MOL
REMARK 922        TOTAL FREE ENERGY PREDICTED BY IDOCK:   -8.81 KCAL/MOL
REMARK 923 INTER-LIGAND FREE ENERGY PREDICTED BY IDOCK:   -6.37 KCAL/MOL
REMARK 924 INTRA-LIGAND FREE ENERGY PREDICTED BY IDOCK:   -2.45 KCAL/MOL
REMARK 927      BINDING AFFINITY PREDICTED BY RF-SCORE:    0.00 PKD
ROOT
HETATM    1  C   UNL     1      -9.190  13.906  66.786  1.00  0.00    -0.267 C  
HETATM    2  C   UNL     1      -9.611  15.242  66.197  1.00  0.00    -0.353 C  
ENDROOT
BRANCH   2   3
HETATM    3  C   UNL     1     -11.031  15.171  65.640  1.00  0.00    -0.359 C  
BRANCH   3   4
HETATM    4  C   UNL     1     -11.842  14.088  66.346  1.00  0.00    -0.437 C  
BRANCH   4   5
HETATM    5  C   UNL     1     -12.741  13.362  65.354  1.00  0.00    -0.484 C  
BRANCH   5   6
HETATM    6  C   UNL     1     -12.099  13.317  63.974  1.00  0.00    -0.508 C  
BRANCH   6   7
HETATM    7  C   UNL     1     -11.664  11.896  63.640  1.00  0.00    -0.572 C  
BRANCH   7   8
HETATM    8  C   UNL     1     -10.178  11.855  63.318  1.00  0.00    -0.428 C  
BRANCH   8   9
HETATM    9  C   UNL     1      -9.503  10.726  64.085  1.00  0.00    -0.309 C  
BRANCH   9  10
HETATM   10  C   UNL     1     -10.023  10.677  65.513  1.00  0.00    -0.333 C  
BRANCH  10  11
HETATM   11  C   UNL     1     -10.032   9.251  66.036  1.00  0.00    -0.325 C  
BRANCH  11  12
HETATM   12  C   UNL     1     -10.657   9.214  67.420  1.00  0.00    -0.315 C  
BRANCH  12  13
HETATM   13  C   UNL     1     -10.318   7.920  68.151  1.00  0.00    -0.249 C  
BRANCH  13  14
HETATM   14  C   UNL     1     -11.011   6.706  67.533  1.00  0.00    -0.416 C  
BRANCH  14  15
HETATM   15  C   UNL     1     -10.076   5.550  67.165  1.00  0.00    -0.220 C  
BRANCH  15  16
HETATM   16  C   UNL     1      -8.866   5.996  66.339  1.00  0.00    -0.136 C  
BRANCH  16  17
HETATM   17  N   UNL     1      -7.607   5.144  66.578  1.00  0.00    -0.087 N  
HETATM   18  C   UNL     1      -7.370   4.938  68.070  1.00  0.00    -0.070 C  
HETATM   19  C   UNL     1      -7.747   3.784  65.896  1.00  0.00    -0.089 C  
BRANCH  17  20
HETATM   20  C   UNL     1      -6.399   5.917  65.943  1.00  0.00    -0.042 C  
BRANCH  20  21
HETATM   21  C   UNL     1      -6.324   7.376  66.321  1.00  0.00    -0.041 A  
HETATM   22  C   UNL     1      -6.499   7.775  67.656  1.00  0.00    -0.055 A  
HETATM   23  C   UNL     1      -6.702   9.120  67.966  1.00  0.00    -0.068 A  
HETATM   24  C   UNL     1      -6.696  10.076  66.953  1.00  0.00    -0.079 A  
HETATM   25  C   UNL     1      -6.429   9.701  65.640  1.00  0.00    -0.074 A  
HETATM   26  C   UNL     1      -6.217   8.359  65.327  1.00  0.00    -0.049 A  
ENDBRANCH  20  21
ENDBRANCH  17  20
ENDBRANCH  16  17
ENDBRANCH  15  16
ENDBRANCH  14  15
ENDBRANCH  13  14
ENDBRANCH  12  13
ENDBRANCH  11  12
ENDBRANCH  10  11
ENDBRANCH   9  10
ENDBRANCH   8   9
ENDBRANCH   7   8
ENDBRANCH   6   7
ENDBRANCH   5   6
ENDBRANCH   4   5
ENDBRANCH   3   4
ENDBRANCH   2   3
TORSDOF 17
ENDMDL
MODEL      263
REMARK 921   NORMALIZED FREE ENERGY PREDICTED BY IDOCK:   -3.00 KCAL/MOL
REMARK 922        TOTAL FREE ENERGY PREDICTED BY IDOCK:   -8.81 KCAL/MOL
REMARK 923 INTER-LIGAND FREE ENERGY PREDICTED BY IDOCK:   -7.01 KCAL/MOL
REMARK 924 INTRA-LIGAND FREE ENERGY PREDICTED BY IDOCK:   -1.80 KCAL/MOL
REMARK 927      BINDING AFFINITY PREDICTED BY RF-SCORE:    0.00 PKD
ROOT
HETATM    1  C   UNL     1     -11.964  10.685  68.963  1.00  0.00    -0.186 C  
HETATM    2  C   UNL     1     -11.200  11.961  69.271  1.00  0.00    -0.304 C  
ENDROOT
BRANCH   2   3
HETATM    3  C   UNL     1     -12.080  12.958  70.022  1.00  0.00    -0.357 C  
BRANCH   3   4
HETATM    4  C   UNL     1     -11.476  14.359  69.979  1.00  0.00    -0.295 C  
BRANCH   4   5
HETATM    5  C   UNL     1     -11.727  15.007  68.624  1.00  0.00    -0.363 C  
BRANCH   5   6
HETATM    6  C   UNL     1     -10.413  15.277  67.902  1.00  0.00    -0.253 C  
BRANCH   6   7
HETATM    7  C   UNL     1     -10.429  14.635  66.521  1.00  0.00    -0.290 C  
BRANCH   7   8
HETATM    8  C   UNL     1     -11.859  14.426  66.046  1.00  0.00    -0.379 C  
BRANCH   8   9
HETATM    9  C   UNL     1     -11.942  13.202  65.143  1.00  0.00    -0.431 C  
BRANCH   9  10
HETATM   10  C   UNL     1     -10.660  13.056  64.338  1.00  0.00    -0.429 C  
BRANCH  10  11
HETATM   11  C   UNL     1     -10.311  11.591  64.142  1.00  0.00    -0.386 C  
BRANCH  11  12
HETATM   12  C   UNL     1     -10.762  10.787  65.350  1.00  0.00    -0.149 C  
BRANCH  12  13
HETATM   13  C   UNL     1      -9.585  10.107  66.039  1.00  0.00    -0.265 C  
BRANCH  13  14
HETATM   14  C   UNL     1      -9.896   8.662  66.427  1.00  0.00    -0.341 C  
BRANCH  14  15
HETATM   15  C   UNL     1      -9.366   8.236  67.799  1.00  0.00    -0.153 C  
BRANCH  15  16
HETATM   16  C   UNL     1     -10.205   7.135  68.453  1.00  0.00    -0.174 C  
BRANCH  16  17
HETATM   17  N   UNL     1      -9.787   6.814  69.899  1.00  0.00    -0.165 N  
HETATM   18  C   UNL     1      -8.421   6.139  69.929  1.00  0.00    -0.129 C  
HETATM   19  C   UNL     1      -9.737   8.093  70.734  1.00  0.00    -0.170 C  
BRANCH  17  20
HETATM   20  C   UNL     1     -10.876   5.853  70.493  1.00  0.00    -0.296 C  
BRANCH  20  21
HETATM   21  C   UNL     1     -10.445   5.114  71.735  1.00  0.00    -0.268 A  
HETATM   22  C   UNL     1      -9.951   3.802  71.648  1.00  0.00    -0.211 A  
HETATM   23  C   UNL     1      -9.812   3.027  72.799  1.00  0.00    -0.197 A  
HETATM   24  C   UNL     1     -10.130   3.565  74.044  1.00  0.00    -0.194 A  
HETATM   25  C   UNL     1     -10.530   4.893  74.149  1.00  0.00    -0.335 A  
HETATM   26  C   UNL     1     -10.662   5.675  73.002  1.00  0.00    -0.290 A  
ENDBRANCH  20  21
ENDBRANCH  17  20
ENDBRANCH  16  17
ENDBRANCH  15  16
ENDBRANCH  14  15
ENDBRANCH  13  14
ENDBRANCH  12  13
ENDBRANCH  11  12
ENDBRANCH  10  11
ENDBRANCH   9  10
ENDBRANCH   8   9
ENDBRANCH   7   8
ENDBRANCH   6   7
ENDBRANCH   5   6
ENDBRANCH   4   5
ENDBRANCH   3   4
ENDBRANCH   2   3
TORSDOF 17
ENDMDL
MODEL      264
REMARK 921   NORMALIZED FREE ENERGY PREDICTED BY IDOCK:   -2.99 KCAL/MOL
REMARK 922        TOTAL FREE ENERGY PREDICTED BY IDOCK:   -8.81 KCAL/MOL
REMARK 923 INTER-LIGAND FREE ENERGY PREDICTED BY IDOCK:   -7.16 KCAL/MOL
REMARK 924 INTRA-LIGAND FREE ENERGY PREDICTED BY IDOCK:   -1.65 KCAL/MOL
REMARK 927      BINDING AFFINITY PREDICTED BY RF-SCORE:    0.00 PKD
ROOT
HETATM    1  C   UNL     1      -9.024   2.235  67.647  1.00  0.00    -0.189 C  
HETATM    2  C   UNL     1      -8.450   3.180  66.605  1.00  0.00    -0.108 C  
ENDROOT
BRANCH   2   3
HETATM    3  C   UNL     1      -9.421   3.367  65.442  1.00  0.00    -0.136 C  
BRANCH   3   4
HETATM    4  C   UNL     1     -10.106   4.729  65.516  1.00  0.00    -0.160 C  
BRANCH   4   5
HETATM    5  C   UNL     1      -9.079   5.833  65.734  1.00  0.00    -0.122 C  
BRANCH   5   6
HETATM    6  C   UNL     1      -9.467   6.706  66.920  1.00  0.00    -0.184 C  
BRANCH   6   7
HETATM    7  C   UNL     1     -10.946   6.540  67.237  1.00  0.00    -0.475 C  
BRANCH   7   8
HETATM    8  C   UNL     1     -11.194   6.712  68.728  1.00  0.00    -0.256 C  
BRANCH   8   9
HETATM    9  C   UNL     1     -10.532   5.583  69.508  1.00  0.00    -0.368 C  
BRANCH   9  10
HETATM   10  C   UNL     1     -10.671   5.826  71.002  1.00  0.00    -0.326 C  
BRANCH  10  11
HETATM   11  C   UNL     1     -11.811   6.788  71.289  1.00  0.00    -0.396 C  
BRANCH  11  12
HETATM   12  C   UNL     1     -11.331   7.894  72.213  1.00  0.00    -0.393 C  
BRANCH  12  13
HETATM   13  C   UNL     1     -10.797   9.086  71.426  1.00  0.00    -0.400 C  
BRANCH  13  14
HETATM   14  C   UNL     1     -11.912  10.023  70.964  1.00  0.00    -0.469 C  
BRANCH  14  15
HETATM   15  C   UNL     1     -11.779  10.518  69.521  1.00  0.00    -0.313 C  
BRANCH  15  16
HETATM   16  C   UNL     1     -10.457  11.244  69.255  1.00  0.00    -0.111 C  
BRANCH  16  17
HETATM   17  N   UNL     1     -10.258  11.647  67.782  1.00  0.00    -0.183 N  
HETATM   18  C   UNL     1      -8.878  12.258  67.572  1.00  0.00    -0.182 C  
HETATM   19  C   UNL     1     -10.417  10.430  66.872  1.00  0.00    -0.240 C  
BRANCH  17  20
HETATM   20  C   UNL     1     -11.371  12.698  67.437  1.00  0.00    -0.313 C  
BRANCH  20  21
HETATM   21  C   UNL     1     -10.987  14.129  67.724  1.00  0.00    -0.274 A  
HETATM   22  C   UNL     1     -11.357  14.737  68.934  1.00  0.00    -0.302 A  
HETATM   23  C   UNL     1     -11.247  16.119  69.089  1.00  0.00    -0.336 A  
HETATM   24  C   UNL     1     -10.736  16.897  68.052  1.00  0.00    -0.364 A  
HETATM   25  C   UNL     1     -10.279  16.292  66.886  1.00  0.00    -0.288 A  
HETATM   26  C   UNL     1     -10.379  14.910  66.730  1.00  0.00    -0.269 A  
ENDBRANCH  20  21
ENDBRANCH  17  20
ENDBRANCH  16  17
ENDBRANCH  15  16
ENDBRANCH  14  15
ENDBRANCH  13  14
ENDBRANCH  12  13
ENDBRANCH  11  12
ENDBRANCH  10  11
ENDBRANCH   9  10
ENDBRANCH   8   9
ENDBRANCH   7   8
ENDBRANCH   6   7
ENDBRANCH   5   6
ENDBRANCH   4   5
ENDBRANCH   3   4
ENDBRANCH   2   3
TORSDOF 17
ENDMDL
MODEL      265
REMARK 921   NORMALIZED FREE ENERGY PREDICTED BY IDOCK:   -2.99 KCAL/MOL
REMARK 922        TOTAL FREE ENERGY PREDICTED BY IDOCK:   -8.81 KCAL/MOL
REMARK 923 INTER-LIGAND FREE ENERGY PREDICTED BY IDOCK:   -5.87 KCAL/MOL
REMARK 924 INTRA-LIGAND FREE ENERGY PREDICTED BY IDOCK:   -2.94 KCAL/MOL
REMARK 927      BINDING AFFINITY PREDICTED BY RF-SCORE:    0.00 PKD
ROOT
HETATM    1  C   UNL     1      -8.679   5.460  65.755  1.00  0.00    -0.149 C  
HETATM    2  C   UNL     1      -9.810   5.725  66.734  1.00  0.00    -0.188 C  
ENDROOT
BRANCH   2   3
HETATM    3  C   UNL     1      -9.811   4.695  67.861  1.00  0.00    -0.177 C  
BRANCH   3   4
HETATM    4  C   UNL     1      -9.682   5.375  69.221  1.00  0.00    -0.224 C  
BRANCH   4   5
HETATM    5  C   UNL     1     -10.609   6.581  69.306  1.00  0.00    -0.292 C  
BRANCH   5   6
HETATM    6  C   UNL     1     -11.671   6.373  70.378  1.00  0.00    -0.389 C  
BRANCH   6   7
HETATM    7  C   UNL     1     -11.074   6.587  71.762  1.00  0.00    -0.299 C  
BRANCH   7   8
HETATM    8  C   UNL     1     -10.453   7.972  71.866  1.00  0.00    -0.296 C  
BRANCH   8   9
HETATM    9  C   UNL     1     -11.542   9.036  71.925  1.00  0.00    -0.441 C  
BRANCH   9  10
HETATM   10  C   UNL     1     -11.339  10.057  70.818  1.00  0.00    -0.439 C  
BRANCH  10  11
HETATM   11  C   UNL     1     -12.554  10.959  70.686  1.00  0.00    -0.435 C  
BRANCH  11  12
HETATM   12  C   UNL     1     -12.110  12.404  70.537  1.00  0.00    -0.363 C  
BRANCH  12  13
HETATM   13  C   UNL     1     -11.084  12.560  69.420  1.00  0.00    -0.145 C  
BRANCH  13  14
HETATM   14  C   UNL     1     -11.739  12.719  68.048  1.00  0.00    -0.405 C  
BRANCH  14  15
HETATM   15  C   UNL     1     -11.577  11.516  67.115  1.00  0.00    -0.249 C  
BRANCH  15  16
HETATM   16  C   UNL     1     -10.607  11.779  65.959  1.00  0.00    -0.260 C  
BRANCH  16  17
HETATM   17  N   UNL     1      -9.500  10.717  65.827  1.00  0.00    -0.194 N  
HETATM   18  C   UNL     1     -10.072   9.317  66.008  1.00  0.00    -0.192 C  
HETATM   19  C   UNL     1      -8.829  10.817  64.458  1.00  0.00    -0.131 C  
BRANCH  17  20
HETATM   20  C   UNL     1      -8.439  11.015  66.944  1.00  0.00    -0.139 C  
BRANCH  20  21
HETATM   21  C   UNL     1      -7.882   9.786  67.618  1.00  0.00    -0.095 A  
HETATM   22  C   UNL     1      -8.255   9.462  68.933  1.00  0.00    -0.111 A  
HETATM   23  C   UNL     1      -7.546   8.498  69.648  1.00  0.00    -0.088 A  
HETATM   24  C   UNL     1      -6.485   7.825  69.045  1.00  0.00    -0.037 A  
HETATM   25  C   UNL     1      -6.169   8.071  67.713  1.00  0.00    -0.051 A  
HETATM   26  C   UNL     1      -6.880   9.029  66.992  1.00  0.00    -0.077 A  
ENDBRANCH  20  21
ENDBRANCH  17  20
ENDBRANCH  16  17
ENDBRANCH  15  16
ENDBRANCH  14  15
ENDBRANCH  13  14
ENDBRANCH  12  13
ENDBRANCH  11  12
ENDBRANCH  10  11
ENDBRANCH   9  10
ENDBRANCH   8   9
ENDBRANCH   7   8
ENDBRANCH   6   7
ENDBRANCH   5   6
ENDBRANCH   4   5
ENDBRANCH   3   4
ENDBRANCH   2   3
TORSDOF 17
ENDMDL
MODEL      266
REMARK 921   NORMALIZED FREE ENERGY PREDICTED BY IDOCK:   -2.98 KCAL/MOL
REMARK 922        TOTAL FREE ENERGY PREDICTED BY IDOCK:   -8.78 KCAL/MOL
REMARK 923 INTER-LIGAND FREE ENERGY PREDICTED BY IDOCK:   -6.79 KCAL/MOL
REMARK 924 INTRA-LIGAND FREE ENERGY PREDICTED BY IDOCK:   -1.98 KCAL/MOL
REMARK 927      BINDING AFFINITY PREDICTED BY RF-SCORE:    0.00 PKD
ROOT
HETATM    1  C   UNL     1      -8.019  18.809  67.741  1.00  0.00    -0.275 C  
HETATM    2  C   UNL     1      -9.278  19.364  67.097  1.00  0.00    -0.375 C  
ENDROOT
BRANCH   2   3
HETATM    3  C   UNL     1     -10.516  18.610  67.575  1.00  0.00    -0.473 C  
BRANCH   3   4
HETATM    4  C   UNL     1     -10.143  17.546  68.605  1.00  0.00    -0.361 C  
BRANCH   4   5
HETATM    5  C   UNL     1     -11.157  16.409  68.590  1.00  0.00    -0.352 C  
BRANCH   5   6
HETATM    6  C   UNL     1     -10.606  15.203  67.841  1.00  0.00    -0.257 C  
BRANCH   6   7
HETATM    7  C   UNL     1     -11.642  14.088  67.800  1.00  0.00    -0.378 C  
BRANCH   7   8
HETATM    8  C   UNL     1     -11.767  13.427  69.165  1.00  0.00    -0.375 C  
BRANCH   8   9
HETATM    9  C   UNL     1     -11.264  11.990  69.104  1.00  0.00    -0.305 C  
BRANCH   9  10
HETATM   10  C   UNL     1     -11.742  11.215  70.321  1.00  0.00    -0.431 C  
BRANCH  10  11
HETATM   11  C   UNL     1     -11.273   9.771  70.259  1.00  0.00    -0.347 C  
BRANCH  11  12
HETATM   12  C   UNL     1     -11.370   9.139  71.637  1.00  0.00    -0.446 C  
BRANCH  12  13
HETATM   13  C   UNL     1     -11.220   7.624  71.568  1.00  0.00    -0.277 C  
BRANCH  13  14
HETATM   14  C   UNL     1     -11.927   7.026  70.351  1.00  0.00    -0.256 C  
BRANCH  14  15
HETATM   15  C   UNL     1     -11.094   6.016  69.556  1.00  0.00    -0.468 C  
BRANCH  15  16
HETATM   16  C   UNL     1     -10.335   6.651  68.388  1.00  0.00    -0.193 C  
BRANCH  16  17
HETATM   17  N   UNL     1      -9.265   5.731  67.772  1.00  0.00    -0.106 N  
HETATM   18  C   UNL     1      -9.302   4.352  68.421  1.00  0.00    -0.147 C  
HETATM   19  C   UNL     1      -9.489   5.588  66.267  1.00  0.00    -0.157 C  
BRANCH  17  20
HETATM   20  C   UNL     1      -7.873   6.408  68.024  1.00  0.00    -0.105 C  
BRANCH  20  21
HETATM   21  C   UNL     1      -7.944   7.730  68.749  1.00  0.00    -0.125 A  
HETATM   22  C   UNL     1      -8.138   8.924  68.035  1.00  0.00    -0.106 A  
HETATM   23  C   UNL     1      -7.933  10.156  68.657  1.00  0.00    -0.103 A  
HETATM   24  C   UNL     1      -7.570  10.204  70.001  1.00  0.00    -0.164 A  
HETATM   25  C   UNL     1      -7.469   9.030  70.740  1.00  0.00    -0.121 A  
HETATM   26  C   UNL     1      -7.680   7.797  70.124  1.00  0.00    -0.090 A  
ENDBRANCH  20  21
ENDBRANCH  17  20
ENDBRANCH  16  17
ENDBRANCH  15  16
ENDBRANCH  14  15
ENDBRANCH  13  14
ENDBRANCH  12  13
ENDBRANCH  11  12
ENDBRANCH  10  11
ENDBRANCH   9  10
ENDBRANCH   8   9
ENDBRANCH   7   8
ENDBRANCH   6   7
ENDBRANCH   5   6
ENDBRANCH   4   5
ENDBRANCH   3   4
ENDBRANCH   2   3
TORSDOF 17
ENDMDL
MODEL      267
REMARK 921   NORMALIZED FREE ENERGY PREDICTED BY IDOCK:   -2.96 KCAL/MOL
REMARK 922        TOTAL FREE ENERGY PREDICTED BY IDOCK:   -8.75 KCAL/MOL
REMARK 923 INTER-LIGAND FREE ENERGY PREDICTED BY IDOCK:   -7.18 KCAL/MOL
REMARK 924 INTRA-LIGAND FREE ENERGY PREDICTED BY IDOCK:   -1.57 KCAL/MOL
REMARK 927      BINDING AFFINITY PREDICTED BY RF-SCORE:    0.00 PKD
ROOT
HETATM    1  C   UNL     1     -11.235   4.816  73.053  1.00  0.00    -0.344 C  
HETATM    2  C   UNL     1     -10.469   6.034  72.568  1.00  0.00    -0.233 C  
ENDROOT
BRANCH   2   3
HETATM    3  C   UNL     1     -11.021   7.313  73.192  1.00  0.00    -0.384 C  
BRANCH   3   4
HETATM    4  C   UNL     1     -11.150   8.419  72.148  1.00  0.00    -0.415 C  
BRANCH   4   5
HETATM    5  C   UNL     1     -11.258   7.824  70.750  1.00  0.00    -0.281 C  
BRANCH   5   6
HETATM    6  C   UNL     1     -10.297   8.515  69.791  1.00  0.00    -0.212 C  
BRANCH   6   7
HETATM    7  C   UNL     1     -10.500   7.997  68.374  1.00  0.00    -0.205 C  
BRANCH   7   8
HETATM    8  C   UNL     1     -10.052   9.036  67.357  1.00  0.00    -0.291 C  
BRANCH   8   9
HETATM    9  C   UNL     1     -10.978  10.245  67.394  1.00  0.00    -0.317 C  
BRANCH   9  10
HETATM   10  C   UNL     1     -10.255  11.476  66.871  1.00  0.00    -0.249 C  
BRANCH  10  11
HETATM   11  C   UNL     1      -9.047  11.799  67.734  1.00  0.00    -0.178 C  
BRANCH  11  12
HETATM   12  C   UNL     1      -8.113  12.733  66.984  1.00  0.00    -0.072 C  
BRANCH  12  13
HETATM   13  C   UNL     1      -8.145  14.141  67.566  1.00  0.00    -0.199 C  
BRANCH  13  14
HETATM   14  C   UNL     1      -6.752  14.641  67.949  1.00  0.00    -0.175 C  
BRANCH  14  15
HETATM   15  C   UNL     1      -6.380  16.010  67.372  1.00  0.00    -0.206 C  
BRANCH  15  16
HETATM   16  C   UNL     1      -7.478  16.607  66.487  1.00  0.00    -0.271 C  
BRANCH  16  17
HETATM   17  N   UNL     1      -7.728  18.105  66.737  1.00  0.00    -0.216 N  
HETATM   18  C   UNL     1      -7.421  18.469  68.185  1.00  0.00    -0.268 C  
HETATM   19  C   UNL     1      -6.859  18.952  65.807  1.00  0.00    -0.272 C  
BRANCH  17  20
HETATM   20  C   UNL     1      -9.240  18.380  66.421  1.00  0.00    -0.273 C  
BRANCH  20  21
HETATM   21  C   UNL     1     -10.167  17.243  66.774  1.00  0.00    -0.318 A  
HETATM   22  C   UNL     1     -10.602  17.063  68.097  1.00  0.00    -0.369 A  
HETATM   23  C   UNL     1     -11.226  15.874  68.476  1.00  0.00    -0.362 A  
HETATM   24  C   UNL     1     -11.451  14.875  67.531  1.00  0.00    -0.361 A  
HETATM   25  C   UNL     1     -11.109  15.083  66.199  1.00  0.00    -0.329 A  
HETATM   26  C   UNL     1     -10.492  16.273  65.815  1.00  0.00    -0.379 A  
ENDBRANCH  20  21
ENDBRANCH  17  20
ENDBRANCH  16  17
ENDBRANCH  15  16
ENDBRANCH  14  15
ENDBRANCH  13  14
ENDBRANCH  12  13
ENDBRANCH  11  12
ENDBRANCH  10  11
ENDBRANCH   9  10
ENDBRANCH   8   9
ENDBRANCH   7   8
ENDBRANCH   6   7
ENDBRANCH   5   6
ENDBRANCH   4   5
ENDBRANCH   3   4
ENDBRANCH   2   3
TORSDOF 17
ENDMDL
MODEL      268
REMARK 921   NORMALIZED FREE ENERGY PREDICTED BY IDOCK:   -2.96 KCAL/MOL
REMARK 922        TOTAL FREE ENERGY PREDICTED BY IDOCK:   -8.75 KCAL/MOL
REMARK 923 INTER-LIGAND FREE ENERGY PREDICTED BY IDOCK:   -6.08 KCAL/MOL
REMARK 924 INTRA-LIGAND FREE ENERGY PREDICTED BY IDOCK:   -2.67 KCAL/MOL
REMARK 927      BINDING AFFINITY PREDICTED BY RF-SCORE:    0.00 PKD
ROOT
HETATM    1  C   UNL     1      -7.070  11.824  67.081  1.00  0.00    -0.146 C  
HETATM    2  C   UNL     1      -7.155  10.474  67.772  1.00  0.00    -0.083 C  
ENDROOT
BRANCH   2   3
HETATM    3  C   UNL     1      -7.940  10.575  69.077  1.00  0.00    -0.136 C  
BRANCH   3   4
HETATM    4  C   UNL     1      -9.290  11.251  68.850  1.00  0.00    -0.084 C  
BRANCH   4   5
HETATM    5  C   UNL     1     -10.412  10.420  69.460  1.00  0.00    -0.274 C  
BRANCH   5   6
HETATM    6  C   UNL     1     -11.641  11.280  69.724  1.00  0.00    -0.408 C  
BRANCH   6   7
HETATM    7  C   UNL     1     -12.170  11.028  71.130  1.00  0.00    -0.415 C  
BRANCH   7   8
HETATM    8  C   UNL     1     -13.328  10.042  71.094  1.00  0.00    -0.379 C  
BRANCH   8   9
HETATM    9  C   UNL     1     -13.166   8.998  72.191  1.00  0.00    -0.504 C  
BRANCH   9  10
HETATM   10  C   UNL     1     -12.702   7.678  71.596  1.00  0.00    -0.368 C  
BRANCH  10  11
HETATM   11  C   UNL     1     -11.209   7.487  71.806  1.00  0.00    -0.281 C  
BRANCH  11  12
HETATM   12  C   UNL     1     -10.550   7.102  70.493  1.00  0.00    -0.243 C  
BRANCH  12  13
HETATM   13  C   UNL     1     -10.658   5.604  70.232  1.00  0.00    -0.370 C  
BRANCH  13  14
HETATM   14  C   UNL     1      -9.295   4.912  70.249  1.00  0.00    -0.216 C  
BRANCH  14  15
HETATM   15  C   UNL     1      -9.062   3.922  69.105  1.00  0.00    -0.198 C  
BRANCH  15  16
HETATM   16  C   UNL     1      -9.784   4.317  67.813  1.00  0.00    -0.123 C  
BRANCH  16  17
HETATM   17  N   UNL     1      -8.837   4.541  66.620  1.00  0.00    -0.111 N  
HETATM   18  C   UNL     1      -7.834   3.400  66.506  1.00  0.00    -0.081 C  
HETATM   19  C   UNL     1      -9.635   4.645  65.320  1.00  0.00    -0.151 C  
BRANCH  17  20
HETATM   20  C   UNL     1      -8.087   5.895  66.874  1.00  0.00    -0.102 C  
BRANCH  20  21
HETATM   21  C   UNL     1      -8.735   7.097  66.231  1.00  0.00    -0.156 A  
HETATM   22  C   UNL     1      -8.182   7.671  65.074  1.00  0.00    -0.116 A  
HETATM   23  C   UNL     1      -8.609   8.925  64.640  1.00  0.00    -0.169 A  
HETATM   24  C   UNL     1      -9.612   9.598  65.334  1.00  0.00    -0.361 A  
HETATM   25  C   UNL     1     -10.231   8.996  66.425  1.00  0.00    -0.297 A  
HETATM   26  C   UNL     1      -9.813   7.738  66.857  1.00  0.00    -0.305 A  
ENDBRANCH  20  21
ENDBRANCH  17  20
ENDBRANCH  16  17
ENDBRANCH  15  16
ENDBRANCH  14  15
ENDBRANCH  13  14
ENDBRANCH  12  13
ENDBRANCH  11  12
ENDBRANCH  10  11
ENDBRANCH   9  10
ENDBRANCH   8   9
ENDBRANCH   7   8
ENDBRANCH   6   7
ENDBRANCH   5   6
ENDBRANCH   4   5
ENDBRANCH   3   4
ENDBRANCH   2   3
TORSDOF 17
ENDMDL
MODEL      269
REMARK 921   NORMALIZED FREE ENERGY PREDICTED BY IDOCK:   -2.96 KCAL/MOL
REMARK 922        TOTAL FREE ENERGY PREDICTED BY IDOCK:   -8.74 KCAL/MOL
REMARK 923 INTER-LIGAND FREE ENERGY PREDICTED BY IDOCK:   -7.00 KCAL/MOL
REMARK 924 INTRA-LIGAND FREE ENERGY PREDICTED BY IDOCK:   -1.74 KCAL/MOL
REMARK 927      BINDING AFFINITY PREDICTED BY RF-SCORE:    0.00 PKD
ROOT
HETATM    1  C   UNL     1      -7.533   4.746  73.980  1.00  0.00    -0.082 C  
HETATM    2  C   UNL     1      -8.803   4.465  73.194  1.00  0.00    -0.107 C  
ENDROOT
BRANCH   2   3
HETATM    3  C   UNL     1     -10.031   4.994  73.931  1.00  0.00    -0.195 C  
BRANCH   3   4
HETATM    4  C   UNL     1     -11.270   4.928  73.043  1.00  0.00    -0.367 C  
BRANCH   4   5
HETATM    5  C   UNL     1     -11.406   6.202  72.219  1.00  0.00    -0.346 C  
BRANCH   5   6
HETATM    6  C   UNL     1     -11.128   7.432  73.073  1.00  0.00    -0.390 C  
BRANCH   6   7
HETATM    7  C   UNL     1     -11.010   8.670  72.195  1.00  0.00    -0.434 C  
BRANCH   7   8
HETATM    8  C   UNL     1     -11.478   8.366  70.780  1.00  0.00    -0.277 C  
BRANCH   8   9
HETATM    9  C   UNL     1     -10.634   9.132  69.768  1.00  0.00    -0.240 C  
BRANCH   9  10
HETATM   10  C   UNL     1      -9.225   9.330  70.304  1.00  0.00    -0.273 C  
BRANCH  10  11
HETATM   11  C   UNL     1      -8.210   8.616  69.428  1.00  0.00    -0.113 C  
BRANCH  11  12
HETATM   12  C   UNL     1      -7.451   9.629  68.588  1.00  0.00    -0.075 C  
BRANCH  12  13
HETATM   13  C   UNL     1      -7.254  10.941  69.339  1.00  0.00    -0.126 C  
BRANCH  13  14
HETATM   14  C   UNL     1      -7.507  12.160  68.453  1.00  0.00    -0.114 C  
BRANCH  14  15
HETATM   15  C   UNL     1      -8.139  11.847  67.093  1.00  0.00    -0.172 C  
BRANCH  15  16
HETATM   16  C   UNL     1      -9.309  12.772  66.747  1.00  0.00    -0.241 C  
BRANCH  16  17
HETATM   17  N   UNL     1     -10.385  12.107  65.870  1.00  0.00    -0.247 N  
HETATM   18  C   UNL     1     -10.376  12.696  64.465  1.00  0.00    -0.344 C  
HETATM   19  C   UNL     1     -10.147  10.599  65.788  1.00  0.00    -0.266 C  
BRANCH  17  20
HETATM   20  C   UNL     1     -11.770  12.373  66.558  1.00  0.00    -0.379 C  
BRANCH  20  21
HETATM   21  C   UNL     1     -11.680  13.074  67.891  1.00  0.00    -0.402 A  
HETATM   22  C   UNL     1     -11.793  12.347  69.087  1.00  0.00    -0.352 A  
HETATM   23  C   UNL     1     -11.983  13.012  70.298  1.00  0.00    -0.360 A  
HETATM   24  C   UNL     1     -12.026  14.404  70.328  1.00  0.00    -0.388 A  
HETATM   25  C   UNL     1     -11.820  15.135  69.162  1.00  0.00    -0.340 A  
HETATM   26  C   UNL     1     -11.622  14.474  67.951  1.00  0.00    -0.371 A  
ENDBRANCH  20  21
ENDBRANCH  17  20
ENDBRANCH  16  17
ENDBRANCH  15  16
ENDBRANCH  14  15
ENDBRANCH  13  14
ENDBRANCH  12  13
ENDBRANCH  11  12
ENDBRANCH  10  11
ENDBRANCH   9  10
ENDBRANCH   8   9
ENDBRANCH   7   8
ENDBRANCH   6   7
ENDBRANCH   5   6
ENDBRANCH   4   5
ENDBRANCH   3   4
ENDBRANCH   2   3
TORSDOF 17
ENDMDL
MODEL      270
REMARK 921   NORMALIZED FREE ENERGY PREDICTED BY IDOCK:   -2.96 KCAL/MOL
REMARK 922        TOTAL FREE ENERGY PREDICTED BY IDOCK:   -8.73 KCAL/MOL
REMARK 923 INTER-LIGAND FREE ENERGY PREDICTED BY IDOCK:   -6.87 KCAL/MOL
REMARK 924 INTRA-LIGAND FREE ENERGY PREDICTED BY IDOCK:   -1.86 KCAL/MOL
REMARK 927      BINDING AFFINITY PREDICTED BY RF-SCORE:    0.00 PKD
ROOT
HETATM    1  C   UNL     1     -11.879  11.268  68.506  1.00  0.00    -0.355 C  
HETATM    2  C   UNL     1     -11.677  11.665  69.959  1.00  0.00    -0.402 C  
ENDROOT
BRANCH   2   3
HETATM    3  C   UNL     1     -12.658  10.930  70.869  1.00  0.00    -0.494 C  
BRANCH   3   4
HETATM    4  C   UNL     1     -12.840  11.674  72.189  1.00  0.00    -0.073 C  
BRANCH   4   5
HETATM    5  C   UNL     1     -13.553  13.001  71.961  1.00  0.00    -0.530 C  
BRANCH   5   6
HETATM    6  C   UNL     1     -12.954  14.095  72.835  1.00  0.00    -0.498 C  
BRANCH   6   7
HETATM    7  C   UNL     1     -12.236  15.125  71.974  1.00  0.00    -0.438 C  
BRANCH   7   8
HETATM    8  C   UNL     1     -12.950  15.296  70.641  1.00  0.00    -0.442 C  
BRANCH   8   9
HETATM    9  C   UNL     1     -11.937  15.492  69.520  1.00  0.00    -0.372 C  
BRANCH   9  10
HETATM   10  C   UNL     1     -10.799  16.383  69.991  1.00  0.00    -0.306 C  
BRANCH  10  11
HETATM   11  C   UNL     1      -9.594  16.249  69.075  1.00  0.00    -0.257 C  
BRANCH  11  12
HETATM   12  C   UNL     1      -9.845  15.155  68.051  1.00  0.00    -0.213 C  
BRANCH  12  13
HETATM   13  C   UNL     1      -8.542  14.510  67.595  1.00  0.00    -0.184 C  
BRANCH  13  14
HETATM   14  C   UNL     1      -8.773  13.173  66.890  1.00  0.00    -0.156 C  
BRANCH  14  15
HETATM   15  C   UNL     1      -7.919  12.014  67.414  1.00  0.00    -0.165 C  
BRANCH  15  16
HETATM   16  C   UNL     1      -8.740  10.763  67.740  1.00  0.00    -0.130 C  
BRANCH  16  17
HETATM   17  N   UNL     1      -8.023   9.782  68.684  1.00  0.00    -0.088 N  
HETATM   18  C   UNL     1      -7.015   8.934  67.917  1.00  0.00    -0.078 C  
HETATM   19  C   UNL     1      -7.302  10.544  69.796  1.00  0.00    -0.134 C  
BRANCH  17  20
HETATM   20  C   UNL     1      -9.126   8.864  69.320  1.00  0.00    -0.145 C  
BRANCH  20  21
HETATM   21  C   UNL     1      -9.474   7.648  68.499  1.00  0.00    -0.147 A  
HETATM   22  C   UNL     1     -10.444   7.726  67.486  1.00  0.00    -0.338 A  
HETATM   23  C   UNL     1     -10.961   6.562  66.917  1.00  0.00    -0.408 A  
HETATM   24  C   UNL     1     -10.489   5.317  67.328  1.00  0.00    -0.236 A  
HETATM   25  C   UNL     1      -9.461   5.234  68.262  1.00  0.00    -0.155 A  
HETATM   26  C   UNL     1      -8.936   6.395  68.828  1.00  0.00    -0.126 A  
ENDBRANCH  20  21
ENDBRANCH  17  20
ENDBRANCH  16  17
ENDBRANCH  15  16
ENDBRANCH  14  15
ENDBRANCH  13  14
ENDBRANCH  12  13
ENDBRANCH  11  12
ENDBRANCH  10  11
ENDBRANCH   9  10
ENDBRANCH   8   9
ENDBRANCH   7   8
ENDBRANCH   6   7
ENDBRANCH   5   6
ENDBRANCH   4   5
ENDBRANCH   3   4
ENDBRANCH   2   3
TORSDOF 17
ENDMDL
MODEL      271
REMARK 921   NORMALIZED FREE ENERGY PREDICTED BY IDOCK:   -2.96 KCAL/MOL
REMARK 922        TOTAL FREE ENERGY PREDICTED BY IDOCK:   -8.73 KCAL/MOL
REMARK 923 INTER-LIGAND FREE ENERGY PREDICTED BY IDOCK:   -6.31 KCAL/MOL
REMARK 924 INTRA-LIGAND FREE ENERGY PREDICTED BY IDOCK:   -2.42 KCAL/MOL
REMARK 927      BINDING AFFINITY PREDICTED BY RF-SCORE:    0.00 PKD
ROOT
HETATM    1  C   UNL     1     -12.723   8.598  71.853  1.00  0.00    -0.413 C  
HETATM    2  C   UNL     1     -11.517   8.000  72.557  1.00  0.00    -0.471 C  
ENDROOT
BRANCH   2   3
HETATM    3  C   UNL     1     -10.222   8.636  72.058  1.00  0.00    -0.407 C  
BRANCH   3   4
HETATM    4  C   UNL     1      -9.073   7.632  72.091  1.00  0.00    -0.180 C  
BRANCH   4   5
HETATM    5  C   UNL     1      -7.984   8.033  71.104  1.00  0.00    -0.095 C  
BRANCH   5   6
HETATM    6  C   UNL     1      -7.258   6.806  70.571  1.00  0.00    -0.073 C  
BRANCH   6   7
HETATM    7  C   UNL     1      -7.527   5.603  71.465  1.00  0.00    -0.096 C  
BRANCH   7   8
HETATM    8  C   UNL     1      -7.422   4.312  70.667  1.00  0.00    -0.048 C  
BRANCH   8   9
HETATM    9  C   UNL     1      -7.680   4.581  69.190  1.00  0.00    -0.059 C  
BRANCH   9  10
HETATM   10  C   UNL     1      -8.907   3.815  68.724  1.00  0.00    -0.156 C  
BRANCH  10  11
HETATM   11  C   UNL     1      -9.937   4.758  68.125  1.00  0.00    -0.152 C  
BRANCH  11  12
HETATM   12  C   UNL     1     -10.644   5.520  69.232  1.00  0.00    -0.325 C  
BRANCH  12  13
HETATM   13  C   UNL     1     -10.911   6.966  68.832  1.00  0.00    -0.217 C  
BRANCH  13  14
HETATM   14  C   UNL     1     -10.212   7.346  67.526  1.00  0.00    -0.289 C  
BRANCH  14  15
HETATM   15  C   UNL     1      -9.301   8.573  67.618  1.00  0.00    -0.157 C  
BRANCH  15  16
HETATM   16  C   UNL     1      -9.930   9.730  68.400  1.00  0.00    -0.156 C  
BRANCH  16  17
HETATM   17  N   UNL     1     -10.046  11.033  67.589  1.00  0.00    -0.179 N  
HETATM   18  C   UNL     1      -9.025  12.059  68.066  1.00  0.00    -0.187 C  
HETATM   19  C   UNL     1      -9.827  10.756  66.102  1.00  0.00    -0.221 C  
BRANCH  17  20
HETATM   20  C   UNL     1     -11.501  11.582  67.803  1.00  0.00    -0.286 C  
BRANCH  20  21
HETATM   21  C   UNL     1     -11.585  13.080  67.962  1.00  0.00    -0.383 A  
HETATM   22  C   UNL     1     -11.318  13.928  66.875  1.00  0.00    -0.343 A  
HETATM   23  C   UNL     1     -11.127  15.294  67.081  1.00  0.00    -0.323 A  
HETATM   24  C   UNL     1     -11.237  15.827  68.364  1.00  0.00    -0.362 A  
HETATM   25  C   UNL     1     -11.595  15.010  69.431  1.00  0.00    -0.337 A  
HETATM   26  C   UNL     1     -11.795  13.645  69.228  1.00  0.00    -0.395 A  
ENDBRANCH  20  21
ENDBRANCH  17  20
ENDBRANCH  16  17
ENDBRANCH  15  16
ENDBRANCH  14  15
ENDBRANCH  13  14
ENDBRANCH  12  13
ENDBRANCH  11  12
ENDBRANCH  10  11
ENDBRANCH   9  10
ENDBRANCH   8   9
ENDBRANCH   7   8
ENDBRANCH   6   7
ENDBRANCH   5   6
ENDBRANCH   4   5
ENDBRANCH   3   4
ENDBRANCH   2   3
TORSDOF 17
ENDMDL
MODEL      272
REMARK 921   NORMALIZED FREE ENERGY PREDICTED BY IDOCK:   -2.94 KCAL/MOL
REMARK 922        TOTAL FREE ENERGY PREDICTED BY IDOCK:   -8.70 KCAL/MOL
REMARK 923 INTER-LIGAND FREE ENERGY PREDICTED BY IDOCK:   -6.92 KCAL/MOL
REMARK 924 INTRA-LIGAND FREE ENERGY PREDICTED BY IDOCK:   -1.78 KCAL/MOL
REMARK 927      BINDING AFFINITY PREDICTED BY RF-SCORE:    0.00 PKD
ROOT
HETATM    1  C   UNL     1     -10.220  12.038  63.550  1.00  0.00    -0.477 C  
HETATM    2  C   UNL     1      -9.636  10.826  62.845  1.00  0.00    -0.366 C  
ENDROOT
BRANCH   2   3
HETATM    3  C   UNL     1      -9.195   9.766  63.851  1.00  0.00    -0.248 C  
BRANCH   3   4
HETATM    4  C   UNL     1      -9.034  10.369  65.244  1.00  0.00    -0.212 C  
BRANCH   4   5
HETATM    5  C   UNL     1      -7.579  10.305  65.689  1.00  0.00    -0.148 C  
BRANCH   5   6
HETATM    6  C   UNL     1      -7.438  10.741  67.142  1.00  0.00    -0.102 C  
BRANCH   6   7
HETATM    7  C   UNL     1      -7.499  12.258  67.246  1.00  0.00    -0.147 C  
BRANCH   7   8
HETATM    8  C   UNL     1      -8.658  12.685  68.134  1.00  0.00    -0.188 C  
BRANCH   8   9
HETATM    9  C   UNL     1      -9.647  13.532  67.342  1.00  0.00    -0.227 C  
BRANCH   9  10
HETATM   10  C   UNL     1     -10.935  12.758  67.115  1.00  0.00    -0.295 C  
BRANCH  10  11
HETATM   11  C   UNL     1     -12.029  13.246  68.049  1.00  0.00    -0.351 C  
BRANCH  11  12
HETATM   12  C   UNL     1     -11.491  13.342  69.466  1.00  0.00    -0.308 C  
BRANCH  12  13
HETATM   13  C   UNL     1     -12.238  12.408  70.411  1.00  0.00    -0.370 C  
BRANCH  13  14
HETATM   14  C   UNL     1     -12.184  10.952  69.950  1.00  0.00    -0.408 C  
BRANCH  14  15
HETATM   15  C   UNL     1     -10.790  10.319  69.980  1.00  0.00    -0.364 C  
BRANCH  15  16
HETATM   16  C   UNL     1     -10.549   9.342  68.826  1.00  0.00    -0.193 C  
BRANCH  16  17
HETATM   17  N   UNL     1      -9.882   8.024  69.260  1.00  0.00    -0.175 N  
HETATM   18  C   UNL     1      -9.002   7.473  68.144  1.00  0.00    -0.129 C  
HETATM   19  C   UNL     1      -9.033   8.245  70.511  1.00  0.00    -0.147 C  
BRANCH  17  20
HETATM   20  C   UNL     1     -11.033   7.010  69.589  1.00  0.00    -0.236 C  
BRANCH  20  21
HETATM   21  C   UNL     1     -10.749   6.104  70.761  1.00  0.00    -0.326 A  
HETATM   22  C   UNL     1      -9.935   4.970  70.604  1.00  0.00    -0.300 A  
HETATM   23  C   UNL     1      -9.892   3.992  71.598  1.00  0.00    -0.253 A  
HETATM   24  C   UNL     1     -10.632   4.157  72.768  1.00  0.00    -0.226 A  
HETATM   25  C   UNL     1     -11.365   5.321  72.972  1.00  0.00    -0.376 A  
HETATM   26  C   UNL     1     -11.404   6.304  71.985  1.00  0.00    -0.348 A  
ENDBRANCH  20  21
ENDBRANCH  17  20
ENDBRANCH  16  17
ENDBRANCH  15  16
ENDBRANCH  14  15
ENDBRANCH  13  14
ENDBRANCH  12  13
ENDBRANCH  11  12
ENDBRANCH  10  11
ENDBRANCH   9  10
ENDBRANCH   8   9
ENDBRANCH   7   8
ENDBRANCH   6   7
ENDBRANCH   5   6
ENDBRANCH   4   5
ENDBRANCH   3   4
ENDBRANCH   2   3
TORSDOF 17
ENDMDL
MODEL      273
REMARK 921   NORMALIZED FREE ENERGY PREDICTED BY IDOCK:   -2.94 KCAL/MOL
REMARK 922        TOTAL FREE ENERGY PREDICTED BY IDOCK:   -8.69 KCAL/MOL
REMARK 923 INTER-LIGAND FREE ENERGY PREDICTED BY IDOCK:   -7.43 KCAL/MOL
REMARK 924 INTRA-LIGAND FREE ENERGY PREDICTED BY IDOCK:   -1.26 KCAL/MOL
REMARK 927      BINDING AFFINITY PREDICTED BY RF-SCORE:    0.00 PKD
ROOT
HETATM    1  C   UNL     1      -8.510   6.369  65.722  1.00  0.00    -0.148 C  
HETATM    2  C   UNL     1      -9.745   6.335  66.606  1.00  0.00    -0.195 C  
ENDROOT
BRANCH   2   3
HETATM    3  C   UNL     1     -10.067   4.908  67.043  1.00  0.00    -0.243 C  
BRANCH   3   4
HETATM    4  C   UNL     1      -9.957   4.764  68.559  1.00  0.00    -0.160 C  
BRANCH   4   5
HETATM    5  C   UNL     1     -10.247   6.092  69.245  1.00  0.00    -0.251 C  
BRANCH   5   6
HETATM    6  C   UNL     1     -11.184   5.897  70.429  1.00  0.00    -0.307 C  
BRANCH   6   7
HETATM    7  C   UNL     1     -10.384   5.650  71.701  1.00  0.00    -0.270 C  
BRANCH   7   8
HETATM    8  C   UNL     1     -10.050   6.967  72.385  1.00  0.00    -0.193 C  
BRANCH   8   9
HETATM    9  C   UNL     1     -11.327   7.735  72.703  1.00  0.00    -0.449 C  
BRANCH   9  10
HETATM   10  C   UNL     1     -11.430   8.970  71.822  1.00  0.00    -0.442 C  
BRANCH  10  11
HETATM   11  C   UNL     1     -12.870   9.442  71.722  1.00  0.00    -0.484 C  
BRANCH  11  12
HETATM   12  C   UNL     1     -12.905  10.949  71.528  1.00  0.00    -0.560 C  
BRANCH  12  13
HETATM   13  C   UNL     1     -11.878  11.403  70.498  1.00  0.00    -0.394 C  
BRANCH  13  14
HETATM   14  C   UNL     1     -12.383  11.242  69.064  1.00  0.00    -0.040 C  
BRANCH  14  15
HETATM   15  C   UNL     1     -11.293  10.962  68.026  1.00  0.00    -0.382 C  
BRANCH  15  16
HETATM   16  C   UNL     1     -11.417  11.835  66.774  1.00  0.00    -0.281 C  
BRANCH  16  17
HETATM   17  N   UNL     1     -10.067  12.352  66.245  1.00  0.00    -0.235 N  
HETATM   18  C   UNL     1      -9.168  11.191  65.836  1.00  0.00    -0.206 C  
HETATM   19  C   UNL     1     -10.283  13.271  65.043  1.00  0.00    -0.297 C  
BRANCH  17  20
HETATM   20  C   UNL     1      -9.397  13.169  67.405  1.00  0.00    -0.213 C  
BRANCH  20  21
HETATM   21  C   UNL     1     -10.036  14.509  67.673  1.00  0.00    -0.228 A  
HETATM   22  C   UNL     1      -9.481  15.683  67.138  1.00  0.00    -0.226 A  
HETATM   23  C   UNL     1      -9.899  16.931  67.600  1.00  0.00    -0.259 A  
HETATM   24  C   UNL     1     -10.896  17.017  68.569  1.00  0.00    -0.310 A  
HETATM   25  C   UNL     1     -11.518  15.863  69.035  1.00  0.00    -0.380 A  
HETATM   26  C   UNL     1     -11.109  14.614  68.570  1.00  0.00    -0.273 A  
ENDBRANCH  20  21
ENDBRANCH  17  20
ENDBRANCH  16  17
ENDBRANCH  15  16
ENDBRANCH  14  15
ENDBRANCH  13  14
ENDBRANCH  12  13
ENDBRANCH  11  12
ENDBRANCH  10  11
ENDBRANCH   9  10
ENDBRANCH   8   9
ENDBRANCH   7   8
ENDBRANCH   6   7
ENDBRANCH   5   6
ENDBRANCH   4   5
ENDBRANCH   3   4
ENDBRANCH   2   3
TORSDOF 17
ENDMDL
MODEL      274
REMARK 921   NORMALIZED FREE ENERGY PREDICTED BY IDOCK:   -2.93 KCAL/MOL
REMARK 922        TOTAL FREE ENERGY PREDICTED BY IDOCK:   -8.69 KCAL/MOL
REMARK 923 INTER-LIGAND FREE ENERGY PREDICTED BY IDOCK:   -7.58 KCAL/MOL
REMARK 924 INTRA-LIGAND FREE ENERGY PREDICTED BY IDOCK:   -1.10 KCAL/MOL
REMARK 927      BINDING AFFINITY PREDICTED BY RF-SCORE:    0.00 PKD
ROOT
HETATM    1  C   UNL     1      -7.174   4.951  74.433  1.00  0.00    -0.081 C  
HETATM    2  C   UNL     1      -8.475   4.556  73.755  1.00  0.00    -0.104 C  
ENDROOT
BRANCH   2   3
HETATM    3  C   UNL     1      -9.677   5.137  74.495  1.00  0.00    -0.191 C  
BRANCH   3   4
HETATM    4  C   UNL     1     -10.960   4.938  73.693  1.00  0.00    -0.387 C  
BRANCH   4   5
HETATM    5  C   UNL     1     -11.079   5.995  72.603  1.00  0.00    -0.314 C  
BRANCH   5   6
HETATM    6  C   UNL     1     -10.882   7.391  73.179  1.00  0.00    -0.435 C  
BRANCH   6   7
HETATM    7  C   UNL     1     -11.183   8.445  72.122  1.00  0.00    -0.431 C  
BRANCH   7   8
HETATM    8  C   UNL     1     -10.996   7.870  70.727  1.00  0.00    -0.259 C  
BRANCH   8   9
HETATM    9  C   UNL     1     -10.293   8.880  69.829  1.00  0.00    -0.213 C  
BRANCH   9  10
HETATM   10  C   UNL     1      -9.461   9.837  70.667  1.00  0.00    -0.065 C  
BRANCH  10  11
HETATM   11  C   UNL     1      -8.033   9.903  70.152  1.00  0.00    -0.181 C  
BRANCH  11  12
HETATM   12  C   UNL     1      -7.997  10.644  68.826  1.00  0.00    -0.135 C  
BRANCH  12  13
HETATM   13  C   UNL     1      -7.163  11.916  68.920  1.00  0.00    -0.098 C  
BRANCH  13  14
HETATM   14  C   UNL     1      -7.852  13.112  68.263  1.00  0.00    -0.143 C  
BRANCH  14  15
HETATM   15  C   UNL     1      -9.374  13.148  68.429  1.00  0.00    -0.154 C  
BRANCH  15  16
HETATM   16  C   UNL     1      -9.926  14.565  68.603  1.00  0.00    -0.237 C  
BRANCH  16  17
HETATM   17  N   UNL     1     -11.464  14.634  68.608  1.00  0.00    -0.285 N  
HETATM   18  C   UNL     1     -12.004  14.735  67.187  1.00  0.00    -0.200 C  
HETATM   19  C   UNL     1     -12.049  13.396  69.285  1.00  0.00    -0.264 C  
BRANCH  17  20
HETATM   20  C   UNL     1     -11.866  15.909  69.429  1.00  0.00    -0.316 C  
BRANCH  20  21
HETATM   21  C   UNL     1     -12.286  15.628  70.851  1.00  0.00    -0.466 A  
HETATM   22  C   UNL     1     -13.630  15.365  71.158  1.00  0.00    -0.536 A  
HETATM   23  C   UNL     1     -14.064  15.377  72.484  1.00  0.00    -0.593 A  
HETATM   24  C   UNL     1     -13.153  15.615  73.512  1.00  0.00    -0.638 A  
HETATM   25  C   UNL     1     -11.802  15.782  73.223  1.00  0.00    -0.488 A  
HETATM   26  C   UNL     1     -11.364  15.763  71.900  1.00  0.00    -0.369 A  
ENDBRANCH  20  21
ENDBRANCH  17  20
ENDBRANCH  16  17
ENDBRANCH  15  16
ENDBRANCH  14  15
ENDBRANCH  13  14
ENDBRANCH  12  13
ENDBRANCH  11  12
ENDBRANCH  10  11
ENDBRANCH   9  10
ENDBRANCH   8   9
ENDBRANCH   7   8
ENDBRANCH   6   7
ENDBRANCH   5   6
ENDBRANCH   4   5
ENDBRANCH   3   4
ENDBRANCH   2   3
TORSDOF 17
ENDMDL
MODEL      275
REMARK 921   NORMALIZED FREE ENERGY PREDICTED BY IDOCK:   -2.92 KCAL/MOL
REMARK 922        TOTAL FREE ENERGY PREDICTED BY IDOCK:   -8.65 KCAL/MOL
REMARK 923 INTER-LIGAND FREE ENERGY PREDICTED BY IDOCK:   -7.36 KCAL/MOL
REMARK 924 INTRA-LIGAND FREE ENERGY PREDICTED BY IDOCK:   -1.30 KCAL/MOL
REMARK 927      BINDING AFFINITY PREDICTED BY RF-SCORE:    0.00 PKD
ROOT
HETATM    1  C   UNL     1     -12.106  10.421  69.840  1.00  0.00    -0.252 C  
HETATM    2  C   UNL     1     -12.659  10.489  71.253  1.00  0.00    -0.531 C  
ENDROOT
BRANCH   2   3
HETATM    3  C   UNL     1     -13.459   9.233  71.590  1.00  0.00    -0.465 C  
BRANCH   3   4
HETATM    4  C   UNL     1     -12.693   8.343  72.564  1.00  0.00    -0.286 C  
BRANCH   4   5
HETATM    5  C   UNL     1     -11.346   7.943  71.977  1.00  0.00    -0.343 C  
BRANCH   5   6
HETATM    6  C   UNL     1     -11.333   6.465  71.607  1.00  0.00    -0.339 C  
BRANCH   6   7
HETATM    7  C   UNL     1     -11.595   6.292  70.117  1.00  0.00    -0.385 C  
BRANCH   7   8
HETATM    8  C   UNL     1     -10.554   7.044  69.302  1.00  0.00    -0.240 C  
BRANCH   8   9
HETATM    9  C   UNL     1      -9.293   6.202  69.149  1.00  0.00    -0.132 C  
BRANCH   9  10
HETATM   10  C   UNL     1      -8.503   6.658  67.933  1.00  0.00    -0.119 C  
BRANCH  10  11
HETATM   11  C   UNL     1      -9.115   7.910  67.330  1.00  0.00    -0.152 C  
BRANCH  11  12
HETATM   12  C   UNL     1      -8.106   9.044  67.362  1.00  0.00    -0.108 C  
BRANCH  12  13
HETATM   13  C   UNL     1      -8.794  10.404  67.399  1.00  0.00    -0.133 C  
BRANCH  13  14
HETATM   14  C   UNL     1      -7.819  11.540  67.708  1.00  0.00    -0.126 C  
BRANCH  14  15
HETATM   15  C   UNL     1      -8.475  12.837  68.189  1.00  0.00    -0.177 C  
BRANCH  15  16
HETATM   16  C   UNL     1      -9.460  13.424  67.174  1.00  0.00    -0.244 C  
BRANCH  16  17
HETATM   17  N   UNL     1      -9.705  14.934  67.352  1.00  0.00    -0.216 N  
HETATM   18  C   UNL     1      -8.945  15.464  68.562  1.00  0.00    -0.192 C  
HETATM   19  C   UNL     1      -9.264  15.696  66.103  1.00  0.00    -0.343 C  
BRANCH  17  20
HETATM   20  C   UNL     1     -11.248  15.129  67.557  1.00  0.00    -0.330 C  
BRANCH  20  21
HETATM   21  C   UNL     1     -11.688  15.151  69.001  1.00  0.00    -0.358 A  
HETATM   22  C   UNL     1     -11.500  16.301  69.785  1.00  0.00    -0.205 A  
HETATM   23  C   UNL     1     -11.649  16.238  71.171  1.00  0.00    -0.376 A  
HETATM   24  C   UNL     1     -12.019  15.040  71.777  1.00  0.00    -0.442 A  
HETATM   25  C   UNL     1     -12.299  13.921  70.999  1.00  0.00    -0.453 A  
HETATM   26  C   UNL     1     -12.160  13.982  69.614  1.00  0.00    -0.408 A  
ENDBRANCH  20  21
ENDBRANCH  17  20
ENDBRANCH  16  17
ENDBRANCH  15  16
ENDBRANCH  14  15
ENDBRANCH  13  14
ENDBRANCH  12  13
ENDBRANCH  11  12
ENDBRANCH  10  11
ENDBRANCH   9  10
ENDBRANCH   8   9
ENDBRANCH   7   8
ENDBRANCH   6   7
ENDBRANCH   5   6
ENDBRANCH   4   5
ENDBRANCH   3   4
ENDBRANCH   2   3
TORSDOF 17
ENDMDL
MODEL      276
REMARK 921   NORMALIZED FREE ENERGY PREDICTED BY IDOCK:   -2.91 KCAL/MOL
REMARK 922        TOTAL FREE ENERGY PREDICTED BY IDOCK:   -8.64 KCAL/MOL
REMARK 923 INTER-LIGAND FREE ENERGY PREDICTED BY IDOCK:   -7.41 KCAL/MOL
REMARK 924 INTRA-LIGAND FREE ENERGY PREDICTED BY IDOCK:   -1.24 KCAL/MOL
REMARK 927      BINDING AFFINITY PREDICTED BY RF-SCORE:    0.00 PKD
ROOT
HETATM    1  C   UNL     1      -9.096   7.798  73.519  1.00  0.00    -0.342 C  
HETATM    2  C   UNL     1      -8.185   8.396  72.462  1.00  0.00    -0.198 C  
ENDROOT
BRANCH   2   3
HETATM    3  C   UNL     1      -8.651   8.017  71.058  1.00  0.00    -0.142 C  
BRANCH   3   4
HETATM    4  C   UNL     1      -7.675   7.043  70.404  1.00  0.00    -0.096 C  
BRANCH   4   5
HETATM    5  C   UNL     1      -8.236   5.627  70.430  1.00  0.00    -0.105 C  
BRANCH   5   6
HETATM    6  C   UNL     1      -9.759   5.648  70.457  1.00  0.00    -0.233 C  
BRANCH   6   7
HETATM    7  C   UNL     1     -10.315   5.379  69.065  1.00  0.00    -0.282 C  
BRANCH   7   8
HETATM    8  C   UNL     1     -11.117   6.574  68.572  1.00  0.00    -0.347 C  
BRANCH   8   9
HETATM    9  C   UNL     1     -10.845   6.818  67.093  1.00  0.00    -0.462 C  
BRANCH   9  10
HETATM   10  C   UNL     1      -9.429   6.389  66.742  1.00  0.00    -0.176 C  
BRANCH  10  11
HETATM   11  C   UNL     1      -8.551   7.598  66.469  1.00  0.00    -0.142 C  
BRANCH  11  12
HETATM   12  C   UNL     1      -9.392   8.729  65.902  1.00  0.00    -0.284 C  
BRANCH  12  13
HETATM   13  C   UNL     1      -8.530   9.923  65.509  1.00  0.00    -0.148 C  
BRANCH  13  14
HETATM   14  C   UNL     1      -9.254  11.254  65.716  1.00  0.00    -0.236 C  
BRANCH  14  15
HETATM   15  C   UNL     1     -10.186  11.296  66.930  1.00  0.00    -0.254 C  
BRANCH  15  16
HETATM   16  C   UNL     1      -9.886  12.461  67.877  1.00  0.00    -0.202 C  
BRANCH  16  17
HETATM   17  N   UNL     1     -10.818  13.671  67.685  1.00  0.00    -0.254 N  
HETATM   18  C   UNL     1     -10.178  14.705  66.766  1.00  0.00    -0.268 C  
HETATM   19  C   UNL     1     -12.154  13.225  67.091  1.00  0.00    -0.298 C  
BRANCH  17  20
HETATM   20  C   UNL     1     -11.067  14.293  69.104  1.00  0.00    -0.262 C  
BRANCH  20  21
HETATM   21  C   UNL     1     -11.991  13.488  69.983  1.00  0.00    -0.410 A  
HETATM   22  C   UNL     1     -12.840  14.130  70.900  1.00  0.00    -0.404 A  
HETATM   23  C   UNL     1     -13.486  13.393  71.893  1.00  0.00    -0.526 A  
HETATM   24  C   UNL     1     -13.319  12.012  71.955  1.00  0.00    -0.447 A  
HETATM   25  C   UNL     1     -12.556  11.357  70.994  1.00  0.00    -0.487 A  
HETATM   26  C   UNL     1     -11.915  12.088  69.995  1.00  0.00    -0.400 A  
ENDBRANCH  20  21
ENDBRANCH  17  20
ENDBRANCH  16  17
ENDBRANCH  15  16
ENDBRANCH  14  15
ENDBRANCH  13  14
ENDBRANCH  12  13
ENDBRANCH  11  12
ENDBRANCH  10  11
ENDBRANCH   9  10
ENDBRANCH   8   9
ENDBRANCH   7   8
ENDBRANCH   6   7
ENDBRANCH   5   6
ENDBRANCH   4   5
ENDBRANCH   3   4
ENDBRANCH   2   3
TORSDOF 17
ENDMDL
MODEL      277
REMARK 921   NORMALIZED FREE ENERGY PREDICTED BY IDOCK:   -2.91 KCAL/MOL
REMARK 922        TOTAL FREE ENERGY PREDICTED BY IDOCK:   -8.64 KCAL/MOL
REMARK 923 INTER-LIGAND FREE ENERGY PREDICTED BY IDOCK:   -5.44 KCAL/MOL
REMARK 924 INTRA-LIGAND FREE ENERGY PREDICTED BY IDOCK:   -3.20 KCAL/MOL
REMARK 927      BINDING AFFINITY PREDICTED BY RF-SCORE:    0.00 PKD
ROOT
HETATM    1  C   UNL     1      -9.243   2.696  68.081  1.00  0.00    -0.255 C  
HETATM    2  C   UNL     1      -8.672   2.892  69.475  1.00  0.00    -0.131 C  
ENDROOT
BRANCH   2   3
HETATM    3  C   UNL     1      -9.778   3.202  70.481  1.00  0.00    -0.118 C  
BRANCH   3   4
HETATM    4  C   UNL     1      -9.191   3.631  71.822  1.00  0.00    -0.181 C  
BRANCH   4   5
HETATM    5  C   UNL     1     -10.121   3.239  72.963  1.00  0.00    -0.218 C  
BRANCH   5   6
HETATM    6  C   UNL     1     -10.317   4.402  73.926  1.00  0.00    -0.266 C  
BRANCH   6   7
HETATM    7  C   UNL     1      -9.372   5.543  73.576  1.00  0.00    -0.137 C  
BRANCH   7   8
HETATM    8  C   UNL     1      -9.929   6.868  74.075  1.00  0.00    -0.371 C  
BRANCH   8   9
HETATM    9  C   UNL     1     -10.588   7.629  72.931  1.00  0.00    -0.411 C  
BRANCH   9  10
HETATM   10  C   UNL     1     -10.362   6.899  71.617  1.00  0.00    -0.216 C  
BRANCH  10  11
HETATM   11  C   UNL     1     -11.682   6.621  70.920  1.00  0.00    -0.431 C  
BRANCH  11  12
HETATM   12  C   UNL     1     -11.449   6.428  69.431  1.00  0.00    -0.374 C  
BRANCH  12  13
HETATM   13  C   UNL     1      -9.962   6.421  69.096  1.00  0.00    -0.173 C  
BRANCH  13  14
HETATM   14  C   UNL     1      -9.707   6.473  67.589  1.00  0.00    -0.137 C  
BRANCH  14  15
HETATM   15  C   UNL     1     -10.400   7.627  66.859  1.00  0.00    -0.388 C  
BRANCH  15  16
HETATM   16  C   UNL     1      -9.424   8.702  66.372  1.00  0.00    -0.230 C  
BRANCH  16  17
HETATM   17  N   UNL     1      -9.815  10.130  66.794  1.00  0.00    -0.187 N  
HETATM   18  C   UNL     1     -10.064  11.004  65.572  1.00  0.00    -0.261 C  
HETATM   19  C   UNL     1     -11.072  10.103  67.662  1.00  0.00    -0.206 C  
BRANCH  17  20
HETATM   20  C   UNL     1      -8.620  10.705  67.634  1.00  0.00    -0.118 C  
BRANCH  20  21
HETATM   21  C   UNL     1      -8.042   9.740  68.638  1.00  0.00    -0.105 A  
HETATM   22  C   UNL     1      -8.469   9.763  69.976  1.00  0.00    -0.229 A  
HETATM   23  C   UNL     1      -7.754   9.072  70.954  1.00  0.00    -0.149 A  
HETATM   24  C   UNL     1      -6.632   8.326  70.599  1.00  0.00    -0.037 A  
HETATM   25  C   UNL     1      -6.257   8.221  69.263  1.00  0.00    -0.038 A  
HETATM   26  C   UNL     1      -6.974   8.903  68.282  1.00  0.00    -0.076 A  
ENDBRANCH  20  21
ENDBRANCH  17  20
ENDBRANCH  16  17
ENDBRANCH  15  16
ENDBRANCH  14  15
ENDBRANCH  13  14
ENDBRANCH  12  13
ENDBRANCH  11  12
ENDBRANCH  10  11
ENDBRANCH   9  10
ENDBRANCH   8   9
ENDBRANCH   7   8
ENDBRANCH   6   7
ENDBRANCH   5   6
ENDBRANCH   4   5
ENDBRANCH   3   4
ENDBRANCH   2   3
TORSDOF 17
ENDMDL
MODEL      278
REMARK 921   NORMALIZED FREE ENERGY PREDICTED BY IDOCK:   -2.90 KCAL/MOL
REMARK 922        TOTAL FREE ENERGY PREDICTED BY IDOCK:   -8.62 KCAL/MOL
REMARK 923 INTER-LIGAND FREE ENERGY PREDICTED BY IDOCK:   -7.68 KCAL/MOL
REMARK 924 INTRA-LIGAND FREE ENERGY PREDICTED BY IDOCK:   -0.94 KCAL/MOL
REMARK 927      BINDING AFFINITY PREDICTED BY RF-SCORE:    0.00 PKD
ROOT
HETATM    1  C   UNL     1     -12.447  15.278  74.036  1.00  0.00    -0.757 C  
HETATM    2  C   UNL     1     -13.510  15.778  73.073  1.00  0.00    -0.672 C  
ENDROOT
BRANCH   2   3
HETATM    3  C   UNL     1     -13.604  14.878  71.844  1.00  0.00    -0.505 C  
BRANCH   3   4
HETATM    4  C   UNL     1     -13.032  15.574  70.612  1.00  0.00    -0.425 C  
BRANCH   4   5
HETATM    5  C   UNL     1     -11.754  14.883  70.154  1.00  0.00    -0.340 C  
BRANCH   5   6
HETATM    6  C   UNL     1     -12.071  13.731  69.210  1.00  0.00    -0.374 C  
BRANCH   6   7
HETATM    7  C   UNL     1     -11.074  13.701  68.059  1.00  0.00    -0.285 C  
BRANCH   7   8
HETATM    8  C   UNL     1     -11.554  14.580  66.915  1.00  0.00    -0.399 C  
BRANCH   8   9
HETATM    9  C   UNL     1     -12.302  13.744  65.884  1.00  0.00    -0.516 C  
BRANCH   9  10
HETATM   10  C   UNL     1     -11.741  13.999  64.494  1.00  0.00    -0.428 C  
BRANCH  10  11
HETATM   11  C   UNL     1     -10.562  13.084  64.212  1.00  0.00    -0.434 C  
BRANCH  11  12
HETATM   12  C   UNL     1     -11.035  11.642  64.139  1.00  0.00    -0.442 C  
BRANCH  12  13
HETATM   13  C   UNL     1     -10.220  10.740  65.057  1.00  0.00    -0.373 C  
BRANCH  13  14
HETATM   14  C   UNL     1     -10.899  10.523  66.409  1.00  0.00    -0.094 C  
BRANCH  14  15
HETATM   15  C   UNL     1     -10.207   9.504  67.320  1.00  0.00    -0.295 C  
BRANCH  15  16
HETATM   16  C   UNL     1      -8.812   9.108  66.826  1.00  0.00    -0.127 C  
BRANCH  16  17
HETATM   17  N   UNL     1      -8.342   7.735  67.339  1.00  0.00    -0.122 N  
HETATM   18  C   UNL     1      -7.106   7.270  66.579  1.00  0.00    -0.078 C  
HETATM   19  C   UNL     1      -8.021   7.805  68.831  1.00  0.00    -0.124 C  
BRANCH  17  20
HETATM   20  C   UNL     1      -9.524   6.728  67.112  1.00  0.00    -0.142 C  
BRANCH  20  21
HETATM   21  C   UNL     1      -9.093   5.346  66.688  1.00  0.00    -0.124 A  
HETATM   22  C   UNL     1      -9.609   4.766  65.518  1.00  0.00    -0.172 A  
HETATM   23  C   UNL     1      -9.430   3.405  65.269  1.00  0.00    -0.145 A  
HETATM   24  C   UNL     1      -8.706   2.624  66.167  1.00  0.00    -0.128 A  
HETATM   25  C   UNL     1      -8.111   3.208  67.280  1.00  0.00    -0.082 A  
HETATM   26  C   UNL     1      -8.280   4.570  67.528  1.00  0.00    -0.100 A  
ENDBRANCH  20  21
ENDBRANCH  17  20
ENDBRANCH  16  17
ENDBRANCH  15  16
ENDBRANCH  14  15
ENDBRANCH  13  14
ENDBRANCH  12  13
ENDBRANCH  11  12
ENDBRANCH  10  11
ENDBRANCH   9  10
ENDBRANCH   8   9
ENDBRANCH   7   8
ENDBRANCH   6   7
ENDBRANCH   5   6
ENDBRANCH   4   5
ENDBRANCH   3   4
ENDBRANCH   2   3
TORSDOF 17
ENDMDL
MODEL      279
REMARK 921   NORMALIZED FREE ENERGY PREDICTED BY IDOCK:   -2.90 KCAL/MOL
REMARK 922        TOTAL FREE ENERGY PREDICTED BY IDOCK:   -8.62 KCAL/MOL
REMARK 923 INTER-LIGAND FREE ENERGY PREDICTED BY IDOCK:   -7.52 KCAL/MOL
REMARK 924 INTRA-LIGAND FREE ENERGY PREDICTED BY IDOCK:   -1.09 KCAL/MOL
REMARK 927      BINDING AFFINITY PREDICTED BY RF-SCORE:    0.00 PKD
ROOT
HETATM    1  C   UNL     1      -9.966   4.390  66.727  1.00  0.00    -0.223 C  
HETATM    2  C   UNL     1      -9.635   5.846  66.446  1.00  0.00    -0.173 C  
ENDROOT
BRANCH   2   3
HETATM    3  C   UNL     1     -10.687   6.773  67.048  1.00  0.00    -0.435 C  
BRANCH   3   4
HETATM    4  C   UNL     1     -11.119   6.286  68.428  1.00  0.00    -0.371 C  
BRANCH   4   5
HETATM    5  C   UNL     1     -10.213   6.864  69.507  1.00  0.00    -0.198 C  
BRANCH   5   6
HETATM    6  C   UNL     1     -10.958   7.893  70.346  1.00  0.00    -0.251 C  
BRANCH   6   7
HETATM    7  C   UNL     1     -10.587   9.303  69.906  1.00  0.00    -0.246 C  
BRANCH   7   8
HETATM    8  C   UNL     1     -11.479  10.327  70.590  1.00  0.00    -0.435 C  
BRANCH   8   9
HETATM    9  C   UNL     1     -12.017  11.324  69.571  1.00  0.00    -0.421 C  
BRANCH   9  10
HETATM   10  C   UNL     1     -11.453  11.020  68.193  1.00  0.00    -0.374 C  
BRANCH  10  11
HETATM   11  C   UNL     1     -11.099  12.303  67.460  1.00  0.00    -0.326 C  
BRANCH  11  12
HETATM   12  C   UNL     1     -10.483  13.297  68.429  1.00  0.00    -0.261 C  
BRANCH  12  13
HETATM   13  C   UNL     1      -9.112  13.764  67.954  1.00  0.00    -0.193 C  
BRANCH  13  14
HETATM   14  C   UNL     1      -9.171  14.436  66.582  1.00  0.00    -0.283 C  
BRANCH  14  15
HETATM   15  C   UNL     1      -8.676  15.885  66.554  1.00  0.00    -0.350 C  
BRANCH  15  16
HETATM   16  C   UNL     1      -8.689  16.550  67.933  1.00  0.00    -0.188 C  
BRANCH  16  17
HETATM   17  N   UNL     1      -9.922  17.439  68.179  1.00  0.00    -0.291 N  
HETATM   18  C   UNL     1     -10.700  17.651  66.887  1.00  0.00    -0.147 C  
HETATM   19  C   UNL     1     -10.838  16.802  69.223  1.00  0.00    -0.275 C  
BRANCH  17  20
HETATM   20  C   UNL     1      -9.398  18.814  68.724  1.00  0.00    -0.315 C  
BRANCH  20  21
HETATM   21  C   UNL     1      -8.191  19.354  67.997  1.00  0.00    -0.353 A  
HETATM   22  C   UNL     1      -8.284  19.740  66.650  1.00  0.00    -0.353 A  
HETATM   23  C   UNL     1      -7.129  19.977  65.905  1.00  0.00    -0.317 A  
HETATM   24  C   UNL     1      -5.877  19.864  66.507  1.00  0.00    -0.178 A  
HETATM   25  C   UNL     1      -5.779  19.574  67.865  1.00  0.00    -0.217 A  
HETATM   26  C   UNL     1      -6.931  19.345  68.615  1.00  0.00    -0.351 A  
ENDBRANCH  20  21
ENDBRANCH  17  20
ENDBRANCH  16  17
ENDBRANCH  15  16
ENDBRANCH  14  15
ENDBRANCH  13  14
ENDBRANCH  12  13
ENDBRANCH  11  12
ENDBRANCH  10  11
ENDBRANCH   9  10
ENDBRANCH   8   9
ENDBRANCH   7   8
ENDBRANCH   6   7
ENDBRANCH   5   6
ENDBRANCH   4   5
ENDBRANCH   3   4
ENDBRANCH   2   3
TORSDOF 17
ENDMDL
MODEL      280
REMARK 921   NORMALIZED FREE ENERGY PREDICTED BY IDOCK:   -2.89 KCAL/MOL
REMARK 922        TOTAL FREE ENERGY PREDICTED BY IDOCK:   -8.60 KCAL/MOL
REMARK 923 INTER-LIGAND FREE ENERGY PREDICTED BY IDOCK:   -6.33 KCAL/MOL
REMARK 924 INTRA-LIGAND FREE ENERGY PREDICTED BY IDOCK:   -2.27 KCAL/MOL
REMARK 927      BINDING AFFINITY PREDICTED BY RF-SCORE:    0.00 PKD
ROOT
HETATM    1  C   UNL     1      -7.847   5.005  66.200  1.00  0.00    -0.099 C  
HETATM    2  C   UNL     1      -7.550   5.447  67.623  1.00  0.00    -0.088 C  
ENDROOT
BRANCH   2   3
HETATM    3  C   UNL     1      -8.841   5.679  68.405  1.00  0.00    -0.108 C  
BRANCH   3   4
HETATM    4  C   UNL     1      -9.852   6.461  67.571  1.00  0.00    -0.146 C  
BRANCH   4   5
HETATM    5  C   UNL     1     -11.129   6.700  68.366  1.00  0.00    -0.281 C  
BRANCH   5   6
HETATM    6  C   UNL     1     -11.083   5.963  69.698  1.00  0.00    -0.414 C  
BRANCH   6   7
HETATM    7  C   UNL     1     -11.884   6.719  70.748  1.00  0.00    -0.446 C  
BRANCH   7   8
HETATM    8  C   UNL     1     -11.681   6.100  72.123  1.00  0.00    -0.361 C  
BRANCH   8   9
HETATM    9  C   UNL     1     -10.928   7.064  73.031  1.00  0.00    -0.327 C  
BRANCH   9  10
HETATM   10  C   UNL     1      -9.430   6.842  72.906  1.00  0.00    -0.156 C  
BRANCH  10  11
HETATM   11  C   UNL     1      -8.724   8.129  72.516  1.00  0.00    -0.266 C  
BRANCH  11  12
HETATM   12  C   UNL     1      -8.419   8.119  71.027  1.00  0.00    -0.144 C  
BRANCH  12  13
HETATM   13  C   UNL     1      -8.966   9.363  70.337  1.00  0.00    -0.294 C  
BRANCH  13  14
HETATM   14  C   UNL     1      -8.467   9.495  68.898  1.00  0.00    -0.123 C  
BRANCH  14  15
HETATM   15  C   UNL     1      -9.080  10.656  68.109  1.00  0.00    -0.148 C  
BRANCH  15  16
HETATM   16  C   UNL     1      -9.686  11.738  69.007  1.00  0.00     0.134 C  
BRANCH  16  17
HETATM   17  N   UNL     1     -11.215  11.860  68.883  1.00  0.00    -0.235 N  
HETATM   18  C   UNL     1     -11.750  10.890  67.837  1.00  0.00    -0.068 C  
HETATM   19  C   UNL     1     -11.883  11.574  70.227  1.00  0.00    -0.342 C  
BRANCH  17  20
HETATM   20  C   UNL     1     -11.527  13.338  68.456  1.00  0.00    -0.312 C  
BRANCH  20  21
HETATM   21  C   UNL     1     -11.472  13.582  66.968  1.00  0.00    -0.369 A  
HETATM   22  C   UNL     1     -10.276  13.995  66.358  1.00  0.00    -0.293 A  
HETATM   23  C   UNL     1     -10.286  14.481  65.050  1.00  0.00    -0.442 A  
HETATM   24  C   UNL     1     -11.480  14.523  64.333  1.00  0.00    -0.282 A  
HETATM   25  C   UNL     1     -12.652  14.028  64.897  1.00  0.00    -0.369 A  
HETATM   26  C   UNL     1     -12.644  13.534  66.200  1.00  0.00    -0.355 A  
ENDBRANCH  20  21
ENDBRANCH  17  20
ENDBRANCH  16  17
ENDBRANCH  15  16
ENDBRANCH  14  15
ENDBRANCH  13  14
ENDBRANCH  12  13
ENDBRANCH  11  12
ENDBRANCH  10  11
ENDBRANCH   9  10
ENDBRANCH   8   9
ENDBRANCH   7   8
ENDBRANCH   6   7
ENDBRANCH   5   6
ENDBRANCH   4   5
ENDBRANCH   3   4
ENDBRANCH   2   3
TORSDOF 17
ENDMDL
MODEL      281
REMARK 921   NORMALIZED FREE ENERGY PREDICTED BY IDOCK:   -2.89 KCAL/MOL
REMARK 922        TOTAL FREE ENERGY PREDICTED BY IDOCK:   -8.59 KCAL/MOL
REMARK 923 INTER-LIGAND FREE ENERGY PREDICTED BY IDOCK:   -6.84 KCAL/MOL
REMARK 924 INTRA-LIGAND FREE ENERGY PREDICTED BY IDOCK:   -1.75 KCAL/MOL
REMARK 927      BINDING AFFINITY PREDICTED BY RF-SCORE:    0.00 PKD
ROOT
HETATM    1  C   UNL     1     -10.985   6.315  68.418  1.00  0.00    -0.409 C  
HETATM    2  C   UNL     1     -10.405   5.054  67.802  1.00  0.00    -0.116 C  
ENDROOT
BRANCH   2   3
HETATM    3  C   UNL     1     -10.597   5.046  66.287  1.00  0.00    -0.332 C  
BRANCH   3   4
HETATM    4  C   UNL     1      -9.744   3.962  65.634  1.00  0.00    -0.170 C  
BRANCH   4   5
HETATM    5  C   UNL     1      -8.966   4.532  64.455  1.00  0.00    -0.152 C  
BRANCH   5   6
HETATM    6  C   UNL     1      -8.284   5.839  64.838  1.00  0.00    -0.137 C  
BRANCH   6   7
HETATM    7  C   UNL     1      -6.967   5.559  65.549  1.00  0.00    -0.065 C  
BRANCH   7   8
HETATM    8  C   UNL     1      -6.494   6.796  66.298  1.00  0.00    -0.047 C  
BRANCH   8   9
HETATM    9  C   UNL     1      -7.581   7.290  67.244  1.00  0.00    -0.104 C  
BRANCH   9  10
HETATM   10  C   UNL     1      -7.695   8.804  67.167  1.00  0.00    -0.096 C  
BRANCH  10  11
HETATM   11  C   UNL     1      -8.523   9.222  65.964  1.00  0.00    -0.144 C  
BRANCH  11  12
HETATM   12  C   UNL     1     -10.002   9.128  66.299  1.00  0.00    -0.352 C  
BRANCH  12  13
HETATM   13  C   UNL     1     -10.334   9.884  67.580  1.00  0.00    -0.289 C  
BRANCH  13  14
HETATM   14  C   UNL     1     -11.280  11.059  67.331  1.00  0.00    -0.355 C  
BRANCH  14  15
HETATM   15  C   UNL     1     -11.095  11.760  65.983  1.00  0.00    -0.363 C  
BRANCH  15  16
HETATM   16  C   UNL     1     -10.351  13.094  66.097  1.00  0.00    -0.284 C  
BRANCH  16  17
HETATM   17  N   UNL     1     -11.281  14.321  66.108  1.00  0.00    -0.325 N  
HETATM   18  C   UNL     1     -12.628  13.982  65.482  1.00  0.00    -0.516 C  
HETATM   19  C   UNL     1     -11.497  14.811  67.539  1.00  0.00    -0.354 C  
BRANCH  17  20
HETATM   20  C   UNL     1     -10.569  15.446  65.278  1.00  0.00    -0.428 C  
BRANCH  20  21
HETATM   21  C   UNL     1      -9.788  16.434  66.110  1.00  0.00    -0.362 A  
HETATM   22  C   UNL     1      -8.503  16.113  66.577  1.00  0.00    -0.346 A  
HETATM   23  C   UNL     1      -7.897  16.897  67.559  1.00  0.00    -0.186 A  
HETATM   24  C   UNL     1      -8.552  18.022  68.055  1.00  0.00    -0.267 A  
HETATM   25  C   UNL     1      -9.784  18.400  67.530  1.00  0.00    -0.308 A  
HETATM   26  C   UNL     1     -10.389  17.625  66.542  1.00  0.00    -0.337 A  
ENDBRANCH  20  21
ENDBRANCH  17  20
ENDBRANCH  16  17
ENDBRANCH  15  16
ENDBRANCH  14  15
ENDBRANCH  13  14
ENDBRANCH  12  13
ENDBRANCH  11  12
ENDBRANCH  10  11
ENDBRANCH   9  10
ENDBRANCH   8   9
ENDBRANCH   7   8
ENDBRANCH   6   7
ENDBRANCH   5   6
ENDBRANCH   4   5
ENDBRANCH   3   4
ENDBRANCH   2   3
TORSDOF 17
ENDMDL
MODEL      282
REMARK 921   NORMALIZED FREE ENERGY PREDICTED BY IDOCK:   -2.88 KCAL/MOL
REMARK 922        TOTAL FREE ENERGY PREDICTED BY IDOCK:   -8.59 KCAL/MOL
REMARK 923 INTER-LIGAND FREE ENERGY PREDICTED BY IDOCK:   -6.49 KCAL/MOL
REMARK 924 INTRA-LIGAND FREE ENERGY PREDICTED BY IDOCK:   -2.10 KCAL/MOL
REMARK 927      BINDING AFFINITY PREDICTED BY RF-SCORE:    0.00 PKD
ROOT
HETATM    1  C   UNL     1      -6.031   5.740  73.363  1.00  0.00    -0.051 C  
HETATM    2  C   UNL     1      -6.922   6.783  74.016  1.00  0.00    -0.078 C  
ENDROOT
BRANCH   2   3
HETATM    3  C   UNL     1      -7.728   7.547  72.968  1.00  0.00    -0.117 C  
BRANCH   3   4
HETATM    4  C   UNL     1      -9.157   7.789  73.448  1.00  0.00    -0.336 C  
BRANCH   4   5
HETATM    5  C   UNL     1     -10.132   6.890  72.699  1.00  0.00    -0.195 C  
BRANCH   5   6
HETATM    6  C   UNL     1      -9.585   6.526  71.325  1.00  0.00    -0.175 C  
BRANCH   6   7
HETATM    7  C   UNL     1     -10.619   5.731  70.539  1.00  0.00    -0.359 C  
BRANCH   7   8
HETATM    8  C   UNL     1     -10.143   5.501  69.112  1.00  0.00    -0.286 C  
BRANCH   8   9
HETATM    9  C   UNL     1     -10.537   6.679  68.229  1.00  0.00    -0.291 C  
BRANCH   9  10
HETATM   10  C   UNL     1      -9.737   6.654  66.936  1.00  0.00    -0.209 C  
BRANCH  10  11
HETATM   11  C   UNL     1      -8.438   7.426  67.091  1.00  0.00    -0.118 C  
BRANCH  11  12
HETATM   12  C   UNL     1      -8.652   8.878  66.701  1.00  0.00    -0.130 C  
BRANCH  12  13
HETATM   13  C   UNL     1      -9.642   9.007  65.550  1.00  0.00    -0.166 C  
BRANCH  13  14
HETATM   14  C   UNL     1      -9.567  10.375  64.871  1.00  0.00    -0.348 C  
BRANCH  14  15
HETATM   15  C   UNL     1     -10.636  11.375  65.321  1.00  0.00    -0.336 C  
BRANCH  15  16
HETATM   16  C   UNL     1     -10.049  12.631  65.969  1.00  0.00    -0.262 C  
BRANCH  16  17
HETATM   17  N   UNL     1     -10.328  12.736  67.479  1.00  0.00    -0.218 N  
HETATM   18  C   UNL     1      -9.143  12.219  68.285  1.00  0.00    -0.187 C  
HETATM   19  C   UNL     1     -10.610  14.187  67.869  1.00  0.00    -0.243 C  
BRANCH  17  20
HETATM   20  C   UNL     1     -11.601  11.867  67.775  1.00  0.00    -0.323 C  
BRANCH  20  21
HETATM   21  C   UNL     1     -11.720  11.402  69.205  1.00  0.00    -0.410 A  
HETATM   22  C   UNL     1     -11.091  10.218  69.624  1.00  0.00    -0.323 A  
HETATM   23  C   UNL     1     -11.418   9.646  70.853  1.00  0.00    -0.427 A  
HETATM   24  C   UNL     1     -12.346  10.269  71.686  1.00  0.00    -0.445 A  
HETATM   25  C   UNL     1     -12.903  11.491  71.321  1.00  0.00    -0.463 A  
HETATM   26  C   UNL     1     -12.572  12.070  70.097  1.00  0.00     0.000 A  
ENDBRANCH  20  21
ENDBRANCH  17  20
ENDBRANCH  16  17
ENDBRANCH  15  16
ENDBRANCH  14  15
ENDBRANCH  13  14
ENDBRANCH  12  13
ENDBRANCH  11  12
ENDBRANCH  10  11
ENDBRANCH   9  10
ENDBRANCH   8   9
ENDBRANCH   7   8
ENDBRANCH   6   7
ENDBRANCH   5   6
ENDBRANCH   4   5
ENDBRANCH   3   4
ENDBRANCH   2   3
TORSDOF 17
ENDMDL
MODEL      283
REMARK 921   NORMALIZED FREE ENERGY PREDICTED BY IDOCK:   -2.87 KCAL/MOL
REMARK 922        TOTAL FREE ENERGY PREDICTED BY IDOCK:   -8.55 KCAL/MOL
REMARK 923 INTER-LIGAND FREE ENERGY PREDICTED BY IDOCK:   -6.28 KCAL/MOL
REMARK 924 INTRA-LIGAND FREE ENERGY PREDICTED BY IDOCK:   -2.27 KCAL/MOL
REMARK 927      BINDING AFFINITY PREDICTED BY RF-SCORE:    0.00 PKD
ROOT
HETATM    1  C   UNL     1      -9.477  13.806  67.266  1.00  0.00    -0.236 C  
HETATM    2  C   UNL     1     -10.549  12.971  67.944  1.00  0.00    -0.239 C  
ENDROOT
BRANCH   2   3
HETATM    3  C   UNL     1     -11.945  13.468  67.577  1.00  0.00    -0.385 C  
BRANCH   3   4
HETATM    4  C   UNL     1     -11.879  14.507  66.461  1.00  0.00    -0.367 C  
BRANCH   4   5
HETATM    5  C   UNL     1     -12.836  14.142  65.334  1.00  0.00    -0.393 C  
BRANCH   5   6
HETATM    6  C   UNL     1     -12.431  12.826  64.684  1.00  0.00    -0.525 C  
BRANCH   6   7
HETATM    7  C   UNL     1     -11.207  13.026  63.802  1.00  0.00    -0.396 C  
BRANCH   7   8
HETATM    8  C   UNL     1     -10.055  12.156  64.284  1.00  0.00    -0.317 C  
BRANCH   8   9
HETATM    9  C   UNL     1     -10.588  10.873  64.909  1.00  0.00    -0.304 C  
BRANCH   9  10
HETATM   10  C   UNL     1      -9.435  10.008  65.392  1.00  0.00    -0.310 C  
BRANCH  10  11
HETATM   11  C   UNL     1      -9.546   9.745  66.884  1.00  0.00    -0.228 C  
BRANCH  11  12
HETATM   12  C   UNL     1      -8.251  10.136  67.574  1.00  0.00    -0.114 C  
BRANCH  12  13
HETATM   13  C   UNL     1      -7.237   8.999  67.546  1.00  0.00    -0.080 C  
BRANCH  13  14
HETATM   14  C   UNL     1      -7.602   7.872  68.512  1.00  0.00    -0.105 C  
BRANCH  14  15
HETATM   15  C   UNL     1      -7.097   6.486  68.103  1.00  0.00    -0.083 C  
BRANCH  15  16
HETATM   16  C   UNL     1      -8.145   5.663  67.349  1.00  0.00    -0.102 C  
BRANCH  16  17
HETATM   17  N   UNL     1      -8.152   4.171  67.730  1.00  0.00    -0.093 N  
HETATM   18  C   UNL     1      -8.035   3.297  66.488  1.00  0.00    -0.081 C  
HETATM   19  C   UNL     1      -6.996   3.860  68.680  1.00  0.00    -0.047 C  
BRANCH  17  20
HETATM   20  C   UNL     1      -9.511   3.888  68.462  1.00  0.00    -0.148 C  
BRANCH  20  21
HETATM   21  C   UNL     1      -9.991   5.015  69.343  1.00  0.00    -0.290 A  
HETATM   22  C   UNL     1      -9.573   5.102  70.681  1.00  0.00    -0.242 A  
HETATM   23  C   UNL     1     -10.217   5.968  71.564  1.00  0.00    -0.249 A  
HETATM   24  C   UNL     1     -11.257   6.777  71.111  1.00  0.00    -0.327 A  
HETATM   25  C   UNL     1     -11.615   6.767  69.767  1.00  0.00    -0.284 A  
HETATM   26  C   UNL     1     -10.968   5.908  68.879  1.00  0.00    -0.337 A  
ENDBRANCH  20  21
ENDBRANCH  17  20
ENDBRANCH  16  17
ENDBRANCH  15  16
ENDBRANCH  14  15
ENDBRANCH  13  14
ENDBRANCH  12  13
ENDBRANCH  11  12
ENDBRANCH  10  11
ENDBRANCH   9  10
ENDBRANCH   8   9
ENDBRANCH   7   8
ENDBRANCH   6   7
ENDBRANCH   5   6
ENDBRANCH   4   5
ENDBRANCH   3   4
ENDBRANCH   2   3
TORSDOF 17
ENDMDL
MODEL      284
REMARK 921   NORMALIZED FREE ENERGY PREDICTED BY IDOCK:   -2.86 KCAL/MOL
REMARK 922        TOTAL FREE ENERGY PREDICTED BY IDOCK:   -8.53 KCAL/MOL
REMARK 923 INTER-LIGAND FREE ENERGY PREDICTED BY IDOCK:   -6.72 KCAL/MOL
REMARK 924 INTRA-LIGAND FREE ENERGY PREDICTED BY IDOCK:   -1.82 KCAL/MOL
REMARK 927      BINDING AFFINITY PREDICTED BY RF-SCORE:    0.00 PKD
ROOT
HETATM    1  C   UNL     1      -8.682  10.026  66.021  1.00  0.00    -0.152 C  
HETATM    2  C   UNL     1      -7.385   9.873  66.797  1.00  0.00    -0.095 C  
ENDROOT
BRANCH   2   3
HETATM    3  C   UNL     1      -7.010  11.175  67.499  1.00  0.00    -0.088 C  
BRANCH   3   4
HETATM    4  C   UNL     1      -8.188  11.724  68.299  1.00  0.00    -0.157 C  
BRANCH   4   5
HETATM    5  C   UNL     1      -8.269  13.239  68.160  1.00  0.00    -0.160 C  
BRANCH   5   6
HETATM    6  C   UNL     1      -8.591  13.635  66.726  1.00  0.00    -0.050 C  
BRANCH   6   7
HETATM    7  C   UNL     1      -8.748  15.146  66.617  1.00  0.00    -0.308 C  
BRANCH   7   8
HETATM    8  C   UNL     1      -9.958  15.614  67.412  1.00  0.00    -0.232 C  
BRANCH   8   9
HETATM    9  C   UNL     1     -11.243  15.268  66.671  1.00  0.00    -0.232 C  
BRANCH   9  10
HETATM   10  C   UNL     1     -12.021  14.208  67.434  1.00  0.00    -0.439 C  
BRANCH  10  11
HETATM   11  C   UNL     1     -11.901  14.426  68.933  1.00  0.00    -0.355 C  
BRANCH  11  12
HETATM   12  C   UNL     1     -11.767  13.087  69.639  1.00  0.00    -0.364 C  
BRANCH  12  13
HETATM   13  C   UNL     1     -11.696  11.936  68.643  1.00  0.00    -0.380 C  
BRANCH  13  14
HETATM   14  C   UNL     1     -12.065  10.595  69.279  1.00  0.00    -0.206 C  
BRANCH  14  15
HETATM   15  C   UNL     1     -11.541  10.394  70.704  1.00  0.00    -0.440 C  
BRANCH  15  16
HETATM   16  C   UNL     1     -10.672   9.142  70.852  1.00  0.00    -0.275 C  
BRANCH  16  17
HETATM   17  N   UNL     1     -11.417   7.941  71.462  1.00  0.00    -0.258 N  
HETATM   18  C   UNL     1     -12.669   8.400  72.200  1.00  0.00    -0.356 C  
HETATM   19  C   UNL     1     -11.811   6.948  70.368  1.00  0.00    -0.299 C  
BRANCH  17  20
HETATM   20  C   UNL     1     -10.429   7.242  72.460  1.00  0.00    -0.237 C  
BRANCH  20  21
HETATM   21  C   UNL     1     -10.456   5.734  72.412  1.00  0.00    -0.252 A  
HETATM   22  C   UNL     1     -11.203   5.005  73.350  1.00  0.00    -0.391 A  
HETATM   23  C   UNL     1     -11.016   3.628  73.481  1.00  0.00    -0.333 A  
HETATM   24  C   UNL     1     -10.111   2.968  72.653  1.00  0.00    -0.231 A  
HETATM   25  C   UNL     1      -9.436   3.667  71.657  1.00  0.00    -0.215 A  
HETATM   26  C   UNL     1      -9.626   5.041  71.518  1.00  0.00    -0.213 A  
ENDBRANCH  20  21
ENDBRANCH  17  20
ENDBRANCH  16  17
ENDBRANCH  15  16
ENDBRANCH  14  15
ENDBRANCH  13  14
ENDBRANCH  12  13
ENDBRANCH  11  12
ENDBRANCH  10  11
ENDBRANCH   9  10
ENDBRANCH   8   9
ENDBRANCH   7   8
ENDBRANCH   6   7
ENDBRANCH   5   6
ENDBRANCH   4   5
ENDBRANCH   3   4
ENDBRANCH   2   3
TORSDOF 17
ENDMDL
MODEL      285
REMARK 921   NORMALIZED FREE ENERGY PREDICTED BY IDOCK:   -2.84 KCAL/MOL
REMARK 922        TOTAL FREE ENERGY PREDICTED BY IDOCK:   -8.51 KCAL/MOL
REMARK 923 INTER-LIGAND FREE ENERGY PREDICTED BY IDOCK:   -6.60 KCAL/MOL
REMARK 924 INTRA-LIGAND FREE ENERGY PREDICTED BY IDOCK:   -1.91 KCAL/MOL
REMARK 927      BINDING AFFINITY PREDICTED BY RF-SCORE:    0.00 PKD
ROOT
HETATM    1  C   UNL     1      -8.695   5.597  66.019  1.00  0.00    -0.144 C  
HETATM    2  C   UNL     1      -8.909   6.758  66.975  1.00  0.00    -0.115 C  
ENDROOT
BRANCH   2   3
HETATM    3  C   UNL     1     -10.182   6.566  67.795  1.00  0.00    -0.201 C  
BRANCH   3   4
HETATM    4  C   UNL     1     -10.225   5.172  68.417  1.00  0.00    -0.175 C  
BRANCH   4   5
HETATM    5  C   UNL     1      -9.319   5.104  69.639  1.00  0.00    -0.182 C  
BRANCH   5   6
HETATM    6  C   UNL     1     -10.077   4.567  70.846  1.00  0.00    -0.228 C  
BRANCH   6   7
HETATM    7  C   UNL     1      -9.918   5.508  72.032  1.00  0.00    -0.225 C  
BRANCH   7   8
HETATM    8  C   UNL     1     -11.278   5.889  72.596  1.00  0.00    -0.335 C  
BRANCH   8   9
HETATM    9  C   UNL     1     -11.538   7.376  72.388  1.00  0.00    -0.327 C  
BRANCH   9  10
HETATM   10  C   UNL     1     -11.417   7.728  70.914  1.00  0.00    -0.294 C  
BRANCH  10  11
HETATM   11  C   UNL     1     -10.654   9.029  70.731  1.00  0.00    -0.300 C  
BRANCH  11  12
HETATM   12  C   UNL     1      -9.255   8.892  71.307  1.00  0.00    -0.328 C  
BRANCH  12  13
HETATM   13  C   UNL     1      -8.207   8.781  70.207  1.00  0.00    -0.120 C  
BRANCH  13  14
HETATM   14  C   UNL     1      -7.348  10.041  70.094  1.00  0.00    -0.171 C  
BRANCH  14  15
HETATM   15  C   UNL     1      -7.467  10.782  68.759  1.00  0.00    -0.109 C  
BRANCH  15  16
HETATM   16  C   UNL     1      -8.433  10.107  67.781  1.00  0.00    -0.114 C  
BRANCH  16  17
HETATM   17  N   UNL     1      -8.712  10.937  66.515  1.00  0.00    -0.157 N  
HETATM   18  C   UNL     1      -8.455  12.417  66.773  1.00  0.00    -0.095 C  
HETATM   19  C   UNL     1      -7.827  10.463  65.363  1.00  0.00    -0.143 C  
BRANCH  17  20
HETATM   20  C   UNL     1     -10.217  10.709  66.136  1.00  0.00    -0.248 C  
BRANCH  20  21
HETATM   21  C   UNL     1     -10.887  11.902  65.499  1.00  0.00    -0.343 A  
HETATM   22  C   UNL     1     -11.685  12.765  66.267  1.00  0.00    -0.460 A  
HETATM   23  C   UNL     1     -12.516  13.696  65.643  1.00  0.00    -0.540 A  
HETATM   24  C   UNL     1     -12.529  13.795  64.253  1.00  0.00    -0.308 A  
HETATM   25  C   UNL     1     -11.672  13.010  63.489  1.00  0.00    -0.532 A  
HETATM   26  C   UNL     1     -10.834  12.084  64.109  1.00  0.00    -0.405 A  
ENDBRANCH  20  21
ENDBRANCH  17  20
ENDBRANCH  16  17
ENDBRANCH  15  16
ENDBRANCH  14  15
ENDBRANCH  13  14
ENDBRANCH  12  13
ENDBRANCH  11  12
ENDBRANCH  10  11
ENDBRANCH   9  10
ENDBRANCH   8   9
ENDBRANCH   7   8
ENDBRANCH   6   7
ENDBRANCH   5   6
ENDBRANCH   4   5
ENDBRANCH   3   4
ENDBRANCH   2   3
TORSDOF 17
ENDMDL
MODEL      286
REMARK 921   NORMALIZED FREE ENERGY PREDICTED BY IDOCK:   -2.84 KCAL/MOL
REMARK 922        TOTAL FREE ENERGY PREDICTED BY IDOCK:   -8.51 KCAL/MOL
REMARK 923 INTER-LIGAND FREE ENERGY PREDICTED BY IDOCK:   -6.43 KCAL/MOL
REMARK 924 INTRA-LIGAND FREE ENERGY PREDICTED BY IDOCK:   -2.08 KCAL/MOL
REMARK 927      BINDING AFFINITY PREDICTED BY RF-SCORE:    0.00 PKD
ROOT
HETATM    1  C   UNL     1     -12.158  11.234  68.792  1.00  0.00    -0.258 C  
HETATM    2  C   UNL     1     -11.760  12.272  69.828  1.00  0.00    -0.368 C  
ENDROOT
BRANCH   2   3
HETATM    3  C   UNL     1     -12.915  12.566  70.781  1.00  0.00     0.032 C  
BRANCH   3   4
HETATM    4  C   UNL     1     -12.607  13.777  71.656  1.00  0.00    -0.370 C  
BRANCH   4   5
HETATM    5  C   UNL     1     -12.737  15.064  70.852  1.00  0.00    -0.437 C  
BRANCH   5   6
HETATM    6  C   UNL     1     -11.477  15.910  70.977  1.00  0.00    -0.461 C  
BRANCH   6   7
HETATM    7  C   UNL     1     -10.684  15.872  69.677  1.00  0.00    -0.304 C  
BRANCH   7   8
HETATM    8  C   UNL     1     -11.607  15.603  68.498  1.00  0.00    -0.378 C  
BRANCH   8   9
HETATM    9  C   UNL     1     -10.838  14.928  67.369  1.00  0.00    -0.304 C  
BRANCH   9  10
HETATM   10  C   UNL     1      -9.398  15.415  67.350  1.00  0.00    -0.205 C  
BRANCH  10  11
HETATM   11  C   UNL     1      -8.459  14.307  66.906  1.00  0.00    -0.133 C  
BRANCH  11  12
HETATM   12  C   UNL     1      -9.080  12.954  67.206  1.00  0.00    -0.208 C  
BRANCH  12  13
HETATM   13  C   UNL     1      -8.342  12.238  68.330  1.00  0.00    -0.144 C  
BRANCH  13  14
HETATM   14  C   UNL     1      -8.511  10.720  68.260  1.00  0.00    -0.130 C  
BRANCH  14  15
HETATM   15  C   UNL     1      -8.675  10.028  69.617  1.00  0.00    -0.210 C  
BRANCH  15  16
HETATM   16  C   UNL     1      -9.380   8.672  69.518  1.00  0.00    -0.153 C  
BRANCH  16  17
HETATM   17  N   UNL     1      -9.846   8.116  70.876  1.00  0.00    -0.175 N  
HETATM   18  C   UNL     1      -8.652   7.690  71.721  1.00  0.00    -0.113 C  
HETATM   19  C   UNL     1     -10.652   9.170  71.633  1.00  0.00    -0.357 C  
BRANCH  17  20
HETATM   20  C   UNL     1     -10.765   6.880  70.578  1.00  0.00    -0.235 C  
BRANCH  20  21
HETATM   21  C   UNL     1     -10.237   5.569  71.106  1.00  0.00    -0.285 A  
HETATM   22  C   UNL     1      -9.623   4.648  70.242  1.00  0.00    -0.270 A  
HETATM   23  C   UNL     1      -9.383   3.340  70.664  1.00  0.00    -0.229 A  
HETATM   24  C   UNL     1      -9.722   2.954  71.959  1.00  0.00    -0.230 A  
HETATM   25  C   UNL     1     -10.243   3.885  72.852  1.00  0.00    -0.229 A  
HETATM   26  C   UNL     1     -10.476   5.195  72.437  1.00  0.00    -0.272 A  
ENDBRANCH  20  21
ENDBRANCH  17  20
ENDBRANCH  16  17
ENDBRANCH  15  16
ENDBRANCH  14  15
ENDBRANCH  13  14
ENDBRANCH  12  13
ENDBRANCH  11  12
ENDBRANCH  10  11
ENDBRANCH   9  10
ENDBRANCH   8   9
ENDBRANCH   7   8
ENDBRANCH   6   7
ENDBRANCH   5   6
ENDBRANCH   4   5
ENDBRANCH   3   4
ENDBRANCH   2   3
TORSDOF 17
ENDMDL
MODEL      287
REMARK 921   NORMALIZED FREE ENERGY PREDICTED BY IDOCK:   -2.84 KCAL/MOL
REMARK 922        TOTAL FREE ENERGY PREDICTED BY IDOCK:   -8.50 KCAL/MOL
REMARK 923 INTER-LIGAND FREE ENERGY PREDICTED BY IDOCK:   -7.25 KCAL/MOL
REMARK 924 INTRA-LIGAND FREE ENERGY PREDICTED BY IDOCK:   -1.25 KCAL/MOL
REMARK 927      BINDING AFFINITY PREDICTED BY RF-SCORE:    0.00 PKD
ROOT
HETATM    1  C   UNL     1      -8.271  18.836  68.358  1.00  0.00    -0.372 C  
HETATM    2  C   UNL     1      -9.274  18.579  67.246  1.00  0.00    -0.281 C  
ENDROOT
BRANCH   2   3
HETATM    3  C   UNL     1     -10.539  17.920  67.791  1.00  0.00    -0.399 C  
BRANCH   3   4
HETATM    4  C   UNL     1     -10.200  16.663  68.587  1.00  0.00    -0.284 C  
BRANCH   4   5
HETATM    5  C   UNL     1     -11.196  15.552  68.281  1.00  0.00    -0.343 C  
BRANCH   5   6
HETATM    6  C   UNL     1     -11.087  15.113  66.826  1.00  0.00    -0.307 C  
BRANCH   6   7
HETATM    7  C   UNL     1     -11.053  13.594  66.734  1.00  0.00    -0.315 C  
BRANCH   7   8
HETATM    8  C   UNL     1     -10.048  13.022  67.723  1.00  0.00    -0.229 C  
BRANCH   8   9
HETATM    9  C   UNL     1      -8.705  12.796  67.041  1.00  0.00    -0.197 C  
BRANCH   9  10
HETATM   10  C   UNL     1      -8.158  11.425  67.403  1.00  0.00    -0.142 C  
BRANCH  10  11
HETATM   11  C   UNL     1      -8.006  10.560  66.163  1.00  0.00    -0.147 C  
BRANCH  11  12
HETATM   12  C   UNL     1      -8.823   9.289  66.318  1.00  0.00    -0.172 C  
BRANCH  12  13
HETATM   13  C   UNL     1     -10.142   9.557  67.033  1.00  0.00    -0.297 C  
BRANCH  13  14
HETATM   14  C   UNL     1     -10.180   8.942  68.432  1.00  0.00    -0.231 C  
BRANCH  14  15
HETATM   15  C   UNL     1      -9.690   7.493  68.510  1.00  0.00    -0.159 C  
BRANCH  15  16
HETATM   16  C   UNL     1     -10.637   6.581  69.296  1.00  0.00    -0.247 C  
BRANCH  16  17
HETATM   17  N   UNL     1      -9.943   5.790  70.419  1.00  0.00    -0.188 N  
HETATM   18  C   UNL     1      -9.784   4.326  70.029  1.00  0.00    -0.217 C  
HETATM   19  C   UNL     1      -8.568   6.386  70.719  1.00  0.00    -0.135 C  
BRANCH  17  20
HETATM   20  C   UNL     1     -10.847   5.912  71.696  1.00  0.00    -0.263 C  
BRANCH  20  21
HETATM   21  C   UNL     1     -11.794   7.086  71.679  1.00  0.00    -0.348 A  
HETATM   22  C   UNL     1     -11.387   8.337  72.173  1.00  0.00    -0.419 A  
HETATM   23  C   UNL     1     -12.329   9.338  72.411  1.00  0.00    -0.260 A  
HETATM   24  C   UNL     1     -13.673   9.111  72.125  1.00  0.00    -0.531 A  
HETATM   25  C   UNL     1     -14.072   7.910  71.548  1.00  0.00    -0.489 A  
HETATM   26  C   UNL     1     -13.133   6.909  71.301  1.00  0.00    -0.273 A  
ENDBRANCH  20  21
ENDBRANCH  17  20
ENDBRANCH  16  17
ENDBRANCH  15  16
ENDBRANCH  14  15
ENDBRANCH  13  14
ENDBRANCH  12  13
ENDBRANCH  11  12
ENDBRANCH  10  11
ENDBRANCH   9  10
ENDBRANCH   8   9
ENDBRANCH   7   8
ENDBRANCH   6   7
ENDBRANCH   5   6
ENDBRANCH   4   5
ENDBRANCH   3   4
ENDBRANCH   2   3
TORSDOF 17
ENDMDL
MODEL      288
REMARK 921   NORMALIZED FREE ENERGY PREDICTED BY IDOCK:   -2.84 KCAL/MOL
REMARK 922        TOTAL FREE ENERGY PREDICTED BY IDOCK:   -8.50 KCAL/MOL
REMARK 923 INTER-LIGAND FREE ENERGY PREDICTED BY IDOCK:   -6.71 KCAL/MOL
REMARK 924 INTRA-LIGAND FREE ENERGY PREDICTED BY IDOCK:   -1.79 KCAL/MOL
REMARK 927      BINDING AFFINITY PREDICTED BY RF-SCORE:    0.00 PKD
ROOT
HETATM    1  C   UNL     1      -9.256  14.384  66.745  1.00  0.00    -0.287 C  
HETATM    2  C   UNL     1     -10.540  13.758  67.263  1.00  0.00    -0.275 C  
ENDROOT
BRANCH   2   3
HETATM    3  C   UNL     1     -11.617  13.744  66.181  1.00  0.00    -0.369 C  
BRANCH   3   4
HETATM    4  C   UNL     1     -11.006  13.960  64.799  1.00  0.00    -0.407 C  
BRANCH   4   5
HETATM    5  C   UNL     1     -11.608  12.990  63.791  1.00  0.00    -0.517 C  
BRANCH   5   6
HETATM    6  C   UNL     1     -11.262  11.551  64.152  1.00  0.00    -0.393 C  
BRANCH   6   7
HETATM    7  C   UNL     1      -9.752  11.356  64.158  1.00  0.00    -0.267 C  
BRANCH   7   8
HETATM    8  C   UNL     1      -9.293  10.789  65.493  1.00  0.00    -0.242 C  
BRANCH   8   9
HETATM    9  C   UNL     1     -10.155   9.596  65.884  1.00  0.00    -0.304 C  
BRANCH   9  10
HETATM   10  C   UNL     1     -10.069   9.356  67.383  1.00  0.00    -0.271 C  
BRANCH  10  11
HETATM   11  C   UNL     1     -11.085  10.206  68.125  1.00  0.00    -0.290 C  
BRANCH  11  12
HETATM   12  C   UNL     1     -10.476  10.729  69.414  1.00  0.00    -0.229 C  
BRANCH  12  13
HETATM   13  C   UNL     1     -10.149   9.595  70.378  1.00  0.00    -0.336 C  
BRANCH  13  14
HETATM   14  C   UNL     1     -11.404   8.881  70.880  1.00  0.00    -0.336 C  
BRANCH  14  15
HETATM   15  C   UNL     1     -11.193   8.003  72.118  1.00  0.00    -0.380 C  
BRANCH  15  16
HETATM   16  C   UNL     1     -10.207   6.856  71.879  1.00  0.00    -0.188 C  
BRANCH  16  17
HETATM   17  N   UNL     1     -10.168   5.826  73.022  1.00  0.00    -0.180 N  
HETATM   18  C   UNL     1      -9.986   6.519  74.367  1.00  0.00    -0.351 C  
HETATM   19  C   UNL     1     -11.459   5.008  73.045  1.00  0.00    -0.265 C  
BRANCH  17  20
HETATM   20  C   UNL     1      -8.956   4.870  72.741  1.00  0.00    -0.123 C  
BRANCH  20  21
HETATM   21  C   UNL     1      -8.668   4.643  71.277  1.00  0.00    -0.139 A  
HETATM   22  C   UNL     1      -9.282   3.586  70.586  1.00  0.00    -0.207 A  
HETATM   23  C   UNL     1      -8.818   3.208  69.326  1.00  0.00    -0.154 A  
HETATM   24  C   UNL     1      -7.766   3.903  68.734  1.00  0.00    -0.053 A  
HETATM   25  C   UNL     1      -7.215   5.010  69.370  1.00  0.00    -0.056 A  
HETATM   26  C   UNL     1      -7.681   5.397  70.626  1.00  0.00    -0.089 A  
ENDBRANCH  20  21
ENDBRANCH  17  20
ENDBRANCH  16  17
ENDBRANCH  15  16
ENDBRANCH  14  15
ENDBRANCH  13  14
ENDBRANCH  12  13
ENDBRANCH  11  12
ENDBRANCH  10  11
ENDBRANCH   9  10
ENDBRANCH   8   9
ENDBRANCH   7   8
ENDBRANCH   6   7
ENDBRANCH   5   6
ENDBRANCH   4   5
ENDBRANCH   3   4
ENDBRANCH   2   3
TORSDOF 17
ENDMDL
MODEL      289
REMARK 921   NORMALIZED FREE ENERGY PREDICTED BY IDOCK:   -2.84 KCAL/MOL
REMARK 922        TOTAL FREE ENERGY PREDICTED BY IDOCK:   -8.50 KCAL/MOL
REMARK 923 INTER-LIGAND FREE ENERGY PREDICTED BY IDOCK:   -7.11 KCAL/MOL
REMARK 924 INTRA-LIGAND FREE ENERGY PREDICTED BY IDOCK:   -1.39 KCAL/MOL
REMARK 927      BINDING AFFINITY PREDICTED BY RF-SCORE:    0.00 PKD
ROOT
HETATM    1  C   UNL     1     -11.590  15.458  72.211  1.00  0.00    -0.554 C  
HETATM    2  C   UNL     1     -11.437  15.909  70.769  1.00  0.00    -0.437 C  
ENDROOT
BRANCH   2   3
HETATM    3  C   UNL     1     -10.290  15.171  70.082  1.00  0.00    -0.146 C  
BRANCH   3   4
HETATM    4  C   UNL     1     -10.729  14.616  68.730  1.00  0.00    -0.252 C  
BRANCH   4   5
HETATM    5  C   UNL     1     -12.079  13.920  68.851  1.00  0.00    -0.355 C  
BRANCH   5   6
HETATM    6  C   UNL     1     -11.898  12.439  69.157  1.00  0.00    -0.352 C  
BRANCH   6   7
HETATM    7  C   UNL     1     -12.399  12.123  70.560  1.00  0.00    -0.358 C  
BRANCH   7   8
HETATM    8  C   UNL     1     -12.285  10.633  70.844  1.00  0.00    -0.497 C  
BRANCH   8   9
HETATM    9  C   UNL     1     -13.166  10.252  72.027  1.00  0.00    -0.516 C  
BRANCH   9  10
HETATM   10  C   UNL     1     -13.384   8.748  72.056  1.00  0.00    -0.455 C  
BRANCH  10  11
HETATM   11  C   UNL     1     -12.301   8.031  71.268  1.00  0.00    -0.290 C  
BRANCH  11  12
HETATM   12  C   UNL     1     -11.590   7.030  72.162  1.00  0.00    -0.320 C  
BRANCH  12  13
HETATM   13  C   UNL     1     -10.666   7.725  73.155  1.00  0.00    -0.414 C  
BRANCH  13  14
HETATM   14  C   UNL     1      -9.820   6.732  73.953  1.00  0.00    -0.318 C  
BRANCH  14  15
HETATM   15  C   UNL     1      -9.768   5.317  73.370  1.00  0.00    -0.156 C  
BRANCH  15  16
HETATM   16  C   UNL     1      -8.460   5.021  72.631  1.00  0.00    -0.116 C  
BRANCH  16  17
HETATM   17  N   UNL     1      -8.655   4.661  71.147  1.00  0.00    -0.110 N  
HETATM   18  C   UNL     1      -7.707   3.542  70.734  1.00  0.00    -0.040 C  
HETATM   19  C   UNL     1     -10.097   4.222  70.892  1.00  0.00    -0.091 C  
BRANCH  17  20
HETATM   20  C   UNL     1      -8.355   5.956  70.314  1.00  0.00    -0.122 C  
BRANCH  20  21
HETATM   21  C   UNL     1      -8.959   5.962  68.931  1.00  0.00    -0.118 A  
HETATM   22  C   UNL     1     -10.274   6.410  68.730  1.00  0.00    -0.206 A  
HETATM   23  C   UNL     1     -10.923   6.165  67.519  1.00  0.00    -0.404 A  
HETATM   24  C   UNL     1     -10.252   5.503  66.493  1.00  0.00    -0.273 A  
HETATM   25  C   UNL     1      -8.918   5.140  66.650  1.00  0.00    -0.115 A  
HETATM   26  C   UNL     1      -8.264   5.391  67.855  1.00  0.00    -0.099 A  
ENDBRANCH  20  21
ENDBRANCH  17  20
ENDBRANCH  16  17
ENDBRANCH  15  16
ENDBRANCH  14  15
ENDBRANCH  13  14
ENDBRANCH  12  13
ENDBRANCH  11  12
ENDBRANCH  10  11
ENDBRANCH   9  10
ENDBRANCH   8   9
ENDBRANCH   7   8
ENDBRANCH   6   7
ENDBRANCH   5   6
ENDBRANCH   4   5
ENDBRANCH   3   4
ENDBRANCH   2   3
TORSDOF 17
ENDMDL
MODEL      290
REMARK 921   NORMALIZED FREE ENERGY PREDICTED BY IDOCK:   -2.83 KCAL/MOL
REMARK 922        TOTAL FREE ENERGY PREDICTED BY IDOCK:   -8.47 KCAL/MOL
REMARK 923 INTER-LIGAND FREE ENERGY PREDICTED BY IDOCK:   -6.98 KCAL/MOL
REMARK 924 INTRA-LIGAND FREE ENERGY PREDICTED BY IDOCK:   -1.49 KCAL/MOL
REMARK 927      BINDING AFFINITY PREDICTED BY RF-SCORE:    0.00 PKD
ROOT
HETATM    1  C   UNL     1      -8.072  18.195  68.181  1.00  0.00    -0.289 C  
HETATM    2  C   UNL     1      -9.450  18.818  68.036  1.00  0.00    -0.349 C  
ENDROOT
BRANCH   2   3
HETATM    3  C   UNL     1     -10.530  17.743  67.950  1.00  0.00    -0.401 C  
BRANCH   3   4
HETATM    4  C   UNL     1      -9.911  16.350  67.882  1.00  0.00    -0.238 C  
BRANCH   4   5
HETATM    5  C   UNL     1     -10.728  15.446  66.967  1.00  0.00    -0.321 C  
BRANCH   5   6
HETATM    6  C   UNL     1     -10.671  15.940  65.527  1.00  0.00    -0.386 C  
BRANCH   6   7
HETATM    7  C   UNL     1     -10.915  14.787  64.563  1.00  0.00    -0.227 C  
BRANCH   7   8
HETATM    8  C   UNL     1     -12.267  14.143  64.835  1.00  0.00    -0.451 C  
BRANCH   8   9
HETATM    9  C   UNL     1     -12.192  12.639  64.598  1.00  0.00    -0.519 C  
BRANCH   9  10
HETATM   10  C   UNL     1     -10.835  12.265  64.027  1.00  0.00    -0.439 C  
BRANCH  10  11
HETATM   11  C   UNL     1     -10.224  11.108  64.799  1.00  0.00    -0.365 C  
BRANCH  11  12
HETATM   12  C   UNL     1     -10.298  11.388  66.290  1.00  0.00    -0.287 C  
BRANCH  12  13
HETATM   13  C   UNL     1      -9.171  12.309  66.741  1.00  0.00    -0.210 C  
BRANCH  13  14
HETATM   14  C   UNL     1      -8.401  11.744  67.935  1.00  0.00    -0.149 C  
BRANCH  14  15
HETATM   15  C   UNL     1      -8.128  10.239  67.869  1.00  0.00    -0.102 C  
BRANCH  15  16
HETATM   16  C   UNL     1      -8.303   9.537  69.219  1.00  0.00    -0.129 C  
BRANCH  16  17
HETATM   17  N   UNL     1      -8.743   8.066  69.099  1.00  0.00    -0.137 N  
HETATM   18  C   UNL     1      -8.997   7.697  67.643  1.00  0.00    -0.127 C  
HETATM   19  C   UNL     1      -7.670   7.142  69.675  1.00  0.00    -0.109 C  
BRANCH  17  20
HETATM   20  C   UNL     1     -10.062   7.909  69.934  1.00  0.00    -0.197 C  
BRANCH  20  21
HETATM   21  C   UNL     1      -9.869   7.279  71.291  1.00  0.00    -0.183 A  
HETATM   22  C   UNL     1     -10.239   5.943  71.515  1.00  0.00    -0.254 A  
HETATM   23  C   UNL     1     -10.318   5.444  72.816  1.00  0.00    -0.235 A  
HETATM   24  C   UNL     1      -9.997   6.264  73.896  1.00  0.00    -0.252 A  
HETATM   25  C   UNL     1      -9.539   7.559  73.677  1.00  0.00    -0.347 A  
HETATM   26  C   UNL     1      -9.450   8.058  72.379  1.00  0.00    -0.279 A  
ENDBRANCH  20  21
ENDBRANCH  17  20
ENDBRANCH  16  17
ENDBRANCH  15  16
ENDBRANCH  14  15
ENDBRANCH  13  14
ENDBRANCH  12  13
ENDBRANCH  11  12
ENDBRANCH  10  11
ENDBRANCH   9  10
ENDBRANCH   8   9
ENDBRANCH   7   8
ENDBRANCH   6   7
ENDBRANCH   5   6
ENDBRANCH   4   5
ENDBRANCH   3   4
ENDBRANCH   2   3
TORSDOF 17
ENDMDL
MODEL      291
REMARK 921   NORMALIZED FREE ENERGY PREDICTED BY IDOCK:   -2.82 KCAL/MOL
REMARK 922        TOTAL FREE ENERGY PREDICTED BY IDOCK:   -8.46 KCAL/MOL
REMARK 923 INTER-LIGAND FREE ENERGY PREDICTED BY IDOCK:   -6.15 KCAL/MOL
REMARK 924 INTRA-LIGAND FREE ENERGY PREDICTED BY IDOCK:   -2.31 KCAL/MOL
REMARK 927      BINDING AFFINITY PREDICTED BY RF-SCORE:    0.00 PKD
ROOT
HETATM    1  C   UNL     1      -5.679   5.303  67.591  1.00  0.00    -0.013 C  
HETATM    2  C   UNL     1      -5.959   6.510  68.469  1.00  0.00    -0.021 C  
ENDROOT
BRANCH   2   3
HETATM    3  C   UNL     1      -5.961   7.797  67.647  1.00  0.00    -0.045 C  
BRANCH   3   4
HETATM    4  C   UNL     1      -6.047   7.491  66.155  1.00  0.00    -0.038 C  
BRANCH   4   5
HETATM    5  C   UNL     1      -7.040   8.426  65.475  1.00  0.00    -0.074 C  
BRANCH   5   6
HETATM    6  C   UNL     1      -8.014   7.641  64.606  1.00  0.00    -0.136 C  
BRANCH   6   7
HETATM    7  C   UNL     1      -7.613   6.173  64.556  1.00  0.00    -0.094 C  
BRANCH   7   8
HETATM    8  C   UNL     1      -8.831   5.281  64.746  1.00  0.00    -0.066 C  
BRANCH   8   9
HETATM    9  C   UNL     1      -9.150   5.131  66.228  1.00  0.00    -0.136 C  
BRANCH   9  10
HETATM   10  C   UNL     1     -10.649   5.237  66.455  1.00  0.00    -0.348 C  
BRANCH  10  11
HETATM   11  C   UNL     1     -10.981   6.446  67.313  1.00  0.00    -0.474 C  
BRANCH  11  12
HETATM   12  C   UNL     1      -9.735   6.916  68.045  1.00  0.00    -0.138 C  
BRANCH  12  13
HETATM   13  C   UNL     1      -9.541   8.421  67.907  1.00  0.00    -0.180 C  
BRANCH  13  14
HETATM   14  C   UNL     1     -10.498   9.039  66.888  1.00  0.00    -0.293 C  
BRANCH  14  15
HETATM   15  C   UNL     1     -10.095  10.429  66.388  1.00  0.00    -0.287 C  
BRANCH  15  16
HETATM   16  C   UNL     1     -11.093  11.522  66.782  1.00  0.00    -0.302 C  
BRANCH  16  17
HETATM   17  N   UNL     1     -10.446  12.718  67.505  1.00  0.00    -0.217 N  
HETATM   18  C   UNL     1      -9.206  12.277  68.273  1.00  0.00    -0.189 C  
HETATM   19  C   UNL     1     -10.060  13.802  66.500  1.00  0.00    -0.286 C  
BRANCH  17  20
HETATM   20  C   UNL     1     -11.518  13.292  68.496  1.00  0.00    -0.312 C  
BRANCH  20  21
HETATM   21  C   UNL     1     -11.851  12.380  69.652  1.00  0.00    -0.380 A  
HETATM   22  C   UNL     1     -11.761  10.986  69.508  1.00  0.00    -0.400 A  
HETATM   23  C   UNL     1     -12.322  10.143  70.467  1.00  0.00    -0.330 A  
HETATM   24  C   UNL     1     -12.942  10.684  71.591  1.00  0.00    -0.582 A  
HETATM   25  C   UNL     1     -12.952  12.061  71.789  1.00  0.00    -0.445 A  
HETATM   26  C   UNL     1     -12.386  12.907  70.836  1.00  0.00    -0.365 A  
ENDBRANCH  20  21
ENDBRANCH  17  20
ENDBRANCH  16  17
ENDBRANCH  15  16
ENDBRANCH  14  15
ENDBRANCH  13  14
ENDBRANCH  12  13
ENDBRANCH  11  12
ENDBRANCH  10  11
ENDBRANCH   9  10
ENDBRANCH   8   9
ENDBRANCH   7   8
ENDBRANCH   6   7
ENDBRANCH   5   6
ENDBRANCH   4   5
ENDBRANCH   3   4
ENDBRANCH   2   3
TORSDOF 17
ENDMDL
MODEL      292
REMARK 921   NORMALIZED FREE ENERGY PREDICTED BY IDOCK:   -2.82 KCAL/MOL
REMARK 922        TOTAL FREE ENERGY PREDICTED BY IDOCK:   -8.46 KCAL/MOL
REMARK 923 INTER-LIGAND FREE ENERGY PREDICTED BY IDOCK:   -6.34 KCAL/MOL
REMARK 924 INTRA-LIGAND FREE ENERGY PREDICTED BY IDOCK:   -2.12 KCAL/MOL
REMARK 927      BINDING AFFINITY PREDICTED BY RF-SCORE:    0.00 PKD
ROOT
HETATM    1  C   UNL     1     -12.323  14.391  69.966  1.00  0.00    -0.391 C  
HETATM    2  C   UNL     1     -12.621  13.270  70.947  1.00  0.00    -0.386 C  
ENDROOT
BRANCH   2   3
HETATM    3  C   UNL     1     -12.149  11.925  70.401  1.00  0.00    -0.421 C  
BRANCH   3   4
HETATM    4  C   UNL     1     -11.255  12.114  69.179  1.00  0.00    -0.303 C  
BRANCH   4   5
HETATM    5  C   UNL     1     -11.559  11.057  68.125  1.00  0.00    -0.345 C  
BRANCH   5   6
HETATM    6  C   UNL     1     -10.305  10.704  67.336  1.00  0.00    -0.262 C  
BRANCH   6   7
HETATM    7  C   UNL     1     -10.599  10.718  65.842  1.00  0.00    -0.216 C  
BRANCH   7   8
HETATM    8  C   UNL     1      -9.608   9.837  65.096  1.00  0.00    -0.356 C  
BRANCH   8   9
HETATM    9  C   UNL     1      -8.805   8.995  66.079  1.00  0.00    -0.208 C  
BRANCH   9  10
HETATM   10  C   UNL     1      -7.320   9.112  65.779  1.00  0.00    -0.090 C  
BRANCH  10  11
HETATM   11  C   UNL     1      -6.724  10.326  66.471  1.00  0.00    -0.090 C  
BRANCH  11  12
HETATM   12  C   UNL     1      -6.954  10.230  67.969  1.00  0.00    -0.082 C  
BRANCH  12  13
HETATM   13  C   UNL     1      -6.970  11.607  68.621  1.00  0.00    -0.088 C  
BRANCH  13  14
HETATM   14  C   UNL     1      -6.999  12.736  67.591  1.00  0.00    -0.146 C  
BRANCH  14  15
HETATM   15  C   UNL     1      -7.054  14.147  68.184  1.00  0.00    -0.127 C  
BRANCH  15  16
HETATM   16  C   UNL     1      -7.699  15.169  67.244  1.00  0.00    -0.210 C  
BRANCH  16  17
HETATM   17  N   UNL     1      -7.893  16.558  67.880  1.00  0.00    -0.152 N  
HETATM   18  C   UNL     1      -7.280  16.603  69.274  1.00  0.00    -0.200 C  
HETATM   19  C   UNL     1      -7.250  17.636  67.009  1.00  0.00    -0.183 C  
BRANCH  17  20
HETATM   20  C   UNL     1      -9.439  16.815  67.962  1.00  0.00    -0.233 C  
BRANCH  20  21
HETATM   21  C   UNL     1     -10.245  16.118  66.895  1.00  0.00    -0.283 A  
HETATM   22  C   UNL     1     -10.605  14.768  67.041  1.00  0.00    -0.290 A  
HETATM   23  C   UNL     1     -11.104  14.052  65.953  1.00  0.00    -0.301 A  
HETATM   24  C   UNL     1     -11.280  14.685  64.725  1.00  0.00    -0.395 A  
HETATM   25  C   UNL     1     -11.016  16.045  64.596  1.00  0.00    -0.297 A  
HETATM   26  C   UNL     1     -10.524  16.766  65.683  1.00  0.00    -0.284 A  
ENDBRANCH  20  21
ENDBRANCH  17  20
ENDBRANCH  16  17
ENDBRANCH  15  16
ENDBRANCH  14  15
ENDBRANCH  13  14
ENDBRANCH  12  13
ENDBRANCH  11  12
ENDBRANCH  10  11
ENDBRANCH   9  10
ENDBRANCH   8   9
ENDBRANCH   7   8
ENDBRANCH   6   7
ENDBRANCH   5   6
ENDBRANCH   4   5
ENDBRANCH   3   4
ENDBRANCH   2   3
TORSDOF 17
ENDMDL
MODEL      293
REMARK 921   NORMALIZED FREE ENERGY PREDICTED BY IDOCK:   -2.82 KCAL/MOL
REMARK 922        TOTAL FREE ENERGY PREDICTED BY IDOCK:   -8.46 KCAL/MOL
REMARK 923 INTER-LIGAND FREE ENERGY PREDICTED BY IDOCK:   -6.52 KCAL/MOL
REMARK 924 INTRA-LIGAND FREE ENERGY PREDICTED BY IDOCK:   -1.94 KCAL/MOL
REMARK 927      BINDING AFFINITY PREDICTED BY RF-SCORE:    0.00 PKD
ROOT
HETATM    1  C   UNL     1      -9.850  11.843  63.542  1.00  0.00    -0.359 C  
HETATM    2  C   UNL     1      -9.502  10.712  62.590  1.00  0.00    -0.332 C  
ENDROOT
BRANCH   2   3
HETATM    3  C   UNL     1      -8.689   9.631  63.297  1.00  0.00    -0.239 C  
BRANCH   3   4
HETATM    4  C   UNL     1      -8.654   9.872  64.804  1.00  0.00    -0.191 C  
BRANCH   4   5
HETATM    5  C   UNL     1      -7.219  10.041  65.285  1.00  0.00    -0.137 C  
BRANCH   5   6
HETATM    6  C   UNL     1      -7.093   9.663  66.755  1.00  0.00    -0.086 C  
BRANCH   6   7
HETATM    7  C   UNL     1      -7.337  10.880  67.637  1.00  0.00    -0.094 C  
BRANCH   7   8
HETATM    8  C   UNL     1      -8.736  10.834  68.233  1.00  0.00    -0.136 C  
BRANCH   8   9
HETATM    9  C   UNL     1      -9.532  12.060  67.807  1.00  0.00    -0.190 C  
BRANCH   9  10
HETATM   10  C   UNL     1     -10.952  11.662  67.438  1.00  0.00    -0.313 C  
BRANCH  10  11
HETATM   11  C   UNL     1     -11.964  12.476  68.225  1.00  0.00    -0.274 C  
BRANCH  11  12
HETATM   12  C   UNL     1     -11.570  12.508  69.692  1.00  0.00    -0.323 C  
BRANCH  12  13
HETATM   13  C   UNL     1     -12.341  11.471  70.500  1.00  0.00    -0.432 C  
BRANCH  13  14
HETATM   14  C   UNL     1     -11.710  10.081  70.412  1.00  0.00    -0.365 C  
BRANCH  14  15
HETATM   15  C   UNL     1     -11.797   9.254  71.698  1.00  0.00    -0.453 C  
BRANCH  15  16
HETATM   16  C   UNL     1     -10.468   8.596  72.080  1.00  0.00    -0.340 C  
BRANCH  16  17
HETATM   17  N   UNL     1     -10.253   7.215  71.436  1.00  0.00    -0.193 N  
HETATM   18  C   UNL     1      -9.720   6.220  72.459  1.00  0.00    -0.156 C  
HETATM   19  C   UNL     1     -11.565   6.689  70.855  1.00  0.00    -0.361 C  
BRANCH  17  20
HETATM   20  C   UNL     1      -9.214   7.404  70.275  1.00  0.00    -0.154 C  
BRANCH  20  21
HETATM   21  C   UNL     1      -9.653   6.836  68.948  1.00  0.00    -0.137 A  
HETATM   22  C   UNL     1     -10.401   7.616  68.051  1.00  0.00    -0.257 A  
HETATM   23  C   UNL     1     -11.035   7.021  66.961  1.00  0.00    -0.357 A  
HETATM   24  C   UNL     1     -10.897   5.652  66.738  1.00  0.00    -0.296 A  
HETATM   25  C   UNL     1     -10.081   4.889  67.567  1.00  0.00    -0.184 A  
HETATM   26  C   UNL     1      -9.439   5.482  68.653  1.00  0.00    -0.160 A  
ENDBRANCH  20  21
ENDBRANCH  17  20
ENDBRANCH  16  17
ENDBRANCH  15  16
ENDBRANCH  14  15
ENDBRANCH  13  14
ENDBRANCH  12  13
ENDBRANCH  11  12
ENDBRANCH  10  11
ENDBRANCH   9  10
ENDBRANCH   8   9
ENDBRANCH   7   8
ENDBRANCH   6   7
ENDBRANCH   5   6
ENDBRANCH   4   5
ENDBRANCH   3   4
ENDBRANCH   2   3
TORSDOF 17
ENDMDL
MODEL      294
REMARK 921   NORMALIZED FREE ENERGY PREDICTED BY IDOCK:   -2.82 KCAL/MOL
REMARK 922        TOTAL FREE ENERGY PREDICTED BY IDOCK:   -8.45 KCAL/MOL
REMARK 923 INTER-LIGAND FREE ENERGY PREDICTED BY IDOCK:   -7.29 KCAL/MOL
REMARK 924 INTRA-LIGAND FREE ENERGY PREDICTED BY IDOCK:   -1.17 KCAL/MOL
REMARK 927      BINDING AFFINITY PREDICTED BY RF-SCORE:    0.00 PKD
ROOT
HETATM    1  C   UNL     1      -8.610  20.120  67.039  1.00  0.00    -0.408 C  
HETATM    2  C   UNL     1      -9.871  20.044  66.196  1.00  0.00    -0.553 C  
ENDROOT
BRANCH   2   3
HETATM    3  C   UNL     1     -10.627  18.744  66.457  1.00  0.00    -0.436 C  
BRANCH   3   4
HETATM    4  C   UNL     1      -9.887  17.877  67.471  1.00  0.00    -0.309 C  
BRANCH   4   5
HETATM    5  C   UNL     1     -10.131  16.399  67.190  1.00  0.00    -0.271 C  
BRANCH   5   6
HETATM    6  C   UNL     1      -9.552  16.003  65.839  1.00  0.00    -0.370 C  
BRANCH   6   7
HETATM    7  C   UNL     1     -10.347  14.850  65.241  1.00  0.00    -0.424 C  
BRANCH   7   8
HETATM    8  C   UNL     1     -11.514  14.483  66.144  1.00  0.00    -0.357 C  
BRANCH   8   9
HETATM    9  C   UNL     1     -12.055  13.107  65.776  1.00  0.00    -0.502 C  
BRANCH   9  10
HETATM   10  C   UNL     1     -11.707  12.776  64.333  1.00  0.00    -0.426 C  
BRANCH  10  11
HETATM   11  C   UNL     1     -10.777  11.577  64.264  1.00  0.00    -0.416 C  
BRANCH  11  12
HETATM   12  C   UNL     1     -10.611  10.974  65.649  1.00  0.00    -0.263 C  
BRANCH  12  13
HETATM   13  C   UNL     1      -9.258  11.331  66.254  1.00  0.00    -0.214 C  
BRANCH  13  14
HETATM   14  C   UNL     1      -9.323  11.474  67.775  1.00  0.00    -0.168 C  
BRANCH  14  15
HETATM   15  C   UNL     1     -10.149  10.399  68.487  1.00  0.00    -0.186 C  
BRANCH  15  16
HETATM   16  C   UNL     1      -9.380   9.090  68.693  1.00  0.00    -0.136 C  
BRANCH  16  17
HETATM   17  N   UNL     1      -9.776   8.335  69.974  1.00  0.00    -0.175 N  
HETATM   18  C   UNL     1      -9.857   9.290  71.159  1.00  0.00    -0.272 C  
HETATM   19  C   UNL     1     -11.126   7.643  69.789  1.00  0.00    -0.106 C  
BRANCH  17  20
HETATM   20  C   UNL     1      -8.672   7.250  70.231  1.00  0.00    -0.147 C  
BRANCH  20  21
HETATM   21  C   UNL     1      -9.126   5.831  69.996  1.00  0.00    -0.157 A  
HETATM   22  C   UNL     1      -9.459   5.001  71.079  1.00  0.00    -0.220 A  
HETATM   23  C   UNL     1      -9.612   3.627  70.891  1.00  0.00    -0.250 A  
HETATM   24  C   UNL     1      -9.470   3.079  69.618  1.00  0.00    -0.177 A  
HETATM   25  C   UNL     1      -9.234   3.906  68.524  1.00  0.00    -0.212 A  
HETATM   26  C   UNL     1      -9.089   5.281  68.707  1.00  0.00    -0.134 A  
ENDBRANCH  20  21
ENDBRANCH  17  20
ENDBRANCH  16  17
ENDBRANCH  15  16
ENDBRANCH  14  15
ENDBRANCH  13  14
ENDBRANCH  12  13
ENDBRANCH  11  12
ENDBRANCH  10  11
ENDBRANCH   9  10
ENDBRANCH   8   9
ENDBRANCH   7   8
ENDBRANCH   6   7
ENDBRANCH   5   6
ENDBRANCH   4   5
ENDBRANCH   3   4
ENDBRANCH   2   3
TORSDOF 17
ENDMDL
MODEL      295
REMARK 921   NORMALIZED FREE ENERGY PREDICTED BY IDOCK:   -2.81 KCAL/MOL
REMARK 922        TOTAL FREE ENERGY PREDICTED BY IDOCK:   -8.43 KCAL/MOL
REMARK 923 INTER-LIGAND FREE ENERGY PREDICTED BY IDOCK:   -6.67 KCAL/MOL
REMARK 924 INTRA-LIGAND FREE ENERGY PREDICTED BY IDOCK:   -1.76 KCAL/MOL
REMARK 927      BINDING AFFINITY PREDICTED BY RF-SCORE:    0.00 PKD
ROOT
HETATM    1  C   UNL     1      -8.506  10.899  62.340  1.00  0.00    -0.323 C  
HETATM    2  C   UNL     1      -9.447  10.308  63.376  1.00  0.00    -0.340 C  
ENDROOT
BRANCH   2   3
HETATM    3  C   UNL     1     -10.177  11.408  64.142  1.00  0.00    -0.376 C  
BRANCH   3   4
HETATM    4  C   UNL     1     -11.653  11.454  63.758  1.00  0.00    -0.167 C  
BRANCH   4   5
HETATM    5  C   UNL     1     -12.077  12.881  63.434  1.00  0.00    -0.610 C  
BRANCH   5   6
HETATM    6  C   UNL     1     -11.682  13.831  64.556  1.00  0.00    -0.432 C  
BRANCH   6   7
HETATM    7  C   UNL     1     -12.707  13.774  65.681  1.00  0.00    -0.523 C  
BRANCH   7   8
HETATM    8  C   UNL     1     -12.134  14.377  66.955  1.00  0.00    -0.386 C  
BRANCH   8   9
HETATM    9  C   UNL     1     -10.676  14.767  66.746  1.00  0.00    -0.309 C  
BRANCH   9  10
HETATM   10  C   UNL     1     -10.526  16.279  66.789  1.00  0.00    -0.287 C  
BRANCH  10  11
HETATM   11  C   UNL     1     -10.535  16.781  68.223  1.00  0.00    -0.341 C  
BRANCH  11  12
HETATM   12  C   UNL     1      -9.260  16.350  68.928  1.00  0.00    -0.259 C  
BRANCH  12  13
HETATM   13  C   UNL     1      -8.031  17.003  68.307  1.00  0.00    -0.222 C  
BRANCH  13  14
HETATM   14  C   UNL     1      -6.818  16.072  68.304  1.00  0.00    -0.123 C  
BRANCH  14  15
HETATM   15  C   UNL     1      -7.056  14.708  67.649  1.00  0.00    -0.203 C  
BRANCH  15  16
HETATM   16  C   UNL     1      -7.440  13.618  68.654  1.00  0.00    -0.113 C  
BRANCH  16  17
HETATM   17  N   UNL     1      -7.325  12.190  68.091  1.00  0.00    -0.094 N  
HETATM   18  C   UNL     1      -6.251  12.121  67.012  1.00  0.00    -0.097 C  
HETATM   19  C   UNL     1      -6.984  11.204  69.208  1.00  0.00    -0.118 C  
BRANCH  17  20
HETATM   20  C   UNL     1      -8.724  11.819  67.485  1.00  0.00    -0.159 C  
BRANCH  20  21
HETATM   21  C   UNL     1      -9.162  10.400  67.751  1.00  0.00    -0.148 A  
HETATM   22  C   UNL     1      -8.868   9.379  66.832  1.00  0.00    -0.141 A  
HETATM   23  C   UNL     1      -9.498   8.138  66.936  1.00  0.00    -0.244 A  
HETATM   24  C   UNL     1     -10.394   7.897  67.975  1.00  0.00    -0.264 A  
HETATM   25  C   UNL     1     -10.618   8.870  68.943  1.00  0.00    -0.188 A  
HETATM   26  C   UNL     1      -9.985  10.108  68.848  1.00  0.00    -0.207 A  
ENDBRANCH  20  21
ENDBRANCH  17  20
ENDBRANCH  16  17
ENDBRANCH  15  16
ENDBRANCH  14  15
ENDBRANCH  13  14
ENDBRANCH  12  13
ENDBRANCH  11  12
ENDBRANCH  10  11
ENDBRANCH   9  10
ENDBRANCH   8   9
ENDBRANCH   7   8
ENDBRANCH   6   7
ENDBRANCH   5   6
ENDBRANCH   4   5
ENDBRANCH   3   4
ENDBRANCH   2   3
TORSDOF 17
ENDMDL
MODEL      296
REMARK 921   NORMALIZED FREE ENERGY PREDICTED BY IDOCK:   -2.80 KCAL/MOL
REMARK 922        TOTAL FREE ENERGY PREDICTED BY IDOCK:   -8.42 KCAL/MOL
REMARK 923 INTER-LIGAND FREE ENERGY PREDICTED BY IDOCK:   -7.54 KCAL/MOL
REMARK 924 INTRA-LIGAND FREE ENERGY PREDICTED BY IDOCK:   -0.88 KCAL/MOL
REMARK 927      BINDING AFFINITY PREDICTED BY RF-SCORE:    0.00 PKD
ROOT
HETATM    1  C   UNL     1      -9.981   4.261  66.286  1.00  0.00    -0.229 C  
HETATM    2  C   UNL     1      -9.423   5.674  66.291  1.00  0.00    -0.171 C  
ENDROOT
BRANCH   2   3
HETATM    3  C   UNL     1     -10.350   6.627  67.041  1.00  0.00    -0.330 C  
BRANCH   3   4
HETATM    4  C   UNL     1     -11.001   5.930  68.233  1.00  0.00    -0.262 C  
BRANCH   4   5
HETATM    5  C   UNL     1     -10.218   6.213  69.509  1.00  0.00    -0.250 C  
BRANCH   5   6
HETATM    6  C   UNL     1     -10.945   7.235  70.374  1.00  0.00    -0.273 C  
BRANCH   6   7
HETATM    7  C   UNL     1     -10.421   8.636  70.091  1.00  0.00    -0.228 C  
BRANCH   7   8
HETATM    8  C   UNL     1     -10.889   9.607  71.163  1.00  0.00    -0.404 C  
BRANCH   8   9
HETATM    9  C   UNL     1     -11.710  10.729  70.539  1.00  0.00    -0.449 C  
BRANCH   9  10
HETATM   10  C   UNL     1     -11.902  10.473  69.052  1.00  0.00    -0.183 C  
BRANCH  10  11
HETATM   11  C   UNL     1     -12.036  11.781  68.292  1.00  0.00    -0.236 C  
BRANCH  11  12
HETATM   12  C   UNL     1     -10.658  12.357  68.011  1.00  0.00    -0.238 C  
BRANCH  12  13
HETATM   13  C   UNL     1     -10.696  13.359  66.864  1.00  0.00    -0.274 C  
BRANCH  13  14
HETATM   14  C   UNL     1     -11.499  14.612  67.214  1.00  0.00    -0.386 C  
BRANCH  14  15
HETATM   15  C   UNL     1     -10.685  15.909  67.250  1.00  0.00    -0.306 C  
BRANCH  15  16
HETATM   16  C   UNL     1      -9.174  15.668  67.297  1.00  0.00    -0.204 C  
BRANCH  16  17
HETATM   17  N   UNL     1      -8.564  15.844  68.699  1.00  0.00    -0.186 N  
HETATM   18  C   UNL     1      -9.658  15.955  69.754  1.00  0.00    -0.084 C  
HETATM   19  C   UNL     1      -7.655  14.663  69.036  1.00  0.00    -0.136 C  
BRANCH  17  20
HETATM   20  C   UNL     1      -7.709  17.160  68.669  1.00  0.00    -0.260 C  
BRANCH  20  21
HETATM   21  C   UNL     1      -8.452  18.374  68.168  1.00  0.00    -0.301 A  
HETATM   22  C   UNL     1      -9.488  18.940  68.928  1.00  0.00    -0.356 A  
HETATM   23  C   UNL     1     -10.348  19.878  68.357  1.00  0.00    -0.507 A  
HETATM   24  C   UNL     1     -10.158  20.282  67.037  1.00  0.00    -0.567 A  
HETATM   25  C   UNL     1      -9.077  19.798  66.307  1.00  0.00    -0.444 A  
HETATM   26  C   UNL     1      -8.211  18.866  66.877  1.00  0.00    -0.276 A  
ENDBRANCH  20  21
ENDBRANCH  17  20
ENDBRANCH  16  17
ENDBRANCH  15  16
ENDBRANCH  14  15
ENDBRANCH  13  14
ENDBRANCH  12  13
ENDBRANCH  11  12
ENDBRANCH  10  11
ENDBRANCH   9  10
ENDBRANCH   8   9
ENDBRANCH   7   8
ENDBRANCH   6   7
ENDBRANCH   5   6
ENDBRANCH   4   5
ENDBRANCH   3   4
ENDBRANCH   2   3
TORSDOF 17
ENDMDL
MODEL      297
REMARK 921   NORMALIZED FREE ENERGY PREDICTED BY IDOCK:   -2.78 KCAL/MOL
REMARK 922        TOTAL FREE ENERGY PREDICTED BY IDOCK:   -8.39 KCAL/MOL
REMARK 923 INTER-LIGAND FREE ENERGY PREDICTED BY IDOCK:   -6.55 KCAL/MOL
REMARK 924 INTRA-LIGAND FREE ENERGY PREDICTED BY IDOCK:   -1.84 KCAL/MOL
REMARK 927      BINDING AFFINITY PREDICTED BY RF-SCORE:    0.00 PKD
ROOT
HETATM    1  C   UNL     1      -9.025  14.488  66.676  1.00  0.00    -0.247 C  
HETATM    2  C   UNL     1      -9.675  15.636  65.923  1.00  0.00    -0.388 C  
ENDROOT
BRANCH   2   3
HETATM    3  C   UNL     1     -11.006  15.205  65.312  1.00  0.00    -0.405 C  
BRANCH   3   4
HETATM    4  C   UNL     1     -11.716  14.193  66.207  1.00  0.00    -0.402 C  
BRANCH   4   5
HETATM    5  C   UNL     1     -12.489  13.185  65.365  1.00  0.00    -0.535 C  
BRANCH   5   6
HETATM    6  C   UNL     1     -12.191  13.376  63.884  1.00  0.00    -0.478 C  
BRANCH   6   7
HETATM    7  C   UNL     1     -11.554  12.119  63.307  1.00  0.00    -0.418 C  
BRANCH   7   8
HETATM    8  C   UNL     1     -10.038  12.212  63.372  1.00  0.00    -0.383 C  
BRANCH   8   9
HETATM    9  C   UNL     1      -9.459  10.959  64.019  1.00  0.00    -0.298 C  
BRANCH   9  10
HETATM   10  C   UNL     1      -9.272  11.179  65.512  1.00  0.00    -0.236 C  
BRANCH  10  11
HETATM   11  C   UNL     1      -9.808   9.997  66.302  1.00  0.00    -0.297 C  
BRANCH  11  12
HETATM   12  C   UNL     1     -10.188  10.444  67.703  1.00  0.00    -0.240 C  
BRANCH  12  13
HETATM   13  C   UNL     1      -9.943   9.341  68.726  1.00  0.00    -0.193 C  
BRANCH  13  14
HETATM   14  C   UNL     1     -10.652   8.038  68.356  1.00  0.00    -0.150 C  
BRANCH  14  15
HETATM   15  C   UNL     1      -9.927   7.187  67.309  1.00  0.00    -0.243 C  
BRANCH  15  16
HETATM   16  C   UNL     1      -8.488   6.844  67.706  1.00  0.00    -0.123 C  
BRANCH  16  17
HETATM   17  N   UNL     1      -8.184   5.335  67.681  1.00  0.00    -0.100 N  
HETATM   18  C   UNL     1      -9.447   4.534  67.391  1.00  0.00    -0.162 C  
HETATM   19  C   UNL     1      -7.131   5.022  66.619  1.00  0.00    -0.069 C  
BRANCH  17  20
HETATM   20  C   UNL     1      -7.618   4.955  69.095  1.00  0.00    -0.064 C  
BRANCH  20  21
HETATM   21  C   UNL     1      -8.429   5.483  70.253  1.00  0.00    -0.121 A  
HETATM   22  C   UNL     1      -9.570   4.795  70.697  1.00  0.00    -0.255 A  
HETATM   23  C   UNL     1     -10.465   5.410  71.572  1.00  0.00    -0.289 A  
HETATM   24  C   UNL     1     -10.211   6.698  72.036  1.00  0.00    -0.206 A  
HETATM   25  C   UNL     1      -9.036   7.351  71.676  1.00  0.00    -0.133 A  
HETATM   26  C   UNL     1      -8.134   6.736  70.809  1.00  0.00    -0.118 A  
ENDBRANCH  20  21
ENDBRANCH  17  20
ENDBRANCH  16  17
ENDBRANCH  15  16
ENDBRANCH  14  15
ENDBRANCH  13  14
ENDBRANCH  12  13
ENDBRANCH  11  12
ENDBRANCH  10  11
ENDBRANCH   9  10
ENDBRANCH   8   9
ENDBRANCH   7   8
ENDBRANCH   6   7
ENDBRANCH   5   6
ENDBRANCH   4   5
ENDBRANCH   3   4
ENDBRANCH   2   3
TORSDOF 17
ENDMDL
MODEL      298
REMARK 921   NORMALIZED FREE ENERGY PREDICTED BY IDOCK:   -2.78 KCAL/MOL
REMARK 922        TOTAL FREE ENERGY PREDICTED BY IDOCK:   -8.39 KCAL/MOL
REMARK 923 INTER-LIGAND FREE ENERGY PREDICTED BY IDOCK:   -7.43 KCAL/MOL
REMARK 924 INTRA-LIGAND FREE ENERGY PREDICTED BY IDOCK:   -0.96 KCAL/MOL
REMARK 927      BINDING AFFINITY PREDICTED BY RF-SCORE:    0.00 PKD
ROOT
HETATM    1  C   UNL     1     -11.144   1.680  63.300  1.00  0.00    -0.201 C  
HETATM    2  C   UNL     1     -10.596   3.072  63.032  1.00  0.00    -0.198 C  
ENDROOT
BRANCH   2   3
HETATM    3  C   UNL     1     -10.749   3.966  64.260  1.00  0.00    -0.218 C  
BRANCH   3   4
HETATM    4  C   UNL     1      -9.416   4.131  64.985  1.00  0.00    -0.173 C  
BRANCH   4   5
HETATM    5  C   UNL     1      -9.625   4.127  66.494  1.00  0.00    -0.220 C  
BRANCH   5   6
HETATM    6  C   UNL     1      -9.140   5.433  67.111  1.00  0.00    -0.111 C  
BRANCH   6   7
HETATM    7  C   UNL     1      -8.310   6.217  66.104  1.00  0.00    -0.128 C  
BRANCH   7   8
HETATM    8  C   UNL     1      -8.214   7.678  66.515  1.00  0.00    -0.125 C  
BRANCH   8   9
HETATM    9  C   UNL     1      -9.200   7.977  67.637  1.00  0.00    -0.145 C  
BRANCH   9  10
HETATM   10  C   UNL     1     -10.134   9.104  67.228  1.00  0.00    -0.295 C  
BRANCH  10  11
HETATM   11  C   UNL     1      -9.401  10.135  66.387  1.00  0.00    -0.209 C  
BRANCH  11  12
HETATM   12  C   UNL     1     -10.249  10.520  65.187  1.00  0.00    -0.358 C  
BRANCH  12  13
HETATM   13  C   UNL     1     -10.580  12.007  65.192  1.00  0.00    -0.330 C  
BRANCH  13  14
HETATM   14  C   UNL     1     -11.714  12.346  66.160  1.00  0.00    -0.460 C  
BRANCH  14  15
HETATM   15  C   UNL     1     -11.520  13.646  66.947  1.00  0.00    -0.369 C  
BRANCH  15  16
HETATM   16  C   UNL     1     -10.103  14.214  66.827  1.00  0.00    -0.262 C  
BRANCH  16  17
HETATM   17  N   UNL     1     -10.058  15.654  66.285  1.00  0.00    -0.280 N  
HETATM   18  C   UNL     1      -8.622  16.159  66.215  1.00  0.00    -0.338 C  
HETATM   19  C   UNL     1     -10.684  15.717  64.892  1.00  0.00    -0.361 C  
BRANCH  17  20
HETATM   20  C   UNL     1     -10.896  16.544  67.268  1.00  0.00    -0.173 C  
BRANCH  20  21
HETATM   21  C   UNL     1     -10.374  17.950  67.434  1.00  0.00    -0.383 A  
HETATM   22  C   UNL     1      -9.932  18.403  68.688  1.00  0.00    -0.415 A  
HETATM   23  C   UNL     1      -9.710  19.763  68.906  1.00  0.00    -0.401 A  
HETATM   24  C   UNL     1      -9.893  20.673  67.867  1.00  0.00    -0.276 A  
HETATM   25  C   UNL     1     -10.239  20.223  66.597  1.00  0.00    -0.491 A  
HETATM   26  C   UNL     1     -10.453  18.864  66.373  1.00  0.00    -0.505 A  
ENDBRANCH  20  21
ENDBRANCH  17  20
ENDBRANCH  16  17
ENDBRANCH  15  16
ENDBRANCH  14  15
ENDBRANCH  13  14
ENDBRANCH  12  13
ENDBRANCH  11  12
ENDBRANCH  10  11
ENDBRANCH   9  10
ENDBRANCH   8   9
ENDBRANCH   7   8
ENDBRANCH   6   7
ENDBRANCH   5   6
ENDBRANCH   4   5
ENDBRANCH   3   4
ENDBRANCH   2   3
TORSDOF 17
ENDMDL
MODEL      299
REMARK 921   NORMALIZED FREE ENERGY PREDICTED BY IDOCK:   -2.76 KCAL/MOL
REMARK 922        TOTAL FREE ENERGY PREDICTED BY IDOCK:   -8.35 KCAL/MOL
REMARK 923 INTER-LIGAND FREE ENERGY PREDICTED BY IDOCK:   -6.85 KCAL/MOL
REMARK 924 INTRA-LIGAND FREE ENERGY PREDICTED BY IDOCK:   -1.50 KCAL/MOL
REMARK 927      BINDING AFFINITY PREDICTED BY RF-SCORE:    0.00 PKD
ROOT
HETATM    1  C   UNL     1     -12.819  11.814  71.449  1.00  0.00    -0.440 C  
HETATM    2  C   UNL     1     -12.736  10.352  71.044  1.00  0.00    -0.490 C  
ENDROOT
BRANCH   2   3
HETATM    3  C   UNL     1     -13.531   9.472  72.006  1.00  0.00    -0.522 C  
BRANCH   3   4
HETATM    4  C   UNL     1     -13.289   7.993  71.719  1.00  0.00    -0.370 C  
BRANCH   4   5
HETATM    5  C   UNL     1     -11.893   7.583  72.167  1.00  0.00    -0.338 C  
BRANCH   5   6
HETATM    6  C   UNL     1     -11.668   6.093  71.942  1.00  0.00    -0.337 C  
BRANCH   6   7
HETATM    7  C   UNL     1     -10.444   5.871  71.064  1.00  0.00    -0.296 C  
BRANCH   7   8
HETATM    8  C   UNL     1      -9.541   7.095  71.089  1.00  0.00    -0.164 C  
BRANCH   8   9
HETATM    9  C   UNL     1      -9.270   7.580  69.670  1.00  0.00    -0.146 C  
BRANCH   9  10
HETATM   10  C   UNL     1      -9.309   6.410  68.699  1.00  0.00    -0.124 C  
BRANCH  10  11
HETATM   11  C   UNL     1      -8.068   6.395  67.823  1.00  0.00    -0.115 C  
BRANCH  11  12
HETATM   12  C   UNL     1      -7.231   7.634  68.093  1.00  0.00    -0.093 C  
BRANCH  12  13
HETATM   13  C   UNL     1      -6.776   8.292  66.796  1.00  0.00    -0.064 C  
BRANCH  13  14
HETATM   14  C   UNL     1      -7.435   7.669  65.566  1.00  0.00    -0.077 C  
BRANCH  14  15
HETATM   15  C   UNL     1      -8.591   8.482  64.975  1.00  0.00    -0.162 C  
BRANCH  15  16
HETATM   16  C   UNL     1      -8.381   9.995  65.091  1.00  0.00    -0.153 C  
BRANCH  16  17
HETATM   17  N   UNL     1      -9.349  10.680  66.073  1.00  0.00    -0.179 N  
HETATM   18  C   UNL     1     -10.173   9.645  66.828  1.00  0.00    -0.239 C  
HETATM   19  C   UNL     1      -8.573  11.537  67.072  1.00  0.00    -0.161 C  
BRANCH  17  20
HETATM   20  C   UNL     1     -10.291  11.603  65.224  1.00  0.00    -0.269 C  
BRANCH  20  21
HETATM   21  C   UNL     1     -10.784  12.829  65.952  1.00  0.00    -0.294 A  
HETATM   22  C   UNL     1     -10.218  14.088  65.693  1.00  0.00    -0.351 A  
HETATM   23  C   UNL     1     -10.473  15.162  66.546  1.00  0.00    -0.292 A  
HETATM   24  C   UNL     1     -11.321  14.997  67.639  1.00  0.00    -0.342 A  
HETATM   25  C   UNL     1     -11.961  13.779  67.849  1.00  0.00    -0.391 A  
HETATM   26  C   UNL     1     -11.715  12.706  66.994  1.00  0.00    -0.438 A  
ENDBRANCH  20  21
ENDBRANCH  17  20
ENDBRANCH  16  17
ENDBRANCH  15  16
ENDBRANCH  14  15
ENDBRANCH  13  14
ENDBRANCH  12  13
ENDBRANCH  11  12
ENDBRANCH  10  11
ENDBRANCH   9  10
ENDBRANCH   8   9
ENDBRANCH   7   8
ENDBRANCH   6   7
ENDBRANCH   5   6
ENDBRANCH   4   5
ENDBRANCH   3   4
ENDBRANCH   2   3
TORSDOF 17
ENDMDL
MODEL      300
REMARK 921   NORMALIZED FREE ENERGY PREDICTED BY IDOCK:   -2.76 KCAL/MOL
REMARK 922        TOTAL FREE ENERGY PREDICTED BY IDOCK:   -8.34 KCAL/MOL
REMARK 923 INTER-LIGAND FREE ENERGY PREDICTED BY IDOCK:   -7.43 KCAL/MOL
REMARK 924 INTRA-LIGAND FREE ENERGY PREDICTED BY IDOCK:   -0.91 KCAL/MOL
REMARK 927      BINDING AFFINITY PREDICTED BY RF-SCORE:    0.00 PKD
ROOT
HETATM    1  C   UNL     1     -10.169  11.593  63.308  1.00  0.00    -0.445 C  
HETATM    2  C   UNL     1      -9.284  10.641  62.522  1.00  0.00    -0.323 C  
ENDROOT
BRANCH   2   3
HETATM    3  C   UNL     1      -8.682   9.575  63.434  1.00  0.00    -0.235 C  
BRANCH   3   4
HETATM    4  C   UNL     1      -9.277   9.656  64.837  1.00  0.00    -0.306 C  
BRANCH   4   5
HETATM    5  C   UNL     1      -8.361   8.976  65.846  1.00  0.00    -0.129 C  
BRANCH   5   6
HETATM    6  C   UNL     1      -9.173   8.240  66.904  1.00  0.00    -0.197 C  
BRANCH   6   7
HETATM    7  C   UNL     1      -9.516   9.177  68.054  1.00  0.00    -0.157 C  
BRANCH   7   8
HETATM    8  C   UNL     1     -10.734  10.020  67.708  1.00  0.00    -0.333 C  
BRANCH   8   9
HETATM    9  C   UNL     1     -10.397  11.503  67.811  1.00  0.00    -0.204 C  
BRANCH   9  10
HETATM   10  C   UNL     1     -11.633  12.342  67.532  1.00  0.00    -0.431 C  
BRANCH  10  11
HETATM   11  C   UNL     1     -11.869  13.344  68.649  1.00  0.00    -0.397 C  
BRANCH  11  12
HETATM   12  C   UNL     1     -11.294  12.809  69.950  1.00  0.00    -0.032 C  
BRANCH  12  13
HETATM   13  C   UNL     1     -12.394  12.464  70.946  1.00  0.00    -0.358 C  
BRANCH  13  14
HETATM   14  C   UNL     1     -12.967  11.065  70.716  1.00  0.00    -0.263 C  
BRANCH  14  15
HETATM   15  C   UNL     1     -12.639  10.048  71.813  1.00  0.00    -0.504 C  
BRANCH  15  16
HETATM   16  C   UNL     1     -11.493   9.105  71.434  1.00  0.00    -0.350 C  
BRANCH  16  17
HETATM   17  N   UNL     1     -11.867   7.614  71.516  1.00  0.00    -0.284 N  
HETATM   18  C   UNL     1     -13.373   7.443  71.670  1.00  0.00    -0.364 C  
HETATM   19  C   UNL     1     -11.401   6.879  70.259  1.00  0.00    -0.324 C  
BRANCH  17  20
HETATM   20  C   UNL     1     -11.126   7.020  72.765  1.00  0.00    -0.284 C  
BRANCH  20  21
HETATM   21  C   UNL     1     -10.725   5.573  72.622  1.00  0.00    -0.289 A  
HETATM   22  C   UNL     1     -11.375   4.576  73.368  1.00  0.00    -0.376 A  
HETATM   23  C   UNL     1     -10.835   3.292  73.446  1.00  0.00    -0.307 A  
HETATM   24  C   UNL     1      -9.666   2.986  72.753  1.00  0.00    -0.182 A  
HETATM   25  C   UNL     1      -9.068   3.940  71.936  1.00  0.00    -0.165 A  
HETATM   26  C   UNL     1      -9.609   5.221  71.849  1.00  0.00    -0.191 A  
ENDBRANCH  20  21
ENDBRANCH  17  20
ENDBRANCH  16  17
ENDBRANCH  15  16
ENDBRANCH  14  15
ENDBRANCH  13  14
ENDBRANCH  12  13
ENDBRANCH  11  12
ENDBRANCH  10  11
ENDBRANCH   9  10
ENDBRANCH   8   9
ENDBRANCH   7   8
ENDBRANCH   6   7
ENDBRANCH   5   6
ENDBRANCH   4   5
ENDBRANCH   3   4
ENDBRANCH   2   3
TORSDOF 17
ENDMDL
MODEL      301
REMARK 921   NORMALIZED FREE ENERGY PREDICTED BY IDOCK:   -2.75 KCAL/MOL
REMARK 922        TOTAL FREE ENERGY PREDICTED BY IDOCK:   -8.32 KCAL/MOL
REMARK 923 INTER-LIGAND FREE ENERGY PREDICTED BY IDOCK:   -7.07 KCAL/MOL
REMARK 924 INTRA-LIGAND FREE ENERGY PREDICTED BY IDOCK:   -1.25 KCAL/MOL
REMARK 927      BINDING AFFINITY PREDICTED BY RF-SCORE:    0.00 PKD
ROOT
HETATM    1  C   UNL     1      -8.107   4.870  63.203  1.00  0.00    -0.095 C  
HETATM    2  C   UNL     1      -8.566   5.504  64.504  1.00  0.00    -0.042 C  
ENDROOT
BRANCH   2   3
HETATM    3  C   UNL     1      -7.840   4.891  65.699  1.00  0.00    -0.095 C  
BRANCH   3   4
HETATM    4  C   UNL     1      -8.780   4.741  66.891  1.00  0.00    -0.107 C  
BRANCH   4   5
HETATM    5  C   UNL     1     -10.082   5.490  66.643  1.00  0.00    -0.245 C  
BRANCH   5   6
HETATM    6  C   UNL     1     -10.796   5.785  67.956  1.00  0.00    -0.251 C  
BRANCH   6   7
HETATM    7  C   UNL     1      -9.800   5.799  69.107  1.00  0.00    -0.211 C  
BRANCH   7   8
HETATM    8  C   UNL     1     -10.358   5.045  70.304  1.00  0.00    -0.299 C  
BRANCH   8   9
HETATM    9  C   UNL     1      -9.788   5.612  71.598  1.00  0.00    -0.213 C  
BRANCH   9  10
HETATM   10  C   UNL     1     -10.529   6.881  71.987  1.00  0.00    -0.229 C  
BRANCH  10  11
HETATM   11  C   UNL     1     -12.031   6.651  71.983  1.00  0.00    -0.361 C  
BRANCH  11  12
HETATM   12  C   UNL     1     -12.717   7.746  71.183  1.00  0.00    -0.205 C  
BRANCH  12  13
HETATM   13  C   UNL     1     -12.451   9.123  71.779  1.00  0.00    -0.447 C  
BRANCH  13  14
HETATM   14  C   UNL     1     -12.700  10.248  70.775  1.00  0.00    -0.434 C  
BRANCH  14  15
HETATM   15  C   UNL     1     -11.466  10.688  69.982  1.00  0.00    -0.404 C  
BRANCH  15  16
HETATM   16  C   UNL     1     -11.758  10.924  68.498  1.00  0.00    -0.237 C  
BRANCH  16  17
HETATM   17  N   UNL     1     -11.061  12.170  67.921  1.00  0.00    -0.229 N  
HETATM   18  C   UNL     1      -9.762  12.454  68.665  1.00  0.00    -0.055 C  
HETATM   19  C   UNL     1     -10.762  11.972  66.436  1.00  0.00    -0.259 C  
BRANCH  17  20
HETATM   20  C   UNL     1     -12.053  13.374  68.091  1.00  0.00    -0.232 C  
BRANCH  20  21
HETATM   21  C   UNL     1     -11.816  14.207  69.327  1.00  0.00    -0.381 A  
HETATM   22  C   UNL     1     -12.358  13.819  70.563  1.00  0.00    -0.429 A  
HETATM   23  C   UNL     1     -12.374  14.712  71.634  1.00  0.00    -0.416 A  
HETATM   24  C   UNL     1     -11.820  15.982  71.490  1.00  0.00    -0.554 A  
HETATM   25  C   UNL     1     -11.197  16.341  70.300  1.00  0.00    -0.343 A  
HETATM   26  C   UNL     1     -11.171  15.449  69.229  1.00  0.00    -0.300 A  
ENDBRANCH  20  21
ENDBRANCH  17  20
ENDBRANCH  16  17
ENDBRANCH  15  16
ENDBRANCH  14  15
ENDBRANCH  13  14
ENDBRANCH  12  13
ENDBRANCH  11  12
ENDBRANCH  10  11
ENDBRANCH   9  10
ENDBRANCH   8   9
ENDBRANCH   7   8
ENDBRANCH   6   7
ENDBRANCH   5   6
ENDBRANCH   4   5
ENDBRANCH   3   4
ENDBRANCH   2   3
TORSDOF 17
ENDMDL
MODEL      302
REMARK 921   NORMALIZED FREE ENERGY PREDICTED BY IDOCK:   -2.75 KCAL/MOL
REMARK 922        TOTAL FREE ENERGY PREDICTED BY IDOCK:   -8.32 KCAL/MOL
REMARK 923 INTER-LIGAND FREE ENERGY PREDICTED BY IDOCK:   -6.86 KCAL/MOL
REMARK 924 INTRA-LIGAND FREE ENERGY PREDICTED BY IDOCK:   -1.45 KCAL/MOL
REMARK 927      BINDING AFFINITY PREDICTED BY RF-SCORE:    0.00 PKD
ROOT
HETATM    1  C   UNL     1      -8.770   6.039  65.819  1.00  0.00    -0.155 C  
HETATM    2  C   UNL     1      -8.192   7.253  65.111  1.00  0.00    -0.112 C  
ENDROOT
BRANCH   2   3
HETATM    3  C   UNL     1      -8.867   8.537  65.585  1.00  0.00    -0.214 C  
BRANCH   3   4
HETATM    4  C   UNL     1      -8.779   8.672  67.102  1.00  0.00    -0.134 C  
BRANCH   4   5
HETATM    5  C   UNL     1      -7.864   9.829  67.483  1.00  0.00    -0.095 C  
BRANCH   5   6
HETATM    6  C   UNL     1      -8.459  10.634  68.632  1.00  0.00    -0.142 C  
BRANCH   6   7
HETATM    7  C   UNL     1      -9.287  11.792  68.092  1.00  0.00    -0.190 C  
BRANCH   7   8
HETATM    8  C   UNL     1     -10.772  11.512  68.268  1.00  0.00    -0.247 C  
BRANCH   8   9
HETATM    9  C   UNL     1     -11.448  11.373  66.909  1.00  0.00    -0.198 C  
BRANCH   9  10
HETATM   10  C   UNL     1     -10.590  12.011  65.829  1.00  0.00    -0.301 C  
BRANCH  10  11
HETATM   11  C   UNL     1     -11.395  13.020  65.027  1.00  0.00    -0.325 C  
BRANCH  11  12
HETATM   12  C   UNL     1     -12.225  13.879  65.965  1.00  0.00    -0.495 C  
BRANCH  12  13
HETATM   13  C   UNL     1     -11.380  14.959  66.629  1.00  0.00    -0.326 C  
BRANCH  13  14
HETATM   14  C   UNL     1     -10.394  15.605  65.654  1.00  0.00    -0.408 C  
BRANCH  14  15
HETATM   15  C   UNL     1      -9.256  16.388  66.315  1.00  0.00    -0.350 C  
BRANCH  15  16
HETATM   16  C   UNL     1      -9.672  17.057  67.629  1.00  0.00    -0.257 C  
BRANCH  16  17
HETATM   17  N   UNL     1      -9.255  18.535  67.729  1.00  0.00    -0.278 N  
HETATM   18  C   UNL     1      -9.486  19.252  66.404  1.00  0.00    -0.365 C  
HETATM   19  C   UNL     1     -10.047  19.239  68.830  1.00  0.00    -0.401 C  
BRANCH  17  20
HETATM   20  C   UNL     1      -7.729  18.561  68.095  1.00  0.00    -0.284 C  
BRANCH  20  21
HETATM   21  C   UNL     1      -6.840  19.143  67.025  1.00  0.00    -0.206 A  
HETATM   22  C   UNL     1      -6.701  20.534  66.893  1.00  0.00    -0.320 A  
HETATM   23  C   UNL     1      -6.110  21.077  65.752  1.00  0.00    -0.277 A  
HETATM   24  C   UNL     1      -5.622  20.235  64.754  1.00  0.00    -0.227 A  
HETATM   25  C   UNL     1      -5.670  18.855  64.920  1.00  0.00    -0.298 A  
HETATM   26  C   UNL     1      -6.253  18.309  66.062  1.00  0.00    -0.258 A  
ENDBRANCH  20  21
ENDBRANCH  17  20
ENDBRANCH  16  17
ENDBRANCH  15  16
ENDBRANCH  14  15
ENDBRANCH  13  14
ENDBRANCH  12  13
ENDBRANCH  11  12
ENDBRANCH  10  11
ENDBRANCH   9  10
ENDBRANCH   8   9
ENDBRANCH   7   8
ENDBRANCH   6   7
ENDBRANCH   5   6
ENDBRANCH   4   5
ENDBRANCH   3   4
ENDBRANCH   2   3
TORSDOF 17
ENDMDL
MODEL      303
REMARK 921   NORMALIZED FREE ENERGY PREDICTED BY IDOCK:   -2.75 KCAL/MOL
REMARK 922        TOTAL FREE ENERGY PREDICTED BY IDOCK:   -8.32 KCAL/MOL
REMARK 923 INTER-LIGAND FREE ENERGY PREDICTED BY IDOCK:   -6.08 KCAL/MOL
REMARK 924 INTRA-LIGAND FREE ENERGY PREDICTED BY IDOCK:   -2.23 KCAL/MOL
REMARK 927      BINDING AFFINITY PREDICTED BY RF-SCORE:    0.00 PKD
ROOT
HETATM    1  C   UNL     1     -11.908  16.173  69.256  1.00  0.00    -0.176 C  
HETATM    2  C   UNL     1     -12.111  15.128  70.340  1.00  0.00    -0.373 C  
ENDROOT
BRANCH   2   3
HETATM    3  C   UNL     1     -11.562  13.772  69.904  1.00  0.00    -0.298 C  
BRANCH   3   4
HETATM    4  C   UNL     1     -10.923  13.861  68.521  1.00  0.00    -0.277 C  
BRANCH   4   5
HETATM    5  C   UNL     1      -9.454  13.462  68.585  1.00  0.00    -0.039 C  
BRANCH   5   6
HETATM    6  C   UNL     1      -8.556  14.654  68.280  1.00  0.00    -0.167 C  
BRANCH   6   7
HETATM    7  C   UNL     1      -7.138  14.186  67.986  1.00  0.00    -0.148 C  
BRANCH   7   8
HETATM    8  C   UNL     1      -6.172  15.361  68.010  1.00  0.00    -0.153 C  
BRANCH   8   9
HETATM    9  C   UNL     1      -6.903  16.637  68.411  1.00  0.00    -0.151 C  
BRANCH   9  10
HETATM   10  C   UNL     1      -6.730  17.700  67.338  1.00  0.00    -0.179 C  
BRANCH  10  11
HETATM   11  C   UNL     1      -7.875  17.651  66.341  1.00  0.00    -0.318 C  
BRANCH  11  12
HETATM   12  C   UNL     1      -9.131  18.229  66.969  1.00  0.00    -0.271 C  
BRANCH  12  13
HETATM   13  C   UNL     1     -10.385  17.533  66.453  1.00  0.00    -0.334 C  
BRANCH  13  14
HETATM   14  C   UNL     1     -10.058  16.326  65.573  1.00  0.00    -0.276 C  
BRANCH  14  15
HETATM   15  C   UNL     1     -11.221  15.352  65.363  1.00  0.00    -0.272 C  
BRANCH  15  16
HETATM   16  C   UNL     1     -10.770  13.985  64.839  1.00  0.00    -0.418 C  
BRANCH  16  17
HETATM   17  N   UNL     1     -11.913  12.960  64.723  1.00  0.00    -0.372 N  
HETATM   18  C   UNL     1     -13.226  13.559  65.210  1.00  0.00     0.149 C  
HETATM   19  C   UNL     1     -12.071  12.502  63.274  1.00  0.00    -0.430 C  
BRANCH  17  20
HETATM   20  C   UNL     1     -11.520  11.728  65.613  1.00  0.00    -0.186 C  
BRANCH  20  21
HETATM   21  C   UNL     1     -10.156  11.155  65.318  1.00  0.00    -0.329 A  
HETATM   22  C   UNL     1      -9.835  10.708  64.026  1.00  0.00    -0.399 A  
HETATM   23  C   UNL     1      -8.692   9.937  63.813  1.00  0.00    -0.226 A  
HETATM   24  C   UNL     1      -7.846   9.639  64.879  1.00  0.00    -0.123 A  
HETATM   25  C   UNL     1      -8.105  10.158  66.143  1.00  0.00    -0.123 A  
HETATM   26  C   UNL     1      -9.242  10.935  66.359  1.00  0.00    -0.193 A  
ENDBRANCH  20  21
ENDBRANCH  17  20
ENDBRANCH  16  17
ENDBRANCH  15  16
ENDBRANCH  14  15
ENDBRANCH  13  14
ENDBRANCH  12  13
ENDBRANCH  11  12
ENDBRANCH  10  11
ENDBRANCH   9  10
ENDBRANCH   8   9
ENDBRANCH   7   8
ENDBRANCH   6   7
ENDBRANCH   5   6
ENDBRANCH   4   5
ENDBRANCH   3   4
ENDBRANCH   2   3
TORSDOF 17
ENDMDL
MODEL      304
REMARK 921   NORMALIZED FREE ENERGY PREDICTED BY IDOCK:   -2.75 KCAL/MOL
REMARK 922        TOTAL FREE ENERGY PREDICTED BY IDOCK:   -8.31 KCAL/MOL
REMARK 923 INTER-LIGAND FREE ENERGY PREDICTED BY IDOCK:   -4.61 KCAL/MOL
REMARK 924 INTRA-LIGAND FREE ENERGY PREDICTED BY IDOCK:   -3.70 KCAL/MOL
REMARK 927      BINDING AFFINITY PREDICTED BY RF-SCORE:    0.00 PKD
ROOT
HETATM    1  C   UNL     1      -5.583   6.016  68.693  1.00  0.00    -0.011 C  
HETATM    2  C   UNL     1      -6.283   7.051  69.555  1.00  0.00    -0.034 C  
ENDROOT
BRANCH   2   3
HETATM    3  C   UNL     1      -7.004   8.085  68.693  1.00  0.00    -0.071 C  
BRANCH   3   4
HETATM    4  C   UNL     1      -7.055   7.639  67.235  1.00  0.00    -0.085 C  
BRANCH   4   5
HETATM    5  C   UNL     1      -8.374   8.053  66.595  1.00  0.00    -0.120 C  
BRANCH   5   6
HETATM    6  C   UNL     1      -8.369   7.753  65.102  1.00  0.00    -0.113 C  
BRANCH   6   7
HETATM    7  C   UNL     1      -7.336   6.681  64.782  1.00  0.00    -0.084 C  
BRANCH   7   8
HETATM    8  C   UNL     1      -7.982   5.524  64.036  1.00  0.00    -0.116 C  
BRANCH   8   9
HETATM    9  C   UNL     1      -8.241   4.361  64.986  1.00  0.00    -0.104 C  
BRANCH   9  10
HETATM   10  C   UNL     1      -9.733   4.204  65.228  1.00  0.00    -0.200 C  
BRANCH  10  11
HETATM   11  C   UNL     1     -10.109   4.687  66.618  1.00  0.00    -0.263 C  
BRANCH  11  12
HETATM   12  C   UNL     1      -8.941   4.482  67.568  1.00  0.00    -0.126 C  
BRANCH  12  13
HETATM   13  C   UNL     1      -9.227   5.079  68.941  1.00  0.00    -0.155 C  
BRANCH  13  14
HETATM   14  C   UNL     1     -10.635   5.668  69.036  1.00  0.00    -0.316 C  
BRANCH  14  15
HETATM   15  C   UNL     1     -10.693   7.120  69.519  1.00  0.00    -0.255 C  
BRANCH  15  16
HETATM   16  C   UNL     1     -11.527   7.297  70.791  1.00  0.00    -0.299 C  
BRANCH  16  17
HETATM   17  N   UNL     1     -10.922   8.296  71.794  1.00  0.00    -0.260 N  
HETATM   18  C   UNL     1      -9.586   8.825  71.288  1.00  0.00    -0.253 C  
HETATM   19  C   UNL     1     -11.877   9.467  72.020  1.00  0.00    -0.240 C  
BRANCH  17  20
HETATM   20  C   UNL     1     -10.720   7.527  73.146  1.00  0.00    -0.398 C  
BRANCH  20  21
HETATM   21  C   UNL     1     -10.035   6.189  73.007  1.00  0.00    -0.185 A  
HETATM   22  C   UNL     1      -8.650   6.118  72.786  1.00  0.00    -0.123 A  
HETATM   23  C   UNL     1      -8.064   4.917  72.388  1.00  0.00    -0.111 A  
HETATM   24  C   UNL     1      -8.847   3.774  72.243  1.00  0.00    -0.124 A  
HETATM   25  C   UNL     1     -10.203   3.813  72.551  1.00  0.00    -0.232 A  
HETATM   26  C   UNL     1     -10.792   5.009  72.957  1.00  0.00    -0.334 A  
ENDBRANCH  20  21
ENDBRANCH  17  20
ENDBRANCH  16  17
ENDBRANCH  15  16
ENDBRANCH  14  15
ENDBRANCH  13  14
ENDBRANCH  12  13
ENDBRANCH  11  12
ENDBRANCH  10  11
ENDBRANCH   9  10
ENDBRANCH   8   9
ENDBRANCH   7   8
ENDBRANCH   6   7
ENDBRANCH   5   6
ENDBRANCH   4   5
ENDBRANCH   3   4
ENDBRANCH   2   3
TORSDOF 17
ENDMDL
MODEL      305
REMARK 921   NORMALIZED FREE ENERGY PREDICTED BY IDOCK:   -2.74 KCAL/MOL
REMARK 922        TOTAL FREE ENERGY PREDICTED BY IDOCK:   -8.30 KCAL/MOL
REMARK 923 INTER-LIGAND FREE ENERGY PREDICTED BY IDOCK:   -6.92 KCAL/MOL
REMARK 924 INTRA-LIGAND FREE ENERGY PREDICTED BY IDOCK:   -1.38 KCAL/MOL
REMARK 927      BINDING AFFINITY PREDICTED BY RF-SCORE:    0.00 PKD
ROOT
HETATM    1  C   UNL     1     -10.449  17.033  65.656  1.00  0.00    -0.229 C  
HETATM    2  C   UNL     1     -10.330  15.590  66.117  1.00  0.00    -0.327 C  
ENDROOT
BRANCH   2   3
HETATM    3  C   UNL     1     -10.452  14.627  64.939  1.00  0.00    -0.415 C  
BRANCH   3   4
HETATM    4  C   UNL     1     -11.840  13.995  64.892  1.00  0.00    -0.402 C  
BRANCH   4   5
HETATM    5  C   UNL     1     -12.354  13.727  66.301  1.00  0.00    -0.479 C  
BRANCH   5   6
HETATM    6  C   UNL     1     -11.857  12.381  66.811  1.00  0.00    -0.385 C  
BRANCH   6   7
HETATM    7  C   UNL     1     -11.230  12.537  68.190  1.00  0.00    -0.312 C  
BRANCH   7   8
HETATM    8  C   UNL     1     -11.892  13.676  68.950  1.00  0.00    -0.402 C  
BRANCH   8   9
HETATM    9  C   UNL     1     -12.191  13.251  70.383  1.00  0.00    -0.404 C  
BRANCH   9  10
HETATM   10  C   UNL     1     -12.207  11.735  70.488  1.00  0.00    -0.438 C  
BRANCH  10  11
HETATM   11  C   UNL     1     -13.035  11.285  71.679  1.00  0.00    -0.537 C  
BRANCH  11  12
HETATM   12  C   UNL     1     -12.800   9.807  71.941  1.00  0.00    -0.520 C  
BRANCH  12  13
HETATM   13  C   UNL     1     -11.453   9.350  71.394  1.00  0.00    -0.449 C  
BRANCH  13  14
HETATM   14  C   UNL     1     -10.645   8.563  72.426  1.00  0.00    -0.368 C  
BRANCH  14  15
HETATM   15  C   UNL     1     -10.182   7.179  71.959  1.00  0.00    -0.209 C  
BRANCH  15  16
HETATM   16  C   UNL     1      -8.714   6.894  72.291  1.00  0.00    -0.126 C  
BRANCH  16  17
HETATM   17  N   UNL     1      -8.227   5.517  71.807  1.00  0.00    -0.118 N  
HETATM   18  C   UNL     1      -7.567   4.748  72.945  1.00  0.00    -0.092 C  
HETATM   19  C   UNL     1      -9.397   4.702  71.257  1.00  0.00    -0.146 C  
BRANCH  17  20
HETATM   20  C   UNL     1      -7.191   5.771  70.657  1.00  0.00    -0.082 C  
BRANCH  20  21
HETATM   21  C   UNL     1      -6.955   7.228  70.342  1.00  0.00    -0.057 A  
HETATM   22  C   UNL     1      -6.116   8.006  71.156  1.00  0.00    -0.034 A  
HETATM   23  C   UNL     1      -6.110   9.395  71.034  1.00  0.00    -0.073 A  
HETATM   24  C   UNL     1      -6.913  10.013  70.078  1.00  0.00    -0.135 A  
HETATM   25  C   UNL     1      -7.675   9.245  69.203  1.00  0.00    -0.078 A  
HETATM   26  C   UNL     1      -7.677   7.855  69.316  1.00  0.00    -0.099 A  
ENDBRANCH  20  21
ENDBRANCH  17  20
ENDBRANCH  16  17
ENDBRANCH  15  16
ENDBRANCH  14  15
ENDBRANCH  13  14
ENDBRANCH  12  13
ENDBRANCH  11  12
ENDBRANCH  10  11
ENDBRANCH   9  10
ENDBRANCH   8   9
ENDBRANCH   7   8
ENDBRANCH   6   7
ENDBRANCH   5   6
ENDBRANCH   4   5
ENDBRANCH   3   4
ENDBRANCH   2   3
TORSDOF 17
ENDMDL
MODEL      306
REMARK 921   NORMALIZED FREE ENERGY PREDICTED BY IDOCK:   -2.73 KCAL/MOL
REMARK 922        TOTAL FREE ENERGY PREDICTED BY IDOCK:   -8.29 KCAL/MOL
REMARK 923 INTER-LIGAND FREE ENERGY PREDICTED BY IDOCK:   -6.99 KCAL/MOL
REMARK 924 INTRA-LIGAND FREE ENERGY PREDICTED BY IDOCK:   -1.30 KCAL/MOL
REMARK 927      BINDING AFFINITY PREDICTED BY RF-SCORE:    0.00 PKD
ROOT
HETATM    1  C   UNL     1     -10.202  20.082  68.911  1.00  0.00    -0.348 C  
HETATM    2  C   UNL     1     -10.175  18.635  68.450  1.00  0.00    -0.415 C  
ENDROOT
BRANCH   2   3
HETATM    3  C   UNL     1     -10.213  18.545  66.926  1.00  0.00    -0.411 C  
BRANCH   3   4
HETATM    4  C   UNL     1      -9.358  17.384  66.427  1.00  0.00    -0.272 C  
BRANCH   4   5
HETATM    5  C   UNL     1      -9.471  16.192  67.369  1.00  0.00    -0.227 C  
BRANCH   5   6
HETATM    6  C   UNL     1     -10.571  15.243  66.911  1.00  0.00    -0.304 C  
BRANCH   6   7
HETATM    7  C   UNL     1     -10.215  14.634  65.561  1.00  0.00    -0.395 C  
BRANCH   7   8
HETATM    8  C   UNL     1     -11.393  14.735  64.604  1.00  0.00    -0.370 C  
BRANCH   8   9
HETATM    9  C   UNL     1     -12.599  13.998  65.171  1.00  0.00    -0.453 C  
BRANCH   9  10
HETATM   10  C   UNL     1     -12.479  12.507  64.898  1.00  0.00    -0.524 C  
BRANCH  10  11
HETATM   11  C   UNL     1     -11.670  12.253  63.637  1.00  0.00    -0.591 C  
BRANCH  11  12
HETATM   12  C   UNL     1     -10.616  11.192  63.906  1.00  0.00    -0.431 C  
BRANCH  12  13
HETATM   13  C   UNL     1     -10.339  11.046  65.397  1.00  0.00    -0.330 C  
BRANCH  13  14
HETATM   14  C   UNL     1      -8.885  10.669  65.683  1.00  0.00    -0.201 C  
BRANCH  14  15
HETATM   15  C   UNL     1      -8.268   9.686  64.684  1.00  0.00    -0.149 C  
BRANCH  15  16
HETATM   16  C   UNL     1      -6.886   9.185  65.112  1.00  0.00    -0.077 C  
BRANCH  16  17
HETATM   17  N   UNL     1      -6.678   7.676  64.886  1.00  0.00    -0.050 N  
HETATM   18  C   UNL     1      -7.699   7.134  63.894  1.00  0.00    -0.116 C  
HETATM   19  C   UNL     1      -5.269   7.405  64.362  1.00  0.00    -0.029 C  
BRANCH  17  20
HETATM   20  C   UNL     1      -6.854   6.973  66.278  1.00  0.00    -0.061 C  
BRANCH  20  21
HETATM   21  C   UNL     1      -8.140   6.198  66.427  1.00  0.00    -0.111 A  
HETATM   22  C   UNL     1      -8.221   4.862  66.000  1.00  0.00    -0.112 A  
HETATM   23  C   UNL     1      -9.461   4.236  65.883  1.00  0.00    -0.176 A  
HETATM   24  C   UNL     1     -10.624   4.924  66.223  1.00  0.00    -0.307 A  
HETATM   25  C   UNL     1     -10.546   6.215  66.737  1.00  0.00    -0.351 A  
HETATM   26  C   UNL     1      -9.307   6.842  66.863  1.00  0.00    -0.177 A  
ENDBRANCH  20  21
ENDBRANCH  17  20
ENDBRANCH  16  17
ENDBRANCH  15  16
ENDBRANCH  14  15
ENDBRANCH  13  14
ENDBRANCH  12  13
ENDBRANCH  11  12
ENDBRANCH  10  11
ENDBRANCH   9  10
ENDBRANCH   8   9
ENDBRANCH   7   8
ENDBRANCH   6   7
ENDBRANCH   5   6
ENDBRANCH   4   5
ENDBRANCH   3   4
ENDBRANCH   2   3
TORSDOF 17
ENDMDL
MODEL      307
REMARK 921   NORMALIZED FREE ENERGY PREDICTED BY IDOCK:   -2.73 KCAL/MOL
REMARK 922        TOTAL FREE ENERGY PREDICTED BY IDOCK:   -8.28 KCAL/MOL
REMARK 923 INTER-LIGAND FREE ENERGY PREDICTED BY IDOCK:   -6.78 KCAL/MOL
REMARK 924 INTRA-LIGAND FREE ENERGY PREDICTED BY IDOCK:   -1.50 KCAL/MOL
REMARK 927      BINDING AFFINITY PREDICTED BY RF-SCORE:    0.00 PKD
ROOT
HETATM    1  C   UNL     1     -10.686  12.960  64.116  1.00  0.00    -0.443 C  
HETATM    2  C   UNL     1     -10.759  11.755  65.038  1.00  0.00    -0.344 C  
ENDROOT
BRANCH   2   3
HETATM    3  C   UNL     1     -10.200  10.509  64.357  1.00  0.00    -0.337 C  
BRANCH   3   4
HETATM    4  C   UNL     1      -9.155   9.829  65.236  1.00  0.00    -0.259 C  
BRANCH   4   5
HETATM    5  C   UNL     1      -9.298  10.280  66.684  1.00  0.00    -0.192 C  
BRANCH   5   6
HETATM    6  C   UNL     1      -8.327   9.527  67.584  1.00  0.00    -0.125 C  
BRANCH   6   7
HETATM    7  C   UNL     1      -7.877  10.416  68.735  1.00  0.00    -0.108 C  
BRANCH   7   8
HETATM    8  C   UNL     1      -7.542   9.576  69.958  1.00  0.00    -0.134 C  
BRANCH   8   9
HETATM    9  C   UNL     1      -8.363   8.293  69.958  1.00  0.00    -0.121 C  
BRANCH   9  10
HETATM   10  C   UNL     1      -9.333   8.291  71.129  1.00  0.00    -0.205 C  
BRANCH  10  11
HETATM   11  C   UNL     1     -10.744   7.981  70.660  1.00  0.00    -0.235 C  
BRANCH  11  12
HETATM   12  C   UNL     1     -11.633   9.195  70.864  1.00  0.00    -0.350 C  
BRANCH  12  13
HETATM   13  C   UNL     1     -11.422  10.232  69.768  1.00  0.00    -0.320 C  
BRANCH  13  14
HETATM   14  C   UNL     1     -12.472  11.342  69.809  1.00  0.00    -0.161 C  
BRANCH  14  15
HETATM   15  C   UNL     1     -11.904  12.763  69.859  1.00  0.00    -0.371 C  
BRANCH  15  16
HETATM   16  C   UNL     1     -10.927  13.059  68.717  1.00  0.00    -0.258 C  
BRANCH  16  17
HETATM   17  N   UNL     1     -10.470  14.528  68.660  1.00  0.00    -0.241 N  
HETATM   18  C   UNL     1     -11.116  15.338  69.777  1.00  0.00    -0.282 C  
HETATM   19  C   UNL     1      -8.949  14.618  68.784  1.00  0.00    -0.173 C  
BRANCH  17  20
HETATM   20  C   UNL     1     -10.907  15.093  67.263  1.00  0.00    -0.316 C  
BRANCH  20  21
HETATM   21  C   UNL     1     -10.173  16.341  66.838  1.00  0.00    -0.288 A  
HETATM   22  C   UNL     1      -8.870  16.261  66.321  1.00  0.00    -0.367 A  
HETATM   23  C   UNL     1      -8.095  17.413  66.186  1.00  0.00    -0.255 A  
HETATM   24  C   UNL     1      -8.627  18.654  66.532  1.00  0.00    -0.307 A  
HETATM   25  C   UNL     1      -9.948  18.754  66.955  1.00  0.00    -0.382 A  
HETATM   26  C   UNL     1     -10.729  17.606  67.083  1.00  0.00    -0.203 A  
ENDBRANCH  20  21
ENDBRANCH  17  20
ENDBRANCH  16  17
ENDBRANCH  15  16
ENDBRANCH  14  15
ENDBRANCH  13  14
ENDBRANCH  12  13
ENDBRANCH  11  12
ENDBRANCH  10  11
ENDBRANCH   9  10
ENDBRANCH   8   9
ENDBRANCH   7   8
ENDBRANCH   6   7
ENDBRANCH   5   6
ENDBRANCH   4   5
ENDBRANCH   3   4
ENDBRANCH   2   3
TORSDOF 17
ENDMDL
MODEL      308
REMARK 921   NORMALIZED FREE ENERGY PREDICTED BY IDOCK:   -2.72 KCAL/MOL
REMARK 922        TOTAL FREE ENERGY PREDICTED BY IDOCK:   -8.26 KCAL/MOL
REMARK 923 INTER-LIGAND FREE ENERGY PREDICTED BY IDOCK:   -7.14 KCAL/MOL
REMARK 924 INTRA-LIGAND FREE ENERGY PREDICTED BY IDOCK:   -1.12 KCAL/MOL
REMARK 927      BINDING AFFINITY PREDICTED BY RF-SCORE:    0.00 PKD
ROOT
HETATM    1  C   UNL     1      -9.496   8.166  72.850  1.00  0.00    -0.345 C  
HETATM    2  C   UNL     1      -9.749   6.703  72.530  1.00  0.00    -0.166 C  
ENDROOT
BRANCH   2   3
HETATM    3  C   UNL     1     -10.997   6.539  71.667  1.00  0.00    -0.291 C  
BRANCH   3   4
HETATM    4  C   UNL     1     -11.228   7.774  70.801  1.00  0.00    -0.281 C  
BRANCH   4   5
HETATM    5  C   UNL     1     -10.594   7.592  69.428  1.00  0.00    -0.225 C  
BRANCH   5   6
HETATM    6  C   UNL     1     -11.263   6.452  68.671  1.00  0.00    -0.338 C  
BRANCH   6   7
HETATM    7  C   UNL     1     -11.015   6.594  67.175  1.00  0.00    -0.478 C  
BRANCH   7   8
HETATM    8  C   UNL     1      -9.523   6.655  66.886  1.00  0.00    -0.184 C  
BRANCH   8   9
HETATM    9  C   UNL     1      -9.206   7.847  65.990  1.00  0.00    -0.162 C  
BRANCH   9  10
HETATM   10  C   UNL     1      -7.728   8.189  66.075  1.00  0.00    -0.090 C  
BRANCH  10  11
HETATM   11  C   UNL     1      -7.529   9.598  66.606  1.00  0.00    -0.094 C  
BRANCH  11  12
HETATM   12  C   UNL     1      -7.933   9.658  68.070  1.00  0.00    -0.097 C  
BRANCH  12  13
HETATM   13  C   UNL     1      -8.316  11.074  68.485  1.00  0.00    -0.149 C  
BRANCH  13  14
HETATM   14  C   UNL     1      -9.699  11.475  67.973  1.00  0.00    -0.187 C  
BRANCH  14  15
HETATM   15  C   UNL     1      -9.702  12.629  66.967  1.00  0.00    -0.225 C  
BRANCH  15  16
HETATM   16  C   UNL     1      -9.787  14.006  67.633  1.00  0.00    -0.233 C  
BRANCH  16  17
HETATM   17  N   UNL     1     -10.741  14.980  66.919  1.00  0.00    -0.302 N  
HETATM   18  C   UNL     1     -10.064  15.608  65.707  1.00  0.00    -0.366 C  
HETATM   19  C   UNL     1     -12.007  14.252  66.470  1.00  0.00    -0.427 C  
BRANCH  17  20
HETATM   20  C   UNL     1     -11.126  16.092  67.957  1.00  0.00    -0.317 C  
BRANCH  20  21
HETATM   21  C   UNL     1     -10.165  17.254  68.012  1.00  0.00    -0.332 A  
HETATM   22  C   UNL     1      -8.833  17.058  68.412  1.00  0.00    -0.247 A  
HETATM   23  C   UNL     1      -8.026  18.152  68.725  1.00  0.00    -0.259 A  
HETATM   24  C   UNL     1      -8.530  19.445  68.607  1.00  0.00    -0.395 A  
HETATM   25  C   UNL     1      -9.817  19.652  68.120  1.00  0.00    -0.524 A  
HETATM   26  C   UNL     1     -10.624  18.562  67.799  1.00  0.00    -0.422 A  
ENDBRANCH  20  21
ENDBRANCH  17  20
ENDBRANCH  16  17
ENDBRANCH  15  16
ENDBRANCH  14  15
ENDBRANCH  13  14
ENDBRANCH  12  13
ENDBRANCH  11  12
ENDBRANCH  10  11
ENDBRANCH   9  10
ENDBRANCH   8   9
ENDBRANCH   7   8
ENDBRANCH   6   7
ENDBRANCH   5   6
ENDBRANCH   4   5
ENDBRANCH   3   4
ENDBRANCH   2   3
TORSDOF 17
ENDMDL
MODEL      309
REMARK 921   NORMALIZED FREE ENERGY PREDICTED BY IDOCK:   -2.70 KCAL/MOL
REMARK 922        TOTAL FREE ENERGY PREDICTED BY IDOCK:   -8.23 KCAL/MOL
REMARK 923 INTER-LIGAND FREE ENERGY PREDICTED BY IDOCK:   -4.18 KCAL/MOL
REMARK 924 INTRA-LIGAND FREE ENERGY PREDICTED BY IDOCK:   -4.05 KCAL/MOL
REMARK 927      BINDING AFFINITY PREDICTED BY RF-SCORE:    0.00 PKD
ROOT
HETATM    1  C   UNL     1      -6.068   4.711  68.109  1.00  0.00    -0.031 C  
HETATM    2  C   UNL     1      -6.812   5.719  68.969  1.00  0.00    -0.062 C  
ENDROOT
BRANCH   2   3
HETATM    3  C   UNL     1      -7.461   6.800  68.108  1.00  0.00    -0.099 C  
BRANCH   3   4
HETATM    4  C   UNL     1      -6.758   6.918  66.759  1.00  0.00    -0.045 C  
BRANCH   4   5
HETATM    5  C   UNL     1      -7.741   7.358  65.681  1.00  0.00    -0.104 C  
BRANCH   5   6
HETATM    6  C   UNL     1      -7.308   6.848  64.313  1.00  0.00    -0.085 C  
BRANCH   6   7
HETATM    7  C   UNL     1      -6.697   5.460  64.436  1.00  0.00    -0.046 C  
BRANCH   7   8
HETATM    8  C   UNL     1      -7.739   4.391  64.145  1.00  0.00    -0.080 C  
BRANCH   8   9
HETATM    9  C   UNL     1      -7.826   3.408  65.306  1.00  0.00    -0.082 C  
BRANCH   9  10
HETATM   10  C   UNL     1      -9.277   3.209  65.717  1.00  0.00    -0.138 C  
BRANCH  10  11
HETATM   11  C   UNL     1      -9.691   4.242  66.750  1.00  0.00    -0.241 C  
BRANCH  11  12
HETATM   12  C   UNL     1     -10.669   5.227  66.132  1.00  0.00    -0.211 C  
BRANCH  12  13
HETATM   13  C   UNL     1     -11.013   6.354  67.098  1.00  0.00    -0.476 C  
BRANCH  13  14
HETATM   14  C   UNL     1     -10.997   5.893  68.556  1.00  0.00    -0.277 C  
BRANCH  14  15
HETATM   15  C   UNL     1     -10.726   7.002  69.577  1.00  0.00    -0.263 C  
BRANCH  15  16
HETATM   16  C   UNL     1     -11.347   6.720  70.948  1.00  0.00    -0.315 C  
BRANCH  16  17
HETATM   17  N   UNL     1     -10.311   6.555  72.074  1.00  0.00    -0.198 N  
HETATM   18  C   UNL     1      -8.932   7.005  71.609  1.00  0.00    -0.134 C  
HETATM   19  C   UNL     1     -10.723   7.370  73.300  1.00  0.00    -0.391 C  
BRANCH  17  20
HETATM   20  C   UNL     1     -10.281   5.033  72.454  1.00  0.00    -0.201 C  
BRANCH  20  21
HETATM   21  C   UNL     1      -9.240   4.227  71.717  1.00  0.00    -0.178 A  
HETATM   22  C   UNL     1      -9.568   3.562  70.524  1.00  0.00    -0.246 A  
HETATM   23  C   UNL     1      -8.702   2.607  69.991  1.00  0.00    -0.126 A  
HETATM   24  C   UNL     1      -7.491   2.335  70.625  1.00  0.00    -0.033 A  
HETATM   25  C   UNL     1      -7.116   3.056  71.754  1.00  0.00    -0.038 A  
HETATM   26  C   UNL     1      -7.975   4.018  72.285  1.00  0.00    -0.081 A  
ENDBRANCH  20  21
ENDBRANCH  17  20
ENDBRANCH  16  17
ENDBRANCH  15  16
ENDBRANCH  14  15
ENDBRANCH  13  14
ENDBRANCH  12  13
ENDBRANCH  11  12
ENDBRANCH  10  11
ENDBRANCH   9  10
ENDBRANCH   8   9
ENDBRANCH   7   8
ENDBRANCH   6   7
ENDBRANCH   5   6
ENDBRANCH   4   5
ENDBRANCH   3   4
ENDBRANCH   2   3
TORSDOF 17
ENDMDL
MODEL      310
REMARK 921   NORMALIZED FREE ENERGY PREDICTED BY IDOCK:   -2.70 KCAL/MOL
REMARK 922        TOTAL FREE ENERGY PREDICTED BY IDOCK:   -8.21 KCAL/MOL
REMARK 923 INTER-LIGAND FREE ENERGY PREDICTED BY IDOCK:   -6.66 KCAL/MOL
REMARK 924 INTRA-LIGAND FREE ENERGY PREDICTED BY IDOCK:   -1.55 KCAL/MOL
REMARK 927      BINDING AFFINITY PREDICTED BY RF-SCORE:    0.00 PKD
ROOT
HETATM    1  C   UNL     1     -10.759  19.390  66.714  1.00  0.00    -0.550 C  
HETATM    2  C   UNL     1     -10.423  19.017  68.148  1.00  0.00    -0.402 C  
ENDROOT
BRANCH   2   3
HETATM    3  C   UNL     1      -9.095  19.636  68.578  1.00  0.00    -0.368 C  
BRANCH   3   4
HETATM    4  C   UNL     1      -8.391  20.294  67.395  1.00  0.00    -0.396 C  
BRANCH   4   5
HETATM    5  C   UNL     1      -6.922  19.891  67.357  1.00  0.00    -0.262 C  
BRANCH   5   6
HETATM    6  C   UNL     1      -6.502  19.248  68.672  1.00  0.00    -0.286 C  
BRANCH   6   7
HETATM    7  C   UNL     1      -5.675  17.998  68.409  1.00  0.00    -0.173 C  
BRANCH   7   8
HETATM    8  C   UNL     1      -6.409  17.064  67.458  1.00  0.00    -0.172 C  
BRANCH   8   9
HETATM    9  C   UNL     1      -7.624  16.456  68.148  1.00  0.00    -0.157 C  
BRANCH   9  10
HETATM   10  C   UNL     1      -8.699  16.129  67.124  1.00  0.00    -0.216 C  
BRANCH  10  11
HETATM   11  C   UNL     1      -9.951  15.605  67.805  1.00  0.00    -0.223 C  
BRANCH  11  12
HETATM   12  C   UNL     1     -10.466  14.381  67.067  1.00  0.00    -0.268 C  
BRANCH  12  13
HETATM   13  C   UNL     1     -11.884  14.026  67.496  1.00  0.00    -0.442 C  
BRANCH  13  14
HETATM   14  C   UNL     1     -12.015  12.560  67.909  1.00  0.00    -0.283 C  
BRANCH  14  15
HETATM   15  C   UNL     1     -10.775  11.703  67.639  1.00  0.00    -0.249 C  
BRANCH  15  16
HETATM   16  C   UNL     1     -10.975  10.698  66.501  1.00  0.00    -0.028 C  
BRANCH  16  17
HETATM   17  N   UNL     1      -9.757  10.569  65.569  1.00  0.00    -0.223 N  
HETATM   18  C   UNL     1     -10.099  11.057  64.166  1.00  0.00    -0.344 C  
HETATM   19  C   UNL     1      -8.581  11.378  66.114  1.00  0.00    -0.128 C  
BRANCH  17  20
HETATM   20  C   UNL     1      -9.364   9.050  65.530  1.00  0.00    -0.187 C  
BRANCH  20  21
HETATM   21  C   UNL     1      -9.489   8.340  66.855  1.00  0.00    -0.240 A  
HETATM   22  C   UNL     1     -10.584   7.499  67.112  1.00  0.00    -0.415 A  
HETATM   23  C   UNL     1     -10.846   7.064  68.412  1.00  0.00    -0.191 A  
HETATM   24  C   UNL     1      -9.999   7.435  69.454  1.00  0.00    -0.176 A  
HETATM   25  C   UNL     1      -8.859   8.189  69.192  1.00  0.00    -0.144 A  
HETATM   26  C   UNL     1      -8.589   8.619  67.894  1.00  0.00    -0.137 A  
ENDBRANCH  20  21
ENDBRANCH  17  20
ENDBRANCH  16  17
ENDBRANCH  15  16
ENDBRANCH  14  15
ENDBRANCH  13  14
ENDBRANCH  12  13
ENDBRANCH  11  12
ENDBRANCH  10  11
ENDBRANCH   9  10
ENDBRANCH   8   9
ENDBRANCH   7   8
ENDBRANCH   6   7
ENDBRANCH   5   6
ENDBRANCH   4   5
ENDBRANCH   3   4
ENDBRANCH   2   3
TORSDOF 17
ENDMDL
MODEL      311
REMARK 921   NORMALIZED FREE ENERGY PREDICTED BY IDOCK:   -2.68 KCAL/MOL
REMARK 922        TOTAL FREE ENERGY PREDICTED BY IDOCK:   -8.19 KCAL/MOL
REMARK 923 INTER-LIGAND FREE ENERGY PREDICTED BY IDOCK:   -6.30 KCAL/MOL
REMARK 924 INTRA-LIGAND FREE ENERGY PREDICTED BY IDOCK:   -1.89 KCAL/MOL
REMARK 927      BINDING AFFINITY PREDICTED BY RF-SCORE:    0.00 PKD
ROOT
HETATM    1  C   UNL     1      -6.198  14.552  70.377  1.00  0.00    -0.174 C  
HETATM    2  C   UNL     1      -7.212  14.552  69.246  1.00  0.00    -0.131 C  
ENDROOT
BRANCH   2   3
HETATM    3  C   UNL     1      -7.162  15.863  68.466  1.00  0.00    -0.128 C  
BRANCH   3   4
HETATM    4  C   UNL     1      -7.331  15.615  66.970  1.00  0.00    -0.203 C  
BRANCH   4   5
HETATM    5  C   UNL     1      -8.713  16.058  66.507  1.00  0.00    -0.338 C  
BRANCH   5   6
HETATM    6  C   UNL     1      -9.426  14.930  65.772  1.00  0.00    -0.237 C  
BRANCH   6   7
HETATM    7  C   UNL     1     -10.760  15.417  65.223  1.00  0.00    -0.439 C  
BRANCH   7   8
HETATM    8  C   UNL     1     -11.913  14.780  65.983  1.00  0.00    -0.155 C  
BRANCH   8   9
HETATM    9  C   UNL     1     -12.259  13.425  65.379  1.00  0.00    -0.492 C  
BRANCH   9  10
HETATM   10  C   UNL     1     -12.006  12.320  66.391  1.00  0.00    -0.286 C  
BRANCH  10  11
HETATM   11  C   UNL     1     -11.888  12.889  67.794  1.00  0.00    -0.391 C  
BRANCH  11  12
HETATM   12  C   UNL     1     -10.799  12.156  68.558  1.00  0.00    -0.267 C  
BRANCH  12  13
HETATM   13  C   UNL     1     -10.862  10.652  68.315  1.00  0.00    -0.287 C  
BRANCH  13  14
HETATM   14  C   UNL     1      -9.544  10.095  67.777  1.00  0.00    -0.168 C  
BRANCH  14  15
HETATM   15  C   UNL     1      -9.691   8.902  66.828  1.00  0.00    -0.282 C  
BRANCH  15  16
HETATM   16  C   UNL     1      -8.824   7.705  67.231  1.00  0.00    -0.120 C  
BRANCH  16  17
HETATM   17  N   UNL     1      -9.612   6.390  67.370  1.00  0.00    -0.118 N  
HETATM   18  C   UNL     1     -11.082   6.603  67.027  1.00  0.00    -0.325 C  
HETATM   19  C   UNL     1      -9.028   5.319  66.450  1.00  0.00    -0.128 C  
BRANCH  17  20
HETATM   20  C   UNL     1      -9.470   5.922  68.861  1.00  0.00    -0.126 C  
BRANCH  20  21
HETATM   21  C   UNL     1      -9.728   7.003  69.881  1.00  0.00    -0.163 A  
HETATM   22  C   UNL     1      -8.676   7.514  70.659  1.00  0.00    -0.141 A  
HETATM   23  C   UNL     1      -8.947   8.303  71.777  1.00  0.00    -0.241 A  
HETATM   24  C   UNL     1     -10.265   8.616  72.104  1.00  0.00    -0.394 A  
HETATM   25  C   UNL     1     -11.307   8.194  71.285  1.00  0.00    -0.300 A  
HETATM   26  C   UNL     1     -11.039   7.411  70.162  1.00  0.00    -0.265 A  
ENDBRANCH  20  21
ENDBRANCH  17  20
ENDBRANCH  16  17
ENDBRANCH  15  16
ENDBRANCH  14  15
ENDBRANCH  13  14
ENDBRANCH  12  13
ENDBRANCH  11  12
ENDBRANCH  10  11
ENDBRANCH   9  10
ENDBRANCH   8   9
ENDBRANCH   7   8
ENDBRANCH   6   7
ENDBRANCH   5   6
ENDBRANCH   4   5
ENDBRANCH   3   4
ENDBRANCH   2   3
TORSDOF 17
ENDMDL
MODEL      312
REMARK 921   NORMALIZED FREE ENERGY PREDICTED BY IDOCK:   -2.68 KCAL/MOL
REMARK 922        TOTAL FREE ENERGY PREDICTED BY IDOCK:   -8.18 KCAL/MOL
REMARK 923 INTER-LIGAND FREE ENERGY PREDICTED BY IDOCK:   -5.61 KCAL/MOL
REMARK 924 INTRA-LIGAND FREE ENERGY PREDICTED BY IDOCK:   -2.57 KCAL/MOL
REMARK 927      BINDING AFFINITY PREDICTED BY RF-SCORE:    0.00 PKD
ROOT
HETATM    1  C   UNL     1      -8.992  14.326  66.487  1.00  0.00    -0.161 C  
HETATM    2  C   UNL     1     -10.072  15.337  66.142  1.00  0.00    -0.315 C  
ENDROOT
BRANCH   2   3
HETATM    3  C   UNL     1     -11.314  14.643  65.589  1.00  0.00    -0.338 C  
BRANCH   3   4
HETATM    4  C   UNL     1     -11.559  13.314  66.297  1.00  0.00    -0.384 C  
BRANCH   4   5
HETATM    5  C   UNL     1     -12.154  12.296  65.332  1.00  0.00    -0.343 C  
BRANCH   5   6
HETATM    6  C   UNL     1     -11.704  12.577  63.904  1.00  0.00    -0.530 C  
BRANCH   6   7
HETATM    7  C   UNL     1     -10.822  11.445  63.395  1.00  0.00    -0.375 C  
BRANCH   7   8
HETATM    8  C   UNL     1      -9.448  11.507  64.045  1.00  0.00    -0.120 C  
BRANCH   8   9
HETATM    9  C   UNL     1      -9.173  10.226  64.823  1.00  0.00    -0.287 C  
BRANCH   9  10
HETATM   10  C   UNL     1      -8.933  10.546  66.290  1.00  0.00    -0.174 C  
BRANCH  10  11
HETATM   11  C   UNL     1      -9.599   9.513  67.183  1.00  0.00    -0.206 C  
BRANCH  11  12
HETATM   12  C   UNL     1     -10.265  10.203  68.361  1.00  0.00    -0.192 C  
BRANCH  12  13
HETATM   13  C   UNL     1     -10.753   9.196  69.395  1.00  0.00    -0.210 C  
BRANCH  13  14
HETATM   14  C   UNL     1     -10.103   7.824  69.221  1.00  0.00    -0.199 C  
BRANCH  14  15
HETATM   15  C   UNL     1     -10.245   6.888  70.425  1.00  0.00    -0.209 C  
BRANCH  15  16
HETATM   16  C   UNL     1     -10.456   5.424  70.026  1.00  0.00    -0.303 C  
BRANCH  16  17
HETATM   17  N   UNL     1      -9.300   4.497  70.441  1.00  0.00    -0.132 N  
HETATM   18  C   UNL     1      -8.131   5.305  70.992  1.00  0.00    -0.112 C  
HETATM   19  C   UNL     1      -9.771   3.502  71.501  1.00  0.00    -0.167 C  
BRANCH  17  20
HETATM   20  C   UNL     1      -8.855   3.711  69.158  1.00  0.00    -0.102 C  
BRANCH  20  21
HETATM   21  C   UNL     1      -8.718   4.564  67.921  1.00  0.00    -0.114 A  
HETATM   22  C   UNL     1      -7.579   5.363  67.730  1.00  0.00    -0.088 A  
HETATM   23  C   UNL     1      -7.570   6.347  66.741  1.00  0.00    -0.098 A  
HETATM   24  C   UNL     1      -8.680   6.514  65.915  1.00  0.00    -0.149 A  
HETATM   25  C   UNL     1      -9.774   5.664  66.036  1.00  0.00    -0.082 A  
HETATM   26  C   UNL     1      -9.784   4.674  67.018  1.00  0.00    -0.216 A  
ENDBRANCH  20  21
ENDBRANCH  17  20
ENDBRANCH  16  17
ENDBRANCH  15  16
ENDBRANCH  14  15
ENDBRANCH  13  14
ENDBRANCH  12  13
ENDBRANCH  11  12
ENDBRANCH  10  11
ENDBRANCH   9  10
ENDBRANCH   8   9
ENDBRANCH   7   8
ENDBRANCH   6   7
ENDBRANCH   5   6
ENDBRANCH   4   5
ENDBRANCH   3   4
ENDBRANCH   2   3
TORSDOF 17
ENDMDL
MODEL      313
REMARK 921   NORMALIZED FREE ENERGY PREDICTED BY IDOCK:   -2.67 KCAL/MOL
REMARK 922        TOTAL FREE ENERGY PREDICTED BY IDOCK:   -8.16 KCAL/MOL
REMARK 923 INTER-LIGAND FREE ENERGY PREDICTED BY IDOCK:   -7.03 KCAL/MOL
REMARK 924 INTRA-LIGAND FREE ENERGY PREDICTED BY IDOCK:   -1.13 KCAL/MOL
REMARK 927      BINDING AFFINITY PREDICTED BY RF-SCORE:    0.00 PKD
ROOT
HETATM    1  C   UNL     1      -8.338  16.676  68.656  1.00  0.00    -0.246 C  
HETATM    2  C   UNL     1      -7.819  15.274  68.927  1.00  0.00    -0.165 C  
ENDROOT
BRANCH   2   3
HETATM    3  C   UNL     1      -8.791  14.219  68.407  1.00  0.00    -0.187 C  
BRANCH   3   4
HETATM    4  C   UNL     1     -10.024  14.872  67.788  1.00  0.00    -0.222 C  
BRANCH   4   5
HETATM    5  C   UNL     1     -11.297  14.246  68.345  1.00  0.00    -0.309 C  
BRANCH   5   6
HETATM    6  C   UNL     1     -12.031  15.227  69.249  1.00  0.00    -0.327 C  
BRANCH   6   7
HETATM    7  C   UNL     1     -11.851  14.836  70.710  1.00  0.00    -0.370 C  
BRANCH   7   8
HETATM    8  C   UNL     1     -13.202  14.671  71.388  1.00  0.00    -0.425 C  
BRANCH   8   9
HETATM    9  C   UNL     1     -13.278  13.322  72.093  1.00  0.00    -0.562 C  
BRANCH   9  10
HETATM   10  C   UNL     1     -12.836  12.213  71.153  1.00  0.00    -0.313 C  
BRANCH  10  11
HETATM   11  C   UNL     1     -13.066  10.849  71.781  1.00  0.00    -0.564 C  
BRANCH  11  12
HETATM   12  C   UNL     1     -11.880   9.944  71.497  1.00  0.00    -0.445 C  
BRANCH  12  13
HETATM   13  C   UNL     1     -12.323   8.512  71.224  1.00  0.00    -0.301 C  
BRANCH  13  14
HETATM   14  C   UNL     1     -12.039   7.582  72.404  1.00  0.00    -0.216 C  
BRANCH  14  15
HETATM   15  C   UNL     1     -10.903   6.581  72.175  1.00  0.00    -0.264 C  
BRANCH  15  16
HETATM   16  C   UNL     1      -9.668   7.214  71.528  1.00  0.00    -0.164 C  
BRANCH  16  17
HETATM   17  N   UNL     1      -8.421   6.311  71.562  1.00  0.00    -0.129 N  
HETATM   18  C   UNL     1      -7.150   7.150  71.622  1.00  0.00    -0.069 C  
HETATM   19  C   UNL     1      -8.471   5.381  72.774  1.00  0.00    -0.116 C  
BRANCH  17  20
HETATM   20  C   UNL     1      -8.437   5.451  70.251  1.00  0.00    -0.119 C  
BRANCH  20  21
HETATM   21  C   UNL     1      -9.051   6.143  69.059  1.00  0.00    -0.124 A  
HETATM   22  C   UNL     1      -8.421   7.256  68.479  1.00  0.00    -0.125 A  
HETATM   23  C   UNL     1      -9.108   8.056  67.566  1.00  0.00    -0.146 A  
HETATM   24  C   UNL     1     -10.412   7.731  67.200  1.00  0.00    -0.413 A  
HETATM   25  C   UNL     1     -11.010   6.577  67.696  1.00  0.00    -0.426 A  
HETATM   26  C   UNL     1     -10.323   5.770  68.603  1.00  0.00    -0.283 A  
ENDBRANCH  20  21
ENDBRANCH  17  20
ENDBRANCH  16  17
ENDBRANCH  15  16
ENDBRANCH  14  15
ENDBRANCH  13  14
ENDBRANCH  12  13
ENDBRANCH  11  12
ENDBRANCH  10  11
ENDBRANCH   9  10
ENDBRANCH   8   9
ENDBRANCH   7   8
ENDBRANCH   6   7
ENDBRANCH   5   6
ENDBRANCH   4   5
ENDBRANCH   3   4
ENDBRANCH   2   3
TORSDOF 17
ENDMDL
MODEL      314
REMARK 921   NORMALIZED FREE ENERGY PREDICTED BY IDOCK:   -2.66 KCAL/MOL
REMARK 922        TOTAL FREE ENERGY PREDICTED BY IDOCK:   -8.14 KCAL/MOL
REMARK 923 INTER-LIGAND FREE ENERGY PREDICTED BY IDOCK:   -6.53 KCAL/MOL
REMARK 924 INTRA-LIGAND FREE ENERGY PREDICTED BY IDOCK:   -1.62 KCAL/MOL
REMARK 927      BINDING AFFINITY PREDICTED BY RF-SCORE:    0.00 PKD
ROOT
HETATM    1  C   UNL     1      -7.869   5.815  62.791  1.00  0.00    -0.094 C  
HETATM    2  C   UNL     1      -8.269   6.197  64.205  1.00  0.00    -0.044 C  
ENDROOT
BRANCH   2   3
HETATM    3  C   UNL     1      -7.110   5.992  65.177  1.00  0.00    -0.064 C  
BRANCH   3   4
HETATM    4  C   UNL     1      -7.612   5.904  66.615  1.00  0.00    -0.095 C  
BRANCH   4   5
HETATM    5  C   UNL     1      -8.911   6.682  66.776  1.00  0.00    -0.139 C  
BRANCH   5   6
HETATM    6  C   UNL     1      -9.892   5.921  67.659  1.00  0.00    -0.133 C  
BRANCH   6   7
HETATM    7  C   UNL     1      -9.375   5.856  69.089  1.00  0.00    -0.137 C  
BRANCH   7   8
HETATM    8  C   UNL     1     -10.220   4.902  69.919  1.00  0.00    -0.299 C  
BRANCH   8   9
HETATM    9  C   UNL     1     -10.210   5.323  71.383  1.00  0.00    -0.279 C  
BRANCH   9  10
HETATM   10  C   UNL     1     -10.673   6.765  71.516  1.00  0.00    -0.254 C  
BRANCH  10  11
HETATM   11  C   UNL     1     -12.156   6.828  71.842  1.00  0.00    -0.375 C  
BRANCH  11  12
HETATM   12  C   UNL     1     -12.745   8.123  71.310  1.00  0.00    -0.220 C  
BRANCH  12  13
HETATM   13  C   UNL     1     -12.830   9.186  72.399  1.00  0.00    -0.438 C  
BRANCH  13  14
HETATM   14  C   UNL     1     -13.142  10.572  71.834  1.00  0.00    -0.567 C  
BRANCH  14  15
HETATM   15  C   UNL     1     -12.841  10.741  70.342  1.00  0.00    -0.285 C  
BRANCH  15  16
HETATM   16  C   UNL     1     -11.795  11.822  70.058  1.00  0.00    -0.342 C  
BRANCH  16  17
HETATM   17  N   UNL     1     -10.786  11.435  68.963  1.00  0.00    -0.211 N  
HETATM   18  C   UNL     1      -9.827  12.585  68.681  1.00  0.00    -0.075 C  
HETATM   19  C   UNL     1      -9.988  10.203  69.386  1.00  0.00    -0.228 C  
BRANCH  17  20
HETATM   20  C   UNL     1     -11.613  11.095  67.673  1.00  0.00    -0.183 C  
BRANCH  20  21
HETATM   21  C   UNL     1     -10.806  11.093  66.398  1.00  0.00    -0.284 A  
HETATM   22  C   UNL     1     -10.949  12.130  65.462  1.00  0.00    -0.343 A  
HETATM   23  C   UNL     1     -10.421  11.996  64.178  1.00  0.00    -0.393 A  
HETATM   24  C   UNL     1      -9.717  10.844  63.832  1.00  0.00    -0.352 A  
HETATM   25  C   UNL     1      -9.489   9.853  64.781  1.00  0.00    -0.356 A  
HETATM   26  C   UNL     1     -10.008   9.987  66.068  1.00  0.00    -0.334 A  
ENDBRANCH  20  21
ENDBRANCH  17  20
ENDBRANCH  16  17
ENDBRANCH  15  16
ENDBRANCH  14  15
ENDBRANCH  13  14
ENDBRANCH  12  13
ENDBRANCH  11  12
ENDBRANCH  10  11
ENDBRANCH   9  10
ENDBRANCH   8   9
ENDBRANCH   7   8
ENDBRANCH   6   7
ENDBRANCH   5   6
ENDBRANCH   4   5
ENDBRANCH   3   4
ENDBRANCH   2   3
TORSDOF 17
ENDMDL
MODEL      315
REMARK 921   NORMALIZED FREE ENERGY PREDICTED BY IDOCK:   -2.66 KCAL/MOL
REMARK 922        TOTAL FREE ENERGY PREDICTED BY IDOCK:   -8.13 KCAL/MOL
REMARK 923 INTER-LIGAND FREE ENERGY PREDICTED BY IDOCK:   -7.29 KCAL/MOL
REMARK 924 INTRA-LIGAND FREE ENERGY PREDICTED BY IDOCK:   -0.85 KCAL/MOL
REMARK 927      BINDING AFFINITY PREDICTED BY RF-SCORE:    0.00 PKD
ROOT
HETATM    1  C   UNL     1     -12.650  14.048  65.167  1.00  0.00    -0.453 C  
HETATM    2  C   UNL     1     -11.834  13.430  64.044  1.00  0.00    -0.498 C  
ENDROOT
BRANCH   2   3
HETATM    3  C   UNL     1     -10.709  12.560  64.600  1.00  0.00    -0.341 C  
BRANCH   3   4
HETATM    4  C   UNL     1     -10.958  12.216  66.066  1.00  0.00    -0.332 C  
BRANCH   4   5
HETATM    5  C   UNL     1      -9.872  12.817  66.948  1.00  0.00    -0.236 C  
BRANCH   5   6
HETATM    6  C   UNL     1      -9.320  14.096  66.331  1.00  0.00    -0.254 C  
BRANCH   6   7
HETATM    7  C   UNL     1      -9.685  15.298  67.191  1.00  0.00    -0.220 C  
BRANCH   7   8
HETATM    8  C   UNL     1     -10.180  14.845  68.556  1.00  0.00    -0.235 C  
BRANCH   8   9
HETATM    9  C   UNL     1     -11.552  15.442  68.845  1.00  0.00    -0.369 C  
BRANCH   9  10
HETATM   10  C   UNL     1     -12.038  15.000  70.216  1.00  0.00    -0.378 C  
BRANCH  10  11
HETATM   11  C   UNL     1     -11.867  13.501  70.393  1.00  0.00    -0.293 C  
BRANCH  11  12
HETATM   12  C   UNL     1     -13.017  12.945  71.214  1.00  0.00    -0.317 C  
BRANCH  12  13
HETATM   13  C   UNL     1     -12.831  11.460  71.502  1.00  0.00    -0.508 C  
BRANCH  13  14
HETATM   14  C   UNL     1     -11.941  10.775  70.464  1.00  0.00    -0.456 C  
BRANCH  14  15
HETATM   15  C   UNL     1     -10.963   9.745  71.036  1.00  0.00    -0.402 C  
BRANCH  15  16
HETATM   16  C   UNL     1     -11.548   8.944  72.202  1.00  0.00    -0.330 C  
BRANCH  16  17
HETATM   17  N   UNL     1     -11.207   7.444  72.155  1.00  0.00    -0.251 N  
HETATM   18  C   UNL     1     -10.654   6.974  73.495  1.00  0.00    -0.368 C  
HETATM   19  C   UNL     1     -12.450   6.626  71.805  1.00  0.00    -0.311 C  
BRANCH  17  20
HETATM   20  C   UNL     1     -10.130   7.251  71.030  1.00  0.00    -0.191 C  
BRANCH  20  21
HETATM   21  C   UNL     1      -8.975   6.361  71.420  1.00  0.00    -0.138 A  
HETATM   22  C   UNL     1      -8.060   6.771  72.403  1.00  0.00    -0.102 A  
HETATM   23  C   UNL     1      -6.855   6.088  72.570  1.00  0.00    -0.074 A  
HETATM   24  C   UNL     1      -6.572   4.974  71.782  1.00  0.00    -0.036 A  
HETATM   25  C   UNL     1      -7.513   4.505  70.872  1.00  0.00    -0.052 A  
HETATM   26  C   UNL     1      -8.722   5.179  70.708  1.00  0.00    -0.142 A  
ENDBRANCH  20  21
ENDBRANCH  17  20
ENDBRANCH  16  17
ENDBRANCH  15  16
ENDBRANCH  14  15
ENDBRANCH  13  14
ENDBRANCH  12  13
ENDBRANCH  11  12
ENDBRANCH  10  11
ENDBRANCH   9  10
ENDBRANCH   8   9
ENDBRANCH   7   8
ENDBRANCH   6   7
ENDBRANCH   5   6
ENDBRANCH   4   5
ENDBRANCH   3   4
ENDBRANCH   2   3
TORSDOF 17
ENDMDL
MODEL      316
REMARK 921   NORMALIZED FREE ENERGY PREDICTED BY IDOCK:   -2.65 KCAL/MOL
REMARK 922        TOTAL FREE ENERGY PREDICTED BY IDOCK:   -8.12 KCAL/MOL
REMARK 923 INTER-LIGAND FREE ENERGY PREDICTED BY IDOCK:   -5.85 KCAL/MOL
REMARK 924 INTRA-LIGAND FREE ENERGY PREDICTED BY IDOCK:   -2.27 KCAL/MOL
REMARK 927      BINDING AFFINITY PREDICTED BY RF-SCORE:    0.00 PKD
ROOT
HETATM    1  C   UNL     1     -10.547  19.460  65.876  1.00  0.00    -0.551 C  
HETATM    2  C   UNL     1     -10.579  20.072  67.266  1.00  0.00    -0.442 C  
ENDROOT
BRANCH   2   3
HETATM    3  C   UNL     1      -9.166  20.351  67.773  1.00  0.00    -0.351 C  
BRANCH   3   4
HETATM    4  C   UNL     1      -8.228  20.689  66.618  1.00  0.00    -0.075 C  
BRANCH   4   5
HETATM    5  C   UNL     1      -6.834  20.135  66.882  1.00  0.00    -0.262 C  
BRANCH   5   6
HETATM    6  C   UNL     1      -6.545  20.086  68.377  1.00  0.00    -0.331 C  
BRANCH   6   7
HETATM    7  C   UNL     1      -5.641  18.905  68.702  1.00  0.00    -0.202 C  
BRANCH   7   8
HETATM    8  C   UNL     1      -5.853  17.781  67.699  1.00  0.00    -0.149 C  
BRANCH   8   9
HETATM    9  C   UNL     1      -6.712  16.681  68.312  1.00  0.00    -0.143 C  
BRANCH   9  10
HETATM   10  C   UNL     1      -8.031  16.569  67.565  1.00  0.00    -0.176 C  
BRANCH  10  11
HETATM   11  C   UNL     1      -9.204  16.658  68.526  1.00  0.00    -0.234 C  
BRANCH  11  12
HETATM   12  C   UNL     1     -10.510  16.590  67.753  1.00  0.00    -0.308 C  
BRANCH  12  13
HETATM   13  C   UNL     1     -11.496  15.629  68.406  1.00  0.00    -0.374 C  
BRANCH  13  14
HETATM   14  C   UNL     1     -11.996  14.561  67.432  1.00  0.00    -0.367 C  
BRANCH  14  15
HETATM   15  C   UNL     1     -11.170  13.272  67.412  1.00  0.00    -0.316 C  
BRANCH  15  16
HETATM   16  C   UNL     1     -10.172  13.216  66.252  1.00  0.00    -0.293 C  
BRANCH  16  17
HETATM   17  N   UNL     1     -10.102  11.843  65.561  1.00  0.00    -0.239 N  
HETATM   18  C   UNL     1     -11.129  10.887  66.156  1.00  0.00     0.061 C  
HETATM   19  C   UNL     1     -10.356  11.988  64.061  1.00  0.00    -0.373 C  
BRANCH  17  20
HETATM   20  C   UNL     1      -8.653  11.285  65.787  1.00  0.00    -0.067 C  
BRANCH  20  21
HETATM   21  C   UNL     1      -8.069  11.598  67.142  1.00  0.00    -0.166 A  
HETATM   22  C   UNL     1      -7.098  12.603  67.285  1.00  0.00    -0.101 A  
HETATM   23  C   UNL     1      -6.365  12.709  68.467  1.00  0.00    -0.070 A  
HETATM   24  C   UNL     1      -6.620  11.838  69.524  1.00  0.00    -0.102 A  
HETATM   25  C   UNL     1      -7.644  10.902  69.426  1.00  0.00    -0.097 A  
HETATM   26  C   UNL     1      -8.385  10.798  68.250  1.00  0.00    -0.125 A  
ENDBRANCH  20  21
ENDBRANCH  17  20
ENDBRANCH  16  17
ENDBRANCH  15  16
ENDBRANCH  14  15
ENDBRANCH  13  14
ENDBRANCH  12  13
ENDBRANCH  11  12
ENDBRANCH  10  11
ENDBRANCH   9  10
ENDBRANCH   8   9
ENDBRANCH   7   8
ENDBRANCH   6   7
ENDBRANCH   5   6
ENDBRANCH   4   5
ENDBRANCH   3   4
ENDBRANCH   2   3
TORSDOF 17
ENDMDL
MODEL      317
REMARK 921   NORMALIZED FREE ENERGY PREDICTED BY IDOCK:   -2.65 KCAL/MOL
REMARK 922        TOTAL FREE ENERGY PREDICTED BY IDOCK:   -8.12 KCAL/MOL
REMARK 923 INTER-LIGAND FREE ENERGY PREDICTED BY IDOCK:   -6.14 KCAL/MOL
REMARK 924 INTRA-LIGAND FREE ENERGY PREDICTED BY IDOCK:   -1.98 KCAL/MOL
REMARK 927      BINDING AFFINITY PREDICTED BY RF-SCORE:    0.00 PKD
ROOT
HETATM    1  C   UNL     1      -7.798   6.350  70.518  1.00  0.00    -0.107 C  
HETATM    2  C   UNL     1      -7.345   6.850  69.157  1.00  0.00    -0.093 C  
ENDROOT
BRANCH   2   3
HETATM    3  C   UNL     1      -7.401   5.734  68.117  1.00  0.00    -0.077 C  
BRANCH   3   4
HETATM    4  C   UNL     1      -7.019   6.256  66.735  1.00  0.00    -0.068 C  
BRANCH   4   5
HETATM    5  C   UNL     1      -8.266   6.520  65.900  1.00  0.00    -0.131 C  
BRANCH   5   6
HETATM    6  C   UNL     1      -8.277   7.952  65.381  1.00  0.00    -0.139 C  
BRANCH   6   7
HETATM    7  C   UNL     1      -9.283   8.788  66.161  1.00  0.00    -0.273 C  
BRANCH   7   8
HETATM    8  C   UNL     1     -10.269   7.890  66.893  1.00  0.00    -0.380 C  
BRANCH   8   9
HETATM    9  C   UNL     1     -11.016   8.684  67.957  1.00  0.00     0.091 C  
BRANCH   9  10
HETATM   10  C   UNL     1     -10.428   8.403  69.330  1.00  0.00    -0.222 C  
BRANCH  10  11
HETATM   11  C   UNL     1     -11.490   8.529  70.409  1.00  0.00    -0.135 C  
BRANCH  11  12
HETATM   12  C   UNL     1     -11.443   9.919  71.019  1.00  0.00    -0.466 C  
BRANCH  12  13
HETATM   13  C   UNL     1     -12.825  10.560  71.057  1.00  0.00    -0.502 C  
BRANCH  13  14
HETATM   14  C   UNL     1     -12.764  12.051  71.391  1.00  0.00    -0.380 C  
BRANCH  14  15
HETATM   15  C   UNL     1     -12.553  12.971  70.185  1.00  0.00    -0.047 C  
BRANCH  15  16
HETATM   16  C   UNL     1     -11.089  13.376  69.988  1.00  0.00     0.329 C  
BRANCH  16  17
HETATM   17  N   UNL     1     -10.558  13.105  68.569  1.00  0.00    -0.256 N  
HETATM   18  C   UNL     1      -9.981  14.376  67.957  1.00  0.00    -0.225 C  
HETATM   19  C   UNL     1      -9.478  12.024  68.602  1.00  0.00    -0.062 C  
BRANCH  17  20
HETATM   20  C   UNL     1     -11.770  12.596  67.712  1.00  0.00    -0.356 C  
BRANCH  20  21
HETATM   21  C   UNL     1     -11.620  12.818  66.227  1.00  0.00    -0.433 A  
HETATM   22  C   UNL     1     -12.066  14.011  65.636  1.00  0.00    -0.432 A  
HETATM   23  C   UNL     1     -12.181  14.109  64.249  1.00  0.00    -0.449 A  
HETATM   24  C   UNL     1     -11.818  13.031  63.444  1.00  0.00    -0.543 A  
HETATM   25  C   UNL     1     -11.286  11.880  64.015  1.00  0.00    -0.475 A  
HETATM   26  C   UNL     1     -11.162  11.782  65.400  1.00  0.00    -0.310 A  
ENDBRANCH  20  21
ENDBRANCH  17  20
ENDBRANCH  16  17
ENDBRANCH  15  16
ENDBRANCH  14  15
ENDBRANCH  13  14
ENDBRANCH  12  13
ENDBRANCH  11  12
ENDBRANCH  10  11
ENDBRANCH   9  10
ENDBRANCH   8   9
ENDBRANCH   7   8
ENDBRANCH   6   7
ENDBRANCH   5   6
ENDBRANCH   4   5
ENDBRANCH   3   4
ENDBRANCH   2   3
TORSDOF 17
ENDMDL
MODEL      318
REMARK 921   NORMALIZED FREE ENERGY PREDICTED BY IDOCK:   -2.65 KCAL/MOL
REMARK 922        TOTAL FREE ENERGY PREDICTED BY IDOCK:   -8.11 KCAL/MOL
REMARK 923 INTER-LIGAND FREE ENERGY PREDICTED BY IDOCK:   -7.21 KCAL/MOL
REMARK 924 INTRA-LIGAND FREE ENERGY PREDICTED BY IDOCK:   -0.91 KCAL/MOL
REMARK 927      BINDING AFFINITY PREDICTED BY RF-SCORE:    0.00 PKD
ROOT
HETATM    1  C   UNL     1     -10.500   7.474  73.439  1.00  0.00    -0.404 C  
HETATM    2  C   UNL     1     -10.905   6.167  72.780  1.00  0.00    -0.282 C  
ENDROOT
BRANCH   2   3
HETATM    3  C   UNL     1     -11.971   6.400  71.712  1.00  0.00    -0.370 C  
BRANCH   3   4
HETATM    4  C   UNL     1     -11.648   7.637  70.879  1.00  0.00    -0.299 C  
BRANCH   4   5
HETATM    5  C   UNL     1     -10.751   7.271  69.704  1.00  0.00    -0.249 C  
BRANCH   5   6
HETATM    6  C   UNL     1     -11.093   5.886  69.172  1.00  0.00    -0.328 C  
BRANCH   6   7
HETATM    7  C   UNL     1     -10.746   5.786  67.693  1.00  0.00    -0.313 C  
BRANCH   7   8
HETATM    8  C   UNL     1      -9.277   6.111  67.468  1.00  0.00    -0.111 C  
BRANCH   8   9
HETATM    9  C   UNL     1      -9.109   6.956  66.212  1.00  0.00    -0.170 C  
BRANCH   9  10
HETATM   10  C   UNL     1      -7.662   6.920  65.745  1.00  0.00    -0.100 C  
BRANCH  10  11
HETATM   11  C   UNL     1      -7.054   8.312  65.764  1.00  0.00    -0.071 C  
BRANCH  11  12
HETATM   12  C   UNL     1      -6.916   8.794  67.198  1.00  0.00    -0.071 C  
BRANCH  12  13
HETATM   13  C   UNL     1      -7.368  10.242  67.346  1.00  0.00    -0.093 C  
BRANCH  13  14
HETATM   14  C   UNL     1      -8.870  10.407  67.120  1.00  0.00    -0.141 C  
BRANCH  14  15
HETATM   15  C   UNL     1      -9.268  11.659  66.333  1.00  0.00    -0.219 C  
BRANCH  15  16
HETATM   16  C   UNL     1      -9.773  12.795  67.228  1.00  0.00    -0.206 C  
BRANCH  16  17
HETATM   17  N   UNL     1     -10.965  13.567  66.634  1.00  0.00    -0.286 N  
HETATM   18  C   UNL     1     -10.481  14.737  65.786  1.00  0.00    -0.334 C  
HETATM   19  C   UNL     1     -11.824  12.641  65.775  1.00  0.00    -0.444 C  
BRANCH  17  20
HETATM   20  C   UNL     1     -11.821  14.093  67.840  1.00  0.00    -0.370 C  
BRANCH  20  21
HETATM   21  C   UNL     1     -11.920  13.133  68.999  1.00  0.00    -0.329 A  
HETATM   22  C   UNL     1     -11.883  11.746  68.781  1.00  0.00    -0.380 A  
HETATM   23  C   UNL     1     -12.246  10.864  69.800  1.00  0.00    -0.381 A  
HETATM   24  C   UNL     1     -12.612  11.359  71.050  1.00  0.00    -0.487 A  
HETATM   25  C   UNL     1     -12.560  12.726  71.303  1.00  0.00    -0.347 A  
HETATM   26  C   UNL     1     -12.190  13.609  70.290  1.00  0.00    -0.423 A  
ENDBRANCH  20  21
ENDBRANCH  17  20
ENDBRANCH  16  17
ENDBRANCH  15  16
ENDBRANCH  14  15
ENDBRANCH  13  14
ENDBRANCH  12  13
ENDBRANCH  11  12
ENDBRANCH  10  11
ENDBRANCH   9  10
ENDBRANCH   8   9
ENDBRANCH   7   8
ENDBRANCH   6   7
ENDBRANCH   5   6
ENDBRANCH   4   5
ENDBRANCH   3   4
ENDBRANCH   2   3
TORSDOF 17
ENDMDL
MODEL      319
REMARK 921   NORMALIZED FREE ENERGY PREDICTED BY IDOCK:   -2.64 KCAL/MOL
REMARK 922        TOTAL FREE ENERGY PREDICTED BY IDOCK:   -8.10 KCAL/MOL
REMARK 923 INTER-LIGAND FREE ENERGY PREDICTED BY IDOCK:   -6.06 KCAL/MOL
REMARK 924 INTRA-LIGAND FREE ENERGY PREDICTED BY IDOCK:   -2.04 KCAL/MOL
REMARK 927      BINDING AFFINITY PREDICTED BY RF-SCORE:    0.00 PKD
ROOT
HETATM    1  C   UNL     1      -5.222  15.688  70.076  1.00  0.00    -0.118 C  
HETATM    2  C   UNL     1      -6.173  14.506  69.986  1.00  0.00    -0.159 C  
ENDROOT
BRANCH   2   3
HETATM    3  C   UNL     1      -6.092  13.841  68.614  1.00  0.00    -0.088 C  
BRANCH   3   4
HETATM    4  C   UNL     1      -7.484  13.646  68.019  1.00  0.00    -0.133 C  
BRANCH   4   5
HETATM    5  C   UNL     1      -7.999  14.951  67.426  1.00  0.00    -0.223 C  
BRANCH   5   6
HETATM    6  C   UNL     1      -8.936  15.656  68.398  1.00  0.00    -0.185 C  
BRANCH   6   7
HETATM    7  C   UNL     1     -10.244  16.015  67.706  1.00  0.00    -0.260 C  
BRANCH   7   8
HETATM    8  C   UNL     1     -11.286  16.446  68.726  1.00  0.00    -0.313 C  
BRANCH   8   9
HETATM    9  C   UNL     1     -10.820  16.102  70.135  1.00  0.00    -0.328 C  
BRANCH   9  10
HETATM   10  C   UNL     1     -12.008  15.714  71.001  1.00  0.00    -0.445 C  
BRANCH  10  11
HETATM   11  C   UNL     1     -12.773  14.558  70.380  1.00  0.00    -0.378 C  
BRANCH  11  12
HETATM   12  C   UNL     1     -12.261  13.242  70.941  1.00  0.00    -0.346 C  
BRANCH  12  13
HETATM   13  C   UNL     1     -11.950  12.245  69.831  1.00  0.00    -0.377 C  
BRANCH  13  14
HETATM   14  C   UNL     1     -11.872  12.912  68.457  1.00  0.00    -0.350 C  
BRANCH  14  15
HETATM   15  C   UNL     1     -11.627  11.952  67.289  1.00  0.00    -0.364 C  
BRANCH  15  16
HETATM   16  C   UNL     1     -10.285  12.188  66.590  1.00  0.00    -0.201 C  
BRANCH  16  17
HETATM   17  N   UNL     1     -10.402  12.341  65.063  1.00  0.00    -0.285 N  
HETATM   18  C   UNL     1     -11.779  11.900  64.581  1.00  0.00    -0.232 C  
HETATM   19  C   UNL     1     -10.165  13.795  64.654  1.00  0.00    -0.284 C  
BRANCH  17  20
HETATM   20  C   UNL     1      -9.291  11.438  64.422  1.00  0.00    -0.068 C  
BRANCH  20  21
HETATM   21  C   UNL     1      -8.713  10.404  65.356  1.00  0.00    -0.193 A  
HETATM   22  C   UNL     1      -7.557  10.686  66.103  1.00  0.00    -0.138 A  
HETATM   23  C   UNL     1      -6.870   9.658  66.749  1.00  0.00    -0.084 A  
HETATM   24  C   UNL     1      -7.349   8.352  66.683  1.00  0.00    -0.082 A  
HETATM   25  C   UNL     1      -8.544   8.079  66.025  1.00  0.00    -0.162 A  
HETATM   26  C   UNL     1      -9.239   9.104  65.385  1.00  0.00    -0.266 A  
ENDBRANCH  20  21
ENDBRANCH  17  20
ENDBRANCH  16  17
ENDBRANCH  15  16
ENDBRANCH  14  15
ENDBRANCH  13  14
ENDBRANCH  12  13
ENDBRANCH  11  12
ENDBRANCH  10  11
ENDBRANCH   9  10
ENDBRANCH   8   9
ENDBRANCH   7   8
ENDBRANCH   6   7
ENDBRANCH   5   6
ENDBRANCH   4   5
ENDBRANCH   3   4
ENDBRANCH   2   3
TORSDOF 17
ENDMDL
MODEL      320
REMARK 921   NORMALIZED FREE ENERGY PREDICTED BY IDOCK:   -2.64 KCAL/MOL
REMARK 922        TOTAL FREE ENERGY PREDICTED BY IDOCK:   -8.10 KCAL/MOL
REMARK 923 INTER-LIGAND FREE ENERGY PREDICTED BY IDOCK:   -6.44 KCAL/MOL
REMARK 924 INTRA-LIGAND FREE ENERGY PREDICTED BY IDOCK:   -1.65 KCAL/MOL
REMARK 927      BINDING AFFINITY PREDICTED BY RF-SCORE:    0.00 PKD
ROOT
HETATM    1  C   UNL     1     -10.708  12.575  65.030  1.00  0.00    -0.326 C  
HETATM    2  C   UNL     1     -10.600  11.494  66.092  1.00  0.00    -0.314 C  
ENDROOT
BRANCH   2   3
HETATM    3  C   UNL     1      -9.924  10.245  65.535  1.00  0.00    -0.364 C  
BRANCH   3   4
HETATM    4  C   UNL     1      -9.285   9.425  66.652  1.00  0.00    -0.193 C  
BRANCH   4   5
HETATM    5  C   UNL     1      -9.914   9.772  67.996  1.00  0.00    -0.185 C  
BRANCH   5   6
HETATM    6  C   UNL     1      -9.430   8.820  69.082  1.00  0.00    -0.157 C  
BRANCH   6   7
HETATM    7  C   UNL     1      -8.719   9.594  70.184  1.00  0.00    -0.263 C  
BRANCH   7   8
HETATM    8  C   UNL     1      -8.309   8.659  71.312  1.00  0.00    -0.211 C  
BRANCH   8   9
HETATM    9  C   UNL     1      -9.276   7.485  71.402  1.00  0.00    -0.150 C  
BRANCH   9  10
HETATM   10  C   UNL     1     -10.400   7.805  72.374  1.00  0.00    -0.311 C  
BRANCH  10  11
HETATM   11  C   UNL     1     -11.753   7.669  71.698  1.00  0.00    -0.313 C  
BRANCH  11  12
HETATM   12  C   UNL     1     -12.624   8.865  72.042  1.00  0.00    -0.460 C  
BRANCH  12  13
HETATM   13  C   UNL     1     -12.042  10.158  71.483  1.00  0.00    -0.442 C  
BRANCH  13  14
HETATM   14  C   UNL     1     -13.113  11.056  70.863  1.00  0.00    -0.199 C  
BRANCH  14  15
HETATM   15  C   UNL     1     -13.340  12.383  71.592  1.00  0.00    -0.271 C  
BRANCH  15  16
HETATM   16  C   UNL     1     -12.093  13.271  71.625  1.00  0.00     0.579 C  
BRANCH  16  17
HETATM   17  N   UNL     1     -12.252  14.590  70.846  1.00  0.00    -0.316 N  
HETATM   18  C   UNL     1     -13.632  15.192  71.083  1.00  0.00    -0.456 C  
HETATM   19  C   UNL     1     -11.182  15.592  71.274  1.00  0.00    -0.331 C  
BRANCH  17  20
HETATM   20  C   UNL     1     -12.065  14.253  69.325  1.00  0.00    -0.313 C  
BRANCH  20  21
HETATM   21  C   UNL     1     -10.984  15.050  68.639  1.00  0.00    -0.261 A  
HETATM   22  C   UNL     1      -9.649  14.616  68.672  1.00  0.00    -0.219 A  
HETATM   23  C   UNL     1      -8.621  15.475  68.282  1.00  0.00    -0.161 A  
HETATM   24  C   UNL     1      -8.921  16.757  67.825  1.00  0.00    -0.216 A  
HETATM   25  C   UNL     1     -10.246  17.161  67.699  1.00  0.00    -0.329 A  
HETATM   26  C   UNL     1     -11.277  16.303  68.080  1.00  0.00    -0.260 A  
ENDBRANCH  20  21
ENDBRANCH  17  20
ENDBRANCH  16  17
ENDBRANCH  15  16
ENDBRANCH  14  15
ENDBRANCH  13  14
ENDBRANCH  12  13
ENDBRANCH  11  12
ENDBRANCH  10  11
ENDBRANCH   9  10
ENDBRANCH   8   9
ENDBRANCH   7   8
ENDBRANCH   6   7
ENDBRANCH   5   6
ENDBRANCH   4   5
ENDBRANCH   3   4
ENDBRANCH   2   3
TORSDOF 17
ENDMDL
MODEL      321
REMARK 921   NORMALIZED FREE ENERGY PREDICTED BY IDOCK:   -2.63 KCAL/MOL
REMARK 922        TOTAL FREE ENERGY PREDICTED BY IDOCK:   -8.09 KCAL/MOL
REMARK 923 INTER-LIGAND FREE ENERGY PREDICTED BY IDOCK:   -6.44 KCAL/MOL
REMARK 924 INTRA-LIGAND FREE ENERGY PREDICTED BY IDOCK:   -1.65 KCAL/MOL
REMARK 927      BINDING AFFINITY PREDICTED BY RF-SCORE:    0.00 PKD
ROOT
HETATM    1  C   UNL     1     -12.236  14.497  64.494  1.00  0.00    -0.483 C  
HETATM    2  C   UNL     1     -12.399  13.756  65.811  1.00  0.00    -0.523 C  
ENDROOT
BRANCH   2   3
HETATM    3  C   UNL     1     -11.609  14.440  66.924  1.00  0.00    -0.404 C  
BRANCH   3   4
HETATM    4  C   UNL     1     -12.213  14.130  68.291  1.00  0.00    -0.196 C  
BRANCH   4   5
HETATM    5  C   UNL     1     -11.241  13.312  69.132  1.00  0.00    -0.305 C  
BRANCH   5   6
HETATM    6  C   UNL     1     -11.961  12.169  69.833  1.00  0.00    -0.380 C  
BRANCH   6   7
HETATM    7  C   UNL     1     -11.533  10.832  69.242  1.00  0.00    -0.369 C  
BRANCH   7   8
HETATM    8  C   UNL     1     -11.510  10.905  67.723  1.00  0.00    -0.323 C  
BRANCH   8   9
HETATM    9  C   UNL     1     -10.731   9.728  67.149  1.00  0.00    -0.273 C  
BRANCH   9  10
HETATM   10  C   UNL     1      -9.764  10.211  66.080  1.00  0.00    -0.285 C  
BRANCH  10  11
HETATM   11  C   UNL     1      -8.918  11.361  66.596  1.00  0.00    -0.183 C  
BRANCH  11  12
HETATM   12  C   UNL     1      -7.644  10.823  67.225  1.00  0.00    -0.102 C  
BRANCH  12  13
HETATM   13  C   UNL     1      -7.801  10.632  68.729  1.00  0.00    -0.125 C  
BRANCH  13  14
HETATM   14  C   UNL     1      -7.554   9.187  69.160  1.00  0.00    -0.073 C  
BRANCH  14  15
HETATM   15  C   UNL     1      -8.787   8.458  69.702  1.00  0.00    -0.141 C  
BRANCH  15  16
HETATM   16  C   UNL     1      -8.435   7.298  70.639  1.00  0.00    -0.140 C  
BRANCH  16  17
HETATM   17  N   UNL     1      -9.308   7.240  71.905  1.00  0.00    -0.138 N  
HETATM   18  C   UNL     1      -8.543   6.602  73.058  1.00  0.00    -0.117 C  
HETATM   19  C   UNL     1      -9.754   8.644  72.309  1.00  0.00    -0.286 C  
BRANCH  17  20
HETATM   20  C   UNL     1     -10.572   6.378  71.555  1.00  0.00    -0.231 C  
BRANCH  20  21
HETATM   21  C   UNL     1     -10.265   5.074  70.861  1.00  0.00    -0.287 A  
HETATM   22  C   UNL     1      -9.858   3.952  71.601  1.00  0.00    -0.247 A  
HETATM   23  C   UNL     1      -9.316   2.842  70.953  1.00  0.00    -0.219 A  
HETATM   24  C   UNL     1      -9.210   2.830  69.564  1.00  0.00    -0.204 A  
HETATM   25  C   UNL     1      -9.697   3.898  68.817  1.00  0.00    -0.119 A  
HETATM   26  C   UNL     1     -10.247   5.006  69.460  1.00  0.00    -0.286 A  
ENDBRANCH  20  21
ENDBRANCH  17  20
ENDBRANCH  16  17
ENDBRANCH  15  16
ENDBRANCH  14  15
ENDBRANCH  13  14
ENDBRANCH  12  13
ENDBRANCH  11  12
ENDBRANCH  10  11
ENDBRANCH   9  10
ENDBRANCH   8   9
ENDBRANCH   7   8
ENDBRANCH   6   7
ENDBRANCH   5   6
ENDBRANCH   4   5
ENDBRANCH   3   4
ENDBRANCH   2   3
TORSDOF 17
ENDMDL
MODEL      322
REMARK 921   NORMALIZED FREE ENERGY PREDICTED BY IDOCK:   -2.62 KCAL/MOL
REMARK 922        TOTAL FREE ENERGY PREDICTED BY IDOCK:   -8.07 KCAL/MOL
REMARK 923 INTER-LIGAND FREE ENERGY PREDICTED BY IDOCK:   -5.41 KCAL/MOL
REMARK 924 INTRA-LIGAND FREE ENERGY PREDICTED BY IDOCK:   -2.67 KCAL/MOL
REMARK 927      BINDING AFFINITY PREDICTED BY RF-SCORE:    0.00 PKD
ROOT
HETATM    1  C   UNL     1      -8.655  10.289  66.088  1.00  0.00    -0.146 C  
HETATM    2  C   UNL     1      -7.218  10.609  66.462  1.00  0.00    -0.134 C  
ENDROOT
BRANCH   2   3
HETATM    3  C   UNL     1      -7.114  11.991  67.102  1.00  0.00    -0.130 C  
BRANCH   3   4
HETATM    4  C   UNL     1      -8.126  12.146  68.234  1.00  0.00    -0.166 C  
BRANCH   4   5
HETATM    5  C   UNL     1      -8.628  13.582  68.308  1.00  0.00    -0.168 C  
BRANCH   5   6
HETATM    6  C   UNL     1      -9.528  13.903  67.122  1.00  0.00    -0.246 C  
BRANCH   6   7
HETATM    7  C   UNL     1     -10.789  14.616  67.593  1.00  0.00    -0.284 C  
BRANCH   7   8
HETATM    8  C   UNL     1     -11.883  13.608  67.912  1.00  0.00    -0.402 C  
BRANCH   8   9
HETATM    9  C   UNL     1     -11.692  12.341  67.088  1.00  0.00    -0.396 C  
BRANCH   9  10
HETATM   10  C   UNL     1     -11.671  11.123  67.997  1.00  0.00    -0.288 C  
BRANCH  10  11
HETATM   11  C   UNL     1     -11.814  11.533  69.452  1.00  0.00    -0.417 C  
BRANCH  11  12
HETATM   12  C   UNL     1     -11.165  10.491  70.347  1.00  0.00    -0.378 C  
BRANCH  12  13
HETATM   13  C   UNL     1     -10.640   9.310  69.539  1.00  0.00    -0.236 C  
BRANCH  13  14
HETATM   14  C   UNL     1     -11.127   7.969  70.088  1.00  0.00    -0.191 C  
BRANCH  14  15
HETATM   15  C   UNL     1     -10.201   7.325  71.124  1.00  0.00    -0.197 C  
BRANCH  15  16
HETATM   16  C   UNL     1      -9.461   6.096  70.587  1.00  0.00    -0.168 C  
BRANCH  16  17
HETATM   17  N   UNL     1      -7.931   6.186  70.727  1.00  0.00    -0.113 N  
HETATM   18  C   UNL     1      -7.530   7.463  71.455  1.00  0.00    -0.080 C  
HETATM   19  C   UNL     1      -7.396   4.977  71.494  1.00  0.00    -0.081 C  
BRANCH  17  20
HETATM   20  C   UNL     1      -7.333   6.182  69.277  1.00  0.00    -0.088 C  
BRANCH  20  21
HETATM   21  C   UNL     1      -8.329   5.847  68.193  1.00  0.00    -0.115 A  
HETATM   22  C   UNL     1      -8.921   6.867  67.430  1.00  0.00    -0.116 A  
HETATM   23  C   UNL     1     -10.028   6.591  66.628  1.00  0.00    -0.204 A  
HETATM   24  C   UNL     1     -10.528   5.293  66.554  1.00  0.00    -0.354 A  
HETATM   25  C   UNL     1      -9.890   4.260  67.233  1.00  0.00    -0.193 A  
HETATM   26  C   UNL     1      -8.779   4.529  68.029  1.00  0.00    -0.115 A  
ENDBRANCH  20  21
ENDBRANCH  17  20
ENDBRANCH  16  17
ENDBRANCH  15  16
ENDBRANCH  14  15
ENDBRANCH  13  14
ENDBRANCH  12  13
ENDBRANCH  11  12
ENDBRANCH  10  11
ENDBRANCH   9  10
ENDBRANCH   8   9
ENDBRANCH   7   8
ENDBRANCH   6   7
ENDBRANCH   5   6
ENDBRANCH   4   5
ENDBRANCH   3   4
ENDBRANCH   2   3
TORSDOF 17
ENDMDL
MODEL      323
REMARK 921   NORMALIZED FREE ENERGY PREDICTED BY IDOCK:   -2.61 KCAL/MOL
REMARK 922        TOTAL FREE ENERGY PREDICTED BY IDOCK:   -8.04 KCAL/MOL
REMARK 923 INTER-LIGAND FREE ENERGY PREDICTED BY IDOCK:   -4.57 KCAL/MOL
REMARK 924 INTRA-LIGAND FREE ENERGY PREDICTED BY IDOCK:   -3.47 KCAL/MOL
REMARK 927      BINDING AFFINITY PREDICTED BY RF-SCORE:    0.00 PKD
ROOT
HETATM    1  C   UNL     1      -5.865   5.414  67.703  1.00  0.00    -0.017 C  
HETATM    2  C   UNL     1      -6.248   6.781  68.242  1.00  0.00    -0.030 C  
ENDROOT
BRANCH   2   3
HETATM    3  C   UNL     1      -6.289   7.819  67.123  1.00  0.00    -0.055 C  
BRANCH   3   4
HETATM    4  C   UNL     1      -6.375   7.146  65.757  1.00  0.00    -0.044 C  
BRANCH   4   5
HETATM    5  C   UNL     1      -7.424   7.830  64.889  1.00  0.00    -0.094 C  
BRANCH   5   6
HETATM    6  C   UNL     1      -7.831   6.936  63.726  1.00  0.00    -0.108 C  
BRANCH   6   7
HETATM    7  C   UNL     1      -6.981   5.672  63.708  1.00  0.00    -0.050 C  
BRANCH   7   8
HETATM    8  C   UNL     1      -7.848   4.451  63.439  1.00  0.00    -0.076 C  
BRANCH   8   9
HETATM    9  C   UNL     1      -8.404   3.900  64.746  1.00  0.00    -0.101 C  
BRANCH   9  10
HETATM   10  C   UNL     1      -9.922   3.858  64.694  1.00  0.00    -0.206 C  
BRANCH  10  11
HETATM   11  C   UNL     1     -10.524   4.706  65.802  1.00  0.00    -0.290 C  
BRANCH  11  12
HETATM   12  C   UNL     1      -9.561   4.780  66.974  1.00  0.00    -0.187 C  
BRANCH  12  13
HETATM   13  C   UNL     1      -9.707   6.093  67.734  1.00  0.00    -0.118 C  
BRANCH  13  14
HETATM   14  C   UNL     1     -10.589   7.098  66.992  1.00  0.00    -0.413 C  
BRANCH  14  15
HETATM   15  C   UNL     1      -9.972   8.487  66.814  1.00  0.00    -0.351 C  
BRANCH  15  16
HETATM   16  C   UNL     1     -10.903   9.620  67.258  1.00  0.00    -0.142 C  
BRANCH  16  17
HETATM   17  N   UNL     1     -10.164  10.920  67.624  1.00  0.00    -0.178 N  
HETATM   18  C   UNL     1      -8.665  10.772  67.392  1.00  0.00    -0.126 C  
HETATM   19  C   UNL     1     -10.693  12.086  66.790  1.00  0.00    -0.243 C  
BRANCH  17  20
HETATM   20  C   UNL     1     -10.449  11.200  69.141  1.00  0.00    -0.182 C  
BRANCH  20  21
HETATM   21  C   UNL     1     -10.372   9.981  70.026  1.00  0.00    -0.323 A  
HETATM   22  C   UNL     1      -9.132   9.388  70.316  1.00  0.00    -0.283 A  
HETATM   23  C   UNL     1      -9.077   8.121  70.897  1.00  0.00    -0.169 A  
HETATM   24  C   UNL     1     -10.256   7.455  71.225  1.00  0.00    -0.197 A  
HETATM   25  C   UNL     1     -11.486   8.074  71.029  1.00  0.00    -0.300 A  
HETATM   26  C   UNL     1     -11.545   9.343  70.456  1.00  0.00    -0.291 A  
ENDBRANCH  20  21
ENDBRANCH  17  20
ENDBRANCH  16  17
ENDBRANCH  15  16
ENDBRANCH  14  15
ENDBRANCH  13  14
ENDBRANCH  12  13
ENDBRANCH  11  12
ENDBRANCH  10  11
ENDBRANCH   9  10
ENDBRANCH   8   9
ENDBRANCH   7   8
ENDBRANCH   6   7
ENDBRANCH   5   6
ENDBRANCH   4   5
ENDBRANCH   3   4
ENDBRANCH   2   3
TORSDOF 17
ENDMDL
MODEL      324
REMARK 921   NORMALIZED FREE ENERGY PREDICTED BY IDOCK:   -2.61 KCAL/MOL
REMARK 922        TOTAL FREE ENERGY PREDICTED BY IDOCK:   -8.04 KCAL/MOL
REMARK 923 INTER-LIGAND FREE ENERGY PREDICTED BY IDOCK:   -5.41 KCAL/MOL
REMARK 924 INTRA-LIGAND FREE ENERGY PREDICTED BY IDOCK:   -2.63 KCAL/MOL
REMARK 927      BINDING AFFINITY PREDICTED BY RF-SCORE:    0.00 PKD
ROOT
HETATM    1  C   UNL     1      -7.977   9.371  65.550  1.00  0.00    -0.111 C  
HETATM    2  C   UNL     1      -6.858   9.208  66.565  1.00  0.00    -0.080 C  
ENDROOT
BRANCH   2   3
HETATM    3  C   UNL     1      -6.862  10.354  67.573  1.00  0.00    -0.075 C  
BRANCH   3   4
HETATM    4  C   UNL     1      -8.274  10.626  68.085  1.00  0.00    -0.116 C  
BRANCH   4   5
HETATM    5  C   UNL     1      -8.455  12.108  68.390  1.00  0.00    -0.145 C  
BRANCH   5   6
HETATM    6  C   UNL     1      -8.334  12.941  67.121  1.00  0.00    -0.158 C  
BRANCH   6   7
HETATM    7  C   UNL     1      -8.353  14.425  67.459  1.00  0.00    -0.198 C  
BRANCH   7   8
HETATM    8  C   UNL     1      -9.535  14.751  68.360  1.00  0.00    -0.213 C  
BRANCH   8   9
HETATM    9  C   UNL     1     -10.793  14.961  67.527  1.00  0.00    -0.292 C  
BRANCH   9  10
HETATM   10  C   UNL     1     -11.922  14.092  68.054  1.00  0.00    -0.386 C  
BRANCH  10  11
HETATM   11  C   UNL     1     -12.129  14.319  69.542  1.00  0.00    -0.376 C  
BRANCH  11  12
HETATM   12  C   UNL     1     -12.010  13.000  70.286  1.00  0.00    -0.360 C  
BRANCH  12  13
HETATM   13  C   UNL     1     -12.026  11.815  69.328  1.00  0.00    -0.354 C  
BRANCH  13  14
HETATM   14  C   UNL     1     -12.159  10.479  70.060  1.00  0.00    -0.351 C  
BRANCH  14  15
HETATM   15  C   UNL     1     -10.855   9.941  70.657  1.00  0.00    -0.400 C  
BRANCH  15  16
HETATM   16  C   UNL     1     -10.555   8.499  70.240  1.00  0.00    -0.226 C  
BRANCH  16  17
HETATM   17  N   UNL     1     -10.962   7.453  71.294  1.00  0.00    -0.240 N  
HETATM   18  C   UNL     1     -11.379   8.131  72.593  1.00  0.00    -0.381 C  
HETATM   19  C   UNL     1     -12.117   6.598  70.775  1.00  0.00    -0.304 C  
BRANCH  17  20
HETATM   20  C   UNL     1      -9.713   6.536  71.541  1.00  0.00    -0.168 C  
BRANCH  20  21
HETATM   21  C   UNL     1      -8.495   6.910  70.732  1.00  0.00    -0.136 A  
HETATM   22  C   UNL     1      -8.217   6.256  69.520  1.00  0.00    -0.117 A  
HETATM   23  C   UNL     1      -6.969   6.400  68.914  1.00  0.00    -0.076 A  
HETATM   24  C   UNL     1      -6.005   7.224  69.493  1.00  0.00    -0.027 A  
HETATM   25  C   UNL     1      -6.305   7.949  70.642  1.00  0.00    -0.037 A  
HETATM   26  C   UNL     1      -7.554   7.814  71.246  1.00  0.00    -0.080 A  
ENDBRANCH  20  21
ENDBRANCH  17  20
ENDBRANCH  16  17
ENDBRANCH  15  16
ENDBRANCH  14  15
ENDBRANCH  13  14
ENDBRANCH  12  13
ENDBRANCH  11  12
ENDBRANCH  10  11
ENDBRANCH   9  10
ENDBRANCH   8   9
ENDBRANCH   7   8
ENDBRANCH   6   7
ENDBRANCH   5   6
ENDBRANCH   4   5
ENDBRANCH   3   4
ENDBRANCH   2   3
TORSDOF 17
ENDMDL
MODEL      325
REMARK 921   NORMALIZED FREE ENERGY PREDICTED BY IDOCK:   -2.61 KCAL/MOL
REMARK 922        TOTAL FREE ENERGY PREDICTED BY IDOCK:   -8.04 KCAL/MOL
REMARK 923 INTER-LIGAND FREE ENERGY PREDICTED BY IDOCK:   -6.63 KCAL/MOL
REMARK 924 INTRA-LIGAND FREE ENERGY PREDICTED BY IDOCK:   -1.41 KCAL/MOL
REMARK 927      BINDING AFFINITY PREDICTED BY RF-SCORE:    0.00 PKD
ROOT
HETATM    1  C   UNL     1     -10.642  11.491  63.879  1.00  0.00    -0.448 C  
HETATM    2  C   UNL     1     -11.951  12.201  63.578  1.00  0.00    -0.619 C  
ENDROOT
BRANCH   2   3
HETATM    3  C   UNL     1     -11.931  13.632  64.109  1.00  0.00    -0.488 C  
BRANCH   3   4
HETATM    4  C   UNL     1     -10.569  13.975  64.707  1.00  0.00    -0.441 C  
BRANCH   4   5
HETATM    5  C   UNL     1     -10.693  15.131  65.690  1.00  0.00    -0.374 C  
BRANCH   5   6
HETATM    6  C   UNL     1     -11.634  14.772  66.833  1.00  0.00    -0.337 C  
BRANCH   6   7
HETATM    7  C   UNL     1     -10.850  14.180  67.996  1.00  0.00    -0.256 C  
BRANCH   7   8
HETATM    8  C   UNL     1     -11.342  12.775  68.310  1.00  0.00    -0.335 C  
BRANCH   8   9
HETATM    9  C   UNL     1     -10.439  11.740  67.653  1.00  0.00    -0.223 C  
BRANCH   9  10
HETATM   10  C   UNL     1      -9.057  11.772  68.286  1.00  0.00    -0.187 C  
BRANCH  10  11
HETATM   11  C   UNL     1      -8.069  10.957  67.469  1.00  0.00    -0.116 C  
BRANCH  11  12
HETATM   12  C   UNL     1      -7.613   9.749  68.267  1.00  0.00    -0.081 C  
BRANCH  12  13
HETATM   13  C   UNL     1      -7.259  10.128  69.700  1.00  0.00    -0.127 C  
BRANCH  13  14
HETATM   14  C   UNL     1      -7.645   9.038  70.701  1.00  0.00    -0.125 C  
BRANCH  14  15
HETATM   15  C   UNL     1      -9.102   9.084  71.171  1.00  0.00    -0.316 C  
BRANCH  15  16
HETATM   16  C   UNL     1      -9.744   7.698  71.273  1.00  0.00    -0.160 C  
BRANCH  16  17
HETATM   17  N   UNL     1     -10.388   7.216  69.960  1.00  0.00    -0.203 N  
HETATM   18  C   UNL     1     -11.599   6.336  70.244  1.00  0.00    -0.309 C  
HETATM   19  C   UNL     1     -10.818   8.411  69.109  1.00  0.00    -0.023 C  
BRANCH  17  20
HETATM   20  C   UNL     1      -9.297   6.398  69.184  1.00  0.00    -0.132 C  
BRANCH  20  21
HETATM   21  C   UNL     1      -9.462   4.901  69.272  1.00  0.00    -0.206 A  
HETATM   22  C   UNL     1      -9.431   4.252  70.517  1.00  0.00    -0.244 A  
HETATM   23  C   UNL     1      -9.309   2.864  70.584  1.00  0.00    -0.220 A  
HETATM   24  C   UNL     1      -9.252   2.113  69.411  1.00  0.00    -0.184 A  
HETATM   25  C   UNL     1      -9.377   2.739  68.175  1.00  0.00    -0.258 A  
HETATM   26  C   UNL     1      -9.508   4.125  68.104  1.00  0.00    -0.215 A  
ENDBRANCH  20  21
ENDBRANCH  17  20
ENDBRANCH  16  17
ENDBRANCH  15  16
ENDBRANCH  14  15
ENDBRANCH  13  14
ENDBRANCH  12  13
ENDBRANCH  11  12
ENDBRANCH  10  11
ENDBRANCH   9  10
ENDBRANCH   8   9
ENDBRANCH   7   8
ENDBRANCH   6   7
ENDBRANCH   5   6
ENDBRANCH   4   5
ENDBRANCH   3   4
ENDBRANCH   2   3
TORSDOF 17
ENDMDL
MODEL      326
REMARK 921   NORMALIZED FREE ENERGY PREDICTED BY IDOCK:   -2.61 KCAL/MOL
REMARK 922        TOTAL FREE ENERGY PREDICTED BY IDOCK:   -8.04 KCAL/MOL
REMARK 923 INTER-LIGAND FREE ENERGY PREDICTED BY IDOCK:   -5.36 KCAL/MOL
REMARK 924 INTRA-LIGAND FREE ENERGY PREDICTED BY IDOCK:   -2.68 KCAL/MOL
REMARK 927      BINDING AFFINITY PREDICTED BY RF-SCORE:    0.00 PKD
ROOT
HETATM    1  C   UNL     1     -12.087  14.259  64.517  1.00  0.00    -0.499 C  
HETATM    2  C   UNL     1     -12.484  13.895  65.937  1.00  0.00    -0.519 C  
ENDROOT
BRANCH   2   3
HETATM    3  C   UNL     1     -11.695  14.716  66.954  1.00  0.00    -0.366 C  
BRANCH   3   4
HETATM    4  C   UNL     1     -12.282  14.562  68.354  1.00  0.00    -0.154 C  
BRANCH   4   5
HETATM    5  C   UNL     1     -11.303  13.835  69.267  1.00  0.00    -0.325 C  
BRANCH   5   6
HETATM    6  C   UNL     1     -12.038  12.875  70.193  1.00  0.00    -0.373 C  
BRANCH   6   7
HETATM    7  C   UNL     1     -11.632  11.438  69.894  1.00  0.00    -0.402 C  
BRANCH   7   8
HETATM    8  C   UNL     1     -11.980  11.074  68.458  1.00  0.00    -0.206 C  
BRANCH   8   9
HETATM    9  C   UNL     1     -10.796  10.390  67.785  1.00  0.00    -0.351 C  
BRANCH   9  10
HETATM   10  C   UNL     1     -10.449  11.101  66.487  1.00  0.00    -0.305 C  
BRANCH  10  11
HETATM   11  C   UNL     1      -9.432  12.203  66.731  1.00  0.00    -0.213 C  
BRANCH  11  12
HETATM   12  C   UNL     1      -8.133  11.602  67.239  1.00  0.00    -0.160 C  
BRANCH  12  13
HETATM   13  C   UNL     1      -7.832  12.048  68.665  1.00  0.00    -0.091 C  
BRANCH  13  14
HETATM   14  C   UNL     1      -7.301  10.905  69.530  1.00  0.00    -0.095 C  
BRANCH  14  15
HETATM   15  C   UNL     1      -8.335   9.833  69.885  1.00  0.00    -0.198 C  
BRANCH  15  16
HETATM   16  C   UNL     1      -7.834   8.408  69.633  1.00  0.00    -0.100 C  
BRANCH  16  17
HETATM   17  N   UNL     1      -8.938   7.339  69.723  1.00  0.00    -0.142 N  
HETATM   18  C   UNL     1      -8.486   6.168  70.586  1.00  0.00    -0.134 C  
HETATM   19  C   UNL     1     -10.213   7.940  70.312  1.00  0.00    -0.200 C  
BRANCH  17  20
HETATM   20  C   UNL     1      -9.226   6.850  68.260  1.00  0.00    -0.123 C  
BRANCH  20  21
HETATM   21  C   UNL     1      -8.077   7.041  67.301  1.00  0.00    -0.115 A  
HETATM   22  C   UNL     1      -6.950   6.205  67.364  1.00  0.00    -0.069 A  
HETATM   23  C   UNL     1      -5.785   6.543  66.675  1.00  0.00    -0.014 A  
HETATM   24  C   UNL     1      -5.749   7.695  65.892  1.00  0.00    -0.037 A  
HETATM   25  C   UNL     1      -6.891   8.478  65.748  1.00  0.00    -0.067 A  
HETATM   26  C   UNL     1      -8.059   8.139  66.428  1.00  0.00    -0.106 A  
ENDBRANCH  20  21
ENDBRANCH  17  20
ENDBRANCH  16  17
ENDBRANCH  15  16
ENDBRANCH  14  15
ENDBRANCH  13  14
ENDBRANCH  12  13
ENDBRANCH  11  12
ENDBRANCH  10  11
ENDBRANCH   9  10
ENDBRANCH   8   9
ENDBRANCH   7   8
ENDBRANCH   6   7
ENDBRANCH   5   6
ENDBRANCH   4   5
ENDBRANCH   3   4
ENDBRANCH   2   3
TORSDOF 17
ENDMDL
MODEL      327
REMARK 921   NORMALIZED FREE ENERGY PREDICTED BY IDOCK:   -2.60 KCAL/MOL
REMARK 922        TOTAL FREE ENERGY PREDICTED BY IDOCK:   -8.03 KCAL/MOL
REMARK 923 INTER-LIGAND FREE ENERGY PREDICTED BY IDOCK:   -6.80 KCAL/MOL
REMARK 924 INTRA-LIGAND FREE ENERGY PREDICTED BY IDOCK:   -1.23 KCAL/MOL
REMARK 927      BINDING AFFINITY PREDICTED BY RF-SCORE:    0.00 PKD
ROOT
HETATM    1  C   UNL     1     -10.660   5.019  72.554  1.00  0.00    -0.277 C  
HETATM    2  C   UNL     1     -10.237   5.342  71.131  1.00  0.00    -0.294 C  
ENDROOT
BRANCH   2   3
HETATM    3  C   UNL     1     -11.379   5.991  70.355  1.00  0.00    -0.322 C  
BRANCH   3   4
HETATM    4  C   UNL     1     -10.843   6.870  69.228  1.00  0.00    -0.270 C  
BRANCH   4   5
HETATM    5  C   UNL     1      -9.974   7.988  69.789  1.00  0.00    -0.191 C  
BRANCH   5   6
HETATM    6  C   UNL     1      -9.655   9.017  68.712  1.00  0.00    -0.155 C  
BRANCH   6   7
HETATM    7  C   UNL     1     -10.067   8.495  67.343  1.00  0.00    -0.298 C  
BRANCH   7   8
HETATM    8  C   UNL     1      -9.037   8.882  66.293  1.00  0.00    -0.236 C  
BRANCH   8   9
HETATM    9  C   UNL     1      -8.798  10.387  66.316  1.00  0.00    -0.166 C  
BRANCH   9  10
HETATM   10  C   UNL     1      -9.120  10.990  64.958  1.00  0.00    -0.182 C  
BRANCH  10  11
HETATM   11  C   UNL     1     -10.605  10.877  64.656  1.00  0.00    -0.332 C  
BRANCH  11  12
HETATM   12  C   UNL     1     -10.962  11.776  63.485  1.00  0.00    -0.499 C  
BRANCH  12  13
HETATM   13  C   UNL     1     -12.211  12.600  63.775  1.00  0.00    -0.600 C  
BRANCH  13  14
HETATM   14  C   UNL     1     -12.485  12.731  65.273  1.00  0.00    -0.528 C  
BRANCH  14  15
HETATM   15  C   UNL     1     -12.293  14.141  65.840  1.00  0.00    -0.486 C  
BRANCH  15  16
HETATM   16  C   UNL     1     -10.852  14.645  65.721  1.00  0.00    -0.323 C  
BRANCH  16  17
HETATM   17  N   UNL     1     -10.277  15.193  67.040  1.00  0.00    -0.258 N  
HETATM   18  C   UNL     1     -11.041  16.433  67.487  1.00  0.00    -0.109 C  
HETATM   19  C   UNL     1     -10.353  14.130  68.135  1.00  0.00    -0.239 C  
BRANCH  17  20
HETATM   20  C   UNL     1      -8.773  15.552  66.774  1.00  0.00    -0.267 C  
BRANCH  20  21
HETATM   21  C   UNL     1      -7.810  15.001  67.797  1.00  0.00    -0.161 A  
HETATM   22  C   UNL     1      -7.168  13.771  67.579  1.00  0.00    -0.173 A  
HETATM   23  C   UNL     1      -6.500  13.133  68.624  1.00  0.00    -0.087 A  
HETATM   24  C   UNL     1      -6.438  13.733  69.880  1.00  0.00    -0.059 A  
HETATM   25  C   UNL     1      -6.990  14.995  70.079  1.00  0.00    -0.096 A  
HETATM   26  C   UNL     1      -7.651  15.639  69.035  1.00  0.00    -0.187 A  
ENDBRANCH  20  21
ENDBRANCH  17  20
ENDBRANCH  16  17
ENDBRANCH  15  16
ENDBRANCH  14  15
ENDBRANCH  13  14
ENDBRANCH  12  13
ENDBRANCH  11  12
ENDBRANCH  10  11
ENDBRANCH   9  10
ENDBRANCH   8   9
ENDBRANCH   7   8
ENDBRANCH   6   7
ENDBRANCH   5   6
ENDBRANCH   4   5
ENDBRANCH   3   4
ENDBRANCH   2   3
TORSDOF 17
ENDMDL
MODEL      328
REMARK 921   NORMALIZED FREE ENERGY PREDICTED BY IDOCK:   -2.59 KCAL/MOL
REMARK 922        TOTAL FREE ENERGY PREDICTED BY IDOCK:   -8.01 KCAL/MOL
REMARK 923 INTER-LIGAND FREE ENERGY PREDICTED BY IDOCK:   -6.84 KCAL/MOL
REMARK 924 INTRA-LIGAND FREE ENERGY PREDICTED BY IDOCK:   -1.17 KCAL/MOL
REMARK 927      BINDING AFFINITY PREDICTED BY RF-SCORE:    0.00 PKD
ROOT
HETATM    1  C   UNL     1      -9.445   2.622  67.987  1.00  0.00    -0.205 C  
HETATM    2  C   UNL     1      -8.831   3.226  69.238  1.00  0.00    -0.156 C  
ENDROOT
BRANCH   2   3
HETATM    3  C   UNL     1      -9.907   3.812  70.148  1.00  0.00    -0.118 C  
BRANCH   3   4
HETATM    4  C   UNL     1      -9.289   4.406  71.411  1.00  0.00    -0.206 C  
BRANCH   4   5
HETATM    5  C   UNL     1     -10.213   4.201  72.605  1.00  0.00    -0.231 C  
BRANCH   5   6
HETATM    6  C   UNL     1     -10.549   5.532  73.264  1.00  0.00    -0.285 C  
BRANCH   6   7
HETATM    7  C   UNL     1      -9.682   6.642  72.686  1.00  0.00    -0.171 C  
BRANCH   7   8
HETATM    8  C   UNL     1     -10.413   7.975  72.746  1.00  0.00    -0.415 C  
BRANCH   8   9
HETATM    9  C   UNL     1     -10.780   8.440  71.343  1.00  0.00    -0.298 C  
BRANCH   9  10
HETATM   10  C   UNL     1      -9.732   7.975  70.345  1.00  0.00    -0.178 C  
BRANCH  10  11
HETATM   11  C   UNL     1     -10.385   7.484  69.065  1.00  0.00    -0.217 C  
BRANCH  11  12
HETATM   12  C   UNL     1     -10.494   8.627  68.070  1.00  0.00    -0.254 C  
BRANCH  12  13
HETATM   13  C   UNL     1      -9.256   9.516  68.104  1.00  0.00    -0.134 C  
BRANCH  13  14
HETATM   14  C   UNL     1      -9.097  10.338  66.825  1.00  0.00    -0.161 C  
BRANCH  14  15
HETATM   15  C   UNL     1     -10.357  11.084  66.379  1.00  0.00    -0.302 C  
BRANCH  15  16
HETATM   16  C   UNL     1     -10.055  12.303  65.503  1.00  0.00    -0.256 C  
BRANCH  16  17
HETATM   17  N   UNL     1     -11.119  13.412  65.597  1.00  0.00    -0.285 N  
HETATM   18  C   UNL     1     -12.450  12.931  65.031  1.00  0.00    -0.492 C  
HETATM   19  C   UNL     1     -11.313  13.841  67.051  1.00  0.00    -0.326 C  
BRANCH  17  20
HETATM   20  C   UNL     1     -10.589  14.632  64.765  1.00  0.00    -0.353 C  
BRANCH  20  21
HETATM   21  C   UNL     1     -10.123  15.799  65.599  1.00  0.00    -0.401 A  
HETATM   22  C   UNL     1     -10.858  16.995  65.625  1.00  0.00    -0.063 A  
HETATM   23  C   UNL     1     -10.299  18.153  66.166  1.00  0.00    -0.394 A  
HETATM   24  C   UNL     1      -9.019  18.116  66.715  1.00  0.00    -0.289 A  
HETATM   25  C   UNL     1      -8.321  16.914  66.779  1.00  0.00    -0.269 A  
HETATM   26  C   UNL     1      -8.880  15.754  66.247  1.00  0.00    -0.378 A  
ENDBRANCH  20  21
ENDBRANCH  17  20
ENDBRANCH  16  17
ENDBRANCH  15  16
ENDBRANCH  14  15
ENDBRANCH  13  14
ENDBRANCH  12  13
ENDBRANCH  11  12
ENDBRANCH  10  11
ENDBRANCH   9  10
ENDBRANCH   8   9
ENDBRANCH   7   8
ENDBRANCH   6   7
ENDBRANCH   5   6
ENDBRANCH   4   5
ENDBRANCH   3   4
ENDBRANCH   2   3
TORSDOF 17
ENDMDL
MODEL      329
REMARK 921   NORMALIZED FREE ENERGY PREDICTED BY IDOCK:   -2.59 KCAL/MOL
REMARK 922        TOTAL FREE ENERGY PREDICTED BY IDOCK:   -8.00 KCAL/MOL
REMARK 923 INTER-LIGAND FREE ENERGY PREDICTED BY IDOCK:   -6.53 KCAL/MOL
REMARK 924 INTRA-LIGAND FREE ENERGY PREDICTED BY IDOCK:   -1.48 KCAL/MOL
REMARK 927      BINDING AFFINITY PREDICTED BY RF-SCORE:    0.00 PKD
ROOT
HETATM    1  C   UNL     1      -7.014   5.547  64.642  1.00  0.00    -0.049 C  
HETATM    2  C   UNL     1      -7.000   4.463  65.706  1.00  0.00    -0.059 C  
ENDROOT
BRANCH   2   3
HETATM    3  C   UNL     1      -8.420   4.067  66.103  1.00  0.00    -0.109 C  
BRANCH   3   4
HETATM    4  C   UNL     1      -9.448   4.966  65.423  1.00  0.00    -0.134 C  
BRANCH   4   5
HETATM    5  C   UNL     1     -10.655   5.177  66.327  1.00  0.00    -0.325 C  
BRANCH   5   6
HETATM    6  C   UNL     1     -10.219   5.394  67.770  1.00  0.00    -0.230 C  
BRANCH   6   7
HETATM    7  C   UNL     1     -10.958   6.581  68.373  1.00  0.00    -0.358 C  
BRANCH   7   8
HETATM    8  C   UNL     1     -11.515   6.222  69.742  1.00  0.00    -0.449 C  
BRANCH   8   9
HETATM    9  C   UNL     1     -11.563   7.457  70.634  1.00  0.00    -0.295 C  
BRANCH   9  10
HETATM   10  C   UNL     1     -10.173   7.778  71.158  1.00  0.00    -0.214 C  
BRANCH  10  11
HETATM   11  C   UNL     1      -9.819   9.232  70.893  1.00  0.00    -0.363 C  
BRANCH  11  12
HETATM   12  C   UNL     1      -8.539   9.310  70.077  1.00  0.00    -0.193 C  
BRANCH  12  13
HETATM   13  C   UNL     1      -8.592  10.446  69.064  1.00  0.00    -0.158 C  
BRANCH  13  14
HETATM   14  C   UNL     1      -7.210  10.794  68.509  1.00  0.00    -0.088 C  
BRANCH  14  15
HETATM   15  C   UNL     1      -7.089  10.710  66.985  1.00  0.00    -0.100 C  
BRANCH  15  16
HETATM   16  C   UNL     1      -8.366  11.140  66.257  1.00  0.00    -0.163 C  
BRANCH  16  17
HETATM   17  N   UNL     1      -8.833  10.140  65.184  1.00  0.00    -0.170 N  
HETATM   18  C   UNL     1      -7.857  10.109  64.014  1.00  0.00    -0.149 C  
HETATM   19  C   UNL     1      -8.953   8.738  65.780  1.00  0.00    -0.206 C  
BRANCH  17  20
HETATM   20  C   UNL     1     -10.246  10.615  64.694  1.00  0.00    -0.334 C  
BRANCH  20  21
HETATM   21  C   UNL     1     -10.686  11.944  65.256  1.00  0.00    -0.331 A  
HETATM   22  C   UNL     1     -11.371  12.007  66.481  1.00  0.00    -0.413 A  
HETATM   23  C   UNL     1     -12.013  13.184  66.867  1.00  0.00    -0.421 A  
HETATM   24  C   UNL     1     -11.947  14.312  66.053  1.00  0.00    -0.412 A  
HETATM   25  C   UNL     1     -11.192  14.286  64.884  1.00  0.00    -0.381 A  
HETATM   26  C   UNL     1     -10.542  13.115  64.499  1.00  0.00    -0.425 A  
ENDBRANCH  20  21
ENDBRANCH  17  20
ENDBRANCH  16  17
ENDBRANCH  15  16
ENDBRANCH  14  15
ENDBRANCH  13  14
ENDBRANCH  12  13
ENDBRANCH  11  12
ENDBRANCH  10  11
ENDBRANCH   9  10
ENDBRANCH   8   9
ENDBRANCH   7   8
ENDBRANCH   6   7
ENDBRANCH   5   6
ENDBRANCH   4   5
ENDBRANCH   3   4
ENDBRANCH   2   3
TORSDOF 17
ENDMDL
MODEL      330
REMARK 921   NORMALIZED FREE ENERGY PREDICTED BY IDOCK:   -2.59 KCAL/MOL
REMARK 922        TOTAL FREE ENERGY PREDICTED BY IDOCK:   -7.99 KCAL/MOL
REMARK 923 INTER-LIGAND FREE ENERGY PREDICTED BY IDOCK:   -5.68 KCAL/MOL
REMARK 924 INTRA-LIGAND FREE ENERGY PREDICTED BY IDOCK:   -2.31 KCAL/MOL
REMARK 927      BINDING AFFINITY PREDICTED BY RF-SCORE:    0.00 PKD
ROOT
HETATM    1  C   UNL     1     -11.785  16.283  69.359  1.00  0.00    -0.109 C  
HETATM    2  C   UNL     1     -12.423  15.361  70.384  1.00  0.00    -0.447 C  
ENDROOT
BRANCH   2   3
HETATM    3  C   UNL     1     -12.276  13.898  69.972  1.00  0.00    -0.408 C  
BRANCH   3   4
HETATM    4  C   UNL     1     -11.466  13.772  68.685  1.00  0.00    -0.336 C  
BRANCH   4   5
HETATM    5  C   UNL     1     -11.644  12.388  68.075  1.00  0.00    -0.403 C  
BRANCH   5   6
HETATM    6  C   UNL     1     -10.430  11.512  68.356  1.00  0.00    -0.226 C  
BRANCH   6   7
HETATM    7  C   UNL     1      -9.476  11.536  67.169  1.00  0.00    -0.186 C  
BRANCH   7   8
HETATM    8  C   UNL     1      -8.468  10.401  67.273  1.00  0.00    -0.122 C  
BRANCH   8   9
HETATM    9  C   UNL     1      -7.934  10.298  68.696  1.00  0.00    -0.111 C  
BRANCH   9  10
HETATM   10  C   UNL     1      -6.434  10.548  68.713  1.00  0.00    -0.051 C  
BRANCH  10  11
HETATM   11  C   UNL     1      -6.136  12.031  68.842  1.00  0.00    -0.067 C  
BRANCH  11  12
HETATM   12  C   UNL     1      -6.271  12.460  70.293  1.00  0.00     0.019 C  
BRANCH  12  13
HETATM   13  C   UNL     1      -6.341  13.977  70.423  1.00  0.00    -0.073 C  
BRANCH  13  14
HETATM   14  C   UNL     1      -5.952  14.689  69.128  1.00  0.00    -0.100 C  
BRANCH  14  15
HETATM   15  C   UNL     1      -6.216  16.197  69.119  1.00  0.00    -0.153 C  
BRANCH  15  16
HETATM   16  C   UNL     1      -6.379  16.770  67.708  1.00  0.00    -0.147 C  
BRANCH  16  17
HETATM   17  N   UNL     1      -7.235  18.049  67.655  1.00  0.00    -0.204 N  
HETATM   18  C   UNL     1      -6.795  19.037  68.728  1.00  0.00    -0.300 C  
HETATM   19  C   UNL     1      -7.121  18.709  66.282  1.00  0.00    -0.245 C  
BRANCH  17  20
HETATM   20  C   UNL     1      -8.724  17.617  67.898  1.00  0.00    -0.245 C  
BRANCH  20  21
HETATM   21  C   UNL     1      -9.357  16.884  66.741  1.00  0.00    -0.267 A  
HETATM   22  C   UNL     1     -10.377  17.487  65.987  1.00  0.00    -0.309 A  
HETATM   23  C   UNL     1     -11.144  16.724  65.106  1.00  0.00    -0.037 A  
HETATM   24  C   UNL     1     -10.875  15.367  64.945  1.00  0.00    -0.445 A  
HETATM   25  C   UNL     1      -9.806  14.782  65.616  1.00  0.00    -0.361 A  
HETATM   26  C   UNL     1      -9.032  15.542  66.492  1.00  0.00    -0.348 A  
ENDBRANCH  20  21
ENDBRANCH  17  20
ENDBRANCH  16  17
ENDBRANCH  15  16
ENDBRANCH  14  15
ENDBRANCH  13  14
ENDBRANCH  12  13
ENDBRANCH  11  12
ENDBRANCH  10  11
ENDBRANCH   9  10
ENDBRANCH   8   9
ENDBRANCH   7   8
ENDBRANCH   6   7
ENDBRANCH   5   6
ENDBRANCH   4   5
ENDBRANCH   3   4
ENDBRANCH   2   3
TORSDOF 17
ENDMDL
MODEL      331
REMARK 921   NORMALIZED FREE ENERGY PREDICTED BY IDOCK:   -2.59 KCAL/MOL
REMARK 922        TOTAL FREE ENERGY PREDICTED BY IDOCK:   -7.99 KCAL/MOL
REMARK 923 INTER-LIGAND FREE ENERGY PREDICTED BY IDOCK:   -6.18 KCAL/MOL
REMARK 924 INTRA-LIGAND FREE ENERGY PREDICTED BY IDOCK:   -1.81 KCAL/MOL
REMARK 927      BINDING AFFINITY PREDICTED BY RF-SCORE:    0.00 PKD
ROOT
HETATM    1  C   UNL     1     -13.140  12.688  71.660  1.00  0.00    -0.421 C  
HETATM    2  C   UNL     1     -12.282  12.558  70.414  1.00  0.00    -0.368 C  
ENDROOT
BRANCH   2   3
HETATM    3  C   UNL     1     -12.028  11.092  70.073  1.00  0.00    -0.447 C  
BRANCH   3   4
HETATM    4  C   UNL     1     -12.402  10.187  71.243  1.00  0.00    -0.501 C  
BRANCH   4   5
HETATM    5  C   UNL     1     -11.260   9.231  71.566  1.00  0.00    -0.457 C  
BRANCH   5   6
HETATM    6  C   UNL     1     -11.749   8.076  72.429  1.00  0.00    -0.444 C  
BRANCH   6   7
HETATM    7  C   UNL     1     -11.586   6.756  71.687  1.00  0.00    -0.336 C  
BRANCH   7   8
HETATM    8  C   UNL     1     -11.726   5.585  72.648  1.00  0.00    -0.240 C  
BRANCH   8   9
HETATM    9  C   UNL     1     -10.648   5.651  73.722  1.00  0.00    -0.303 C  
BRANCH   9  10
HETATM   10  C   UNL     1     -10.327   4.255  74.231  1.00  0.00    -0.287 C  
BRANCH  10  11
HETATM   11  C   UNL     1     -11.149   3.211  73.495  1.00  0.00    -0.316 C  
BRANCH  11  12
HETATM   12  C   UNL     1     -10.227   2.214  72.815  1.00  0.00    -0.220 C  
BRANCH  12  13
HETATM   13  C   UNL     1      -9.635   2.786  71.533  1.00  0.00    -0.221 C  
BRANCH  13  14
HETATM   14  C   UNL     1      -8.110   2.679  71.499  1.00  0.00    -0.058 C  
BRANCH  14  15
HETATM   15  C   UNL     1      -7.443   3.375  70.309  1.00  0.00    -0.041 C  
BRANCH  15  16
HETATM   16  C   UNL     1      -8.083   4.723  69.967  1.00  0.00    -0.069 C  
BRANCH  16  17
HETATM   17  N   UNL     1      -7.217   5.936  70.354  1.00  0.00    -0.070 N  
HETATM   18  C   UNL     1      -7.765   6.613  71.604  1.00  0.00    -0.098 C  
HETATM   19  C   UNL     1      -5.774   5.500  70.607  1.00  0.00    -0.016 C  
BRANCH  17  20
HETATM   20  C   UNL     1      -7.249   6.932  69.142  1.00  0.00    -0.090 C  
BRANCH  20  21
HETATM   21  C   UNL     1      -8.512   6.872  68.319  1.00  0.00    -0.125 A  
HETATM   22  C   UNL     1      -9.682   7.510  68.762  1.00  0.00    -0.151 A  
HETATM   23  C   UNL     1     -10.907   7.232  68.155  1.00  0.00    -0.130 A  
HETATM   24  C   UNL     1     -10.966   6.346  67.081  1.00  0.00    -0.476 A  
HETATM   25  C   UNL     1      -9.799   5.783  66.575  1.00  0.00    -0.193 A  
HETATM   26  C   UNL     1      -8.572   6.064  67.174  1.00  0.00    -0.106 A  
ENDBRANCH  20  21
ENDBRANCH  17  20
ENDBRANCH  16  17
ENDBRANCH  15  16
ENDBRANCH  14  15
ENDBRANCH  13  14
ENDBRANCH  12  13
ENDBRANCH  11  12
ENDBRANCH  10  11
ENDBRANCH   9  10
ENDBRANCH   8   9
ENDBRANCH   7   8
ENDBRANCH   6   7
ENDBRANCH   5   6
ENDBRANCH   4   5
ENDBRANCH   3   4
ENDBRANCH   2   3
TORSDOF 17
ENDMDL
MODEL      332
REMARK 921   NORMALIZED FREE ENERGY PREDICTED BY IDOCK:   -2.58 KCAL/MOL
REMARK 922        TOTAL FREE ENERGY PREDICTED BY IDOCK:   -7.99 KCAL/MOL
REMARK 923 INTER-LIGAND FREE ENERGY PREDICTED BY IDOCK:   -6.64 KCAL/MOL
REMARK 924 INTRA-LIGAND FREE ENERGY PREDICTED BY IDOCK:   -1.35 KCAL/MOL
REMARK 927      BINDING AFFINITY PREDICTED BY RF-SCORE:    0.00 PKD
ROOT
HETATM    1  C   UNL     1     -12.681  15.985  73.306  1.00  0.00    -0.644 C  
HETATM    2  C   UNL     1     -13.746  15.413  72.387  1.00  0.00    -0.644 C  
ENDROOT
BRANCH   2   3
HETATM    3  C   UNL     1     -13.733  13.887  72.418  1.00  0.00    -0.678 C  
BRANCH   3   4
HETATM    4  C   UNL     1     -13.377  13.315  71.049  1.00  0.00     0.040 C  
BRANCH   4   5
HETATM    5  C   UNL     1     -12.232  12.318  71.167  1.00  0.00    -0.102 C  
BRANCH   5   6
HETATM    6  C   UNL     1     -12.749  10.888  71.081  1.00  0.00    -0.530 C  
BRANCH   6   7
HETATM    7  C   UNL     1     -11.596   9.901  71.203  1.00  0.00    -0.468 C  
BRANCH   7   8
HETATM    8  C   UNL     1     -10.570  10.142  70.106  1.00  0.00    -0.337 C  
BRANCH   8   9
HETATM    9  C   UNL     1     -11.102   9.647  68.767  1.00  0.00    -0.093 C  
BRANCH   9  10
HETATM   10  C   UNL     1     -11.290  10.816  67.813  1.00  0.00    -0.354 C  
BRANCH  10  11
HETATM   11  C   UNL     1     -10.122  10.918  66.847  1.00  0.00    -0.253 C  
BRANCH  11  12
HETATM   12  C   UNL     1     -10.178   9.775  65.848  1.00  0.00    -0.245 C  
BRANCH  12  13
HETATM   13  C   UNL     1      -8.818   9.109  65.685  1.00  0.00    -0.222 C  
BRANCH  13  14
HETATM   14  C   UNL     1      -8.218   8.676  67.023  1.00  0.00    -0.106 C  
BRANCH  14  15
HETATM   15  C   UNL     1      -8.271   7.170  67.294  1.00  0.00    -0.119 C  
BRANCH  15  16
HETATM   16  C   UNL     1      -9.665   6.680  67.696  1.00  0.00    -0.124 C  
BRANCH  16  17
HETATM   17  N   UNL     1      -9.735   6.119  69.127  1.00  0.00    -0.137 N  
HETATM   18  C   UNL     1     -11.120   6.336  69.724  1.00  0.00    -0.406 C  
HETATM   19  C   UNL     1      -9.411   4.626  69.130  1.00  0.00    -0.142 C  
BRANCH  17  20
HETATM   20  C   UNL     1      -8.657   6.882  69.975  1.00  0.00    -0.141 C  
BRANCH  20  21
HETATM   21  C   UNL     1      -8.715   6.599  71.456  1.00  0.00    -0.131 A  
HETATM   22  C   UNL     1      -9.574   7.333  72.289  1.00  0.00    -0.173 A  
HETATM   23  C   UNL     1      -9.435   7.267  73.676  1.00  0.00    -0.293 A  
HETATM   24  C   UNL     1      -8.462   6.443  74.239  1.00  0.00    -0.136 A  
HETATM   25  C   UNL     1      -7.670   5.641  73.424  1.00  0.00    -0.095 A  
HETATM   26  C   UNL     1      -7.811   5.698  72.039  1.00  0.00    -0.106 A  
ENDBRANCH  20  21
ENDBRANCH  17  20
ENDBRANCH  16  17
ENDBRANCH  15  16
ENDBRANCH  14  15
ENDBRANCH  13  14
ENDBRANCH  12  13
ENDBRANCH  11  12
ENDBRANCH  10  11
ENDBRANCH   9  10
ENDBRANCH   8   9
ENDBRANCH   7   8
ENDBRANCH   6   7
ENDBRANCH   5   6
ENDBRANCH   4   5
ENDBRANCH   3   4
ENDBRANCH   2   3
TORSDOF 17
ENDMDL
MODEL      333
REMARK 921   NORMALIZED FREE ENERGY PREDICTED BY IDOCK:   -2.58 KCAL/MOL
REMARK 922        TOTAL FREE ENERGY PREDICTED BY IDOCK:   -7.99 KCAL/MOL
REMARK 923 INTER-LIGAND FREE ENERGY PREDICTED BY IDOCK:   -6.31 KCAL/MOL
REMARK 924 INTRA-LIGAND FREE ENERGY PREDICTED BY IDOCK:   -1.68 KCAL/MOL
REMARK 927      BINDING AFFINITY PREDICTED BY RF-SCORE:    0.00 PKD
ROOT
HETATM    1  C   UNL     1      -9.680   5.232  66.902  1.00  0.00    -0.170 C  
HETATM    2  C   UNL     1      -8.998   6.468  66.339  1.00  0.00    -0.158 C  
ENDROOT
BRANCH   2   3
HETATM    3  C   UNL     1      -9.892   7.697  66.477  1.00  0.00    -0.242 C  
BRANCH   3   4
HETATM    4  C   UNL     1      -9.922   8.190  67.921  1.00  0.00    -0.225 C  
BRANCH   4   5
HETATM    5  C   UNL     1      -8.776   9.159  68.179  1.00  0.00    -0.129 C  
BRANCH   5   6
HETATM    6  C   UNL     1      -9.181  10.220  69.194  1.00  0.00    -0.203 C  
BRANCH   6   7
HETATM    7  C   UNL     1      -9.585  11.504  68.484  1.00  0.00    -0.180 C  
BRANCH   7   8
HETATM    8  C   UNL     1     -11.065  11.786  68.694  1.00  0.00    -0.289 C  
BRANCH   8   9
HETATM    9  C   UNL     1     -11.804  11.754  67.361  1.00  0.00    -0.210 C  
BRANCH   9  10
HETATM   10  C   UNL     1     -10.813  11.827  66.211  1.00  0.00    -0.325 C  
BRANCH  10  11
HETATM   11  C   UNL     1     -11.325  12.746  65.115  1.00  0.00    -0.346 C  
BRANCH  11  12
HETATM   12  C   UNL     1     -12.282  13.768  65.705  1.00  0.00    -0.484 C  
BRANCH  12  13
HETATM   13  C   UNL     1     -11.532  14.930  66.344  1.00  0.00    -0.280 C  
BRANCH  13  14
HETATM   14  C   UNL     1     -10.715  15.724  65.324  1.00  0.00    -0.446 C  
BRANCH  14  15
HETATM   15  C   UNL     1      -9.546  16.518  65.916  1.00  0.00    -0.284 C  
BRANCH  15  16
HETATM   16  C   UNL     1      -9.754  16.886  67.388  1.00  0.00    -0.247 C  
BRANCH  16  17
HETATM   17  N   UNL     1      -9.156  18.251  67.774  1.00  0.00    -0.264 N  
HETATM   18  C   UNL     1      -8.462  18.893  66.580  1.00  0.00    -0.304 C  
HETATM   19  C   UNL     1     -10.251  19.186  68.286  1.00  0.00    -0.401 C  
BRANCH  17  20
HETATM   20  C   UNL     1      -8.120  17.992  68.924  1.00  0.00    -0.157 C  
BRANCH  20  21
HETATM   21  C   UNL     1      -7.309  16.731  68.760  1.00  0.00    -0.227 A  
HETATM   22  C   UNL     1      -6.151  16.727  67.965  1.00  0.00    -0.141 A  
HETATM   23  C   UNL     1      -5.559  15.520  67.592  1.00  0.00    -0.101 A  
HETATM   24  C   UNL     1      -6.096  14.314  68.037  1.00  0.00    -0.153 A  
HETATM   25  C   UNL     1      -7.186  14.312  68.902  1.00  0.00    -0.125 A  
HETATM   26  C   UNL     1      -7.775  15.516  69.284  1.00  0.00    -0.223 A  
ENDBRANCH  20  21
ENDBRANCH  17  20
ENDBRANCH  16  17
ENDBRANCH  15  16
ENDBRANCH  14  15
ENDBRANCH  13  14
ENDBRANCH  12  13
ENDBRANCH  11  12
ENDBRANCH  10  11
ENDBRANCH   9  10
ENDBRANCH   8   9
ENDBRANCH   7   8
ENDBRANCH   6   7
ENDBRANCH   5   6
ENDBRANCH   4   5
ENDBRANCH   3   4
ENDBRANCH   2   3
TORSDOF 17
ENDMDL
MODEL      334
REMARK 921   NORMALIZED FREE ENERGY PREDICTED BY IDOCK:   -2.58 KCAL/MOL
REMARK 922        TOTAL FREE ENERGY PREDICTED BY IDOCK:   -7.98 KCAL/MOL
REMARK 923 INTER-LIGAND FREE ENERGY PREDICTED BY IDOCK:   -6.57 KCAL/MOL
REMARK 924 INTRA-LIGAND FREE ENERGY PREDICTED BY IDOCK:   -1.40 KCAL/MOL
REMARK 927      BINDING AFFINITY PREDICTED BY RF-SCORE:    0.00 PKD
ROOT
HETATM    1  C   UNL     1      -7.826  16.069  69.076  1.00  0.00    -0.222 C  
HETATM    2  C   UNL     1      -7.158  14.816  68.537  1.00  0.00    -0.110 C  
ENDROOT
BRANCH   2   3
HETATM    3  C   UNL     1      -8.192  13.838  67.985  1.00  0.00    -0.164 C  
BRANCH   3   4
HETATM    4  C   UNL     1      -9.404  14.581  67.429  1.00  0.00    -0.197 C  
BRANCH   4   5
HETATM    5  C   UNL     1     -10.664  13.739  67.584  1.00  0.00    -0.256 C  
BRANCH   5   6
HETATM    6  C   UNL     1     -11.743  14.512  68.331  1.00  0.00    -0.367 C  
BRANCH   6   7
HETATM    7  C   UNL     1     -11.435  14.541  69.822  1.00  0.00    -0.327 C  
BRANCH   7   8
HETATM    8  C   UNL     1     -12.717  14.435  70.633  1.00  0.00    -0.421 C  
BRANCH   8   9
HETATM    9  C   UNL     1     -12.654  13.232  71.567  1.00  0.00    -0.311 C  
BRANCH   9  10
HETATM   10  C   UNL     1     -12.746  11.942  70.768  1.00  0.00    -0.242 C  
BRANCH  10  11
HETATM   11  C   UNL     1     -13.008  10.759  71.683  1.00  0.00    -0.581 C  
BRANCH  11  12
HETATM   12  C   UNL     1     -12.267   9.536  71.169  1.00  0.00    -0.421 C  
BRANCH  12  13
HETATM   13  C   UNL     1     -10.841   9.882  70.755  1.00  0.00    -0.387 C  
BRANCH  13  14
HETATM   14  C   UNL     1     -10.648   9.824  69.240  1.00  0.00    -0.240 C  
BRANCH  14  15
HETATM   15  C   UNL     1      -9.745   8.688  68.750  1.00  0.00    -0.171 C  
BRANCH  15  16
HETATM   16  C   UNL     1     -10.173   7.314  69.270  1.00  0.00    -0.193 C  
BRANCH  16  17
HETATM   17  N   UNL     1      -9.121   6.212  69.048  1.00  0.00    -0.124 N  
HETATM   18  C   UNL     1      -9.784   4.843  68.957  1.00  0.00    -0.175 C  
HETATM   19  C   UNL     1      -8.334   6.479  67.765  1.00  0.00    -0.119 C  
BRANCH  17  20
HETATM   20  C   UNL     1      -8.141   6.256  70.272  1.00  0.00    -0.116 C  
BRANCH  20  21
HETATM   21  C   UNL     1      -8.825   6.317  71.616  1.00  0.00    -0.138 A  
HETATM   22  C   UNL     1      -9.634   5.256  72.052  1.00  0.00    -0.189 A  
HETATM   23  C   UNL     1     -10.476   5.420  73.152  1.00  0.00    -0.251 A  
HETATM   24  C   UNL     1     -10.489   6.629  73.844  1.00  0.00    -0.351 A  
HETATM   25  C   UNL     1      -9.621   7.653  73.477  1.00  0.00    -0.348 A  
HETATM   26  C   UNL     1      -8.773   7.490  72.383  1.00  0.00    -0.155 A  
ENDBRANCH  20  21
ENDBRANCH  17  20
ENDBRANCH  16  17
ENDBRANCH  15  16
ENDBRANCH  14  15
ENDBRANCH  13  14
ENDBRANCH  12  13
ENDBRANCH  11  12
ENDBRANCH  10  11
ENDBRANCH   9  10
ENDBRANCH   8   9
ENDBRANCH   7   8
ENDBRANCH   6   7
ENDBRANCH   5   6
ENDBRANCH   4   5
ENDBRANCH   3   4
ENDBRANCH   2   3
TORSDOF 17
ENDMDL
MODEL      335
REMARK 921   NORMALIZED FREE ENERGY PREDICTED BY IDOCK:   -2.57 KCAL/MOL
REMARK 922        TOTAL FREE ENERGY PREDICTED BY IDOCK:   -7.97 KCAL/MOL
REMARK 923 INTER-LIGAND FREE ENERGY PREDICTED BY IDOCK:   -6.82 KCAL/MOL
REMARK 924 INTRA-LIGAND FREE ENERGY PREDICTED BY IDOCK:   -1.15 KCAL/MOL
REMARK 927      BINDING AFFINITY PREDICTED BY RF-SCORE:    0.00 PKD
ROOT
HETATM    1  C   UNL     1     -11.358   6.323  69.304  1.00  0.00    -0.411 C  
HETATM    2  C   UNL     1     -10.526   5.352  68.485  1.00  0.00    -0.192 C  
ENDROOT
BRANCH   2   3
HETATM    3  C   UNL     1     -10.620   5.671  66.995  1.00  0.00    -0.358 C  
BRANCH   3   4
HETATM    4  C   UNL     1      -9.795   4.685  66.172  1.00  0.00    -0.240 C  
BRANCH   4   5
HETATM    5  C   UNL     1      -8.905   5.428  65.185  1.00  0.00    -0.111 C  
BRANCH   5   6
HETATM    6  C   UNL     1      -8.382   6.723  65.794  1.00  0.00    -0.143 C  
BRANCH   6   7
HETATM    7  C   UNL     1      -7.098   6.461  66.569  1.00  0.00    -0.068 C  
BRANCH   7   8
HETATM    8  C   UNL     1      -6.806   7.612  67.520  1.00  0.00    -0.069 C  
BRANCH   8   9
HETATM    9  C   UNL     1      -8.005   7.869  68.423  1.00  0.00    -0.122 C  
BRANCH   9  10
HETATM   10  C   UNL     1      -7.969   9.294  68.951  1.00  0.00    -0.098 C  
BRANCH  10  11
HETATM   11  C   UNL     1      -8.895  10.191  68.146  1.00  0.00    -0.126 C  
BRANCH  11  12
HETATM   12  C   UNL     1     -10.341   9.817  68.421  1.00  0.00    -0.230 C  
BRANCH  12  13
HETATM   13  C   UNL     1     -10.971  10.744  69.453  1.00  0.00    -0.305 C  
BRANCH  13  14
HETATM   14  C   UNL     1     -11.894  11.782  68.814  1.00  0.00    -0.380 C  
BRANCH  14  15
HETATM   15  C   UNL     1     -11.240  12.643  67.729  1.00  0.00    -0.319 C  
BRANCH  15  16
HETATM   16  C   UNL     1     -10.241  13.659  68.291  1.00  0.00    -0.243 C  
BRANCH  16  17
HETATM   17  N   UNL     1     -10.533  15.111  67.869  1.00  0.00    -0.242 N  
HETATM   18  C   UNL     1     -10.690  15.212  66.357  1.00  0.00    -0.317 C  
HETATM   19  C   UNL     1     -11.807  15.616  68.545  1.00  0.00    -0.237 C  
BRANCH  17  20
HETATM   20  C   UNL     1      -9.317  15.982  68.343  1.00  0.00    -0.207 C  
BRANCH  20  21
HETATM   21  C   UNL     1      -9.406  17.438  67.957  1.00  0.00    -0.276 A  
HETATM   22  C   UNL     1      -9.831  18.398  68.890  1.00  0.00    -0.350 A  
HETATM   23  C   UNL     1     -10.174  19.683  68.470  1.00  0.00    -0.529 A  
HETATM   24  C   UNL     1     -10.061  20.029  67.125  1.00  0.00    -0.587 A  
HETATM   25  C   UNL     1      -9.551  19.113  66.209  1.00  0.00    -0.386 A  
HETATM   26  C   UNL     1      -9.200  17.831  66.627  1.00  0.00    -0.280 A  
ENDBRANCH  20  21
ENDBRANCH  17  20
ENDBRANCH  16  17
ENDBRANCH  15  16
ENDBRANCH  14  15
ENDBRANCH  13  14
ENDBRANCH  12  13
ENDBRANCH  11  12
ENDBRANCH  10  11
ENDBRANCH   9  10
ENDBRANCH   8   9
ENDBRANCH   7   8
ENDBRANCH   6   7
ENDBRANCH   5   6
ENDBRANCH   4   5
ENDBRANCH   3   4
ENDBRANCH   2   3
TORSDOF 17
ENDMDL
MODEL      336
REMARK 921   NORMALIZED FREE ENERGY PREDICTED BY IDOCK:   -2.57 KCAL/MOL
REMARK 922        TOTAL FREE ENERGY PREDICTED BY IDOCK:   -7.97 KCAL/MOL
REMARK 923 INTER-LIGAND FREE ENERGY PREDICTED BY IDOCK:   -6.15 KCAL/MOL
REMARK 924 INTRA-LIGAND FREE ENERGY PREDICTED BY IDOCK:   -1.81 KCAL/MOL
REMARK 927      BINDING AFFINITY PREDICTED BY RF-SCORE:    0.00 PKD
ROOT
HETATM    1  C   UNL     1     -12.929  15.656  71.395  1.00  0.00    -0.555 C  
HETATM    2  C   UNL     1     -12.456  14.768  70.258  1.00  0.00    -0.393 C  
ENDROOT
BRANCH   2   3
HETATM    3  C   UNL     1     -12.524  13.294  70.649  1.00  0.00    -0.373 C  
BRANCH   3   4
HETATM    4  C   UNL     1     -11.938  12.410  69.553  1.00  0.00    -0.324 C  
BRANCH   4   5
HETATM    5  C   UNL     1     -12.523  11.005  69.628  1.00  0.00    -0.208 C  
BRANCH   5   6
HETATM    6  C   UNL     1     -12.850  10.632  71.068  1.00  0.00    -0.496 C  
BRANCH   6   7
HETATM    7  C   UNL     1     -11.784   9.698  71.626  1.00  0.00    -0.439 C  
BRANCH   7   8
HETATM    8  C   UNL     1     -12.399   8.365  72.025  1.00  0.00    -0.413 C  
BRANCH   8   9
HETATM    9  C   UNL     1     -11.794   7.236  71.200  1.00  0.00    -0.345 C  
BRANCH   9  10
HETATM   10  C   UNL     1     -11.782   5.947  72.006  1.00  0.00    -0.255 C  
BRANCH  10  11
HETATM   11  C   UNL     1     -10.856   6.067  73.203  1.00  0.00    -0.287 C  
BRANCH  11  12
HETATM   12  C   UNL     1      -9.842   4.936  73.186  1.00  0.00    -0.173 C  
BRANCH  12  13
HETATM   13  C   UNL     1      -8.424   5.454  73.396  1.00  0.00    -0.116 C  
BRANCH  13  14
HETATM   14  C   UNL     1      -7.508   5.135  72.214  1.00  0.00    -0.094 C  
BRANCH  14  15
HETATM   15  C   UNL     1      -8.176   4.361  71.074  1.00  0.00    -0.082 C  
BRANCH  15  16
HETATM   16  C   UNL     1      -7.269   4.190  69.852  1.00  0.00    -0.046 C  
BRANCH  16  17
HETATM   17  N   UNL     1      -7.780   4.916  68.595  1.00  0.00    -0.077 N  
HETATM   18  C   UNL     1      -6.831   6.040  68.198  1.00  0.00    -0.070 C  
HETATM   19  C   UNL     1      -7.917   3.935  67.432  1.00  0.00    -0.091 C  
BRANCH  17  20
HETATM   20  C   UNL     1      -9.193   5.503  68.943  1.00  0.00    -0.119 C  
BRANCH  20  21
HETATM   21  C   UNL     1      -9.423   6.910  68.450  1.00  0.00    -0.128 A  
HETATM   22  C   UNL     1     -10.066   7.138  67.222  1.00  0.00    -0.278 A  
HETATM   23  C   UNL     1     -10.037   8.404  66.638  1.00  0.00    -0.358 A  
HETATM   24  C   UNL     1      -9.398   9.457  67.291  1.00  0.00    -0.159 A  
HETATM   25  C   UNL     1      -8.842   9.262  68.551  1.00  0.00    -0.129 A  
HETATM   26  C   UNL     1      -8.876   8.000  69.142  1.00  0.00    -0.145 A  
ENDBRANCH  20  21
ENDBRANCH  17  20
ENDBRANCH  16  17
ENDBRANCH  15  16
ENDBRANCH  14  15
ENDBRANCH  13  14
ENDBRANCH  12  13
ENDBRANCH  11  12
ENDBRANCH  10  11
ENDBRANCH   9  10
ENDBRANCH   8   9
ENDBRANCH   7   8
ENDBRANCH   6   7
ENDBRANCH   5   6
ENDBRANCH   4   5
ENDBRANCH   3   4
ENDBRANCH   2   3
TORSDOF 17
ENDMDL
MODEL      337
REMARK 921   NORMALIZED FREE ENERGY PREDICTED BY IDOCK:   -2.57 KCAL/MOL
REMARK 922        TOTAL FREE ENERGY PREDICTED BY IDOCK:   -7.96 KCAL/MOL
REMARK 923 INTER-LIGAND FREE ENERGY PREDICTED BY IDOCK:   -6.22 KCAL/MOL
REMARK 924 INTRA-LIGAND FREE ENERGY PREDICTED BY IDOCK:   -1.73 KCAL/MOL
REMARK 927      BINDING AFFINITY PREDICTED BY RF-SCORE:    0.00 PKD
ROOT
HETATM    1  C   UNL     1      -6.586  16.776  69.176  1.00  0.00    -0.214 C  
HETATM    2  C   UNL     1      -6.778  16.687  67.672  1.00  0.00    -0.161 C  
ENDROOT
BRANCH   2   3
HETATM    3  C   UNL     1      -7.682  17.809  67.168  1.00  0.00    -0.224 C  
BRANCH   3   4
HETATM    4  C   UNL     1      -9.004  17.253  66.646  1.00  0.00    -0.279 C  
BRANCH   4   5
HETATM    5  C   UNL     1     -10.143  17.603  67.595  1.00  0.00    -0.339 C  
BRANCH   5   6
HETATM    6  C   UNL     1     -10.250  16.577  68.715  1.00  0.00    -0.267 C  
BRANCH   6   7
HETATM    7  C   UNL     1     -11.013  15.349  68.236  1.00  0.00    -0.288 C  
BRANCH   7   8
HETATM    8  C   UNL     1     -11.864  14.779  69.360  1.00  0.00    -0.360 C  
BRANCH   8   9
HETATM    9  C   UNL     1     -11.850  15.716  70.561  1.00  0.00    -0.402 C  
BRANCH   9  10
HETATM   10  C   UNL     1     -13.066  15.462  71.438  1.00  0.00    -0.563 C  
BRANCH  10  11
HETATM   11  C   UNL     1     -13.673  14.102  71.138  1.00  0.00    -0.206 C  
BRANCH  11  12
HETATM   12  C   UNL     1     -13.210  13.091  72.173  1.00  0.00    -0.558 C  
BRANCH  12  13
HETATM   13  C   UNL     1     -13.157  11.683  71.593  1.00  0.00    -0.456 C  
BRANCH  13  14
HETATM   14  C   UNL     1     -12.560  11.657  70.186  1.00  0.00    -0.106 C  
BRANCH  14  15
HETATM   15  C   UNL     1     -11.152  11.060  70.096  1.00  0.00    -0.175 C  
BRANCH  15  16
HETATM   16  C   UNL     1     -10.261  11.774  69.077  1.00  0.00    -0.021 C  
BRANCH  16  17
HETATM   17  N   UNL     1     -10.064  10.987  67.768  1.00  0.00    -0.175 N  
HETATM   18  C   UNL     1     -10.425   9.520  67.962  1.00  0.00    -0.230 C  
HETATM   19  C   UNL     1     -10.930  11.579  66.657  1.00  0.00    -0.296 C  
BRANCH  17  20
HETATM   20  C   UNL     1      -8.552  11.122  67.371  1.00  0.00    -0.137 C  
BRANCH  20  21
HETATM   21  C   UNL     1      -7.664  11.652  68.469  1.00  0.00    -0.134 A  
HETATM   22  C   UNL     1      -7.309  13.011  68.506  1.00  0.00    -0.115 A  
HETATM   23  C   UNL     1      -6.284  13.447  69.345  1.00  0.00    -0.109 A  
HETATM   24  C   UNL     1      -5.632  12.539  70.177  1.00  0.00    -0.140 A  
HETATM   25  C   UNL     1      -6.041  11.210  70.216  1.00  0.00    -0.144 A  
HETATM   26  C   UNL     1      -7.071  10.772  69.385  1.00  0.00    -0.122 A  
ENDBRANCH  20  21
ENDBRANCH  17  20
ENDBRANCH  16  17
ENDBRANCH  15  16
ENDBRANCH  14  15
ENDBRANCH  13  14
ENDBRANCH  12  13
ENDBRANCH  11  12
ENDBRANCH  10  11
ENDBRANCH   9  10
ENDBRANCH   8   9
ENDBRANCH   7   8
ENDBRANCH   6   7
ENDBRANCH   5   6
ENDBRANCH   4   5
ENDBRANCH   3   4
ENDBRANCH   2   3
TORSDOF 17
ENDMDL
MODEL      338
REMARK 921   NORMALIZED FREE ENERGY PREDICTED BY IDOCK:   -2.56 KCAL/MOL
REMARK 922        TOTAL FREE ENERGY PREDICTED BY IDOCK:   -7.94 KCAL/MOL
REMARK 923 INTER-LIGAND FREE ENERGY PREDICTED BY IDOCK:   -7.08 KCAL/MOL
REMARK 924 INTRA-LIGAND FREE ENERGY PREDICTED BY IDOCK:   -0.85 KCAL/MOL
REMARK 927      BINDING AFFINITY PREDICTED BY RF-SCORE:    0.00 PKD
ROOT
HETATM    1  C   UNL     1      -9.061   2.336  67.208  1.00  0.00    -0.166 C  
HETATM    2  C   UNL     1      -8.423   3.492  67.958  1.00  0.00    -0.109 C  
ENDROOT
BRANCH   2   3
HETATM    3  C   UNL     1      -9.485   4.381  68.599  1.00  0.00    -0.219 C  
BRANCH   3   4
HETATM    4  C   UNL     1      -9.076   4.787  70.013  1.00  0.00    -0.155 C  
BRANCH   4   5
HETATM    5  C   UNL     1     -10.146   4.377  71.017  1.00  0.00    -0.195 C  
BRANCH   5   6
HETATM    6  C   UNL     1     -10.785   5.602  71.658  1.00  0.00    -0.313 C  
BRANCH   6   7
HETATM    7  C   UNL     1      -9.988   6.853  71.316  1.00  0.00    -0.189 C  
BRANCH   7   8
HETATM    8  C   UNL     1     -10.875   8.087  71.392  1.00  0.00    -0.271 C  
BRANCH   8   9
HETATM    9  C   UNL     1     -11.168   8.613  69.993  1.00  0.00    -0.098 C  
BRANCH   9  10
HETATM   10  C   UNL     1     -10.117   8.116  69.014  1.00  0.00    -0.211 C  
BRANCH  10  11
HETATM   11  C   UNL     1     -10.320   8.737  67.642  1.00  0.00    -0.317 C  
BRANCH  11  12
HETATM   12  C   UNL     1      -9.392   9.928  67.473  1.00  0.00    -0.159 C  
BRANCH  12  13
HETATM   13  C   UNL     1      -9.876  11.130  68.276  1.00  0.00    -0.195 C  
BRANCH  13  14
HETATM   14  C   UNL     1      -9.031  12.378  68.018  1.00  0.00    -0.194 C  
BRANCH  14  15
HETATM   15  C   UNL     1      -9.389  13.144  66.740  1.00  0.00    -0.244 C  
BRANCH  15  16
HETATM   16  C   UNL     1      -9.298  14.663  66.906  1.00  0.00    -0.243 C  
BRANCH  16  17
HETATM   17  N   UNL     1     -10.638  15.390  66.696  1.00  0.00    -0.302 N  
HETATM   18  C   UNL     1     -10.675  16.070  65.333  1.00  0.00    -0.383 C  
HETATM   19  C   UNL     1     -11.800  14.403  66.801  1.00  0.00    -0.410 C  
BRANCH  17  20
HETATM   20  C   UNL     1     -10.767  16.461  67.836  1.00  0.00    -0.332 C  
BRANCH  20  21
HETATM   21  C   UNL     1      -9.954  17.712  67.611  1.00  0.00    -0.323 A  
HETATM   22  C   UNL     1      -8.608  17.769  68.010  1.00  0.00    -0.250 A  
HETATM   23  C   UNL     1      -7.940  18.992  68.056  1.00  0.00    -0.322 A  
HETATM   24  C   UNL     1      -8.597  20.159  67.670  1.00  0.00    -0.369 A  
HETATM   25  C   UNL     1      -9.899  20.098  67.183  1.00  0.00    -0.586 A  
HETATM   26  C   UNL     1     -10.568  18.877  67.128  1.00  0.00    -0.531 A  
ENDBRANCH  20  21
ENDBRANCH  17  20
ENDBRANCH  16  17
ENDBRANCH  15  16
ENDBRANCH  14  15
ENDBRANCH  13  14
ENDBRANCH  12  13
ENDBRANCH  11  12
ENDBRANCH  10  11
ENDBRANCH   9  10
ENDBRANCH   8   9
ENDBRANCH   7   8
ENDBRANCH   6   7
ENDBRANCH   5   6
ENDBRANCH   4   5
ENDBRANCH   3   4
ENDBRANCH   2   3
TORSDOF 17
ENDMDL
MODEL      339
REMARK 921   NORMALIZED FREE ENERGY PREDICTED BY IDOCK:   -2.50 KCAL/MOL
REMARK 922        TOTAL FREE ENERGY PREDICTED BY IDOCK:   -7.82 KCAL/MOL
REMARK 923 INTER-LIGAND FREE ENERGY PREDICTED BY IDOCK:   -6.64 KCAL/MOL
REMARK 924 INTRA-LIGAND FREE ENERGY PREDICTED BY IDOCK:   -1.18 KCAL/MOL
REMARK 927      BINDING AFFINITY PREDICTED BY RF-SCORE:    0.00 PKD
ROOT
HETATM    1  C   UNL     1      -6.055   9.732  62.641  1.00  0.00    -0.103 C  
HETATM    2  C   UNL     1      -6.044  10.369  64.020  1.00  0.00    -0.082 C  
ENDROOT
BRANCH   2   3
HETATM    3  C   UNL     1      -7.005   9.649  64.963  1.00  0.00    -0.111 C  
BRANCH   3   4
HETATM    4  C   UNL     1      -8.051  10.613  65.517  1.00  0.00    -0.129 C  
BRANCH   4   5
HETATM    5  C   UNL     1      -9.456  10.102  65.225  1.00  0.00    -0.306 C  
BRANCH   5   6
HETATM    6  C   UNL     1      -9.882  10.469  63.810  1.00  0.00    -0.363 C  
BRANCH   6   7
HETATM    7  C   UNL     1      -9.941  11.982  63.651  1.00  0.00    -0.387 C  
BRANCH   7   8
HETATM    8  C   UNL     1     -11.279  12.517  64.137  1.00  0.00    -0.437 C  
BRANCH   8   9
HETATM    9  C   UNL     1     -11.091  13.337  65.407  1.00  0.00    -0.300 C  
BRANCH   9  10
HETATM   10  C   UNL     1     -12.134  12.949  66.442  1.00  0.00    -0.400 C  
BRANCH  10  11
HETATM   11  C   UNL     1     -11.568  11.938  67.425  1.00  0.00    -0.367 C  
BRANCH  11  12
HETATM   12  C   UNL     1     -10.944  12.662  68.606  1.00  0.00    -0.292 C  
BRANCH  12  13
HETATM   13  C   UNL     1     -11.663  12.330  69.908  1.00  0.00    -0.346 C  
BRANCH  13  14
HETATM   14  C   UNL     1     -12.270  10.927  69.893  1.00  0.00    -0.408 C  
BRANCH  14  15
HETATM   15  C   UNL     1     -11.765   9.996  70.999  1.00  0.00    -0.479 C  
BRANCH  15  16
HETATM   16  C   UNL     1     -11.725   8.525  70.574  1.00  0.00    -0.072 C  
BRANCH  16  17
HETATM   17  N   UNL     1     -10.842   7.644  71.476  1.00  0.00    -0.226 N  
HETATM   18  C   UNL     1     -10.318   8.443  72.663  1.00  0.00    -0.244 C  
HETATM   19  C   UNL     1     -11.636   6.442  71.986  1.00  0.00    -0.321 C  
BRANCH  17  20
HETATM   20  C   UNL     1      -9.646   7.137  70.597  1.00  0.00    -0.165 C  
BRANCH  20  21
HETATM   21  C   UNL     1      -9.287   5.687  70.809  1.00  0.00    -0.194 A  
HETATM   22  C   UNL     1      -9.689   4.711  69.881  1.00  0.00    -0.279 A  
HETATM   23  C   UNL     1      -9.601   3.357  70.204  1.00  0.00    -0.211 A  
HETATM   24  C   UNL     1      -9.081   2.967  71.437  1.00  0.00    -0.175 A  
HETATM   25  C   UNL     1      -8.594   3.923  72.323  1.00  0.00    -0.112 A  
HETATM   26  C   UNL     1      -8.672   5.277  72.001  1.00  0.00    -0.133 A  
ENDBRANCH  20  21
ENDBRANCH  17  20
ENDBRANCH  16  17
ENDBRANCH  15  16
ENDBRANCH  14  15
ENDBRANCH  13  14
ENDBRANCH  12  13
ENDBRANCH  11  12
ENDBRANCH  10  11
ENDBRANCH   9  10
ENDBRANCH   8   9
ENDBRANCH   7   8
ENDBRANCH   6   7
ENDBRANCH   5   6
ENDBRANCH   4   5
ENDBRANCH   3   4
ENDBRANCH   2   3
TORSDOF 17
ENDMDL
MODEL      340
REMARK 921   NORMALIZED FREE ENERGY PREDICTED BY IDOCK:   -2.50 KCAL/MOL
REMARK 922        TOTAL FREE ENERGY PREDICTED BY IDOCK:   -7.82 KCAL/MOL
REMARK 923 INTER-LIGAND FREE ENERGY PREDICTED BY IDOCK:   -5.45 KCAL/MOL
REMARK 924 INTRA-LIGAND FREE ENERGY PREDICTED BY IDOCK:   -2.37 KCAL/MOL
REMARK 927      BINDING AFFINITY PREDICTED BY RF-SCORE:    0.00 PKD
ROOT
HETATM    1  C   UNL     1      -7.906   5.755  62.715  1.00  0.00    -0.094 C  
HETATM    2  C   UNL     1      -8.240   6.272  64.104  1.00  0.00    -0.010 C  
ENDROOT
BRANCH   2   3
HETATM    3  C   UNL     1      -7.030   6.179  65.029  1.00  0.00    -0.055 C  
BRANCH   3   4
HETATM    4  C   UNL     1      -7.426   6.452  66.477  1.00  0.00    -0.086 C  
BRANCH   4   5
HETATM    5  C   UNL     1      -8.693   7.296  66.534  1.00  0.00    -0.141 C  
BRANCH   5   6
HETATM    6  C   UNL     1      -9.521   6.949  67.764  1.00  0.00    -0.128 C  
BRANCH   6   7
HETATM    7  C   UNL     1      -8.782   7.359  69.031  1.00  0.00    -0.133 C  
BRANCH   7   8
HETATM    8  C   UNL     1      -9.419   6.713  70.252  1.00  0.00    -0.166 C  
BRANCH   8   9
HETATM    9  C   UNL     1      -9.289   7.629  71.462  1.00  0.00    -0.157 C  
BRANCH   9  10
HETATM   10  C   UNL     1      -9.901   8.987  71.160  1.00  0.00    -0.371 C  
BRANCH  10  11
HETATM   11  C   UNL     1     -11.367   9.019  71.557  1.00  0.00    -0.416 C  
BRANCH  11  12
HETATM   12  C   UNL     1     -12.132   9.951  70.633  1.00  0.00    -0.343 C  
BRANCH  12  13
HETATM   13  C   UNL     1     -12.319  11.328  71.260  1.00  0.00    -0.375 C  
BRANCH  13  14
HETATM   14  C   UNL     1     -12.496  12.424  70.209  1.00  0.00    -0.152 C  
BRANCH  14  15
HETATM   15  C   UNL     1     -11.749  12.181  68.894  1.00  0.00    -0.381 C  
BRANCH  15  16
HETATM   16  C   UNL     1     -10.867  13.362  68.478  1.00  0.00    -0.265 C  
BRANCH  16  17
HETATM   17  N   UNL     1      -9.683  12.963  67.579  1.00  0.00    -0.201 N  
HETATM   18  C   UNL     1      -9.676  13.787  66.298  1.00  0.00    -0.284 C  
HETATM   19  C   UNL     1      -8.361  13.167  68.319  1.00  0.00    -0.152 C  
BRANCH  17  20
HETATM   20  C   UNL     1      -9.854  11.440  67.240  1.00  0.00    -0.189 C  
BRANCH  20  21
HETATM   21  C   UNL     1      -9.209  11.014  65.944  1.00  0.00    -0.220 A  
HETATM   22  C   UNL     1      -9.994  10.754  64.809  1.00  0.00    -0.382 A  
HETATM   23  C   UNL     1      -9.440  10.105  63.705  1.00  0.00    -0.330 A  
HETATM   24  C   UNL     1      -8.094   9.745  63.713  1.00  0.00    -0.149 A  
HETATM   25  C   UNL     1      -7.287  10.083  64.794  1.00  0.00    -0.143 A  
HETATM   26  C   UNL     1      -7.834  10.739  65.896  1.00  0.00    -0.131 A  
ENDBRANCH  20  21
ENDBRANCH  17  20
ENDBRANCH  16  17
ENDBRANCH  15  16
ENDBRANCH  14  15
ENDBRANCH  13  14
ENDBRANCH  12  13
ENDBRANCH  11  12
ENDBRANCH  10  11
ENDBRANCH   9  10
ENDBRANCH   8   9
ENDBRANCH   7   8
ENDBRANCH   6   7
ENDBRANCH   5   6
ENDBRANCH   4   5
ENDBRANCH   3   4
ENDBRANCH   2   3
TORSDOF 17
ENDMDL
MODEL      341
REMARK 921   NORMALIZED FREE ENERGY PREDICTED BY IDOCK:   -2.50 KCAL/MOL
REMARK 922        TOTAL FREE ENERGY PREDICTED BY IDOCK:   -7.82 KCAL/MOL
REMARK 923 INTER-LIGAND FREE ENERGY PREDICTED BY IDOCK:   -6.56 KCAL/MOL
REMARK 924 INTRA-LIGAND FREE ENERGY PREDICTED BY IDOCK:   -1.26 KCAL/MOL
REMARK 927      BINDING AFFINITY PREDICTED BY RF-SCORE:    0.00 PKD
ROOT
HETATM    1  C   UNL     1      -7.472   4.814  74.094  1.00  0.00    -0.082 C  
HETATM    2  C   UNL     1      -8.777   4.726  73.322  1.00  0.00    -0.104 C  
ENDROOT
BRANCH   2   3
HETATM    3  C   UNL     1      -9.936   5.289  74.140  1.00  0.00    -0.223 C  
BRANCH   3   4
HETATM    4  C   UNL     1     -11.245   5.208  73.360  1.00  0.00    -0.358 C  
BRANCH   4   5
HETATM    5  C   UNL     1     -11.344   6.356  72.363  1.00  0.00    -0.324 C  
BRANCH   5   6
HETATM    6  C   UNL     1     -10.988   7.681  73.026  1.00  0.00    -0.457 C  
BRANCH   6   7
HETATM    7  C   UNL     1     -11.103   8.821  72.023  1.00  0.00    -0.441 C  
BRANCH   7   8
HETATM    8  C   UNL     1     -11.266   8.275  70.612  1.00  0.00    -0.270 C  
BRANCH   8   9
HETATM    9  C   UNL     1     -10.376   9.044  69.643  1.00  0.00    -0.217 C  
BRANCH   9  10
HETATM   10  C   UNL     1      -9.320   9.826  70.408  1.00  0.00    -0.184 C  
BRANCH  10  11
HETATM   11  C   UNL     1      -7.935   9.548  69.850  1.00  0.00    -0.154 C  
BRANCH  11  12
HETATM   12  C   UNL     1      -7.859  10.009  68.405  1.00  0.00    -0.089 C  
BRANCH  12  13
HETATM   13  C   UNL     1      -7.056  11.298  68.271  1.00  0.00    -0.074 C  
BRANCH  13  14
HETATM   14  C   UNL     1      -7.674  12.264  67.260  1.00  0.00    -0.161 C  
BRANCH  14  15
HETATM   15  C   UNL     1      -9.194  12.149  67.106  1.00  0.00    -0.193 C  
BRANCH  15  16
HETATM   16  C   UNL     1      -9.847  13.443  66.612  1.00  0.00    -0.278 C  
BRANCH  16  17
HETATM   17  N   UNL     1     -11.363  13.508  66.871  1.00  0.00    -0.315 N  
HETATM   18  C   UNL     1     -12.132  12.833  65.742  1.00  0.00    -0.448 C  
HETATM   19  C   UNL     1     -11.707  12.827  68.195  1.00  0.00    -0.345 C  
BRANCH  17  20
HETATM   20  C   UNL     1     -11.752  15.025  66.956  1.00  0.00    -0.188 C  
BRANCH  20  21
HETATM   21  C   UNL     1     -10.588  15.955  67.196  1.00  0.00    -0.316 A  
HETATM   22  C   UNL     1     -10.147  16.221  68.503  1.00  0.00    -0.239 A  
HETATM   23  C   UNL     1      -9.265  17.274  68.746  1.00  0.00    -0.238 A  
HETATM   24  C   UNL     1      -8.791  18.044  67.686  1.00  0.00    -0.254 A  
HETATM   25  C   UNL     1      -9.149  17.728  66.379  1.00  0.00    -0.254 A  
HETATM   26  C   UNL     1     -10.023  16.671  66.131  1.00  0.00    -0.356 A  
ENDBRANCH  20  21
ENDBRANCH  17  20
ENDBRANCH  16  17
ENDBRANCH  15  16
ENDBRANCH  14  15
ENDBRANCH  13  14
ENDBRANCH  12  13
ENDBRANCH  11  12
ENDBRANCH  10  11
ENDBRANCH   9  10
ENDBRANCH   8   9
ENDBRANCH   7   8
ENDBRANCH   6   7
ENDBRANCH   5   6
ENDBRANCH   4   5
ENDBRANCH   3   4
ENDBRANCH   2   3
TORSDOF 17
ENDMDL
MODEL      342
REMARK 921   NORMALIZED FREE ENERGY PREDICTED BY IDOCK:   -2.49 KCAL/MOL
REMARK 922        TOTAL FREE ENERGY PREDICTED BY IDOCK:   -7.81 KCAL/MOL
REMARK 923 INTER-LIGAND FREE ENERGY PREDICTED BY IDOCK:   -5.69 KCAL/MOL
REMARK 924 INTRA-LIGAND FREE ENERGY PREDICTED BY IDOCK:   -2.12 KCAL/MOL
REMARK 927      BINDING AFFINITY PREDICTED BY RF-SCORE:    0.00 PKD
ROOT
HETATM    1  C   UNL     1      -9.068  10.388  67.651  1.00  0.00    -0.143 C  
HETATM    2  C   UNL     1     -10.384  11.131  67.801  1.00  0.00    -0.215 C  
ENDROOT
BRANCH   2   3
HETATM    3  C   UNL     1     -10.185  12.456  68.532  1.00  0.00    -0.213 C  
BRANCH   3   4
HETATM    4  C   UNL     1     -10.967  13.577  67.853  1.00  0.00    -0.275 C  
BRANCH   4   5
HETATM    5  C   UNL     1     -12.108  14.048  68.745  1.00  0.00    -0.338 C  
BRANCH   5   6
HETATM    6  C   UNL     1     -11.572  14.677  70.024  1.00  0.00    -0.335 C  
BRANCH   6   7
HETATM    7  C   UNL     1     -12.675  14.772  71.069  1.00  0.00    -0.411 C  
BRANCH   7   8
HETATM    8  C   UNL     1     -13.507  13.499  71.084  1.00  0.00    -0.064 C  
BRANCH   8   9
HETATM    9  C   UNL     1     -12.920  12.495  72.067  1.00  0.00    -0.379 C  
BRANCH   9  10
HETATM   10  C   UNL     1     -13.340  11.084  71.690  1.00  0.00    -0.344 C  
BRANCH  10  11
HETATM   11  C   UNL     1     -12.125  10.203  71.455  1.00  0.00    -0.475 C  
BRANCH  11  12
HETATM   12  C   UNL     1     -12.309   8.871  72.160  1.00  0.00    -0.449 C  
BRANCH  12  13
HETATM   13  C   UNL     1     -11.577   7.749  71.434  1.00  0.00    -0.305 C  
BRANCH  13  14
HETATM   14  C   UNL     1     -10.772   8.259  70.239  1.00  0.00    -0.237 C  
BRANCH  14  15
HETATM   15  C   UNL     1     -10.744   7.317  69.032  1.00  0.00    -0.183 C  
BRANCH  15  16
HETATM   16  C   UNL     1     -10.396   5.873  69.406  1.00  0.00    -0.247 C  
BRANCH  16  17
HETATM   17  N   UNL     1      -9.327   5.239  68.498  1.00  0.00    -0.117 N  
HETATM   18  C   UNL     1      -9.681   3.793  68.176  1.00  0.00    -0.046 C  
HETATM   19  C   UNL     1      -9.198   6.030  67.197  1.00  0.00    -0.117 C  
BRANCH  17  20
HETATM   20  C   UNL     1      -7.966   5.300  69.276  1.00  0.00    -0.088 C  
BRANCH  20  21
HETATM   21  C   UNL     1      -8.102   5.595  70.749  1.00  0.00    -0.117 A  
HETATM   22  C   UNL     1      -8.708   4.664  71.609  1.00  0.00    -0.135 A  
HETATM   23  C   UNL     1      -9.080   5.039  72.900  1.00  0.00    -0.127 A  
HETATM   24  C   UNL     1      -8.818   6.330  73.353  1.00  0.00    -0.127 A  
HETATM   25  C   UNL     1      -8.134   7.229  72.541  1.00  0.00    -0.112 A  
HETATM   26  C   UNL     1      -7.753   6.856  71.253  1.00  0.00    -0.092 A  
ENDBRANCH  20  21
ENDBRANCH  17  20
ENDBRANCH  16  17
ENDBRANCH  15  16
ENDBRANCH  14  15
ENDBRANCH  13  14
ENDBRANCH  12  13
ENDBRANCH  11  12
ENDBRANCH  10  11
ENDBRANCH   9  10
ENDBRANCH   8   9
ENDBRANCH   7   8
ENDBRANCH   6   7
ENDBRANCH   5   6
ENDBRANCH   4   5
ENDBRANCH   3   4
ENDBRANCH   2   3
TORSDOF 17
ENDMDL
MODEL      343
REMARK 921   NORMALIZED FREE ENERGY PREDICTED BY IDOCK:   -2.49 KCAL/MOL
REMARK 922        TOTAL FREE ENERGY PREDICTED BY IDOCK:   -7.79 KCAL/MOL
REMARK 923 INTER-LIGAND FREE ENERGY PREDICTED BY IDOCK:   -5.04 KCAL/MOL
REMARK 924 INTRA-LIGAND FREE ENERGY PREDICTED BY IDOCK:   -2.76 KCAL/MOL
REMARK 927      BINDING AFFINITY PREDICTED BY RF-SCORE:    0.00 PKD
ROOT
HETATM    1  C   UNL     1      -8.600  11.272  68.507  1.00  0.00    -0.156 C  
HETATM    2  C   UNL     1      -9.810  10.510  69.019  1.00  0.00    -0.224 C  
ENDROOT
BRANCH   2   3
HETATM    3  C   UNL     1     -10.831  10.291  67.906  1.00  0.00    -0.337 C  
BRANCH   3   4
HETATM    4  C   UNL     1     -10.640   8.926  67.251  1.00  0.00    -0.304 C  
BRANCH   4   5
HETATM    5  C   UNL     1      -9.778   9.050  66.001  1.00  0.00    -0.339 C  
BRANCH   5   6
HETATM    6  C   UNL     1      -8.665   8.009  66.006  1.00  0.00    -0.183 C  
BRANCH   6   7
HETATM    7  C   UNL     1      -8.030   7.908  64.626  1.00  0.00    -0.143 C  
BRANCH   7   8
HETATM    8  C   UNL     1      -7.289   6.588  64.476  1.00  0.00    -0.082 C  
BRANCH   8   9
HETATM    9  C   UNL     1      -7.792   5.837  63.250  1.00  0.00    -0.102 C  
BRANCH   9  10
HETATM   10  C   UNL     1      -7.180   4.446  63.199  1.00  0.00    -0.045 C  
BRANCH  10  11
HETATM   11  C   UNL     1      -8.102   3.427  63.847  1.00  0.00    -0.089 C  
BRANCH  11  12
HETATM   12  C   UNL     1      -9.549   3.842  63.647  1.00  0.00    -0.152 C  
BRANCH  12  13
HETATM   13  C   UNL     1     -10.274   3.999  64.978  1.00  0.00    -0.192 C  
BRANCH  13  14
HETATM   14  C   UNL     1      -9.335   3.831  66.173  1.00  0.00    -0.183 C  
BRANCH  14  15
HETATM   15  C   UNL     1      -9.696   4.677  67.398  1.00  0.00    -0.215 C  
BRANCH  15  16
HETATM   16  C   UNL     1      -9.443   3.953  68.723  1.00  0.00    -0.155 C  
BRANCH  16  17
HETATM   17  N   UNL     1      -8.520   4.725  69.683  1.00  0.00    -0.081 N  
HETATM   18  C   UNL     1      -8.797   4.334  71.129  1.00  0.00    -0.110 C  
HETATM   19  C   UNL     1      -7.055   4.442  69.355  1.00  0.00    -0.050 C  
BRANCH  17  20
HETATM   20  C   UNL     1      -8.809   6.253  69.473  1.00  0.00    -0.135 C  
BRANCH  20  21
HETATM   21  C   UNL     1      -9.817   6.835  70.434  1.00  0.00    -0.186 A  
HETATM   22  C   UNL     1     -11.192   6.757  70.158  1.00  0.00    -0.387 A  
HETATM   23  C   UNL     1     -12.100   7.520  70.891  1.00  0.00    -0.254 A  
HETATM   24  C   UNL     1     -11.647   8.338  71.925  1.00  0.00    -0.377 A  
HETATM   25  C   UNL     1     -10.298   8.349  72.266  1.00  0.00    -0.403 A  
HETATM   26  C   UNL     1      -9.389   7.580  71.541  1.00  0.00    -0.154 A  
ENDBRANCH  20  21
ENDBRANCH  17  20
ENDBRANCH  16  17
ENDBRANCH  15  16
ENDBRANCH  14  15
ENDBRANCH  13  14
ENDBRANCH  12  13
ENDBRANCH  11  12
ENDBRANCH  10  11
ENDBRANCH   9  10
ENDBRANCH   8   9
ENDBRANCH   7   8
ENDBRANCH   6   7
ENDBRANCH   5   6
ENDBRANCH   4   5
ENDBRANCH   3   4
ENDBRANCH   2   3
TORSDOF 17
ENDMDL
MODEL      344
REMARK 921   NORMALIZED FREE ENERGY PREDICTED BY IDOCK:   -2.47 KCAL/MOL
REMARK 922        TOTAL FREE ENERGY PREDICTED BY IDOCK:   -7.76 KCAL/MOL
REMARK 923 INTER-LIGAND FREE ENERGY PREDICTED BY IDOCK:   -5.74 KCAL/MOL
REMARK 924 INTRA-LIGAND FREE ENERGY PREDICTED BY IDOCK:   -2.01 KCAL/MOL
REMARK 927      BINDING AFFINITY PREDICTED BY RF-SCORE:    0.00 PKD
ROOT
HETATM    1  C   UNL     1     -12.172  14.205  64.365  1.00  0.00    -0.466 C  
HETATM    2  C   UNL     1     -12.468  13.961  65.835  1.00  0.00    -0.519 C  
ENDROOT
BRANCH   2   3
HETATM    3  C   UNL     1     -11.432  14.646  66.723  1.00  0.00    -0.371 C  
BRANCH   3   4
HETATM    4  C   UNL     1     -11.922  14.733  68.166  1.00  0.00    -0.265 C  
BRANCH   4   5
HETATM    5  C   UNL     1     -11.058  13.870  69.077  1.00  0.00    -0.302 C  
BRANCH   5   6
HETATM    6  C   UNL     1     -11.923  12.997  69.977  1.00  0.00    -0.383 C  
BRANCH   6   7
HETATM    7  C   UNL     1     -11.710  11.526  69.649  1.00  0.00    -0.419 C  
BRANCH   7   8
HETATM    8  C   UNL     1     -11.952  11.270  68.169  1.00  0.00    -0.182 C  
BRANCH   8   9
HETATM    9  C   UNL     1     -10.897  10.318  67.619  1.00  0.00    -0.363 C  
BRANCH   9  10
HETATM   10  C   UNL     1     -10.057  11.019  66.563  1.00  0.00    -0.270 C  
BRANCH  10  11
HETATM   11  C   UNL     1      -8.800  11.609  67.179  1.00  0.00    -0.172 C  
BRANCH  11  12
HETATM   12  C   UNL     1      -7.880  10.492  67.641  1.00  0.00    -0.105 C  
BRANCH  12  13
HETATM   13  C   UNL     1      -7.724  10.488  69.157  1.00  0.00    -0.131 C  
BRANCH  13  14
HETATM   14  C   UNL     1      -7.608   9.074  69.725  1.00  0.00    -0.075 C  
BRANCH  14  15
HETATM   15  C   UNL     1      -8.930   8.306  69.815  1.00  0.00    -0.146 C  
BRANCH  15  16
HETATM   16  C   UNL     1      -9.228   7.787  71.224  1.00  0.00    -0.141 C  
BRANCH  16  17
HETATM   17  N   UNL     1     -10.533   6.977  71.322  1.00  0.00    -0.207 N  
HETATM   18  C   UNL     1     -11.321   7.370  72.566  1.00  0.00    -0.313 C  
HETATM   19  C   UNL     1     -11.397   7.208  70.082  1.00  0.00    -0.241 C  
BRANCH  17  20
HETATM   20  C   UNL     1     -10.132   5.462  71.395  1.00  0.00    -0.202 C  
BRANCH  20  21
HETATM   21  C   UNL     1      -8.722   5.213  71.870  1.00  0.00    -0.135 A  
HETATM   22  C   UNL     1      -8.365   5.465  73.205  1.00  0.00    -0.117 A  
HETATM   23  C   UNL     1      -7.022   5.499  73.579  1.00  0.00    -0.085 A  
HETATM   24  C   UNL     1      -6.030   5.248  72.634  1.00  0.00    -0.027 A  
HETATM   25  C   UNL     1      -6.377   4.904  71.331  1.00  0.00    -0.026 A  
HETATM   26  C   UNL     1      -7.719   4.861  70.955  1.00  0.00    -0.082 A  
ENDBRANCH  20  21
ENDBRANCH  17  20
ENDBRANCH  16  17
ENDBRANCH  15  16
ENDBRANCH  14  15
ENDBRANCH  13  14
ENDBRANCH  12  13
ENDBRANCH  11  12
ENDBRANCH  10  11
ENDBRANCH   9  10
ENDBRANCH   8   9
ENDBRANCH   7   8
ENDBRANCH   6   7
ENDBRANCH   5   6
ENDBRANCH   4   5
ENDBRANCH   3   4
ENDBRANCH   2   3
TORSDOF 17
ENDMDL
MODEL      345
REMARK 921   NORMALIZED FREE ENERGY PREDICTED BY IDOCK:   -2.39 KCAL/MOL
REMARK 922        TOTAL FREE ENERGY PREDICTED BY IDOCK:   -7.61 KCAL/MOL
REMARK 923 INTER-LIGAND FREE ENERGY PREDICTED BY IDOCK:   -5.84 KCAL/MOL
REMARK 924 INTRA-LIGAND FREE ENERGY PREDICTED BY IDOCK:   -1.77 KCAL/MOL
REMARK 927      BINDING AFFINITY PREDICTED BY RF-SCORE:    0.00 PKD
ROOT
HETATM    1  C   UNL     1     -11.662  13.482  64.412  1.00  0.00    -0.443 C  
HETATM    2  C   UNL     1     -11.180  12.053  64.595  1.00  0.00    -0.380 C  
ENDROOT
BRANCH   2   3
HETATM    3  C   UNL     1     -10.774  11.437  63.258  1.00  0.00    -0.332 C  
BRANCH   3   4
HETATM    4  C   UNL     1      -9.637  10.435  63.441  1.00  0.00    -0.361 C  
BRANCH   4   5
HETATM    5  C   UNL     1      -9.267  10.311  64.914  1.00  0.00    -0.273 C  
BRANCH   5   6
HETATM    6  C   UNL     1      -9.288   8.854  65.356  1.00  0.00    -0.158 C  
BRANCH   6   7
HETATM    7  C   UNL     1      -7.971   8.485  66.024  1.00  0.00    -0.107 C  
BRANCH   7   8
HETATM    8  C   UNL     1      -8.065   7.108  66.664  1.00  0.00    -0.109 C  
BRANCH   8   9
HETATM    9  C   UNL     1      -9.476   6.862  67.182  1.00  0.00    -0.168 C  
BRANCH   9  10
HETATM   10  C   UNL     1      -9.583   7.288  68.638  1.00  0.00    -0.141 C  
BRANCH  10  11
HETATM   11  C   UNL     1     -10.658   8.346  68.813  1.00  0.00    -0.154 C  
BRANCH  11  12
HETATM   12  C   UNL     1     -10.112   9.506  69.628  1.00  0.00    -0.228 C  
BRANCH  12  13
HETATM   13  C   UNL     1      -9.888  10.740  68.761  1.00  0.00    -0.200 C  
BRANCH  13  14
HETATM   14  C   UNL     1      -8.409  10.971  68.453  1.00  0.00    -0.139 C  
BRANCH  14  15
HETATM   15  C   UNL     1      -8.114  12.224  67.622  1.00  0.00    -0.165 C  
BRANCH  15  16
HETATM   16  C   UNL     1      -7.890  13.473  68.478  1.00  0.00    -0.125 C  
BRANCH  16  17
HETATM   17  N   UNL     1      -8.807  14.652  68.104  1.00  0.00    -0.167 N  
HETATM   18  C   UNL     1     -10.273  14.240  68.184  1.00  0.00    -0.231 C  
HETATM   19  C   UNL     1      -8.562  15.835  69.040  1.00  0.00    -0.236 C  
BRANCH  17  20
HETATM   20  C   UNL     1      -8.445  15.071  66.637  1.00  0.00    -0.157 C  
BRANCH  20  21
HETATM   21  C   UNL     1      -8.014  16.510  66.488  1.00  0.00    -0.345 A  
HETATM   22  C   UNL     1      -6.670  16.874  66.671  1.00  0.00    -0.264 A  
HETATM   23  C   UNL     1      -6.318  18.217  66.805  1.00  0.00    -0.211 A  
HETATM   24  C   UNL     1      -7.297  19.205  66.721  1.00  0.00    -0.226 A  
HETATM   25  C   UNL     1      -8.616  18.859  66.446  1.00  0.00    -0.301 A  
HETATM   26  C   UNL     1      -8.971  17.519  66.303  1.00  0.00    -0.220 A  
ENDBRANCH  20  21
ENDBRANCH  17  20
ENDBRANCH  16  17
ENDBRANCH  15  16
ENDBRANCH  14  15
ENDBRANCH  13  14
ENDBRANCH  12  13
ENDBRANCH  11  12
ENDBRANCH  10  11
ENDBRANCH   9  10
ENDBRANCH   8   9
ENDBRANCH   7   8
ENDBRANCH   6   7
ENDBRANCH   5   6
ENDBRANCH   4   5
ENDBRANCH   3   4
ENDBRANCH   2   3
TORSDOF 17
ENDMDL
MODEL      346
REMARK 921   NORMALIZED FREE ENERGY PREDICTED BY IDOCK:   -2.39 KCAL/MOL
REMARK 922        TOTAL FREE ENERGY PREDICTED BY IDOCK:   -7.61 KCAL/MOL
REMARK 923 INTER-LIGAND FREE ENERGY PREDICTED BY IDOCK:   -6.00 KCAL/MOL
REMARK 924 INTRA-LIGAND FREE ENERGY PREDICTED BY IDOCK:   -1.61 KCAL/MOL
REMARK 927      BINDING AFFINITY PREDICTED BY RF-SCORE:    0.00 PKD
ROOT
HETATM    1  C   UNL     1      -7.490  10.910  67.356  1.00  0.00    -0.100 C  
HETATM    2  C   UNL     1      -8.797  11.672  67.494  1.00  0.00    -0.158 C  
ENDROOT
BRANCH   2   3
HETATM    3  C   UNL     1      -8.572  13.031  68.152  1.00  0.00    -0.188 C  
BRANCH   3   4
HETATM    4  C   UNL     1      -9.090  14.159  67.266  1.00  0.00    -0.218 C  
BRANCH   4   5
HETATM    5  C   UNL     1     -10.586  14.360  67.476  1.00  0.00    -0.265 C  
BRANCH   5   6
HETATM    6  C   UNL     1     -10.854  15.106  68.776  1.00  0.00    -0.247 C  
BRANCH   6   7
HETATM    7  C   UNL     1     -12.034  14.483  69.509  1.00  0.00    -0.363 C  
BRANCH   7   8
HETATM    8  C   UNL     1     -12.065  12.978  69.285  1.00  0.00    -0.251 C  
BRANCH   8   9
HETATM    9  C   UNL     1     -12.314  12.253  70.602  1.00  0.00    -0.375 C  
BRANCH   9  10
HETATM   10  C   UNL     1     -12.475  10.761  70.357  1.00  0.00    -0.430 C  
BRANCH  10  11
HETATM   11  C   UNL     1     -11.266   9.997  70.870  1.00  0.00    -0.415 C  
BRANCH  11  12
HETATM   12  C   UNL     1     -11.685   9.066  71.994  1.00  0.00    -0.417 C  
BRANCH  12  13
HETATM   13  C   UNL     1     -11.060   7.685  71.837  1.00  0.00    -0.290 C  
BRANCH  13  14
HETATM   14  C   UNL     1     -12.107   6.571  71.837  1.00  0.00    -0.388 C  
BRANCH  14  15
HETATM   15  C   UNL     1     -11.853   5.449  72.848  1.00  0.00    -0.150 C  
BRANCH  15  16
HETATM   16  C   UNL     1     -10.368   5.114  73.012  1.00  0.00    -0.193 C  
BRANCH  16  17
HETATM   17  N   UNL     1     -10.085   3.606  73.138  1.00  0.00    -0.140 N  
HETATM   18  C   UNL     1      -9.053   3.340  74.228  1.00  0.00    -0.085 C  
HETATM   19  C   UNL     1     -11.371   2.848  73.463  1.00  0.00    -0.159 C  
BRANCH  17  20
HETATM   20  C   UNL     1      -9.538   3.122  71.749  1.00  0.00    -0.157 C  
BRANCH  20  21
HETATM   21  C   UNL     1      -9.189   4.236  70.794  1.00  0.00    -0.205 A  
HETATM   22  C   UNL     1      -8.119   5.103  71.071  1.00  0.00    -0.103 A  
HETATM   23  C   UNL     1      -7.965   6.284  70.345  1.00  0.00    -0.111 A  
HETATM   24  C   UNL     1      -8.854   6.588  69.316  1.00  0.00    -0.132 A  
HETATM   25  C   UNL     1      -9.859   5.690  68.972  1.00  0.00    -0.210 A  
HETATM   26  C   UNL     1     -10.011   4.505  69.690  1.00  0.00    -0.251 A  
ENDBRANCH  20  21
ENDBRANCH  17  20
ENDBRANCH  16  17
ENDBRANCH  15  16
ENDBRANCH  14  15
ENDBRANCH  13  14
ENDBRANCH  12  13
ENDBRANCH  11  12
ENDBRANCH  10  11
ENDBRANCH   9  10
ENDBRANCH   8   9
ENDBRANCH   7   8
ENDBRANCH   6   7
ENDBRANCH   5   6
ENDBRANCH   4   5
ENDBRANCH   3   4
ENDBRANCH   2   3
TORSDOF 17
ENDMDL
MODEL      347
REMARK 921   NORMALIZED FREE ENERGY PREDICTED BY IDOCK:   -2.36 KCAL/MOL
REMARK 922        TOTAL FREE ENERGY PREDICTED BY IDOCK:   -7.55 KCAL/MOL
REMARK 923 INTER-LIGAND FREE ENERGY PREDICTED BY IDOCK:   -7.01 KCAL/MOL
REMARK 924 INTRA-LIGAND FREE ENERGY PREDICTED BY IDOCK:   -0.54 KCAL/MOL
REMARK 927      BINDING AFFINITY PREDICTED BY RF-SCORE:    0.00 PKD
ROOT
HETATM    1  C   UNL     1      -8.618  19.270  68.033  1.00  0.00    -0.357 C  
HETATM    2  C   UNL     1      -9.034  17.901  68.545  1.00  0.00    -0.291 C  
ENDROOT
BRANCH   2   3
HETATM    3  C   UNL     1     -10.518  17.649  68.290  1.00  0.00    -0.376 C  
BRANCH   3   4
HETATM    4  C   UNL     1     -11.079  16.636  69.284  1.00  0.00    -0.199 C  
BRANCH   4   5
HETATM    5  C   UNL     1     -11.768  15.493  68.551  1.00  0.00    -0.351 C  
BRANCH   5   6
HETATM    6  C   UNL     1     -11.391  14.151  69.164  1.00  0.00    -0.318 C  
BRANCH   6   7
HETATM    7  C   UNL     1     -12.028  13.013  68.378  1.00  0.00    -0.309 C  
BRANCH   7   8
HETATM    8  C   UNL     1     -11.418  12.920  66.987  1.00  0.00    -0.390 C  
BRANCH   8   9
HETATM    9  C   UNL     1     -10.608  11.637  66.851  1.00  0.00    -0.276 C  
BRANCH   9  10
HETATM   10  C   UNL     1     -10.396  11.305  65.382  1.00  0.00    -0.328 C  
BRANCH  10  11
HETATM   11  C   UNL     1      -9.836   9.902  65.222  1.00  0.00    -0.373 C  
BRANCH  11  12
HETATM   12  C   UNL     1      -8.570   9.945  64.384  1.00  0.00    -0.197 C  
BRANCH  12  13
HETATM   13  C   UNL     1      -7.379   9.371  65.142  1.00  0.00    -0.104 C  
BRANCH  13  14
HETATM   14  C   UNL     1      -7.575   9.426  66.658  1.00  0.00    -0.094 C  
BRANCH  14  15
HETATM   15  C   UNL     1      -8.254   8.194  67.263  1.00  0.00    -0.121 C  
BRANCH  15  16
HETATM   16  C   UNL     1      -7.716   7.832  68.650  1.00  0.00    -0.118 C  
BRANCH  16  17
HETATM   17  N   UNL     1      -8.692   8.157  69.795  1.00  0.00    -0.134 N  
HETATM   18  C   UNL     1      -8.946   6.923  70.654  1.00  0.00    -0.151 C  
HETATM   19  C   UNL     1      -8.131   9.276  70.671  1.00  0.00    -0.176 C  
BRANCH  17  20
HETATM   20  C   UNL     1     -10.032   8.639  69.137  1.00  0.00    -0.192 C  
BRANCH  20  21
HETATM   21  C   UNL     1     -11.181   8.794  70.103  1.00  0.00    -0.162 A  
HETATM   22  C   UNL     1     -11.650  10.070  70.454  1.00  0.00    -0.379 A  
HETATM   23  C   UNL     1     -12.514  10.228  71.538  1.00  0.00    -0.524 A  
HETATM   24  C   UNL     1     -12.942   9.112  72.254  1.00  0.00    -0.492 A  
HETATM   25  C   UNL     1     -12.558   7.836  71.855  1.00  0.00    -0.339 A  
HETATM   26  C   UNL     1     -11.701   7.674  70.768  1.00  0.00    -0.260 A  
ENDBRANCH  20  21
ENDBRANCH  17  20
ENDBRANCH  16  17
ENDBRANCH  15  16
ENDBRANCH  14  15
ENDBRANCH  13  14
ENDBRANCH  12  13
ENDBRANCH  11  12
ENDBRANCH  10  11
ENDBRANCH   9  10
ENDBRANCH   8   9
ENDBRANCH   7   8
ENDBRANCH   6   7
ENDBRANCH   5   6
ENDBRANCH   4   5
ENDBRANCH   3   4
ENDBRANCH   2   3
TORSDOF 17
ENDMDL
MODEL      348
REMARK 921   NORMALIZED FREE ENERGY PREDICTED BY IDOCK:   -2.36 KCAL/MOL
REMARK 922        TOTAL FREE ENERGY PREDICTED BY IDOCK:   -7.54 KCAL/MOL
REMARK 923 INTER-LIGAND FREE ENERGY PREDICTED BY IDOCK:   -6.07 KCAL/MOL
REMARK 924 INTRA-LIGAND FREE ENERGY PREDICTED BY IDOCK:   -1.46 KCAL/MOL
REMARK 927      BINDING AFFINITY PREDICTED BY RF-SCORE:    0.00 PKD
ROOT
HETATM    1  C   UNL     1      -7.568  11.644  68.803  1.00  0.00    -0.119 C  
HETATM    2  C   UNL     1      -6.974  12.291  67.564  1.00  0.00    -0.142 C  
ENDROOT
BRANCH   2   3
HETATM    3  C   UNL     1      -7.423  13.744  67.436  1.00  0.00    -0.142 C  
BRANCH   3   4
HETATM    4  C   UNL     1      -8.841  13.831  66.879  1.00  0.00    -0.203 C  
BRANCH   4   5
HETATM    5  C   UNL     1      -9.134  15.240  66.379  1.00  0.00    -0.347 C  
BRANCH   5   6
HETATM    6  C   UNL     1     -10.632  15.515  66.384  1.00  0.00    -0.312 C  
BRANCH   6   7
HETATM    7  C   UNL     1     -11.297  14.838  65.193  1.00  0.00    -0.379 C  
BRANCH   7   8
HETATM    8  C   UNL     1     -12.396  13.897  65.661  1.00  0.00    -0.511 C  
BRANCH   8   9
HETATM    9  C   UNL     1     -11.794  12.599  66.183  1.00  0.00    -0.477 C  
BRANCH   9  10
HETATM   10  C   UNL     1     -11.853  12.567  67.702  1.00  0.00    -0.381 C  
BRANCH  10  11
HETATM   11  C   UNL     1     -11.496  11.187  68.227  1.00  0.00    -0.373 C  
BRANCH  11  12
HETATM   12  C   UNL     1     -10.802  10.386  67.140  1.00  0.00    -0.301 C  
BRANCH  12  13
HETATM   13  C   UNL     1      -9.945   9.271  67.728  1.00  0.00    -0.235 C  
BRANCH  13  14
HETATM   14  C   UNL     1     -10.571   8.658  68.980  1.00  0.00    -0.179 C  
BRANCH  14  15
HETATM   15  C   UNL     1      -9.892   9.048  70.296  1.00  0.00    -0.227 C  
BRANCH  15  16
HETATM   16  C   UNL     1      -8.853   8.024  70.763  1.00  0.00    -0.139 C  
BRANCH  16  17
HETATM   17  N   UNL     1      -9.144   7.439  72.157  1.00  0.00    -0.131 N  
HETATM   18  C   UNL     1      -8.266   8.100  73.212  1.00  0.00    -0.199 C  
HETATM   19  C   UNL     1     -10.614   7.642  72.522  1.00  0.00    -0.281 C  
BRANCH  17  20
HETATM   20  C   UNL     1      -8.838   5.902  72.086  1.00  0.00    -0.136 C  
BRANCH  20  21
HETATM   21  C   UNL     1      -8.846   5.329  70.691  1.00  0.00    -0.148 A  
HETATM   22  C   UNL     1      -7.644   5.153  69.986  1.00  0.00    -0.064 A  
HETATM   23  C   UNL     1      -7.664   4.886  68.617  1.00  0.00    -0.077 A  
HETATM   24  C   UNL     1      -8.882   4.758  67.951  1.00  0.00    -0.114 A  
HETATM   25  C   UNL     1     -10.077   4.836  68.659  1.00  0.00    -0.114 A  
HETATM   26  C   UNL     1     -10.060   5.094  70.029  1.00  0.00    -0.345 A  
ENDBRANCH  20  21
ENDBRANCH  17  20
ENDBRANCH  16  17
ENDBRANCH  15  16
ENDBRANCH  14  15
ENDBRANCH  13  14
ENDBRANCH  12  13
ENDBRANCH  11  12
ENDBRANCH  10  11
ENDBRANCH   9  10
ENDBRANCH   8   9
ENDBRANCH   7   8
ENDBRANCH   6   7
ENDBRANCH   5   6
ENDBRANCH   4   5
ENDBRANCH   3   4
ENDBRANCH   2   3
TORSDOF 17
ENDMDL
MODEL      349
REMARK 921   NORMALIZED FREE ENERGY PREDICTED BY IDOCK:   -2.34 KCAL/MOL
REMARK 922        TOTAL FREE ENERGY PREDICTED BY IDOCK:   -7.50 KCAL/MOL
REMARK 923 INTER-LIGAND FREE ENERGY PREDICTED BY IDOCK:   -5.73 KCAL/MOL
REMARK 924 INTRA-LIGAND FREE ENERGY PREDICTED BY IDOCK:   -1.78 KCAL/MOL
REMARK 927      BINDING AFFINITY PREDICTED BY RF-SCORE:    0.00 PKD
ROOT
HETATM    1  C   UNL     1     -12.083  14.149  64.374  1.00  0.00    -0.486 C  
HETATM    2  C   UNL     1     -12.427  14.068  65.851  1.00  0.00    -0.513 C  
ENDROOT
BRANCH   2   3
HETATM    3  C   UNL     1     -11.372  14.773  66.699  1.00  0.00    -0.347 C  
BRANCH   3   4
HETATM    4  C   UNL     1     -11.842  14.922  68.143  1.00  0.00    -0.307 C  
BRANCH   4   5
HETATM    5  C   UNL     1     -10.971  14.091  69.077  1.00  0.00    -0.287 C  
BRANCH   5   6
HETATM    6  C   UNL     1     -11.829  13.300  70.056  1.00  0.00    -0.365 C  
BRANCH   6   7
HETATM    7  C   UNL     1     -11.647  11.805  69.828  1.00  0.00    -0.372 C  
BRANCH   7   8
HETATM    8  C   UNL     1     -12.090  11.423  68.424  1.00  0.00    -0.118 C  
BRANCH   8   9
HETATM    9  C   UNL     1     -11.146  10.381  67.837  1.00  0.00    -0.363 C  
BRANCH   9  10
HETATM   10  C   UNL     1     -10.376  10.970  66.667  1.00  0.00    -0.288 C  
BRANCH  10  11
HETATM   11  C   UNL     1      -9.105  11.651  67.146  1.00  0.00    -0.171 C  
BRANCH  11  12
HETATM   12  C   UNL     1      -8.046  10.607  67.457  1.00  0.00    -0.111 C  
BRANCH  12  13
HETATM   13  C   UNL     1      -7.934  10.355  68.956  1.00  0.00    -0.131 C  
BRANCH  13  14
HETATM   14  C   UNL     1      -7.719   8.877  69.281  1.00  0.00    -0.094 C  
BRANCH  14  15
HETATM   15  C   UNL     1      -8.952   7.990  69.087  1.00  0.00    -0.145 C  
BRANCH  15  16
HETATM   16  C   UNL     1      -8.941   6.743  69.975  1.00  0.00    -0.141 C  
BRANCH  16  17
HETATM   17  N   UNL     1     -10.154   5.820  69.761  1.00  0.00    -0.191 N  
HETATM   18  C   UNL     1     -10.215   4.750  70.844  1.00  0.00    -0.177 C  
HETATM   19  C   UNL     1     -11.449   6.632  69.779  1.00  0.00    -0.328 C  
BRANCH  17  20
HETATM   20  C   UNL     1      -9.983   5.152  68.352  1.00  0.00    -0.149 C  
BRANCH  20  21
HETATM   21  C   UNL     1      -8.970   4.035  68.311  1.00  0.00    -0.156 A  
HETATM   22  C   UNL     1      -9.387   2.694  68.331  1.00  0.00    -0.256 A  
HETATM   23  C   UNL     1      -8.465   1.674  68.568  1.00  0.00    -0.083 A  
HETATM   24  C   UNL     1      -7.118   1.983  68.749  1.00  0.00    -0.040 A  
HETATM   25  C   UNL     1      -6.682   3.299  68.636  1.00  0.00    -0.044 A  
HETATM   26  C   UNL     1      -7.600   4.320  68.392  1.00  0.00    -0.064 A  
ENDBRANCH  20  21
ENDBRANCH  17  20
ENDBRANCH  16  17
ENDBRANCH  15  16
ENDBRANCH  14  15
ENDBRANCH  13  14
ENDBRANCH  12  13
ENDBRANCH  11  12
ENDBRANCH  10  11
ENDBRANCH   9  10
ENDBRANCH   8   9
ENDBRANCH   7   8
ENDBRANCH   6   7
ENDBRANCH   5   6
ENDBRANCH   4   5
ENDBRANCH   3   4
ENDBRANCH   2   3
TORSDOF 17
ENDMDL
MODEL      350
REMARK 921   NORMALIZED FREE ENERGY PREDICTED BY IDOCK:   -2.34 KCAL/MOL
REMARK 922        TOTAL FREE ENERGY PREDICTED BY IDOCK:   -7.50 KCAL/MOL
REMARK 923 INTER-LIGAND FREE ENERGY PREDICTED BY IDOCK:   -6.81 KCAL/MOL
REMARK 924 INTRA-LIGAND FREE ENERGY PREDICTED BY IDOCK:   -0.69 KCAL/MOL
REMARK 927      BINDING AFFINITY PREDICTED BY RF-SCORE:    0.00 PKD
ROOT
HETATM    1  C   UNL     1     -10.452  16.882  67.221  1.00  0.00    -0.301 C  
HETATM    2  C   UNL     1      -9.887  16.372  65.906  1.00  0.00    -0.344 C  
ENDROOT
BRANCH   2   3
HETATM    3  C   UNL     1     -10.985  15.764  65.038  1.00  0.00    -0.431 C  
BRANCH   3   4
HETATM    4  C   UNL     1     -11.095  14.260  65.270  1.00  0.00    -0.335 C  
BRANCH   4   5
HETATM    5  C   UNL     1     -12.512  13.778  64.985  1.00  0.00    -0.449 C  
BRANCH   5   6
HETATM    6  C   UNL     1     -12.495  12.560  64.070  1.00  0.00    -0.527 C  
BRANCH   6   7
HETATM    7  C   UNL     1     -11.090  12.322  63.534  1.00  0.00    -0.533 C  
BRANCH   7   8
HETATM    8  C   UNL     1     -10.468  11.101  64.194  1.00  0.00    -0.442 C  
BRANCH   8   9
HETATM    9  C   UNL     1      -9.598  10.347  63.196  1.00  0.00    -0.346 C  
BRANCH   9  10
HETATM   10  C   UNL     1      -8.763   9.299  63.915  1.00  0.00    -0.193 C  
BRANCH  10  11
HETATM   11  C   UNL     1      -7.621   9.950  64.677  1.00  0.00    -0.139 C  
BRANCH  11  12
HETATM   12  C   UNL     1      -6.634   8.888  65.131  1.00  0.00    -0.065 C  
BRANCH  12  13
HETATM   13  C   UNL     1      -6.176   9.128  66.565  1.00  0.00    -0.065 C  
BRANCH  13  14
HETATM   14  C   UNL     1      -6.683   8.050  67.524  1.00  0.00    -0.069 C  
BRANCH  14  15
HETATM   15  C   UNL     1      -8.143   8.212  67.959  1.00  0.00    -0.128 C  
BRANCH  15  16
HETATM   16  C   UNL     1      -8.657   7.031  68.787  1.00  0.00    -0.125 C  
BRANCH  16  17
HETATM   17  N   UNL     1      -9.721   6.186  68.063  1.00  0.00    -0.118 N  
HETATM   18  C   UNL     1     -10.822   7.075  67.497  1.00  0.00    -0.267 C  
HETATM   19  C   UNL     1      -9.084   5.385  66.929  1.00  0.00    -0.114 C  
BRANCH  17  20
HETATM   20  C   UNL     1     -10.321   5.194  69.121  1.00  0.00    -0.156 C  
BRANCH  20  21
HETATM   21  C   UNL     1     -10.381   5.743  70.526  1.00  0.00    -0.312 A  
HETATM   22  C   UNL     1      -9.469   5.308  71.500  1.00  0.00    -0.191 A  
HETATM   23  C   UNL     1      -9.688   5.598  72.847  1.00  0.00    -0.169 A  
HETATM   24  C   UNL     1     -10.796   6.353  73.225  1.00  0.00    -0.270 A  
HETATM   25  C   UNL     1     -11.653   6.868  72.257  1.00  0.00    -0.309 A  
HETATM   26  C   UNL     1     -11.434   6.587  70.910  1.00  0.00    -0.408 A  
ENDBRANCH  20  21
ENDBRANCH  17  20
ENDBRANCH  16  17
ENDBRANCH  15  16
ENDBRANCH  14  15
ENDBRANCH  13  14
ENDBRANCH  12  13
ENDBRANCH  11  12
ENDBRANCH  10  11
ENDBRANCH   9  10
ENDBRANCH   8   9
ENDBRANCH   7   8
ENDBRANCH   6   7
ENDBRANCH   5   6
ENDBRANCH   4   5
ENDBRANCH   3   4
ENDBRANCH   2   3
TORSDOF 17
ENDMDL
MODEL      351
REMARK 921   NORMALIZED FREE ENERGY PREDICTED BY IDOCK:   -2.33 KCAL/MOL
REMARK 922        TOTAL FREE ENERGY PREDICTED BY IDOCK:   -7.49 KCAL/MOL
REMARK 923 INTER-LIGAND FREE ENERGY PREDICTED BY IDOCK:   -5.84 KCAL/MOL
REMARK 924 INTRA-LIGAND FREE ENERGY PREDICTED BY IDOCK:   -1.65 KCAL/MOL
REMARK 927      BINDING AFFINITY PREDICTED BY RF-SCORE:    0.00 PKD
ROOT
HETATM    1  C   UNL     1      -7.945  15.570  67.130  1.00  0.00    -0.255 C  
HETATM    2  C   UNL     1      -9.451  15.585  67.328  1.00  0.00    -0.218 C  
ENDROOT
BRANCH   2   3
HETATM    3  C   UNL     1     -10.026  14.173  67.258  1.00  0.00    -0.249 C  
BRANCH   3   4
HETATM    4  C   UNL     1      -8.913  13.131  67.213  1.00  0.00    -0.216 C  
BRANCH   4   5
HETATM    5  C   UNL     1      -9.462  11.747  67.534  1.00  0.00    -0.174 C  
BRANCH   5   6
HETATM    6  C   UNL     1     -10.840  11.554  66.913  1.00  0.00    -0.331 C  
BRANCH   6   7
HETATM    7  C   UNL     1     -10.893  10.242  66.142  1.00  0.00     0.052 C  
BRANCH   7   8
HETATM    8  C   UNL     1      -9.526   9.575  66.131  1.00  0.00    -0.281 C  
BRANCH   8   9
HETATM    9  C   UNL     1      -9.662   8.087  66.429  1.00  0.00    -0.255 C  
BRANCH   9  10
HETATM   10  C   UNL     1      -8.406   7.348  65.997  1.00  0.00    -0.143 C  
BRANCH  10  11
HETATM   11  C   UNL     1      -7.525   7.035  67.195  1.00  0.00    -0.095 C  
BRANCH  11  12
HETATM   12  C   UNL     1      -7.024   8.326  67.818  1.00  0.00    -0.078 C  
BRANCH  12  13
HETATM   13  C   UNL     1      -6.537   8.105  69.245  1.00  0.00    -0.036 C  
BRANCH  13  14
HETATM   14  C   UNL     1      -7.691   7.979  70.239  1.00  0.00    -0.086 C  
BRANCH  14  15
HETATM   15  C   UNL     1      -8.642   9.178  70.276  1.00  0.00    -0.218 C  
BRANCH  15  16
HETATM   16  C   UNL     1     -10.087   8.809  69.928  1.00  0.00    -0.191 C  
BRANCH  16  17
HETATM   17  N   UNL     1     -11.032   8.800  71.143  1.00  0.00    -0.249 N  
HETATM   18  C   UNL     1     -10.244   8.653  72.439  1.00  0.00    -0.249 C  
HETATM   19  C   UNL     1     -11.849  10.091  71.192  1.00  0.00    -0.393 C  
BRANCH  17  20
HETATM   20  C   UNL     1     -12.004   7.582  70.963  1.00  0.00    -0.290 C  
BRANCH  20  21
HETATM   21  C   UNL     1     -11.350   6.233  71.127  1.00  0.00    -0.364 A  
HETATM   22  C   UNL     1     -11.341   5.593  72.378  1.00  0.00    -0.327 A  
HETATM   23  C   UNL     1     -10.513   4.492  72.597  1.00  0.00    -0.258 A  
HETATM   24  C   UNL     1      -9.717   4.002  71.564  1.00  0.00    -0.246 A  
HETATM   25  C   UNL     1      -9.791   4.571  70.296  1.00  0.00    -0.299 A  
HETATM   26  C   UNL     1     -10.623   5.666  70.070  1.00  0.00    -0.388 A  
ENDBRANCH  20  21
ENDBRANCH  17  20
ENDBRANCH  16  17
ENDBRANCH  15  16
ENDBRANCH  14  15
ENDBRANCH  13  14
ENDBRANCH  12  13
ENDBRANCH  11  12
ENDBRANCH  10  11
ENDBRANCH   9  10
ENDBRANCH   8   9
ENDBRANCH   7   8
ENDBRANCH   6   7
ENDBRANCH   5   6
ENDBRANCH   4   5
ENDBRANCH   3   4
ENDBRANCH   2   3
TORSDOF 17
ENDMDL
MODEL      352
REMARK 921   NORMALIZED FREE ENERGY PREDICTED BY IDOCK:   -2.32 KCAL/MOL
REMARK 922        TOTAL FREE ENERGY PREDICTED BY IDOCK:   -7.47 KCAL/MOL
REMARK 923 INTER-LIGAND FREE ENERGY PREDICTED BY IDOCK:   -6.24 KCAL/MOL
REMARK 924 INTRA-LIGAND FREE ENERGY PREDICTED BY IDOCK:   -1.23 KCAL/MOL
REMARK 927      BINDING AFFINITY PREDICTED BY RF-SCORE:    0.00 PKD
ROOT
HETATM    1  C   UNL     1     -10.493   7.296  73.341  1.00  0.00    -0.423 C  
HETATM    2  C   UNL     1     -11.393   6.352  72.563  1.00  0.00    -0.299 C  
ENDROOT
BRANCH   2   3
HETATM    3  C   UNL     1     -11.702   6.908  71.175  1.00  0.00    -0.381 C  
BRANCH   3   4
HETATM    4  C   UNL     1     -10.520   7.706  70.632  1.00  0.00    -0.217 C  
BRANCH   4   5
HETATM    5  C   UNL     1      -9.600   6.809  69.814  1.00  0.00    -0.153 C  
BRANCH   5   6
HETATM    6  C   UNL     1     -10.395   5.720  69.105  1.00  0.00    -0.316 C  
BRANCH   6   7
HETATM    7  C   UNL     1     -10.427   5.981  67.605  1.00  0.00    -0.297 C  
BRANCH   7   8
HETATM    8  C   UNL     1      -9.091   6.532  67.132  1.00  0.00    -0.122 C  
BRANCH   8   9
HETATM    9  C   UNL     1      -9.280   7.363  65.869  1.00  0.00    -0.022 C  
BRANCH   9  10
HETATM   10  C   UNL     1      -8.081   7.199  64.949  1.00  0.00    -0.107 C  
BRANCH  10  11
HETATM   11  C   UNL     1      -7.539   8.553  64.522  1.00  0.00    -0.115 C  
BRANCH  11  12
HETATM   12  C   UNL     1      -6.637   9.113  65.609  1.00  0.00    -0.068 C  
BRANCH  12  13
HETATM   13  C   UNL     1      -6.929  10.585  65.873  1.00  0.00    -0.131 C  
BRANCH  13  14
HETATM   14  C   UNL     1      -8.213  10.788  66.677  1.00  0.00    -0.140 C  
BRANCH  14  15
HETATM   15  C   UNL     1      -9.381  11.381  65.885  1.00  0.00    -0.247 C  
BRANCH  15  16
HETATM   16  C   UNL     1      -9.781  12.780  66.362  1.00  0.00    -0.261 C  
BRANCH  16  17
HETATM   17  N   UNL     1     -11.303  12.987  66.466  1.00  0.00    -0.306 N  
HETATM   18  C   UNL     1     -12.027  12.226  65.363  1.00  0.00    -0.332 C  
HETATM   19  C   UNL     1     -11.812  12.512  67.827  1.00  0.00    -0.313 C  
BRANCH  17  20
HETATM   20  C   UNL     1     -11.570  14.527  66.325  1.00  0.00    -0.360 C  
BRANCH  20  21
HETATM   21  C   UNL     1     -10.412  15.401  66.739  1.00  0.00    -0.299 A  
HETATM   22  C   UNL     1     -10.312  15.873  68.058  1.00  0.00    -0.262 A  
HETATM   23  C   UNL     1      -9.409  16.889  68.374  1.00  0.00    -0.255 A  
HETATM   24  C   UNL     1      -8.579  17.414  67.386  1.00  0.00    -0.221 A  
HETATM   25  C   UNL     1      -8.606  16.887  66.098  1.00  0.00    -0.277 A  
HETATM   26  C   UNL     1      -9.500  15.866  65.780  1.00  0.00    -0.316 A  
ENDBRANCH  20  21
ENDBRANCH  17  20
ENDBRANCH  16  17
ENDBRANCH  15  16
ENDBRANCH  14  15
ENDBRANCH  13  14
ENDBRANCH  12  13
ENDBRANCH  11  12
ENDBRANCH  10  11
ENDBRANCH   9  10
ENDBRANCH   8   9
ENDBRANCH   7   8
ENDBRANCH   6   7
ENDBRANCH   5   6
ENDBRANCH   4   5
ENDBRANCH   3   4
ENDBRANCH   2   3
TORSDOF 17
ENDMDL
MODEL      353
REMARK 921   NORMALIZED FREE ENERGY PREDICTED BY IDOCK:   -2.31 KCAL/MOL
REMARK 922        TOTAL FREE ENERGY PREDICTED BY IDOCK:   -7.45 KCAL/MOL
REMARK 923 INTER-LIGAND FREE ENERGY PREDICTED BY IDOCK:   -6.00 KCAL/MOL
REMARK 924 INTRA-LIGAND FREE ENERGY PREDICTED BY IDOCK:   -1.44 KCAL/MOL
REMARK 927      BINDING AFFINITY PREDICTED BY RF-SCORE:    0.00 PKD
ROOT
HETATM    1  C   UNL     1      -9.243   6.280  73.269  1.00  0.00    -0.135 C  
HETATM    2  C   UNL     1      -7.904   6.157  72.561  1.00  0.00    -0.104 C  
ENDROOT
BRANCH   2   3
HETATM    3  C   UNL     1      -7.243   7.523  72.398  1.00  0.00    -0.075 C  
BRANCH   3   4
HETATM    4  C   UNL     1      -6.999   7.840  70.925  1.00  0.00    -0.049 C  
BRANCH   4   5
HETATM    5  C   UNL     1      -7.755   6.862  70.036  1.00  0.00    -0.101 C  
BRANCH   5   6
HETATM    6  C   UNL     1      -6.793   6.073  69.158  1.00  0.00    -0.062 C  
BRANCH   6   7
HETATM    7  C   UNL     1      -7.443   4.776  68.694  1.00  0.00    -0.065 C  
BRANCH   7   8
HETATM    8  C   UNL     1      -8.277   5.015  67.445  1.00  0.00    -0.106 C  
BRANCH   8   9
HETATM    9  C   UNL     1      -9.740   4.689  67.717  1.00  0.00    -0.205 C  
BRANCH   9  10
HETATM   10  C   UNL     1     -10.641   5.658  66.968  1.00  0.00    -0.358 C  
BRANCH  10  11
HETATM   11  C   UNL     1     -10.617   7.030  67.619  1.00  0.00    -0.327 C  
BRANCH  11  12
HETATM   12  C   UNL     1     -10.101   8.061  66.629  1.00  0.00    -0.329 C  
BRANCH  12  13
HETATM   13  C   UNL     1     -10.540   9.469  67.010  1.00  0.00    -0.271 C  
BRANCH  13  14
HETATM   14  C   UNL     1     -10.439   9.722  68.514  1.00  0.00    -0.239 C  
BRANCH  14  15
HETATM   15  C   UNL     1     -10.078  11.159  68.902  1.00  0.00    -0.199 C  
BRANCH  15  16
HETATM   16  C   UNL     1      -9.547  11.983  67.725  1.00  0.00    -0.193 C  
BRANCH  16  17
HETATM   17  N   UNL     1     -10.094  13.421  67.681  1.00  0.00    -0.225 N  
HETATM   18  C   UNL     1     -11.600  13.433  67.913  1.00  0.00    -0.339 C  
HETATM   19  C   UNL     1      -9.412  14.283  68.742  1.00  0.00    -0.131 C  
BRANCH  17  20
HETATM   20  C   UNL     1      -9.765  13.996  66.258  1.00  0.00    -0.295 C  
BRANCH  20  21
HETATM   21  C   UNL     1     -10.443  13.274  65.121  1.00  0.00    -0.346 A  
HETATM   22  C   UNL     1     -11.682  13.719  64.632  1.00  0.00    -0.417 A  
HETATM   23  C   UNL     1     -12.434  12.909  63.781  1.00  0.00    -0.434 A  
HETATM   24  C   UNL     1     -11.939  11.668  63.385  1.00  0.00    -0.310 A  
HETATM   25  C   UNL     1     -10.672  11.260  63.789  1.00  0.00    -0.448 A  
HETATM   26  C   UNL     1      -9.914  12.070  64.633  1.00  0.00    -0.240 A  
ENDBRANCH  20  21
ENDBRANCH  17  20
ENDBRANCH  16  17
ENDBRANCH  15  16
ENDBRANCH  14  15
ENDBRANCH  13  14
ENDBRANCH  12  13
ENDBRANCH  11  12
ENDBRANCH  10  11
ENDBRANCH   9  10
ENDBRANCH   8   9
ENDBRANCH   7   8
ENDBRANCH   6   7
ENDBRANCH   5   6
ENDBRANCH   4   5
ENDBRANCH   3   4
ENDBRANCH   2   3
TORSDOF 17
ENDMDL
MODEL      354
REMARK 921   NORMALIZED FREE ENERGY PREDICTED BY IDOCK:   -2.31 KCAL/MOL
REMARK 922        TOTAL FREE ENERGY PREDICTED BY IDOCK:   -7.44 KCAL/MOL
REMARK 923 INTER-LIGAND FREE ENERGY PREDICTED BY IDOCK:   -5.48 KCAL/MOL
REMARK 924 INTRA-LIGAND FREE ENERGY PREDICTED BY IDOCK:   -1.96 KCAL/MOL
REMARK 927      BINDING AFFINITY PREDICTED BY RF-SCORE:    0.00 PKD
ROOT
HETATM    1  C   UNL     1     -12.824  11.882  71.293  1.00  0.00    -0.391 C  
HETATM    2  C   UNL     1     -12.873  10.415  70.901  1.00  0.00    -0.482 C  
ENDROOT
BRANCH   2   3
HETATM    3  C   UNL     1     -13.503   9.573  72.008  1.00  0.00    -0.522 C  
BRANCH   3   4
HETATM    4  C   UNL     1     -13.346   8.083  71.718  1.00  0.00    -0.370 C  
BRANCH   4   5
HETATM    5  C   UNL     1     -11.910   7.639  71.964  1.00  0.00    -0.342 C  
BRANCH   5   6
HETATM    6  C   UNL     1     -11.771   6.133  71.784  1.00  0.00    -0.312 C  
BRANCH   6   7
HETATM    7  C   UNL     1     -10.437   5.800  71.130  1.00  0.00    -0.301 C  
BRANCH   7   8
HETATM    8  C   UNL     1      -9.513   7.008  71.159  1.00  0.00    -0.165 C  
BRANCH   8   9
HETATM    9  C   UNL     1      -9.014   7.325  69.754  1.00  0.00    -0.142 C  
BRANCH   9  10
HETATM   10  C   UNL     1      -8.161   6.181  69.231  1.00  0.00    -0.109 C  
BRANCH  10  11
HETATM   11  C   UNL     1      -6.723   6.627  69.031  1.00  0.00    -0.052 C  
BRANCH  11  12
HETATM   12  C   UNL     1      -6.625   8.135  69.189  1.00  0.00    -0.043 C  
BRANCH  12  13
HETATM   13  C   UNL     1      -5.955   8.780  67.982  1.00  0.00    -0.046 C  
BRANCH  13  14
HETATM   14  C   UNL     1      -5.284   7.752  67.071  1.00  0.00    -0.031 C  
BRANCH  14  15
HETATM   15  C   UNL     1      -5.955   7.565  65.707  1.00  0.00    -0.038 C  
BRANCH  15  16
HETATM   16  C   UNL     1      -6.020   8.858  64.889  1.00  0.00    -0.064 C  
BRANCH  16  17
HETATM   17  N   UNL     1      -7.448   9.405  64.709  1.00  0.00    -0.104 N  
HETATM   18  C   UNL     1      -7.688   9.821  63.263  1.00  0.00    -0.138 C  
HETATM   19  C   UNL     1      -8.477   8.348  65.109  1.00  0.00    -0.160 C  
BRANCH  17  20
HETATM   20  C   UNL     1      -7.589  10.646  65.658  1.00  0.00    -0.100 C  
BRANCH  20  21
HETATM   21  C   UNL     1      -8.975  10.846  66.222  1.00  0.00    -0.188 A  
HETATM   22  C   UNL     1      -9.957  11.517  65.476  1.00  0.00    -0.282 A  
HETATM   23  C   UNL     1     -11.137  11.941  66.088  1.00  0.00    -0.374 A  
HETATM   24  C   UNL     1     -11.359  11.667  67.436  1.00  0.00    -0.367 A  
HETATM   25  C   UNL     1     -10.433  10.920  68.158  1.00  0.00    -0.211 A  
HETATM   26  C   UNL     1      -9.257  10.488  67.548  1.00  0.00    -0.152 A  
ENDBRANCH  20  21
ENDBRANCH  17  20
ENDBRANCH  16  17
ENDBRANCH  15  16
ENDBRANCH  14  15
ENDBRANCH  13  14
ENDBRANCH  12  13
ENDBRANCH  11  12
ENDBRANCH  10  11
ENDBRANCH   9  10
ENDBRANCH   8   9
ENDBRANCH   7   8
ENDBRANCH   6   7
ENDBRANCH   5   6
ENDBRANCH   4   5
ENDBRANCH   3   4
ENDBRANCH   2   3
TORSDOF 17
ENDMDL
MODEL      355
REMARK 921   NORMALIZED FREE ENERGY PREDICTED BY IDOCK:   -2.28 KCAL/MOL
REMARK 922        TOTAL FREE ENERGY PREDICTED BY IDOCK:   -7.39 KCAL/MOL
REMARK 923 INTER-LIGAND FREE ENERGY PREDICTED BY IDOCK:   -5.37 KCAL/MOL
REMARK 924 INTRA-LIGAND FREE ENERGY PREDICTED BY IDOCK:   -2.03 KCAL/MOL
REMARK 927      BINDING AFFINITY PREDICTED BY RF-SCORE:    0.00 PKD
ROOT
HETATM    1  C   UNL     1      -7.244   4.371  66.564  1.00  0.00    -0.079 C  
HETATM    2  C   UNL     1      -8.391   5.296  66.934  1.00  0.00    -0.107 C  
ENDROOT
BRANCH   2   3
HETATM    3  C   UNL     1      -8.864   6.095  65.723  1.00  0.00    -0.133 C  
BRANCH   3   4
HETATM    4  C   UNL     1      -7.838   6.034  64.594  1.00  0.00    -0.112 C  
BRANCH   4   5
HETATM    5  C   UNL     1      -7.560   7.429  64.049  1.00  0.00    -0.110 C  
BRANCH   5   6
HETATM    6  C   UNL     1      -8.316   8.483  64.847  1.00  0.00    -0.171 C  
BRANCH   6   7
HETATM    7  C   UNL     1      -7.420   9.683  65.119  1.00  0.00    -0.115 C  
BRANCH   7   8
HETATM    8  C   UNL     1      -6.232   9.278  65.978  1.00  0.00    -0.067 C  
BRANCH   8   9
HETATM    9  C   UNL     1      -6.710   8.591  67.251  1.00  0.00    -0.063 C  
BRANCH   9  10
HETATM   10  C   UNL     1      -7.099   9.628  68.292  1.00  0.00    -0.078 C  
BRANCH  10  11
HETATM   11  C   UNL     1      -6.105  10.777  68.307  1.00  0.00    -0.046 C  
BRANCH  11  12
HETATM   12  C   UNL     1      -6.604  11.878  69.226  1.00  0.00    -0.110 C  
BRANCH  12  13
HETATM   13  C   UNL     1      -7.809  12.598  68.632  1.00  0.00    -0.043 C  
BRANCH  13  14
HETATM   14  C   UNL     1      -7.468  13.324  67.331  1.00  0.00    -0.134 C  
BRANCH  14  15
HETATM   15  C   UNL     1      -8.411  14.475  66.971  1.00  0.00    -0.195 C  
BRANCH  15  16
HETATM   16  C   UNL     1      -9.499  14.711  68.022  1.00  0.00    -0.207 C  
BRANCH  16  17
HETATM   17  N   UNL     1     -10.688  15.541  67.505  1.00  0.00    -0.295 N  
HETATM   18  C   UNL     1     -10.807  16.851  68.275  1.00  0.00    -0.357 C  
HETATM   19  C   UNL     1     -10.520  15.842  66.017  1.00  0.00    -0.345 C  
BRANCH  17  20
HETATM   20  C   UNL     1     -11.980  14.676  67.713  1.00  0.00    -0.268 C  
BRANCH  20  21
HETATM   21  C   UNL     1     -11.816  13.535  68.687  1.00  0.00    -0.404 A  
HETATM   22  C   UNL     1     -11.490  12.248  68.229  1.00  0.00    -0.367 A  
HETATM   23  C   UNL     1     -11.605  11.149  69.080  1.00  0.00    -0.392 A  
HETATM   24  C   UNL     1     -12.012  11.330  70.400  1.00  0.00    -0.471 A  
HETATM   25  C   UNL     1     -12.246  12.612  70.889  1.00  0.00    -0.280 A  
HETATM   26  C   UNL     1     -12.124  13.714  70.044  1.00  0.00    -0.417 A  
ENDBRANCH  20  21
ENDBRANCH  17  20
ENDBRANCH  16  17
ENDBRANCH  15  16
ENDBRANCH  14  15
ENDBRANCH  13  14
ENDBRANCH  12  13
ENDBRANCH  11  12
ENDBRANCH  10  11
ENDBRANCH   9  10
ENDBRANCH   8   9
ENDBRANCH   7   8
ENDBRANCH   6   7
ENDBRANCH   5   6
ENDBRANCH   4   5
ENDBRANCH   3   4
ENDBRANCH   2   3
TORSDOF 17
ENDMDL
MODEL      356
REMARK 921   NORMALIZED FREE ENERGY PREDICTED BY IDOCK:   -2.28 KCAL/MOL
REMARK 922        TOTAL FREE ENERGY PREDICTED BY IDOCK:   -7.39 KCAL/MOL
REMARK 923 INTER-LIGAND FREE ENERGY PREDICTED BY IDOCK:   -5.53 KCAL/MOL
REMARK 924 INTRA-LIGAND FREE ENERGY PREDICTED BY IDOCK:   -1.86 KCAL/MOL
REMARK 927      BINDING AFFINITY PREDICTED BY RF-SCORE:    0.00 PKD
ROOT
HETATM    1  C   UNL     1     -11.715  15.970  69.208  1.00  0.00    -0.302 C  
HETATM    2  C   UNL     1     -12.256  15.006  70.249  1.00  0.00    -0.390 C  
ENDROOT
BRANCH   2   3
HETATM    3  C   UNL     1     -11.661  13.612  70.067  1.00  0.00    -0.250 C  
BRANCH   3   4
HETATM    4  C   UNL     1     -10.672  13.588  68.904  1.00  0.00    -0.228 C  
BRANCH   4   5
HETATM    5  C   UNL     1     -11.391  13.276  67.598  1.00  0.00    -0.328 C  
BRANCH   5   6
HETATM    6  C   UNL     1     -10.697  12.141  66.856  1.00  0.00    -0.271 C  
BRANCH   6   7
HETATM    7  C   UNL     1      -9.823  12.696  65.739  1.00  0.00    -0.236 C  
BRANCH   7   8
HETATM    8  C   UNL     1      -9.982  11.864  64.476  1.00  0.00    -0.255 C  
BRANCH   8   9
HETATM    9  C   UNL     1      -9.849  10.381  64.799  1.00  0.00    -0.406 C  
BRANCH   9  10
HETATM   10  C   UNL     1      -8.441   9.901  64.486  1.00  0.00    -0.181 C  
BRANCH  10  11
HETATM   11  C   UNL     1      -7.455  10.404  65.527  1.00  0.00    -0.142 C  
BRANCH  11  12
HETATM   12  C   UNL     1      -7.467   9.483  66.735  1.00  0.00    -0.094 C  
BRANCH  12  13
HETATM   13  C   UNL     1      -7.126  10.238  68.015  1.00  0.00    -0.083 C  
BRANCH  13  14
HETATM   14  C   UNL     1      -6.289  11.488  67.746  1.00  0.00    -0.063 C  
BRANCH  14  15
HETATM   15  C   UNL     1      -6.656  12.704  68.602  1.00  0.00    -0.083 C  
BRANCH  15  16
HETATM   16  C   UNL     1      -6.262  14.035  67.956  1.00  0.00    -0.142 C  
BRANCH  16  17
HETATM   17  N   UNL     1      -6.069  15.180  68.966  1.00  0.00    -0.096 N  
HETATM   18  C   UNL     1      -5.269  14.706  70.173  1.00  0.00    -0.097 C  
HETATM   19  C   UNL     1      -5.345  16.354  68.308  1.00  0.00    -0.106 C  
BRANCH  17  20
HETATM   20  C   UNL     1      -7.499  15.644  69.416  1.00  0.00    -0.221 C  
BRANCH  20  21
HETATM   21  C   UNL     1      -8.119  16.698  68.533  1.00  0.00    -0.226 A  
HETATM   22  C   UNL     1      -8.105  18.048  68.918  1.00  0.00    -0.168 A  
HETATM   23  C   UNL     1      -8.904  18.977  68.252  1.00  0.00    -0.370 A  
HETATM   24  C   UNL     1      -9.694  18.573  67.178  1.00  0.00    -0.315 A  
HETATM   25  C   UNL     1      -9.642  17.257  66.730  1.00  0.00    -0.279 A  
HETATM   26  C   UNL     1      -8.838  16.327  67.387  1.00  0.00    -0.198 A  
ENDBRANCH  20  21
ENDBRANCH  17  20
ENDBRANCH  16  17
ENDBRANCH  15  16
ENDBRANCH  14  15
ENDBRANCH  13  14
ENDBRANCH  12  13
ENDBRANCH  11  12
ENDBRANCH  10  11
ENDBRANCH   9  10
ENDBRANCH   8   9
ENDBRANCH   7   8
ENDBRANCH   6   7
ENDBRANCH   5   6
ENDBRANCH   4   5
ENDBRANCH   3   4
ENDBRANCH   2   3
TORSDOF 17
ENDMDL
MODEL      357
REMARK 921   NORMALIZED FREE ENERGY PREDICTED BY IDOCK:   -2.28 KCAL/MOL
REMARK 922        TOTAL FREE ENERGY PREDICTED BY IDOCK:   -7.38 KCAL/MOL
REMARK 923 INTER-LIGAND FREE ENERGY PREDICTED BY IDOCK:   -6.08 KCAL/MOL
REMARK 924 INTRA-LIGAND FREE ENERGY PREDICTED BY IDOCK:   -1.31 KCAL/MOL
REMARK 927      BINDING AFFINITY PREDICTED BY RF-SCORE:    0.00 PKD
ROOT
HETATM    1  C   UNL     1     -12.322  14.852  64.317  1.00  0.00    -0.300 C  
HETATM    2  C   UNL     1     -12.283  13.753  65.365  1.00  0.00    -0.465 C  
ENDROOT
BRANCH   2   3
HETATM    3  C   UNL     1     -11.127  13.966  66.339  1.00  0.00    -0.309 C  
BRANCH   3   4
HETATM    4  C   UNL     1     -11.536  13.592  67.761  1.00  0.00    -0.374 C  
BRANCH   4   5
HETATM    5  C   UNL     1     -10.478  12.706  68.406  1.00  0.00    -0.248 C  
BRANCH   5   6
HETATM    6  C   UNL     1     -11.117  11.485  69.055  1.00  0.00    -0.302 C  
BRANCH   6   7
HETATM    7  C   UNL     1     -10.783  10.229  68.261  1.00  0.00    -0.276 C  
BRANCH   7   8
HETATM    8  C   UNL     1     -10.502  10.577  66.807  1.00  0.00    -0.302 C  
BRANCH   8   9
HETATM    9  C   UNL     1     -10.160   9.319  66.019  1.00  0.00    -0.262 C  
BRANCH   9  10
HETATM   10  C   UNL     1      -9.083   9.621  64.990  1.00  0.00    -0.284 C  
BRANCH  10  11
HETATM   11  C   UNL     1      -7.760   9.933  65.670  1.00  0.00    -0.121 C  
BRANCH  11  12
HETATM   12  C   UNL     1      -6.964   8.654  65.859  1.00  0.00    -0.075 C  
BRANCH  12  13
HETATM   13  C   UNL     1      -7.112   8.108  67.274  1.00  0.00    -0.079 C  
BRANCH  13  14
HETATM   14  C   UNL     1      -7.078   6.580  67.313  1.00  0.00    -0.077 C  
BRANCH  14  15
HETATM   15  C   UNL     1      -8.212   5.932  68.113  1.00  0.00    -0.109 C  
BRANCH  15  16
HETATM   16  C   UNL     1      -7.709   5.011  69.228  1.00  0.00    -0.075 C  
BRANCH  16  17
HETATM   17  N   UNL     1      -8.166   5.437  70.635  1.00  0.00    -0.112 N  
HETATM   18  C   UNL     1      -7.328   4.748  71.705  1.00  0.00    -0.071 C  
HETATM   19  C   UNL     1      -8.047   6.952  70.796  1.00  0.00    -0.114 C  
BRANCH  17  20
HETATM   20  C   UNL     1      -9.672   5.020  70.778  1.00  0.00    -0.196 C  
BRANCH  20  21
HETATM   21  C   UNL     1     -10.573   6.108  71.307  1.00  0.00    -0.295 A  
HETATM   22  C   UNL     1     -11.291   6.930  70.423  1.00  0.00    -0.376 A  
HETATM   23  C   UNL     1     -11.901   8.096  70.886  1.00  0.00    -0.232 A  
HETATM   24  C   UNL     1     -11.828   8.430  72.237  1.00  0.00    -0.456 A  
HETATM   25  C   UNL     1     -11.200   7.573  73.135  1.00  0.00    -0.318 A  
HETATM   26  C   UNL     1     -10.596   6.403  72.678  1.00  0.00    -0.250 A  
ENDBRANCH  20  21
ENDBRANCH  17  20
ENDBRANCH  16  17
ENDBRANCH  15  16
ENDBRANCH  14  15
ENDBRANCH  13  14
ENDBRANCH  12  13
ENDBRANCH  11  12
ENDBRANCH  10  11
ENDBRANCH   9  10
ENDBRANCH   8   9
ENDBRANCH   7   8
ENDBRANCH   6   7
ENDBRANCH   5   6
ENDBRANCH   4   5
ENDBRANCH   3   4
ENDBRANCH   2   3
TORSDOF 17
ENDMDL
MODEL      358
REMARK 921   NORMALIZED FREE ENERGY PREDICTED BY IDOCK:   -2.27 KCAL/MOL
REMARK 922        TOTAL FREE ENERGY PREDICTED BY IDOCK:   -7.37 KCAL/MOL
REMARK 923 INTER-LIGAND FREE ENERGY PREDICTED BY IDOCK:   -5.49 KCAL/MOL
REMARK 924 INTRA-LIGAND FREE ENERGY PREDICTED BY IDOCK:   -1.89 KCAL/MOL
REMARK 927      BINDING AFFINITY PREDICTED BY RF-SCORE:    0.00 PKD
ROOT
HETATM    1  C   UNL     1      -6.870  11.068  69.740  1.00  0.00    -0.116 C  
HETATM    2  C   UNL     1      -5.552  11.269  69.012  1.00  0.00    -0.040 C  
ENDROOT
BRANCH   2   3
HETATM    3  C   UNL     1      -5.564  10.571  67.655  1.00  0.00    -0.044 C  
BRANCH   3   4
HETATM    4  C   UNL     1      -6.611   9.461  67.620  1.00  0.00    -0.063 C  
BRANCH   4   5
HETATM    5  C   UNL     1      -6.229   8.398  66.599  1.00  0.00    -0.054 C  
BRANCH   5   6
HETATM    6  C   UNL     1      -5.583   9.032  65.373  1.00  0.00    -0.046 C  
BRANCH   6   7
HETATM    7  C   UNL     1      -6.532   8.968  64.184  1.00  0.00    -0.083 C  
BRANCH   7   8
HETATM    8  C   UNL     1      -7.563  10.084  64.265  1.00  0.00    -0.141 C  
BRANCH   8   9
HETATM    9  C   UNL     1      -8.972   9.506  64.226  1.00  0.00    -0.248 C  
BRANCH   9  10
HETATM   10  C   UNL     1      -9.988  10.576  64.589  1.00  0.00    -0.415 C  
BRANCH  10  11
HETATM   11  C   UNL     1      -9.988  10.834  66.086  1.00  0.00    -0.283 C  
BRANCH  11  12
HETATM   12  C   UNL     1     -10.848  12.046  66.400  1.00  0.00    -0.314 C  
BRANCH  12  13
HETATM   13  C   UNL     1     -10.515  12.628  67.768  1.00  0.00    -0.228 C  
BRANCH  13  14
HETATM   14  C   UNL     1     -11.756  13.136  68.501  1.00  0.00    -0.387 C  
BRANCH  14  15
HETATM   15  C   UNL     1     -11.998  12.501  69.873  1.00  0.00    -0.371 C  
BRANCH  15  16
HETATM   16  C   UNL     1     -12.355  11.014  69.792  1.00  0.00    -0.262 C  
BRANCH  16  17
HETATM   17  N   UNL     1     -12.776  10.404  71.141  1.00  0.00    -0.380 N  
HETATM   18  C   UNL     1     -13.075  11.499  72.158  1.00  0.00    -0.181 C  
HETATM   19  C   UNL     1     -14.013   9.525  70.965  1.00  0.00     0.140 C  
BRANCH  17  20
HETATM   20  C   UNL     1     -11.581   9.518  71.640  1.00  0.00    -0.381 C  
BRANCH  20  21
HETATM   21  C   UNL     1     -11.088   8.510  70.630  1.00  0.00    -0.280 A  
HETATM   22  C   UNL     1     -11.623   7.212  70.600  1.00  0.00    -0.354 A  
HETATM   23  C   UNL     1     -10.991   6.209  69.865  1.00  0.00    -0.458 A  
HETATM   24  C   UNL     1      -9.845   6.502  69.130  1.00  0.00    -0.156 A  
HETATM   25  C   UNL     1      -9.362   7.806  69.078  1.00  0.00    -0.150 A  
HETATM   26  C   UNL     1      -9.996   8.813  69.804  1.00  0.00    -0.193 A  
ENDBRANCH  20  21
ENDBRANCH  17  20
ENDBRANCH  16  17
ENDBRANCH  15  16
ENDBRANCH  14  15
ENDBRANCH  13  14
ENDBRANCH  12  13
ENDBRANCH  11  12
ENDBRANCH  10  11
ENDBRANCH   9  10
ENDBRANCH   8   9
ENDBRANCH   7   8
ENDBRANCH   6   7
ENDBRANCH   5   6
ENDBRANCH   4   5
ENDBRANCH   3   4
ENDBRANCH   2   3
TORSDOF 17
ENDMDL
MODEL      359
REMARK 921   NORMALIZED FREE ENERGY PREDICTED BY IDOCK:   -2.27 KCAL/MOL
REMARK 922        TOTAL FREE ENERGY PREDICTED BY IDOCK:   -7.37 KCAL/MOL
REMARK 923 INTER-LIGAND FREE ENERGY PREDICTED BY IDOCK:   -4.62 KCAL/MOL
REMARK 924 INTRA-LIGAND FREE ENERGY PREDICTED BY IDOCK:   -2.75 KCAL/MOL
REMARK 927      BINDING AFFINITY PREDICTED BY RF-SCORE:    0.00 PKD
ROOT
HETATM    1  C   UNL     1     -12.357   6.743  71.875  1.00  0.00    -0.369 C  
HETATM    2  C   UNL     1     -11.595   5.489  72.267  1.00  0.00    -0.176 C  
ENDROOT
BRANCH   2   3
HETATM    3  C   UNL     1     -10.088   5.729  72.228  1.00  0.00    -0.216 C  
BRANCH   3   4
HETATM    4  C   UNL     1      -9.376   4.615  71.465  1.00  0.00    -0.202 C  
BRANCH   4   5
HETATM    5  C   UNL     1      -8.191   5.173  70.688  1.00  0.00    -0.107 C  
BRANCH   5   6
HETATM    6  C   UNL     1      -8.029   4.451  69.357  1.00  0.00    -0.061 C  
BRANCH   6   7
HETATM    7  C   UNL     1      -9.150   3.439  69.164  1.00  0.00    -0.205 C  
BRANCH   7   8
HETATM    8  C   UNL     1      -9.299   3.082  67.693  1.00  0.00    -0.242 C  
BRANCH   8   9
HETATM    9  C   UNL     1      -9.137   4.325  66.828  1.00  0.00    -0.141 C  
BRANCH   9  10
HETATM   10  C   UNL     1     -10.500   4.878  66.444  1.00  0.00    -0.325 C  
BRANCH  10  11
HETATM   11  C   UNL     1     -10.628   6.334  66.860  1.00  0.00    -0.374 C  
BRANCH  11  12
HETATM   12  C   UNL     1     -11.028   6.419  68.322  1.00  0.00    -0.396 C  
BRANCH  12  13
HETATM   13  C   UNL     1     -10.425   7.647  68.995  1.00  0.00    -0.214 C  
BRANCH  13  14
HETATM   14  C   UNL     1      -9.235   8.210  68.218  1.00  0.00    -0.134 C  
BRANCH  14  15
HETATM   15  C   UNL     1      -7.931   8.300  69.016  1.00  0.00    -0.112 C  
BRANCH  15  16
HETATM   16  C   UNL     1      -7.649   9.708  69.547  1.00  0.00    -0.104 C  
BRANCH  16  17
HETATM   17  N   UNL     1      -6.163  10.105  69.488  1.00  0.00    -0.045 N  
HETATM   18  C   UNL     1      -5.607  10.324  70.890  1.00  0.00    -0.089 C  
HETATM   19  C   UNL     1      -5.350   9.019  68.785  1.00  0.00    -0.037 C  
BRANCH  17  20
HETATM   20  C   UNL     1      -6.072  11.435  68.660  1.00  0.00    -0.043 C  
BRANCH  20  21
HETATM   21  C   UNL     1      -7.161  11.602  67.629  1.00  0.00    -0.107 A  
HETATM   22  C   UNL     1      -8.199  12.526  67.832  1.00  0.00    -0.165 A  
HETATM   23  C   UNL     1      -9.338  12.492  67.028  1.00  0.00    -0.210 A  
HETATM   24  C   UNL     1      -9.433  11.560  65.996  1.00  0.00    -0.249 A  
HETATM   25  C   UNL     1      -8.370  10.704  65.728  1.00  0.00    -0.162 A  
HETATM   26  C   UNL     1      -7.227  10.741  66.524  1.00  0.00    -0.139 A  
ENDBRANCH  20  21
ENDBRANCH  17  20
ENDBRANCH  16  17
ENDBRANCH  15  16
ENDBRANCH  14  15
ENDBRANCH  13  14
ENDBRANCH  12  13
ENDBRANCH  11  12
ENDBRANCH  10  11
ENDBRANCH   9  10
ENDBRANCH   8   9
ENDBRANCH   7   8
ENDBRANCH   6   7
ENDBRANCH   5   6
ENDBRANCH   4   5
ENDBRANCH   3   4
ENDBRANCH   2   3
TORSDOF 17
ENDMDL
MODEL      360
REMARK 921   NORMALIZED FREE ENERGY PREDICTED BY IDOCK:   -2.26 KCAL/MOL
REMARK 922        TOTAL FREE ENERGY PREDICTED BY IDOCK:   -7.34 KCAL/MOL
REMARK 923 INTER-LIGAND FREE ENERGY PREDICTED BY IDOCK:   -5.58 KCAL/MOL
REMARK 924 INTRA-LIGAND FREE ENERGY PREDICTED BY IDOCK:   -1.76 KCAL/MOL
REMARK 927      BINDING AFFINITY PREDICTED BY RF-SCORE:    0.00 PKD
ROOT
HETATM    1  C   UNL     1      -7.713  11.010  68.999  1.00  0.00    -0.132 C  
HETATM    2  C   UNL     1      -6.908  11.406  67.773  1.00  0.00    -0.075 C  
ENDROOT
BRANCH   2   3
HETATM    3  C   UNL     1      -7.055  12.897  67.480  1.00  0.00    -0.153 C  
BRANCH   3   4
HETATM    4  C   UNL     1      -8.427  13.204  66.887  1.00  0.00    -0.081 C  
BRANCH   4   5
HETATM    5  C   UNL     1      -8.641  14.708  66.786  1.00  0.00    -0.195 C  
BRANCH   5   6
HETATM    6  C   UNL     1     -10.041  15.089  67.250  1.00  0.00    -0.235 C  
BRANCH   6   7
HETATM    7  C   UNL     1     -11.009  15.076  66.075  1.00  0.00    -0.334 C  
BRANCH   7   8
HETATM    8  C   UNL     1     -12.195  14.170  66.371  1.00  0.00    -0.473 C  
BRANCH   8   9
HETATM    9  C   UNL     1     -11.769  12.708  66.317  1.00  0.00    -0.460 C  
BRANCH   9  10
HETATM   10  C   UNL     1     -11.643  12.146  67.724  1.00  0.00    -0.410 C  
BRANCH  10  11
HETATM   11  C   UNL     1     -11.244  10.681  67.686  1.00  0.00    -0.361 C  
BRANCH  11  12
HETATM   12  C   UNL     1     -10.590  10.359  66.353  1.00  0.00    -0.198 C  
BRANCH  12  13
HETATM   13  C   UNL     1      -9.706   9.122  66.448  1.00  0.00    -0.330 C  
BRANCH  13  14
HETATM   14  C   UNL     1     -10.365   7.998  67.248  1.00  0.00    -0.371 C  
BRANCH  14  15
HETATM   15  C   UNL     1      -9.844   7.836  68.679  1.00  0.00    -0.174 C  
BRANCH  15  16
HETATM   16  C   UNL     1      -8.864   6.669  68.833  1.00  0.00    -0.131 C  
BRANCH  16  17
HETATM   17  N   UNL     1      -9.348   5.581  69.808  1.00  0.00    -0.138 N  
HETATM   18  C   UNL     1      -8.706   5.761  71.178  1.00  0.00    -0.135 C  
HETATM   19  C   UNL     1     -10.868   5.632  69.951  1.00  0.00    -0.300 C  
BRANCH  17  20
HETATM   20  C   UNL     1      -8.934   4.196  69.197  1.00  0.00    -0.110 C  
BRANCH  20  21
HETATM   21  C   UNL     1      -8.801   4.193  67.694  1.00  0.00    -0.128 A  
HETATM   22  C   UNL     1      -7.556   4.427  67.088  1.00  0.00    -0.085 A  
HETATM   23  C   UNL     1      -7.479   4.695  65.721  1.00  0.00    -0.081 A  
HETATM   24  C   UNL     1      -8.636   4.695  64.946  1.00  0.00    -0.140 A  
HETATM   25  C   UNL     1      -9.861   4.371  65.520  1.00  0.00    -0.225 A  
HETATM   26  C   UNL     1      -9.942   4.095  66.884  1.00  0.00    -0.127 A  
ENDBRANCH  20  21
ENDBRANCH  17  20
ENDBRANCH  16  17
ENDBRANCH  15  16
ENDBRANCH  14  15
ENDBRANCH  13  14
ENDBRANCH  12  13
ENDBRANCH  11  12
ENDBRANCH  10  11
ENDBRANCH   9  10
ENDBRANCH   8   9
ENDBRANCH   7   8
ENDBRANCH   6   7
ENDBRANCH   5   6
ENDBRANCH   4   5
ENDBRANCH   3   4
ENDBRANCH   2   3
TORSDOF 17
ENDMDL
MODEL      361
REMARK 921   NORMALIZED FREE ENERGY PREDICTED BY IDOCK:   -2.26 KCAL/MOL
REMARK 922        TOTAL FREE ENERGY PREDICTED BY IDOCK:   -7.34 KCAL/MOL
REMARK 923 INTER-LIGAND FREE ENERGY PREDICTED BY IDOCK:   -5.42 KCAL/MOL
REMARK 924 INTRA-LIGAND FREE ENERGY PREDICTED BY IDOCK:   -1.92 KCAL/MOL
REMARK 927      BINDING AFFINITY PREDICTED BY RF-SCORE:    0.00 PKD
ROOT
HETATM    1  C   UNL     1     -11.520  12.442  66.381  1.00  0.00    -0.427 C  
HETATM    2  C   UNL     1     -12.111  13.013  67.659  1.00  0.00    -0.262 C  
ENDROOT
BRANCH   2   3
HETATM    3  C   UNL     1     -11.534  12.317  68.889  1.00  0.00    -0.355 C  
BRANCH   3   4
HETATM    4  C   UNL     1     -12.013  12.989  70.172  1.00  0.00    -0.374 C  
BRANCH   4   5
HETATM    5  C   UNL     1     -12.436  14.426  69.897  1.00  0.00    -0.311 C  
BRANCH   5   6
HETATM    6  C   UNL     1     -11.602  15.402  70.719  1.00  0.00    -0.381 C  
BRANCH   6   7
HETATM    7  C   UNL     1     -10.586  16.106  69.830  1.00  0.00    -0.302 C  
BRANCH   7   8
HETATM    8  C   UNL     1     -11.210  16.471  68.492  1.00  0.00    -0.296 C  
BRANCH   8   9
HETATM    9  C   UNL     1     -10.311  16.017  67.349  1.00  0.00    -0.294 C  
BRANCH   9  10
HETATM   10  C   UNL     1      -8.868  16.403  67.632  1.00  0.00    -0.191 C  
BRANCH  10  11
HETATM   11  C   UNL     1      -7.933  15.238  67.357  1.00  0.00    -0.211 C  
BRANCH  11  12
HETATM   12  C   UNL     1      -8.405  14.009  68.116  1.00  0.00    -0.164 C  
BRANCH  12  13
HETATM   13  C   UNL     1      -7.642  12.761  67.688  1.00  0.00    -0.152 C  
BRANCH  13  14
HETATM   14  C   UNL     1      -8.102  11.513  68.441  1.00  0.00    -0.149 C  
BRANCH  14  15
HETATM   15  C   UNL     1      -8.690  10.410  67.556  1.00  0.00    -0.125 C  
BRANCH  15  16
HETATM   16  C   UNL     1      -8.694   9.036  68.233  1.00  0.00    -0.130 C  
BRANCH  16  17
HETATM   17  N   UNL     1      -7.336   8.314  68.173  1.00  0.00    -0.094 N  
HETATM   18  C   UNL     1      -6.640   8.583  66.844  1.00  0.00    -0.058 C  
HETATM   19  C   UNL     1      -6.436   8.776  69.318  1.00  0.00    -0.042 C  
BRANCH  17  20
HETATM   20  C   UNL     1      -7.622   6.779  68.330  1.00  0.00    -0.107 C  
BRANCH  20  21
HETATM   21  C   UNL     1      -8.532   6.203  67.273  1.00  0.00    -0.104 A  
HETATM   22  C   UNL     1      -9.887   5.964  67.553  1.00  0.00    -0.139 A  
HETATM   23  C   UNL     1     -10.657   5.189  66.686  1.00  0.00    -0.295 A  
HETATM   24  C   UNL     1     -10.092   4.679  65.519  1.00  0.00    -0.204 A  
HETATM   25  C   UNL     1      -8.777   4.990  65.187  1.00  0.00    -0.150 A  
HETATM   26  C   UNL     1      -8.006   5.771  66.047  1.00  0.00    -0.103 A  
ENDBRANCH  20  21
ENDBRANCH  17  20
ENDBRANCH  16  17
ENDBRANCH  15  16
ENDBRANCH  14  15
ENDBRANCH  13  14
ENDBRANCH  12  13
ENDBRANCH  11  12
ENDBRANCH  10  11
ENDBRANCH   9  10
ENDBRANCH   8   9
ENDBRANCH   7   8
ENDBRANCH   6   7
ENDBRANCH   5   6
ENDBRANCH   4   5
ENDBRANCH   3   4
ENDBRANCH   2   3
TORSDOF 17
ENDMDL
MODEL      362
REMARK 921   NORMALIZED FREE ENERGY PREDICTED BY IDOCK:   -2.23 KCAL/MOL
REMARK 922        TOTAL FREE ENERGY PREDICTED BY IDOCK:   -7.29 KCAL/MOL
REMARK 923 INTER-LIGAND FREE ENERGY PREDICTED BY IDOCK:   -4.88 KCAL/MOL
REMARK 924 INTRA-LIGAND FREE ENERGY PREDICTED BY IDOCK:   -2.41 KCAL/MOL
REMARK 927      BINDING AFFINITY PREDICTED BY RF-SCORE:    0.00 PKD
ROOT
HETATM    1  C   UNL     1     -12.741  14.033  65.209  1.00  0.00    -0.468 C  
HETATM    2  C   UNL     1     -11.718  13.062  64.645  1.00  0.00    -0.408 C  
ENDROOT
BRANCH   2   3
HETATM    3  C   UNL     1     -11.367  11.983  65.666  1.00  0.00    -0.381 C  
BRANCH   3   4
HETATM    4  C   UNL     1     -11.785  12.404  67.072  1.00  0.00    -0.423 C  
BRANCH   4   5
HETATM    5  C   UNL     1     -10.682  12.090  68.075  1.00  0.00    -0.244 C  
BRANCH   5   6
HETATM    6  C   UNL     1     -10.887  10.712  68.690  1.00  0.00    -0.266 C  
BRANCH   6   7
HETATM    7  C   UNL     1      -9.600  10.232  69.348  1.00  0.00    -0.237 C  
BRANCH   7   8
HETATM    8  C   UNL     1      -8.388  10.799  68.626  1.00  0.00    -0.141 C  
BRANCH   8   9
HETATM    9  C   UNL     1      -7.105  10.339  69.306  1.00  0.00    -0.083 C  
BRANCH   9  10
HETATM   10  C   UNL     1      -7.432   9.535  70.554  1.00  0.00    -0.159 C  
BRANCH  10  11
HETATM   11  C   UNL     1      -6.327   8.537  70.857  1.00  0.00    -0.041 C  
BRANCH  11  12
HETATM   12  C   UNL     1      -6.015   8.550  72.344  1.00  0.00    -0.069 C  
BRANCH  12  13
HETATM   13  C   UNL     1      -5.843   7.138  72.891  1.00  0.00    -0.041 C  
BRANCH  13  14
HETATM   14  C   UNL     1      -6.765   6.132  72.201  1.00  0.00    -0.068 C  
BRANCH  14  15
HETATM   15  C   UNL     1      -8.134   5.956  72.865  1.00  0.00    -0.114 C  
BRANCH  15  16
HETATM   16  C   UNL     1      -9.273   6.604  72.072  1.00  0.00    -0.142 C  
BRANCH  16  17
HETATM   17  N   UNL     1     -10.449   5.652  71.789  1.00  0.00    -0.222 N  
HETATM   18  C   UNL     1     -10.179   4.271  72.375  1.00  0.00    -0.181 C  
HETATM   19  C   UNL     1     -11.741   6.210  72.385  1.00  0.00    -0.272 C  
BRANCH  17  20
HETATM   20  C   UNL     1     -10.600   5.555  70.231  1.00  0.00    -0.287 C  
BRANCH  20  21
HETATM   21  C   UNL     1      -9.298   5.628  69.473  1.00  0.00    -0.165 A  
HETATM   22  C   UNL     1      -8.913   6.816  68.829  1.00  0.00    -0.130 A  
HETATM   23  C   UNL     1      -7.862   6.810  67.912  1.00  0.00    -0.113 A  
HETATM   24  C   UNL     1      -7.167   5.629  67.658  1.00  0.00    -0.076 A  
HETATM   25  C   UNL     1      -7.479   4.470  68.361  1.00  0.00    -0.065 A  
HETATM   26  C   UNL     1      -8.524   4.474  69.284  1.00  0.00    -0.092 A  
ENDBRANCH  20  21
ENDBRANCH  17  20
ENDBRANCH  16  17
ENDBRANCH  15  16
ENDBRANCH  14  15
ENDBRANCH  13  14
ENDBRANCH  12  13
ENDBRANCH  11  12
ENDBRANCH  10  11
ENDBRANCH   9  10
ENDBRANCH   8   9
ENDBRANCH   7   8
ENDBRANCH   6   7
ENDBRANCH   5   6
ENDBRANCH   4   5
ENDBRANCH   3   4
ENDBRANCH   2   3
TORSDOF 17
ENDMDL
MODEL      363
REMARK 921   NORMALIZED FREE ENERGY PREDICTED BY IDOCK:   -2.22 KCAL/MOL
REMARK 922        TOTAL FREE ENERGY PREDICTED BY IDOCK:   -7.27 KCAL/MOL
REMARK 923 INTER-LIGAND FREE ENERGY PREDICTED BY IDOCK:   -6.41 KCAL/MOL
REMARK 924 INTRA-LIGAND FREE ENERGY PREDICTED BY IDOCK:   -0.87 KCAL/MOL
REMARK 927      BINDING AFFINITY PREDICTED BY RF-SCORE:    0.00 PKD
ROOT
HETATM    1  C   UNL     1      -6.416   6.138  74.255  1.00  0.00    -0.071 C  
HETATM    2  C   UNL     1      -5.742   6.103  72.894  1.00  0.00    -0.037 C  
ENDROOT
BRANCH   2   3
HETATM    3  C   UNL     1      -6.775   6.131  71.770  1.00  0.00    -0.063 C  
BRANCH   3   4
HETATM    4  C   UNL     1      -6.099   6.292  70.411  1.00  0.00    -0.034 C  
BRANCH   4   5
HETATM    5  C   UNL     1      -6.403   7.664  69.823  1.00  0.00    -0.031 C  
BRANCH   5   6
HETATM    6  C   UNL     1      -7.640   8.270  70.473  1.00  0.00    -0.076 C  
BRANCH   6   7
HETATM    7  C   UNL     1      -8.828   8.189  69.525  1.00  0.00    -0.143 C  
BRANCH   7   8
HETATM    8  C   UNL     1      -8.401   8.529  68.105  1.00  0.00    -0.127 C  
BRANCH   8   9
HETATM    9  C   UNL     1      -8.832   9.946  67.749  1.00  0.00    -0.129 C  
BRANCH   9  10
HETATM   10  C   UNL     1      -8.262  10.344  66.397  1.00  0.00    -0.141 C  
BRANCH  10  11
HETATM   11  C   UNL     1      -9.199   9.931  65.274  1.00  0.00    -0.280 C  
BRANCH  11  12
HETATM   12  C   UNL     1     -10.468  10.763  65.330  1.00  0.00    -0.282 C  
BRANCH  12  13
HETATM   13  C   UNL     1     -10.868  11.264  63.947  1.00  0.00    -0.427 C  
BRANCH  13  14
HETATM   14  C   UNL     1     -11.220  12.752  63.948  1.00  0.00    -0.491 C  
BRANCH  14  15
HETATM   15  C   UNL     1     -10.377  13.611  64.895  1.00  0.00    -0.408 C  
BRANCH  15  16
HETATM   16  C   UNL     1     -11.196  14.235  66.028  1.00  0.00    -0.324 C  
BRANCH  16  17
HETATM   17  N   UNL     1     -10.337  14.927  67.103  1.00  0.00    -0.257 N  
HETATM   18  C   UNL     1     -11.204  15.789  68.013  1.00  0.00    -0.338 C  
HETATM   19  C   UNL     1      -9.599  13.887  67.944  1.00  0.00    -0.227 C  
BRANCH  17  20
HETATM   20  C   UNL     1      -9.290  15.821  66.351  1.00  0.00    -0.301 C  
BRANCH  20  21
HETATM   21  C   UNL     1      -9.222  17.247  66.841  1.00  0.00    -0.265 A  
HETATM   22  C   UNL     1      -8.380  17.593  67.911  1.00  0.00    -0.235 A  
HETATM   23  C   UNL     1      -8.515  18.832  68.538  1.00  0.00    -0.379 A  
HETATM   24  C   UNL     1      -9.464  19.744  68.081  1.00  0.00    -0.454 A  
HETATM   25  C   UNL     1     -10.236  19.447  66.963  1.00  0.00    -0.514 A  
HETATM   26  C   UNL     1     -10.099  18.213  66.328  1.00  0.00    -0.373 A  
ENDBRANCH  20  21
ENDBRANCH  17  20
ENDBRANCH  16  17
ENDBRANCH  15  16
ENDBRANCH  14  15
ENDBRANCH  13  14
ENDBRANCH  12  13
ENDBRANCH  11  12
ENDBRANCH  10  11
ENDBRANCH   9  10
ENDBRANCH   8   9
ENDBRANCH   7   8
ENDBRANCH   6   7
ENDBRANCH   5   6
ENDBRANCH   4   5
ENDBRANCH   3   4
ENDBRANCH   2   3
TORSDOF 17
ENDMDL
MODEL      364
REMARK 921   NORMALIZED FREE ENERGY PREDICTED BY IDOCK:   -2.22 KCAL/MOL
REMARK 922        TOTAL FREE ENERGY PREDICTED BY IDOCK:   -7.26 KCAL/MOL
REMARK 923 INTER-LIGAND FREE ENERGY PREDICTED BY IDOCK:   -5.80 KCAL/MOL
REMARK 924 INTRA-LIGAND FREE ENERGY PREDICTED BY IDOCK:   -1.47 KCAL/MOL
REMARK 927      BINDING AFFINITY PREDICTED BY RF-SCORE:    0.00 PKD
ROOT
HETATM    1  C   UNL     1      -7.409   4.669  74.041  1.00  0.00    -0.078 C  
HETATM    2  C   UNL     1      -8.714   4.315  73.347  1.00  0.00    -0.092 C  
ENDROOT
BRANCH   2   3
HETATM    3  C   UNL     1      -9.913   4.812  74.149  1.00  0.00    -0.210 C  
BRANCH   3   4
HETATM    4  C   UNL     1     -11.168   4.863  73.281  1.00  0.00    -0.423 C  
BRANCH   4   5
HETATM    5  C   UNL     1     -11.243   6.185  72.528  1.00  0.00    -0.327 C  
BRANCH   5   6
HETATM    6  C   UNL     1     -10.599   7.305  73.335  1.00  0.00    -0.435 C  
BRANCH   6   7
HETATM    7  C   UNL     1     -10.365   8.524  72.453  1.00  0.00    -0.372 C  
BRANCH   7   8
HETATM    8  C   UNL     1     -10.999   8.321  71.085  1.00  0.00    -0.286 C  
BRANCH   8   9
HETATM    9  C   UNL     1      -9.970   8.559  69.986  1.00  0.00    -0.191 C  
BRANCH   9  10
HETATM   10  C   UNL     1      -8.567   8.323  70.521  1.00  0.00    -0.131 C  
BRANCH  10  11
HETATM   11  C   UNL     1      -7.906   7.157  69.807  1.00  0.00    -0.118 C  
BRANCH  11  12
HETATM   12  C   UNL     1      -7.174   7.657  68.573  1.00  0.00    -0.086 C  
BRANCH  12  13
HETATM   13  C   UNL     1      -6.329   8.886  68.885  1.00  0.00    -0.044 C  
BRANCH  13  14
HETATM   14  C   UNL     1      -6.480   9.978  67.826  1.00  0.00    -0.066 C  
BRANCH  14  15
HETATM   15  C   UNL     1      -7.458   9.647  66.696  1.00  0.00    -0.094 C  
BRANCH  15  16
HETATM   16  C   UNL     1      -8.483  10.757  66.444  1.00  0.00    -0.158 C  
BRANCH  16  17
HETATM   17  N   UNL     1      -9.831  10.244  65.906  1.00  0.00    -0.222 N  
HETATM   18  C   UNL     1      -9.897  10.386  64.390  1.00  0.00    -0.328 C  
HETATM   19  C   UNL     1     -10.031   8.777  66.286  1.00  0.00    -0.245 C  
BRANCH  17  20
HETATM   20  C   UNL     1     -10.955  11.108  66.578  1.00  0.00    -0.209 C  
BRANCH  20  21
HETATM   21  C   UNL     1     -10.749  12.598  66.460  1.00  0.00    -0.273 A  
HETATM   22  C   UNL     1     -10.207  13.329  67.530  1.00  0.00    -0.222 A  
HETATM   23  C   UNL     1     -10.268  14.723  67.531  1.00  0.00    -0.233 A  
HETATM   24  C   UNL     1     -10.838  15.395  66.452  1.00  0.00    -0.303 A  
HETATM   25  C   UNL     1     -11.292  14.683  65.346  1.00  0.00    -0.344 A  
HETATM   26  C   UNL     1     -11.224  13.291  65.337  1.00  0.00    -0.306 A  
ENDBRANCH  20  21
ENDBRANCH  17  20
ENDBRANCH  16  17
ENDBRANCH  15  16
ENDBRANCH  14  15
ENDBRANCH  13  14
ENDBRANCH  12  13
ENDBRANCH  11  12
ENDBRANCH  10  11
ENDBRANCH   9  10
ENDBRANCH   8   9
ENDBRANCH   7   8
ENDBRANCH   6   7
ENDBRANCH   5   6
ENDBRANCH   4   5
ENDBRANCH   3   4
ENDBRANCH   2   3
TORSDOF 17
ENDMDL
MODEL      365
REMARK 921   NORMALIZED FREE ENERGY PREDICTED BY IDOCK:   -2.22 KCAL/MOL
REMARK 922        TOTAL FREE ENERGY PREDICTED BY IDOCK:   -7.26 KCAL/MOL
REMARK 923 INTER-LIGAND FREE ENERGY PREDICTED BY IDOCK:   -5.02 KCAL/MOL
REMARK 924 INTRA-LIGAND FREE ENERGY PREDICTED BY IDOCK:   -2.24 KCAL/MOL
REMARK 927      BINDING AFFINITY PREDICTED BY RF-SCORE:    0.00 PKD
ROOT
HETATM    1  C   UNL     1      -5.517   6.668  67.883  1.00  0.00    -0.008 C  
HETATM    2  C   UNL     1      -6.285   7.979  67.898  1.00  0.00    -0.051 C  
ENDROOT
BRANCH   2   3
HETATM    3  C   UNL     1      -6.429   8.545  66.488  1.00  0.00    -0.059 C  
BRANCH   3   4
HETATM    4  C   UNL     1      -6.779   7.445  65.491  1.00  0.00    -0.048 C  
BRANCH   4   5
HETATM    5  C   UNL     1      -8.221   7.589  65.020  1.00  0.00    -0.105 C  
BRANCH   5   6
HETATM    6  C   UNL     1      -9.023   6.335  65.342  1.00  0.00     0.079 C  
BRANCH   6   7
HETATM    7  C   UNL     1      -8.120   5.272  65.954  1.00  0.00    -0.110 C  
BRANCH   7   8
HETATM    8  C   UNL     1      -8.874   4.475  67.008  1.00  0.00    -0.113 C  
BRANCH   8   9
HETATM    9  C   UNL     1      -9.043   5.303  68.276  1.00  0.00    -0.122 C  
BRANCH   9  10
HETATM   10  C   UNL     1     -10.500   5.310  68.707  1.00  0.00    -0.166 C  
BRANCH  10  11
HETATM   11  C   UNL     1     -10.969   6.725  69.001  1.00  0.00    -0.281 C  
BRANCH  11  12
HETATM   12  C   UNL     1      -9.996   7.404  69.949  1.00  0.00    -0.188 C  
BRANCH  12  13
HETATM   13  C   UNL     1      -9.770   8.862  69.568  1.00  0.00    -0.173 C  
BRANCH  13  14
HETATM   14  C   UNL     1      -9.913   9.097  68.064  1.00  0.00    -0.213 C  
BRANCH  14  15
HETATM   15  C   UNL     1      -9.611  10.527  67.606  1.00  0.00    -0.175 C  
BRANCH  15  16
HETATM   16  C   UNL     1     -10.874  11.359  67.366  1.00  0.00    -0.254 C  
BRANCH  16  17
HETATM   17  N   UNL     1     -10.929  12.653  68.199  1.00  0.00    -0.225 N  
HETATM   18  C   UNL     1      -9.543  13.275  68.320  1.00  0.00    -0.221 C  
HETATM   19  C   UNL     1     -11.881  13.660  67.555  1.00  0.00    -0.381 C  
BRANCH  17  20
HETATM   20  C   UNL     1     -11.471  12.265  69.619  1.00  0.00    -0.215 C  
BRANCH  20  21
HETATM   21  C   UNL     1     -12.106  13.406  70.377  1.00  0.00    -0.405 A  
HETATM   22  C   UNL     1     -11.387  14.588  70.619  1.00  0.00    -0.141 A  
HETATM   23  C   UNL     1     -11.860  15.522  71.540  1.00  0.00    -0.472 A  
HETATM   24  C   UNL     1     -13.069  15.300  72.197  1.00  0.00    -0.471 A  
HETATM   25  C   UNL     1     -13.834  14.179  71.893  1.00  0.00    -0.539 A  
HETATM   26  C   UNL     1     -13.368  13.247  70.967  1.00  0.00     0.040 A  
ENDBRANCH  20  21
ENDBRANCH  17  20
ENDBRANCH  16  17
ENDBRANCH  15  16
ENDBRANCH  14  15
ENDBRANCH  13  14
ENDBRANCH  12  13
ENDBRANCH  11  12
ENDBRANCH  10  11
ENDBRANCH   9  10
ENDBRANCH   8   9
ENDBRANCH   7   8
ENDBRANCH   6   7
ENDBRANCH   5   6
ENDBRANCH   4   5
ENDBRANCH   3   4
ENDBRANCH   2   3
TORSDOF 17
ENDMDL
MODEL      366
REMARK 921   NORMALIZED FREE ENERGY PREDICTED BY IDOCK:   -2.22 KCAL/MOL
REMARK 922        TOTAL FREE ENERGY PREDICTED BY IDOCK:   -7.26 KCAL/MOL
REMARK 923 INTER-LIGAND FREE ENERGY PREDICTED BY IDOCK:   -5.73 KCAL/MOL
REMARK 924 INTRA-LIGAND FREE ENERGY PREDICTED BY IDOCK:   -1.53 KCAL/MOL
REMARK 927      BINDING AFFINITY PREDICTED BY RF-SCORE:    0.00 PKD
ROOT
HETATM    1  C   UNL     1     -11.715  15.135  69.465  1.00  0.00    -0.351 C  
HETATM    2  C   UNL     1     -11.061  14.107  68.558  1.00  0.00    -0.276 C  
ENDROOT
BRANCH   2   3
HETATM    3  C   UNL     1     -12.005  12.940  68.282  1.00  0.00    -0.297 C  
BRANCH   3   4
HETATM    4  C   UNL     1     -11.287  11.821  67.534  1.00  0.00    -0.377 C  
BRANCH   4   5
HETATM    5  C   UNL     1     -11.365  10.518  68.319  1.00  0.00    -0.332 C  
BRANCH   5   6
HETATM    6  C   UNL     1     -11.938  10.757  69.710  1.00  0.00    -0.397 C  
BRANCH   6   7
HETATM    7  C   UNL     1     -11.080  10.067  70.761  1.00  0.00    -0.407 C  
BRANCH   7   8
HETATM    8  C   UNL     1     -11.926   9.123  71.603  1.00  0.00    -0.437 C  
BRANCH   8   9
HETATM    9  C   UNL     1     -12.059   7.773  70.910  1.00  0.00    -0.199 C  
BRANCH   9  10
HETATM   10  C   UNL     1     -12.520   6.717  71.902  1.00  0.00    -0.355 C  
BRANCH  10  11
HETATM   11  C   UNL     1     -11.346   6.182  72.704  1.00  0.00    -0.298 C  
BRANCH  11  12
HETATM   12  C   UNL     1     -10.438   5.362  71.803  1.00  0.00    -0.288 C  
BRANCH  12  13
HETATM   13  C   UNL     1      -8.997   5.854  71.867  1.00  0.00    -0.139 C  
BRANCH  13  14
HETATM   14  C   UNL     1      -8.553   6.520  70.565  1.00  0.00    -0.143 C  
BRANCH  14  15
HETATM   15  C   UNL     1      -9.214   5.965  69.301  1.00  0.00    -0.134 C  
BRANCH  15  16
HETATM   16  C   UNL     1      -8.349   6.131  68.048  1.00  0.00    -0.117 C  
BRANCH  16  17
HETATM   17  N   UNL     1      -8.998   7.005  66.960  1.00  0.00    -0.121 N  
HETATM   18  C   UNL     1     -10.513   7.031  67.121  1.00  0.00    -0.312 C  
HETATM   19  C   UNL     1      -8.458   8.433  67.031  1.00  0.00    -0.122 C  
BRANCH  17  20
HETATM   20  C   UNL     1      -8.615   6.378  65.574  1.00  0.00    -0.109 C  
BRANCH  20  21
HETATM   21  C   UNL     1      -8.412   4.883  65.601  1.00  0.00    -0.124 A  
HETATM   22  C   UNL     1      -9.516   4.015  65.620  1.00  0.00    -0.176 A  
HETATM   23  C   UNL     1      -9.342   2.663  65.919  1.00  0.00    -0.004 A  
HETATM   24  C   UNL     1      -8.065   2.164  66.164  1.00  0.00    -0.085 A  
HETATM   25  C   UNL     1      -6.956   2.997  66.054  1.00  0.00    -0.057 A  
HETATM   26  C   UNL     1      -7.125   4.346  65.748  1.00  0.00    -0.071 A  
ENDBRANCH  20  21
ENDBRANCH  17  20
ENDBRANCH  16  17
ENDBRANCH  15  16
ENDBRANCH  14  15
ENDBRANCH  13  14
ENDBRANCH  12  13
ENDBRANCH  11  12
ENDBRANCH  10  11
ENDBRANCH   9  10
ENDBRANCH   8   9
ENDBRANCH   7   8
ENDBRANCH   6   7
ENDBRANCH   5   6
ENDBRANCH   4   5
ENDBRANCH   3   4
ENDBRANCH   2   3
TORSDOF 17
ENDMDL
MODEL      367
REMARK 921   NORMALIZED FREE ENERGY PREDICTED BY IDOCK:   -2.18 KCAL/MOL
REMARK 922        TOTAL FREE ENERGY PREDICTED BY IDOCK:   -7.19 KCAL/MOL
REMARK 923 INTER-LIGAND FREE ENERGY PREDICTED BY IDOCK:   -3.66 KCAL/MOL
REMARK 924 INTRA-LIGAND FREE ENERGY PREDICTED BY IDOCK:   -3.54 KCAL/MOL
REMARK 927      BINDING AFFINITY PREDICTED BY RF-SCORE:    0.00 PKD
ROOT
HETATM    1  C   UNL     1     -12.106   6.259  72.049  1.00  0.00    -0.321 C  
HETATM    2  C   UNL     1     -11.023   5.975  73.076  1.00  0.00    -0.289 C  
ENDROOT
BRANCH   2   3
HETATM    3  C   UNL     1      -9.732   6.710  72.727  1.00  0.00    -0.166 C  
BRANCH   3   4
HETATM    4  C   UNL     1      -8.567   5.734  72.594  1.00  0.00    -0.120 C  
BRANCH   4   5
HETATM    5  C   UNL     1      -7.302   6.466  72.163  1.00  0.00    -0.092 C  
BRANCH   5   6
HETATM    6  C   UNL     1      -6.811   5.952  70.816  1.00  0.00    -0.058 C  
BRANCH   6   7
HETATM    7  C   UNL     1      -6.652   4.438  70.855  1.00  0.00    -0.031 C  
BRANCH   7   8
HETATM    8  C   UNL     1      -5.910   3.948  69.621  1.00  0.00    -0.018 C  
BRANCH   8   9
HETATM    9  C   UNL     1      -6.413   4.673  68.379  1.00  0.00    -0.037 C  
BRANCH   9  10
HETATM   10  C   UNL     1      -7.247   3.732  67.524  1.00  0.00    -0.063 C  
BRANCH  10  11
HETATM   11  C   UNL     1      -8.606   4.338  67.223  1.00  0.00    -0.105 C  
BRANCH  11  12
HETATM   12  C   UNL     1      -9.607   3.911  68.282  1.00  0.00    -0.178 C  
BRANCH  12  13
HETATM   13  C   UNL     1      -9.997   5.076  69.185  1.00  0.00    -0.267 C  
BRANCH  13  14
HETATM   14  C   UNL     1      -9.626   6.429  68.577  1.00  0.00    -0.122 C  
BRANCH  14  15
HETATM   15  C   UNL     1     -10.409   7.621  69.137  1.00  0.00    -0.217 C  
BRANCH  15  16
HETATM   16  C   UNL     1     -10.743   8.672  68.075  1.00  0.00    -0.074 C  
BRANCH  16  17
HETATM   17  N   UNL     1     -10.217  10.079  68.410  1.00  0.00    -0.165 N  
HETATM   18  C   UNL     1     -11.372  11.043  68.651  1.00  0.00    -0.281 C  
HETATM   19  C   UNL     1      -9.329  10.033  69.653  1.00  0.00    -0.220 C  
BRANCH  17  20
HETATM   20  C   UNL     1      -9.363  10.557  67.184  1.00  0.00    -0.154 C  
BRANCH  20  21
HETATM   21  C   UNL     1      -8.471   9.494  66.593  1.00  0.00    -0.136 A  
HETATM   22  C   UNL     1      -8.918   8.701  65.524  1.00  0.00    -0.209 A  
HETATM   23  C   UNL     1      -8.216   7.552  65.159  1.00  0.00    -0.122 A  
HETATM   24  C   UNL     1      -7.048   7.206  65.835  1.00  0.00    -0.069 A  
HETATM   25  C   UNL     1      -6.547   8.036  66.832  1.00  0.00    -0.057 A  
HETATM   26  C   UNL     1      -7.240   9.190  67.194  1.00  0.00    -0.086 A  
ENDBRANCH  20  21
ENDBRANCH  17  20
ENDBRANCH  16  17
ENDBRANCH  15  16
ENDBRANCH  14  15
ENDBRANCH  13  14
ENDBRANCH  12  13
ENDBRANCH  11  12
ENDBRANCH  10  11
ENDBRANCH   9  10
ENDBRANCH   8   9
ENDBRANCH   7   8
ENDBRANCH   6   7
ENDBRANCH   5   6
ENDBRANCH   4   5
ENDBRANCH   3   4
ENDBRANCH   2   3
TORSDOF 17
ENDMDL
MODEL      368
REMARK 921   NORMALIZED FREE ENERGY PREDICTED BY IDOCK:   -2.18 KCAL/MOL
REMARK 922        TOTAL FREE ENERGY PREDICTED BY IDOCK:   -7.19 KCAL/MOL
REMARK 923 INTER-LIGAND FREE ENERGY PREDICTED BY IDOCK:   -6.11 KCAL/MOL
REMARK 924 INTRA-LIGAND FREE ENERGY PREDICTED BY IDOCK:   -1.08 KCAL/MOL
REMARK 927      BINDING AFFINITY PREDICTED BY RF-SCORE:    0.00 PKD
ROOT
HETATM    1  C   UNL     1      -8.065  11.558  68.566  1.00  0.00    -0.146 C  
HETATM    2  C   UNL     1      -9.452  11.071  68.950  1.00  0.00    -0.166 C  
ENDROOT
BRANCH   2   3
HETATM    3  C   UNL     1     -10.492  11.516  67.924  1.00  0.00    -0.211 C  
BRANCH   3   4
HETATM    4  C   UNL     1     -10.889  10.359  67.012  1.00  0.00    -0.269 C  
BRANCH   4   5
HETATM    5  C   UNL     1     -10.409  10.612  65.588  1.00  0.00    -0.285 C  
BRANCH   5   6
HETATM    6  C   UNL     1      -9.063   9.942  65.344  1.00  0.00    -0.241 C  
BRANCH   6   7
HETATM    7  C   UNL     1      -8.875   9.661  63.859  1.00  0.00    -0.255 C  
BRANCH   7   8
HETATM    8  C   UNL     1      -7.618   8.836  63.628  1.00  0.00    -0.124 C  
BRANCH   8   9
HETATM    9  C   UNL     1      -7.984   7.451  63.109  1.00  0.00    -0.093 C  
BRANCH   9  10
HETATM   10  C   UNL     1      -6.809   6.501  63.275  1.00  0.00    -0.046 C  
BRANCH  10  11
HETATM   11  C   UNL     1      -6.765   5.940  64.686  1.00  0.00    -0.046 C  
BRANCH  11  12
HETATM   12  C   UNL     1      -8.141   5.434  65.083  1.00  0.00    -0.121 C  
BRANCH  12  13
HETATM   13  C   UNL     1      -8.462   5.770  66.534  1.00  0.00    -0.116 C  
BRANCH  13  14
HETATM   14  C   UNL     1      -9.939   6.107  66.739  1.00  0.00    -0.218 C  
BRANCH  14  15
HETATM   15  C   UNL     1     -10.240   6.948  67.983  1.00  0.00    -0.209 C  
BRANCH  15  16
HETATM   16  C   UNL     1     -10.688   6.108  69.182  1.00  0.00    -0.316 C  
BRANCH  16  17
HETATM   17  N   UNL     1      -9.906   6.406  70.474  1.00  0.00    -0.182 N  
HETATM   18  C   UNL     1     -10.420   5.552  71.626  1.00  0.00    -0.231 C  
HETATM   19  C   UNL     1      -8.416   6.135  70.268  1.00  0.00    -0.126 C  
BRANCH  17  20
HETATM   20  C   UNL     1     -10.112   7.928  70.797  1.00  0.00    -0.192 C  
BRANCH  20  21
HETATM   21  C   UNL     1     -11.535   8.307  71.126  1.00  0.00    -0.307 A  
HETATM   22  C   UNL     1     -11.898   9.657  71.268  1.00  0.00    -0.460 A  
HETATM   23  C   UNL     1     -13.127   9.998  71.833  1.00  0.00    -0.563 A  
HETATM   24  C   UNL     1     -14.014   8.998  72.226  1.00  0.00    -0.522 A  
HETATM   25  C   UNL     1     -13.703   7.661  72.002  1.00  0.00    -0.247 A  
HETATM   26  C   UNL     1     -12.479   7.316  71.430  1.00  0.00    -0.418 A  
ENDBRANCH  20  21
ENDBRANCH  17  20
ENDBRANCH  16  17
ENDBRANCH  15  16
ENDBRANCH  14  15
ENDBRANCH  13  14
ENDBRANCH  12  13
ENDBRANCH  11  12
ENDBRANCH  10  11
ENDBRANCH   9  10
ENDBRANCH   8   9
ENDBRANCH   7   8
ENDBRANCH   6   7
ENDBRANCH   5   6
ENDBRANCH   4   5
ENDBRANCH   3   4
ENDBRANCH   2   3
TORSDOF 17
ENDMDL
MODEL      369
REMARK 921   NORMALIZED FREE ENERGY PREDICTED BY IDOCK:   -2.16 KCAL/MOL
REMARK 922        TOTAL FREE ENERGY PREDICTED BY IDOCK:   -7.15 KCAL/MOL
REMARK 923 INTER-LIGAND FREE ENERGY PREDICTED BY IDOCK:   -5.23 KCAL/MOL
REMARK 924 INTRA-LIGAND FREE ENERGY PREDICTED BY IDOCK:   -1.91 KCAL/MOL
REMARK 927      BINDING AFFINITY PREDICTED BY RF-SCORE:    0.00 PKD
ROOT
HETATM    1  C   UNL     1     -11.130  12.824  66.530  1.00  0.00    -0.321 C  
HETATM    2  C   UNL     1     -11.801  13.645  67.618  1.00  0.00    -0.404 C  
ENDROOT
BRANCH   2   3
HETATM    3  C   UNL     1     -11.346  13.195  69.003  1.00  0.00    -0.332 C  
BRANCH   3   4
HETATM    4  C   UNL     1     -12.173  13.868  70.095  1.00  0.00    -0.425 C  
BRANCH   4   5
HETATM    5  C   UNL     1     -12.494  15.307  69.712  1.00  0.00    -0.223 C  
BRANCH   5   6
HETATM    6  C   UNL     1     -11.652  16.284  70.523  1.00  0.00    -0.223 C  
BRANCH   6   7
HETATM    7  C   UNL     1     -10.486  16.796  69.688  1.00  0.00    -0.209 C  
BRANCH   7   8
HETATM    8  C   UNL     1     -10.950  17.146  68.283  1.00  0.00    -0.229 C  
BRANCH   8   9
HETATM    9  C   UNL     1      -9.982  16.581  67.250  1.00  0.00    -0.264 C  
BRANCH   9  10
HETATM   10  C   UNL     1      -8.549  16.881  67.656  1.00  0.00    -0.212 C  
BRANCH  10  11
HETATM   11  C   UNL     1      -7.626  15.741  67.263  1.00  0.00    -0.244 C  
BRANCH  11  12
HETATM   12  C   UNL     1      -8.219  14.418  67.716  1.00  0.00    -0.173 C  
BRANCH  12  13
HETATM   13  C   UNL     1      -7.132  13.410  68.067  1.00  0.00    -0.125 C  
BRANCH  13  14
HETATM   14  C   UNL     1      -7.709  12.069  68.523  1.00  0.00    -0.127 C  
BRANCH  14  15
HETATM   15  C   UNL     1      -8.311  11.215  67.405  1.00  0.00    -0.135 C  
BRANCH  15  16
HETATM   16  C   UNL     1      -8.065   9.715  67.596  1.00  0.00    -0.113 C  
BRANCH  16  17
HETATM   17  N   UNL     1      -9.323   8.851  67.393  1.00  0.00    -0.134 N  
HETATM   18  C   UNL     1      -8.985   7.370  67.509  1.00  0.00    -0.126 C  
HETATM   19  C   UNL     1     -10.387   9.210  68.430  1.00  0.00    -0.206 C  
BRANCH  17  20
HETATM   20  C   UNL     1      -9.874   9.168  65.959  1.00  0.00    -0.272 C  
BRANCH  20  21
HETATM   21  C   UNL     1      -8.848   9.056  64.858  1.00  0.00    -0.190 A  
HETATM   22  C   UNL     1      -8.527  10.172  64.068  1.00  0.00    -0.185 A  
HETATM   23  C   UNL     1      -7.795  10.011  62.891  1.00  0.00    -0.140 A  
HETATM   24  C   UNL     1      -7.351   8.746  62.515  1.00  0.00    -0.101 A  
HETATM   25  C   UNL     1      -7.583   7.650  63.340  1.00  0.00    -0.119 A  
HETATM   26  C   UNL     1      -8.307   7.807  64.521  1.00  0.00     0.001 A  
ENDBRANCH  20  21
ENDBRANCH  17  20
ENDBRANCH  16  17
ENDBRANCH  15  16
ENDBRANCH  14  15
ENDBRANCH  13  14
ENDBRANCH  12  13
ENDBRANCH  11  12
ENDBRANCH  10  11
ENDBRANCH   9  10
ENDBRANCH   8   9
ENDBRANCH   7   8
ENDBRANCH   6   7
ENDBRANCH   5   6
ENDBRANCH   4   5
ENDBRANCH   3   4
ENDBRANCH   2   3
TORSDOF 17
ENDMDL
MODEL      370
REMARK 921   NORMALIZED FREE ENERGY PREDICTED BY IDOCK:   -2.14 KCAL/MOL
REMARK 922        TOTAL FREE ENERGY PREDICTED BY IDOCK:   -7.11 KCAL/MOL
REMARK 923 INTER-LIGAND FREE ENERGY PREDICTED BY IDOCK:   -5.72 KCAL/MOL
REMARK 924 INTRA-LIGAND FREE ENERGY PREDICTED BY IDOCK:   -1.39 KCAL/MOL
REMARK 927      BINDING AFFINITY PREDICTED BY RF-SCORE:    0.00 PKD
ROOT
HETATM    1  C   UNL     1     -12.624  13.946  66.542  1.00  0.00    -0.245 C  
HETATM    2  C   UNL     1     -11.811  12.860  65.859  1.00  0.00    -0.476 C  
ENDROOT
BRANCH   2   3
HETATM    3  C   UNL     1     -11.412  11.769  66.849  1.00  0.00    -0.364 C  
BRANCH   3   4
HETATM    4  C   UNL     1     -10.056  11.171  66.486  1.00  0.00    -0.265 C  
BRANCH   4   5
HETATM    5  C   UNL     1     -10.076   9.658  66.655  1.00  0.00    -0.307 C  
BRANCH   5   6
HETATM    6  C   UNL     1      -9.788   9.271  68.100  1.00  0.00    -0.185 C  
BRANCH   6   7
HETATM    7  C   UNL     1      -9.795   7.756  68.253  1.00  0.00    -0.185 C  
BRANCH   7   8
HETATM    8  C   UNL     1     -10.823   7.131  67.322  1.00  0.00    -0.382 C  
BRANCH   8   9
HETATM    9  C   UNL     1     -10.728   5.612  67.374  1.00  0.00    -0.283 C  
BRANCH   9  10
HETATM   10  C   UNL     1      -9.469   5.190  68.114  1.00  0.00    -0.160 C  
BRANCH  10  11
HETATM   11  C   UNL     1      -9.706   3.910  68.897  1.00  0.00    -0.121 C  
BRANCH  11  12
HETATM   12  C   UNL     1      -8.513   2.983  68.742  1.00  0.00    -0.096 C  
BRANCH  12  13
HETATM   13  C   UNL     1      -8.267   2.173  70.010  1.00  0.00    -0.062 C  
BRANCH  13  14
HETATM   14  C   UNL     1      -8.963   2.778  71.229  1.00  0.00    -0.161 C  
BRANCH  14  15
HETATM   15  C   UNL     1      -8.078   3.681  72.093  1.00  0.00    -0.072 C  
BRANCH  15  16
HETATM   16  C   UNL     1      -8.499   5.153  72.051  1.00  0.00    -0.126 C  
BRANCH  16  17
HETATM   17  N   UNL     1      -8.929   5.712  73.419  1.00  0.00    -0.130 N  
HETATM   18  C   UNL     1     -10.197   5.024  73.909  1.00  0.00    -0.224 C  
HETATM   19  C   UNL     1      -7.816   5.514  74.448  1.00  0.00    -0.101 C  
BRANCH  17  20
HETATM   20  C   UNL     1      -9.188   7.248  73.229  1.00  0.00    -0.174 C  
BRANCH  20  21
HETATM   21  C   UNL     1     -10.270   7.579  72.231  1.00  0.00    -0.252 A  
HETATM   22  C   UNL     1     -10.699   8.905  72.060  1.00  0.00    -0.389 A  
HETATM   23  C   UNL     1     -11.869   9.178  71.351  1.00  0.00    -0.415 A  
HETATM   24  C   UNL     1     -12.597   8.136  70.780  1.00  0.00     0.172 A  
HETATM   25  C   UNL     1     -12.128   6.829  70.864  1.00  0.00    -0.421 A  
HETATM   26  C   UNL     1     -10.955   6.552  71.565  1.00  0.00    -0.298 A  
ENDBRANCH  20  21
ENDBRANCH  17  20
ENDBRANCH  16  17
ENDBRANCH  15  16
ENDBRANCH  14  15
ENDBRANCH  13  14
ENDBRANCH  12  13
ENDBRANCH  11  12
ENDBRANCH  10  11
ENDBRANCH   9  10
ENDBRANCH   8   9
ENDBRANCH   7   8
ENDBRANCH   6   7
ENDBRANCH   5   6
ENDBRANCH   4   5
ENDBRANCH   3   4
ENDBRANCH   2   3
TORSDOF 17
ENDMDL
MODEL      371
REMARK 921   NORMALIZED FREE ENERGY PREDICTED BY IDOCK:   -2.14 KCAL/MOL
REMARK 922        TOTAL FREE ENERGY PREDICTED BY IDOCK:   -7.10 KCAL/MOL
REMARK 923 INTER-LIGAND FREE ENERGY PREDICTED BY IDOCK:   -5.77 KCAL/MOL
REMARK 924 INTRA-LIGAND FREE ENERGY PREDICTED BY IDOCK:   -1.34 KCAL/MOL
REMARK 927      BINDING AFFINITY PREDICTED BY RF-SCORE:    0.00 PKD
ROOT
HETATM    1  C   UNL     1      -6.810  16.812  69.164  1.00  0.00    -0.227 C  
HETATM    2  C   UNL     1      -7.298  16.849  67.726  1.00  0.00    -0.169 C  
ENDROOT
BRANCH   2   3
HETATM    3  C   UNL     1      -8.353  17.935  67.533  1.00  0.00    -0.228 C  
BRANCH   3   4
HETATM    4  C   UNL     1      -9.656  17.344  67.002  1.00  0.00    -0.273 C  
BRANCH   4   5
HETATM    5  C   UNL     1     -10.752  17.436  68.055  1.00  0.00    -0.359 C  
BRANCH   5   6
HETATM    6  C   UNL     1     -10.792  16.174  68.907  1.00  0.00    -0.305 C  
BRANCH   6   7
HETATM    7  C   UNL     1     -11.645  15.108  68.232  1.00  0.00    -0.357 C  
BRANCH   7   8
HETATM    8  C   UNL     1     -12.214  14.148  69.266  1.00  0.00    -0.308 C  
BRANCH   8   9
HETATM    9  C   UNL     1     -11.961  14.676  70.673  1.00  0.00    -0.380 C  
BRANCH   9  10
HETATM   10  C   UNL     1     -12.870  13.973  71.668  1.00  0.00    -0.433 C  
BRANCH  10  11
HETATM   11  C   UNL     1     -13.283  12.606  71.149  1.00  0.00    -0.010 C  
BRANCH  11  12
HETATM   12  C   UNL     1     -12.580  11.519  71.945  1.00  0.00    -0.104 C  
BRANCH  12  13
HETATM   13  C   UNL     1     -12.194  10.340  71.060  1.00  0.00    -0.487 C  
BRANCH  13  14
HETATM   14  C   UNL     1     -11.170  10.726  69.993  1.00  0.00    -0.366 C  
BRANCH  14  15
HETATM   15  C   UNL     1     -11.246   9.904  68.702  1.00  0.00    -0.122 C  
BRANCH  15  16
HETATM   16  C   UNL     1      -9.899   9.302  68.294  1.00  0.00    -0.158 C  
BRANCH  16  17
HETATM   17  N   UNL     1      -9.257   9.992  67.076  1.00  0.00    -0.145 N  
HETATM   18  C   UNL     1     -10.192  11.049  66.501  1.00  0.00    -0.234 C  
HETATM   19  C   UNL     1      -7.934  10.647  67.471  1.00  0.00    -0.110 C  
BRANCH  17  20
HETATM   20  C   UNL     1      -8.981   8.877  66.007  1.00  0.00    -0.193 C  
BRANCH  20  21
HETATM   21  C   UNL     1      -8.877   7.483  66.573  1.00  0.00    -0.167 A  
HETATM   22  C   UNL     1      -7.650   7.001  67.059  1.00  0.00    -0.102 A  
HETATM   23  C   UNL     1      -7.485   5.642  67.325  1.00  0.00    -0.084 A  
HETATM   24  C   UNL     1      -8.550   4.762  67.142  1.00  0.00    -0.104 A  
HETATM   25  C   UNL     1      -9.795   5.245  66.752  1.00  0.00    -0.195 A  
HETATM   26  C   UNL     1      -9.967   6.604  66.493  1.00  0.00    -0.148 A  
ENDBRANCH  20  21
ENDBRANCH  17  20
ENDBRANCH  16  17
ENDBRANCH  15  16
ENDBRANCH  14  15
ENDBRANCH  13  14
ENDBRANCH  12  13
ENDBRANCH  11  12
ENDBRANCH  10  11
ENDBRANCH   9  10
ENDBRANCH   8   9
ENDBRANCH   7   8
ENDBRANCH   6   7
ENDBRANCH   5   6
ENDBRANCH   4   5
ENDBRANCH   3   4
ENDBRANCH   2   3
TORSDOF 17
ENDMDL
MODEL      372
REMARK 921   NORMALIZED FREE ENERGY PREDICTED BY IDOCK:   -2.14 KCAL/MOL
REMARK 922        TOTAL FREE ENERGY PREDICTED BY IDOCK:   -7.10 KCAL/MOL
REMARK 923 INTER-LIGAND FREE ENERGY PREDICTED BY IDOCK:   -5.68 KCAL/MOL
REMARK 924 INTRA-LIGAND FREE ENERGY PREDICTED BY IDOCK:   -1.43 KCAL/MOL
REMARK 927      BINDING AFFINITY PREDICTED BY RF-SCORE:    0.00 PKD
ROOT
HETATM    1  C   UNL     1     -13.079  15.625  71.471  1.00  0.00    -0.561 C  
HETATM    2  C   UNL     1     -12.481  14.700  70.424  1.00  0.00    -0.410 C  
ENDROOT
BRANCH   2   3
HETATM    3  C   UNL     1     -12.557  13.243  70.873  1.00  0.00    -0.386 C  
BRANCH   3   4
HETATM    4  C   UNL     1     -11.753  12.342  69.940  1.00  0.00    -0.346 C  
BRANCH   4   5
HETATM    5  C   UNL     1     -12.379  10.956  69.865  1.00  0.00    -0.354 C  
BRANCH   5   6
HETATM    6  C   UNL     1     -12.949  10.545  71.217  1.00  0.00    -0.532 C  
BRANCH   6   7
HETATM    7  C   UNL     1     -12.208   9.328  71.754  1.00  0.00    -0.457 C  
BRANCH   7   8
HETATM    8  C   UNL     1     -13.065   8.079  71.618  1.00  0.00    -0.354 C  
BRANCH   8   9
HETATM    9  C   UNL     1     -12.250   6.943  71.012  1.00  0.00    -0.427 C  
BRANCH   9  10
HETATM   10  C   UNL     1     -10.925   7.470  70.487  1.00  0.00    -0.266 C  
BRANCH  10  11
HETATM   11  C   UNL     1     -10.933   7.535  68.969  1.00  0.00     0.004 C  
BRANCH  11  12
HETATM   12  C   UNL     1      -9.677   6.880  68.419  1.00  0.00    -0.137 C  
BRANCH  12  13
HETATM   13  C   UNL     1      -9.969   6.095  67.146  1.00  0.00    -0.188 C  
BRANCH  13  14
HETATM   14  C   UNL     1      -9.644   4.609  67.293  1.00  0.00    -0.201 C  
BRANCH  14  15
HETATM   15  C   UNL     1      -8.804   4.253  68.523  1.00  0.00    -0.134 C  
BRANCH  15  16
HETATM   16  C   UNL     1      -9.594   3.486  69.588  1.00  0.00    -0.114 C  
BRANCH  16  17
HETATM   17  N   UNL     1      -8.910   3.462  70.967  1.00  0.00    -0.078 N  
HETATM   18  C   UNL     1      -9.689   4.305  71.970  1.00  0.00    -0.164 C  
HETATM   19  C   UNL     1      -8.807   2.028  71.484  1.00  0.00    -0.066 C  
BRANCH  17  20
HETATM   20  C   UNL     1      -7.467   4.047  70.777  1.00  0.00    -0.041 C  
BRANCH  20  21
HETATM   21  C   UNL     1      -7.166   5.254  71.631  1.00  0.00    -0.076 A  
HETATM   22  C   UNL     1      -7.124   5.144  73.030  1.00  0.00    -0.088 A  
HETATM   23  C   UNL     1      -7.119   6.290  73.825  1.00  0.00    -0.083 A  
HETATM   24  C   UNL     1      -7.120   7.550  73.230  1.00  0.00    -0.083 A  
HETATM   25  C   UNL     1      -7.066   7.668  71.845  1.00  0.00    -0.064 A  
HETATM   26  C   UNL     1      -7.063   6.525  71.047  1.00  0.00    -0.069 A  
ENDBRANCH  20  21
ENDBRANCH  17  20
ENDBRANCH  16  17
ENDBRANCH  15  16
ENDBRANCH  14  15
ENDBRANCH  13  14
ENDBRANCH  12  13
ENDBRANCH  11  12
ENDBRANCH  10  11
ENDBRANCH   9  10
ENDBRANCH   8   9
ENDBRANCH   7   8
ENDBRANCH   6   7
ENDBRANCH   5   6
ENDBRANCH   4   5
ENDBRANCH   3   4
ENDBRANCH   2   3
TORSDOF 17
ENDMDL
MODEL      373
REMARK 921   NORMALIZED FREE ENERGY PREDICTED BY IDOCK:   -2.14 KCAL/MOL
REMARK 922        TOTAL FREE ENERGY PREDICTED BY IDOCK:   -7.10 KCAL/MOL
REMARK 923 INTER-LIGAND FREE ENERGY PREDICTED BY IDOCK:   -4.64 KCAL/MOL
REMARK 924 INTRA-LIGAND FREE ENERGY PREDICTED BY IDOCK:   -2.46 KCAL/MOL
REMARK 927      BINDING AFFINITY PREDICTED BY RF-SCORE:    0.00 PKD
ROOT
HETATM    1  C   UNL     1      -5.991   4.967  69.273  1.00  0.00    -0.018 C  
HETATM    2  C   UNL     1      -5.877   6.305  69.984  1.00  0.00    -0.018 C  
ENDROOT
BRANCH   2   3
HETATM    3  C   UNL     1      -6.121   7.461  69.017  1.00  0.00    -0.034 C  
BRANCH   3   4
HETATM    4  C   UNL     1      -5.599   7.125  67.623  1.00  0.00    -0.024 C  
BRANCH   4   5
HETATM    5  C   UNL     1      -6.747   7.063  66.623  1.00  0.00    -0.053 C  
BRANCH   5   6
HETATM    6  C   UNL     1      -6.313   6.360  65.344  1.00  0.00    -0.038 C  
BRANCH   6   7
HETATM    7  C   UNL     1      -6.853   4.937  65.314  1.00  0.00    -0.060 C  
BRANCH   7   8
HETATM    8  C   UNL     1      -8.306   4.927  64.864  1.00  0.00    -0.138 C  
BRANCH   8   9
HETATM    9  C   UNL     1      -9.190   4.322  65.947  1.00  0.00    -0.145 C  
BRANCH   9  10
HETATM   10  C   UNL     1     -10.528   5.044  65.996  1.00  0.00    -0.289 C  
BRANCH  10  11
HETATM   11  C   UNL     1     -10.432   6.301  66.843  1.00  0.00    -0.337 C  
BRANCH  11  12
HETATM   12  C   UNL     1      -9.750   5.983  68.162  1.00  0.00    -0.137 C  
BRANCH  12  13
HETATM   13  C   UNL     1     -10.215   6.919  69.271  1.00  0.00    -0.197 C  
BRANCH  13  14
HETATM   14  C   UNL     1      -9.686   8.342  69.090  1.00  0.00    -0.171 C  
BRANCH  14  15
HETATM   15  C   UNL     1     -10.742   9.442  69.226  1.00  0.00    -0.228 C  
BRANCH  15  16
HETATM   16  C   UNL     1     -10.135  10.842  69.368  1.00  0.00    -0.139 C  
BRANCH  16  17
HETATM   17  N   UNL     1     -10.682  11.858  68.349  1.00  0.00    -0.211 N  
HETATM   18  C   UNL     1     -11.887  11.288  67.611  1.00  0.00    -0.019 C  
HETATM   19  C   UNL     1     -11.086  13.153  69.054  1.00  0.00    -0.234 C  
BRANCH  17  20
HETATM   20  C   UNL     1      -9.524  12.164  67.335  1.00  0.00    -0.179 C  
BRANCH  20  21
HETATM   21  C   UNL     1      -9.763  11.641  65.940  1.00  0.00    -0.260 A  
HETATM   22  C   UNL     1      -9.377  10.336  65.593  1.00  0.00    -0.241 A  
HETATM   23  C   UNL     1      -9.344   9.945  64.255  1.00  0.00    -0.313 A  
HETATM   24  C   UNL     1      -9.728  10.841  63.259  1.00  0.00    -0.396 A  
HETATM   25  C   UNL     1     -10.201  12.104  63.600  1.00  0.00    -0.459 A  
HETATM   26  C   UNL     1     -10.244  12.495  64.938  1.00  0.00    -0.301 A  
ENDBRANCH  20  21
ENDBRANCH  17  20
ENDBRANCH  16  17
ENDBRANCH  15  16
ENDBRANCH  14  15
ENDBRANCH  13  14
ENDBRANCH  12  13
ENDBRANCH  11  12
ENDBRANCH  10  11
ENDBRANCH   9  10
ENDBRANCH   8   9
ENDBRANCH   7   8
ENDBRANCH   6   7
ENDBRANCH   5   6
ENDBRANCH   4   5
ENDBRANCH   3   4
ENDBRANCH   2   3
TORSDOF 17
ENDMDL
MODEL      374
REMARK 921   NORMALIZED FREE ENERGY PREDICTED BY IDOCK:   -2.12 KCAL/MOL
REMARK 922        TOTAL FREE ENERGY PREDICTED BY IDOCK:   -7.06 KCAL/MOL
REMARK 923 INTER-LIGAND FREE ENERGY PREDICTED BY IDOCK:   -5.68 KCAL/MOL
REMARK 924 INTRA-LIGAND FREE ENERGY PREDICTED BY IDOCK:   -1.38 KCAL/MOL
REMARK 927      BINDING AFFINITY PREDICTED BY RF-SCORE:    0.00 PKD
ROOT
HETATM    1  C   UNL     1      -6.580  11.773  67.176  1.00  0.00    -0.143 C  
HETATM    2  C   UNL     1      -6.961  10.561  68.009  1.00  0.00    -0.074 C  
ENDROOT
BRANCH   2   3
HETATM    3  C   UNL     1      -7.999  10.928  69.067  1.00  0.00    -0.131 C  
BRANCH   3   4
HETATM    4  C   UNL     1      -9.311  11.359  68.419  1.00  0.00    -0.194 C  
BRANCH   4   5
HETATM    5  C   UNL     1     -10.480  10.582  69.012  1.00  0.00    -0.238 C  
BRANCH   5   6
HETATM    6  C   UNL     1     -11.709  11.472  69.146  1.00  0.00    -0.395 C  
BRANCH   6   7
HETATM    7  C   UNL     1     -12.249  11.417  70.568  1.00  0.00    -0.478 C  
BRANCH   7   8
HETATM    8  C   UNL     1     -13.269  10.297  70.708  1.00  0.00    -0.283 C  
BRANCH   8   9
HETATM    9  C   UNL     1     -13.234   9.723  72.119  1.00  0.00    -0.530 C  
BRANCH   9  10
HETATM   10  C   UNL     1     -12.723   8.292  72.091  1.00  0.00    -0.366 C  
BRANCH  10  11
HETATM   11  C   UNL     1     -11.315   8.210  72.656  1.00  0.00    -0.450 C  
BRANCH  11  12
HETATM   12  C   UNL     1     -10.329   7.907  71.540  1.00  0.00    -0.243 C  
BRANCH  12  13
HETATM   13  C   UNL     1     -10.925   6.952  70.513  1.00  0.00    -0.313 C  
BRANCH  13  14
HETATM   14  C   UNL     1     -10.474   5.508  70.733  1.00  0.00    -0.330 C  
BRANCH  14  15
HETATM   15  C   UNL     1      -9.880   4.825  69.497  1.00  0.00    -0.292 C  
BRANCH  15  16
HETATM   16  C   UNL     1     -10.087   5.628  68.210  1.00  0.00    -0.169 C  
BRANCH  16  17
HETATM   17  N   UNL     1      -8.804   5.802  67.378  1.00  0.00    -0.107 N  
HETATM   18  C   UNL     1      -8.019   7.022  67.846  1.00  0.00    -0.115 C  
HETATM   19  C   UNL     1      -7.922   4.559  67.492  1.00  0.00    -0.100 C  
BRANCH  17  20
HETATM   20  C   UNL     1      -9.244   5.986  65.883  1.00  0.00    -0.065 C  
BRANCH  20  21
HETATM   21  C   UNL     1      -8.913   4.818  64.987  1.00  0.00    -0.153 A  
HETATM   22  C   UNL     1      -9.806   3.743  64.858  1.00  0.00    -0.183 A  
HETATM   23  C   UNL     1      -9.392   2.553  64.259  1.00  0.00    -0.130 A  
HETATM   24  C   UNL     1      -8.099   2.442  63.753  1.00  0.00    -0.081 A  
HETATM   25  C   UNL     1      -7.238   3.535  63.791  1.00  0.00    -0.051 A  
HETATM   26  C   UNL     1      -7.650   4.728  64.382  1.00  0.00    -0.073 A  
ENDBRANCH  20  21
ENDBRANCH  17  20
ENDBRANCH  16  17
ENDBRANCH  15  16
ENDBRANCH  14  15
ENDBRANCH  13  14
ENDBRANCH  12  13
ENDBRANCH  11  12
ENDBRANCH  10  11
ENDBRANCH   9  10
ENDBRANCH   8   9
ENDBRANCH   7   8
ENDBRANCH   6   7
ENDBRANCH   5   6
ENDBRANCH   4   5
ENDBRANCH   3   4
ENDBRANCH   2   3
TORSDOF 17
ENDMDL
MODEL      375
REMARK 921   NORMALIZED FREE ENERGY PREDICTED BY IDOCK:   -2.10 KCAL/MOL
REMARK 922        TOTAL FREE ENERGY PREDICTED BY IDOCK:   -7.02 KCAL/MOL
REMARK 923 INTER-LIGAND FREE ENERGY PREDICTED BY IDOCK:   -5.76 KCAL/MOL
REMARK 924 INTRA-LIGAND FREE ENERGY PREDICTED BY IDOCK:   -1.27 KCAL/MOL
REMARK 927      BINDING AFFINITY PREDICTED BY RF-SCORE:    0.00 PKD
ROOT
HETATM    1  C   UNL     1      -6.807  16.814  69.164  1.00  0.00    -0.227 C  
HETATM    2  C   UNL     1      -7.305  16.889  67.730  1.00  0.00    -0.169 C  
ENDROOT
BRANCH   2   3
HETATM    3  C   UNL     1      -8.346  17.993  67.569  1.00  0.00    -0.233 C  
BRANCH   3   4
HETATM    4  C   UNL     1      -9.662  17.430  67.040  1.00  0.00    -0.276 C  
BRANCH   4   5
HETATM    5  C   UNL     1     -10.744  17.506  68.109  1.00  0.00    -0.330 C  
BRANCH   5   6
HETATM    6  C   UNL     1     -10.788  16.222  68.927  1.00  0.00    -0.317 C  
BRANCH   6   7
HETATM    7  C   UNL     1     -11.666  15.186  68.239  1.00  0.00    -0.336 C  
BRANCH   7   8
HETATM    8  C   UNL     1     -12.222  14.199  69.255  1.00  0.00    -0.308 C  
BRANCH   8   9
HETATM    9  C   UNL     1     -11.922  14.674  70.671  1.00  0.00    -0.380 C  
BRANCH   9  10
HETATM   10  C   UNL     1     -12.812  13.948  71.667  1.00  0.00    -0.432 C  
BRANCH  10  11
HETATM   11  C   UNL     1     -13.269  12.612  71.108  1.00  0.00    -0.010 C  
BRANCH  11  12
HETATM   12  C   UNL     1     -12.554  11.480  71.826  1.00  0.00    -0.225 C  
BRANCH  12  13
HETATM   13  C   UNL     1     -12.220  10.338  70.875  1.00  0.00    -0.465 C  
BRANCH  13  14
HETATM   14  C   UNL     1     -11.236  10.759  69.783  1.00  0.00    -0.365 C  
BRANCH  14  15
HETATM   15  C   UNL     1     -11.379  10.002  68.460  1.00  0.00    -0.115 C  
BRANCH  15  16
HETATM   16  C   UNL     1     -10.059   9.407  67.963  1.00  0.00    -0.191 C  
BRANCH  16  17
HETATM   17  N   UNL     1      -9.465  10.146  66.750  1.00  0.00    -0.163 N  
HETATM   18  C   UNL     1     -10.412  11.239  66.269  1.00  0.00    -0.258 C  
HETATM   19  C   UNL     1      -8.118  10.769  67.114  1.00  0.00    -0.124 C  
BRANCH  17  20
HETATM   20  C   UNL     1      -9.252   9.081  65.619  1.00  0.00    -0.225 C  
BRANCH  20  21
HETATM   21  C   UNL     1      -7.950   9.219  64.869  1.00  0.00    -0.121 A  
HETATM   22  C   UNL     1      -7.853  10.080  63.764  1.00  0.00    -0.152 A  
HETATM   23  C   UNL     1      -6.750  10.008  62.912  1.00  0.00    -0.127 A  
HETATM   24  C   UNL     1      -5.724   9.103  63.177  1.00  0.00    -0.083 A  
HETATM   25  C   UNL     1      -5.768   8.314  64.322  1.00  0.00    -0.060 A  
HETATM   26  C   UNL     1      -6.864   8.389  65.180  1.00  0.00    -0.067 A  
ENDBRANCH  20  21
ENDBRANCH  17  20
ENDBRANCH  16  17
ENDBRANCH  15  16
ENDBRANCH  14  15
ENDBRANCH  13  14
ENDBRANCH  12  13
ENDBRANCH  11  12
ENDBRANCH  10  11
ENDBRANCH   9  10
ENDBRANCH   8   9
ENDBRANCH   7   8
ENDBRANCH   6   7
ENDBRANCH   5   6
ENDBRANCH   4   5
ENDBRANCH   3   4
ENDBRANCH   2   3
TORSDOF 17
ENDMDL
MODEL      376
REMARK 921   NORMALIZED FREE ENERGY PREDICTED BY IDOCK:   -2.09 KCAL/MOL
REMARK 922        TOTAL FREE ENERGY PREDICTED BY IDOCK:   -7.01 KCAL/MOL
REMARK 923 INTER-LIGAND FREE ENERGY PREDICTED BY IDOCK:   -5.76 KCAL/MOL
REMARK 924 INTRA-LIGAND FREE ENERGY PREDICTED BY IDOCK:   -1.25 KCAL/MOL
REMARK 927      BINDING AFFINITY PREDICTED BY RF-SCORE:    0.00 PKD
ROOT
HETATM    1  C   UNL     1     -11.655  15.307  69.474  1.00  0.00    -0.339 C  
HETATM    2  C   UNL     1     -11.030  14.341  68.483  1.00  0.00    -0.267 C  
ENDROOT
BRANCH   2   3
HETATM    3  C   UNL     1     -11.909  13.108  68.291  1.00  0.00    -0.384 C  
BRANCH   3   4
HETATM    4  C   UNL     1     -11.229  12.088  67.382  1.00  0.00    -0.368 C  
BRANCH   4   5
HETATM    5  C   UNL     1     -11.121  10.738  68.081  1.00  0.00    -0.337 C  
BRANCH   5   6
HETATM    6  C   UNL     1     -11.396  10.878  69.573  1.00  0.00    -0.351 C  
BRANCH   6   7
HETATM    7  C   UNL     1     -10.431  10.012  70.371  1.00  0.00    -0.304 C  
BRANCH   7   8
HETATM    8  C   UNL     1     -11.177   9.235  71.446  1.00  0.00    -0.433 C  
BRANCH   8   9
HETATM    9  C   UNL     1     -11.698   7.920  70.882  1.00  0.00    -0.271 C  
BRANCH   9  10
HETATM   10  C   UNL     1     -12.253   7.053  72.000  1.00  0.00    -0.317 C  
BRANCH  10  11
HETATM   11  C   UNL     1     -11.158   6.196  72.612  1.00  0.00    -0.308 C  
BRANCH  11  12
HETATM   12  C   UNL     1     -10.697   5.153  71.608  1.00  0.00    -0.181 C  
BRANCH  12  13
HETATM   13  C   UNL     1      -9.177   5.050  71.568  1.00  0.00    -0.181 C  
BRANCH  13  14
HETATM   14  C   UNL     1      -8.584   5.705  70.321  1.00  0.00    -0.131 C  
BRANCH  14  15
HETATM   15  C   UNL     1      -9.432   5.563  69.054  1.00  0.00    -0.167 C  
BRANCH  15  16
HETATM   16  C   UNL     1      -8.608   5.650  67.766  1.00  0.00    -0.101 C  
BRANCH  16  17
HETATM   17  N   UNL     1      -8.856   6.938  66.960  1.00  0.00    -0.117 N  
HETATM   18  C   UNL     1     -10.300   7.399  67.111  1.00  0.00    -0.307 C  
HETATM   19  C   UNL     1      -7.918   8.049  67.429  1.00  0.00    -0.122 C  
BRANCH  17  20
HETATM   20  C   UNL     1      -8.551   6.607  65.456  1.00  0.00    -0.093 C  
BRANCH  20  21
HETATM   21  C   UNL     1      -7.803   7.690  64.719  1.00  0.00    -0.129 A  
HETATM   22  C   UNL     1      -6.436   7.543  64.434  1.00  0.00    -0.048 A  
HETATM   23  C   UNL     1      -5.687   8.639  64.004  1.00  0.00    -0.066 A  
HETATM   24  C   UNL     1      -6.303   9.875  63.822  1.00  0.00    -0.126 A  
HETATM   25  C   UNL     1      -7.675  10.006  64.011  1.00  0.00    -0.143 A  
HETATM   26  C   UNL     1      -8.429   8.912  64.433  1.00  0.00    -0.170 A  
ENDBRANCH  20  21
ENDBRANCH  17  20
ENDBRANCH  16  17
ENDBRANCH  15  16
ENDBRANCH  14  15
ENDBRANCH  13  14
ENDBRANCH  12  13
ENDBRANCH  11  12
ENDBRANCH  10  11
ENDBRANCH   9  10
ENDBRANCH   8   9
ENDBRANCH   7   8
ENDBRANCH   6   7
ENDBRANCH   5   6
ENDBRANCH   4   5
ENDBRANCH   3   4
ENDBRANCH   2   3
TORSDOF 17
ENDMDL
MODEL      377
REMARK 921   NORMALIZED FREE ENERGY PREDICTED BY IDOCK:   -2.09 KCAL/MOL
REMARK 922        TOTAL FREE ENERGY PREDICTED BY IDOCK:   -7.01 KCAL/MOL
REMARK 923 INTER-LIGAND FREE ENERGY PREDICTED BY IDOCK:   -4.91 KCAL/MOL
REMARK 924 INTRA-LIGAND FREE ENERGY PREDICTED BY IDOCK:   -2.10 KCAL/MOL
REMARK 927      BINDING AFFINITY PREDICTED BY RF-SCORE:    0.00 PKD
ROOT
HETATM    1  C   UNL     1      -6.860  14.742  69.615  1.00  0.00    -0.173 C  
HETATM    2  C   UNL     1      -5.771  13.684  69.661  1.00  0.00    -0.102 C  
ENDROOT
BRANCH   2   3
HETATM    3  C   UNL     1      -6.360  12.285  69.500  1.00  0.00    -0.121 C  
BRANCH   3   4
HETATM    4  C   UNL     1      -7.260  12.210  68.270  1.00  0.00    -0.095 C  
BRANCH   4   5
HETATM    5  C   UNL     1      -8.424  11.259  68.517  1.00  0.00    -0.156 C  
BRANCH   5   6
HETATM    6  C   UNL     1      -9.543  11.500  67.512  1.00  0.00    -0.179 C  
BRANCH   6   7
HETATM    7  C   UNL     1     -10.262  12.805  67.824  1.00  0.00    -0.223 C  
BRANCH   7   8
HETATM    8  C   UNL     1     -11.687  12.532  68.280  1.00  0.00    -0.390 C  
BRANCH   8   9
HETATM    9  C   UNL     1     -11.728  12.325  69.789  1.00  0.00    -0.368 C  
BRANCH   9  10
HETATM   10  C   UNL     1     -12.519  11.072  70.125  1.00  0.00    -0.344 C  
BRANCH  10  11
HETATM   11  C   UNL     1     -11.968  10.404  71.373  1.00  0.00    -0.379 C  
BRANCH  11  12
HETATM   12  C   UNL     1     -10.830   9.470  70.998  1.00  0.00    -0.423 C  
BRANCH  12  13
HETATM   13  C   UNL     1     -11.273   8.436  69.970  1.00  0.00    -0.085 C  
BRANCH  13  14
HETATM   14  C   UNL     1     -11.708   7.122  70.619  1.00  0.00    -0.348 C  
BRANCH  14  15
HETATM   15  C   UNL     1     -10.898   5.894  70.192  1.00  0.00    -0.402 C  
BRANCH  15  16
HETATM   16  C   UNL     1     -10.573   5.881  68.695  1.00  0.00    -0.256 C  
BRANCH  16  17
HETATM   17  N   UNL     1      -9.181   5.309  68.370  1.00  0.00    -0.110 N  
HETATM   18  C   UNL     1      -8.372   5.102  69.644  1.00  0.00    -0.093 C  
HETATM   19  C   UNL     1      -9.312   3.978  67.631  1.00  0.00    -0.181 C  
BRANCH  17  20
HETATM   20  C   UNL     1      -8.463   6.347  67.438  1.00  0.00    -0.108 C  
BRANCH  20  21
HETATM   21  C   UNL     1      -7.500   7.264  68.152  1.00  0.00    -0.102 A  
HETATM   22  C   UNL     1      -6.195   7.446  67.664  1.00  0.00    -0.047 A  
HETATM   23  C   UNL     1      -5.229   8.065  68.458  1.00  0.00    -0.031 A  
HETATM   24  C   UNL     1      -5.567   8.537  69.724  1.00  0.00    -0.029 A  
HETATM   25  C   UNL     1      -6.879   8.446  70.177  1.00  0.00    -0.042 A  
HETATM   26  C   UNL     1      -7.850   7.835  69.384  1.00  0.00    -0.115 A  
ENDBRANCH  20  21
ENDBRANCH  17  20
ENDBRANCH  16  17
ENDBRANCH  15  16
ENDBRANCH  14  15
ENDBRANCH  13  14
ENDBRANCH  12  13
ENDBRANCH  11  12
ENDBRANCH  10  11
ENDBRANCH   9  10
ENDBRANCH   8   9
ENDBRANCH   7   8
ENDBRANCH   6   7
ENDBRANCH   5   6
ENDBRANCH   4   5
ENDBRANCH   3   4
ENDBRANCH   2   3
TORSDOF 17
ENDMDL
MODEL      378
REMARK 921   NORMALIZED FREE ENERGY PREDICTED BY IDOCK:   -2.08 KCAL/MOL
REMARK 922        TOTAL FREE ENERGY PREDICTED BY IDOCK:   -6.98 KCAL/MOL
REMARK 923 INTER-LIGAND FREE ENERGY PREDICTED BY IDOCK:   -5.18 KCAL/MOL
REMARK 924 INTRA-LIGAND FREE ENERGY PREDICTED BY IDOCK:   -1.80 KCAL/MOL
REMARK 927      BINDING AFFINITY PREDICTED BY RF-SCORE:    0.00 PKD
ROOT
HETATM    1  C   UNL     1     -10.619  13.127  64.291  1.00  0.00    -0.432 C  
HETATM    2  C   UNL     1     -10.393  11.732  64.850  1.00  0.00    -0.334 C  
ENDROOT
BRANCH   2   3
HETATM    3  C   UNL     1     -10.036  10.749  63.738  1.00  0.00    -0.411 C  
BRANCH   3   4
HETATM    4  C   UNL     1      -9.284   9.544  64.297  1.00  0.00    -0.166 C  
BRANCH   4   5
HETATM    5  C   UNL     1      -9.650   9.315  65.757  1.00  0.00    -0.341 C  
BRANCH   5   6
HETATM    6  C   UNL     1      -9.565   7.836  66.111  1.00  0.00    -0.104 C  
BRANCH   6   7
HETATM    7  C   UNL     1      -8.286   7.551  66.888  1.00  0.00    -0.125 C  
BRANCH   7   8
HETATM    8  C   UNL     1      -8.293   6.127  67.422  1.00  0.00    -0.108 C  
BRANCH   8   9
HETATM    9  C   UNL     1      -9.713   5.702  67.775  1.00  0.00    -0.140 C  
BRANCH   9  10
HETATM   10  C   UNL     1      -9.941   5.832  69.273  1.00  0.00    -0.238 C  
BRANCH  10  11
HETATM   11  C   UNL     1     -11.386   6.196  69.568  1.00  0.00    -0.426 C  
BRANCH  11  12
HETATM   12  C   UNL     1     -11.436   7.375  70.524  1.00  0.00    -0.281 C  
BRANCH  12  13
HETATM   13  C   UNL     1     -10.976   8.661  69.848  1.00  0.00    -0.169 C  
BRANCH  13  14
HETATM   14  C   UNL     1      -9.865   9.363  70.630  1.00  0.00    -0.340 C  
BRANCH  14  15
HETATM   15  C   UNL     1      -8.630   9.730  69.802  1.00  0.00    -0.215 C  
BRANCH  15  16
HETATM   16  C   UNL     1      -8.922  10.773  68.720  1.00  0.00    -0.170 C  
BRANCH  16  17
HETATM   17  N   UNL     1      -7.721  11.680  68.395  1.00  0.00    -0.123 N  
HETATM   18  C   UNL     1      -6.415  11.015  68.813  1.00  0.00    -0.051 C  
HETATM   19  C   UNL     1      -7.675  11.988  66.899  1.00  0.00    -0.078 C  
BRANCH  17  20
HETATM   20  C   UNL     1      -7.923  13.017  69.191  1.00  0.00     0.447 C  
BRANCH  20  21
HETATM   21  C   UNL     1      -8.316  14.197  68.337  1.00  0.00    -0.161 A  
HETATM   22  C   UNL     1      -9.669  14.476  68.087  1.00  0.00    -0.219 A  
HETATM   23  C   UNL     1     -10.027  15.386  67.091  1.00  0.00    -0.234 A  
HETATM   24  C   UNL     1      -9.038  16.047  66.365  1.00  0.00    -0.354 A  
HETATM   25  C   UNL     1      -7.696  15.847  66.671  1.00  0.00    -0.199 A  
HETATM   26  C   UNL     1      -7.335  14.945  67.671  1.00  0.00    -0.208 A  
ENDBRANCH  20  21
ENDBRANCH  17  20
ENDBRANCH  16  17
ENDBRANCH  15  16
ENDBRANCH  14  15
ENDBRANCH  13  14
ENDBRANCH  12  13
ENDBRANCH  11  12
ENDBRANCH  10  11
ENDBRANCH   9  10
ENDBRANCH   8   9
ENDBRANCH   7   8
ENDBRANCH   6   7
ENDBRANCH   5   6
ENDBRANCH   4   5
ENDBRANCH   3   4
ENDBRANCH   2   3
TORSDOF 17
ENDMDL
MODEL      379
REMARK 921   NORMALIZED FREE ENERGY PREDICTED BY IDOCK:   -2.04 KCAL/MOL
REMARK 922        TOTAL FREE ENERGY PREDICTED BY IDOCK:   -6.90 KCAL/MOL
REMARK 923 INTER-LIGAND FREE ENERGY PREDICTED BY IDOCK:   -5.74 KCAL/MOL
REMARK 924 INTRA-LIGAND FREE ENERGY PREDICTED BY IDOCK:   -1.16 KCAL/MOL
REMARK 927      BINDING AFFINITY PREDICTED BY RF-SCORE:    0.00 PKD
ROOT
HETATM    1  C   UNL     1     -12.433  11.226  70.210  1.00  0.00    -0.330 C  
HETATM    2  C   UNL     1     -12.111  10.650  71.578  1.00  0.00    -0.261 C  
ENDROOT
BRANCH   2   3
HETATM    3  C   UNL     1     -13.206   9.693  72.041  1.00  0.00    -0.546 C  
BRANCH   3   4
HETATM    4  C   UNL     1     -12.671   8.270  72.170  1.00  0.00    -0.366 C  
BRANCH   4   5
HETATM    5  C   UNL     1     -11.149   8.264  72.105  1.00  0.00    -0.397 C  
BRANCH   5   6
HETATM    6  C   UNL     1     -10.613   6.839  72.106  1.00  0.00    -0.237 C  
BRANCH   6   7
HETATM    7  C   UNL     1     -11.344   5.999  71.067  1.00  0.00    -0.299 C  
BRANCH   7   8
HETATM    8  C   UNL     1     -10.678   6.136  69.706  1.00  0.00    -0.376 C  
BRANCH   8   9
HETATM    9  C   UNL     1      -9.809   4.918  69.418  1.00  0.00    -0.281 C  
BRANCH   9  10
HETATM   10  C   UNL     1      -9.618   4.753  67.919  1.00  0.00    -0.198 C  
BRANCH  10  11
HETATM   11  C   UNL     1     -10.315   5.869  67.160  1.00  0.00    -0.286 C  
BRANCH  11  12
HETATM   12  C   UNL     1      -9.357   6.487  66.157  1.00  0.00    -0.101 C  
BRANCH  12  13
HETATM   13  C   UNL     1      -9.372   8.009  66.235  1.00  0.00    -0.246 C  
BRANCH  13  14
HETATM   14  C   UNL     1     -10.490   8.533  67.137  1.00  0.00    -0.370 C  
BRANCH  14  15
HETATM   15  C   UNL     1     -10.704  10.048  67.080  1.00  0.00    -0.279 C  
BRANCH  15  16
HETATM   16  C   UNL     1      -9.499  10.804  66.515  1.00  0.00    -0.169 C  
BRANCH  16  17
HETATM   17  N   UNL     1      -9.117  12.055  67.328  1.00  0.00    -0.172 N  
HETATM   18  C   UNL     1      -7.699  12.503  66.994  1.00  0.00    -0.040 C  
HETATM   19  C   UNL     1     -10.090  13.197  67.036  1.00  0.00    -0.241 C  
BRANCH  17  20
HETATM   20  C   UNL     1      -9.217  11.668  68.845  1.00  0.00     0.059 C  
BRANCH  20  21
HETATM   21  C   UNL     1      -8.282  10.562  69.269  1.00  0.00    -0.151 A  
HETATM   22  C   UNL     1      -6.930  10.833  69.531  1.00  0.00    -0.130 A  
HETATM   23  C   UNL     1      -6.014   9.787  69.653  1.00  0.00    -0.041 A  
HETATM   24  C   UNL     1      -6.448   8.467  69.550  1.00  0.00    -0.040 A  
HETATM   25  C   UNL     1      -7.801   8.187  69.385  1.00  0.00    -0.105 A  
HETATM   26  C   UNL     1      -8.720   9.229  69.271  1.00  0.00    -0.141 A  
ENDBRANCH  20  21
ENDBRANCH  17  20
ENDBRANCH  16  17
ENDBRANCH  15  16
ENDBRANCH  14  15
ENDBRANCH  13  14
ENDBRANCH  12  13
ENDBRANCH  11  12
ENDBRANCH  10  11
ENDBRANCH   9  10
ENDBRANCH   8   9
ENDBRANCH   7   8
ENDBRANCH   6   7
ENDBRANCH   5   6
ENDBRANCH   4   5
ENDBRANCH   3   4
ENDBRANCH   2   3
TORSDOF 17
ENDMDL
MODEL      380
REMARK 921   NORMALIZED FREE ENERGY PREDICTED BY IDOCK:   -2.02 KCAL/MOL
REMARK 922        TOTAL FREE ENERGY PREDICTED BY IDOCK:   -6.87 KCAL/MOL
REMARK 923 INTER-LIGAND FREE ENERGY PREDICTED BY IDOCK:   -5.90 KCAL/MOL
REMARK 924 INTRA-LIGAND FREE ENERGY PREDICTED BY IDOCK:   -0.97 KCAL/MOL
REMARK 927      BINDING AFFINITY PREDICTED BY RF-SCORE:    0.00 PKD
ROOT
HETATM    1  C   UNL     1     -12.048  13.421  68.250  1.00  0.00    -0.271 C  
HETATM    2  C   UNL     1     -10.739  13.729  67.543  1.00  0.00    -0.262 C  
ENDROOT
BRANCH   2   3
HETATM    3  C   UNL     1      -9.575  12.990  68.199  1.00  0.00    -0.227 C  
BRANCH   3   4
HETATM    4  C   UNL     1      -8.364  12.946  67.271  1.00  0.00    -0.185 C  
BRANCH   4   5
HETATM    5  C   UNL     1      -8.089  11.517  66.819  1.00  0.00    -0.158 C  
BRANCH   5   6
HETATM    6  C   UNL     1      -7.347  10.741  67.899  1.00  0.00    -0.088 C  
BRANCH   6   7
HETATM    7  C   UNL     1      -7.364   9.251  67.585  1.00  0.00    -0.084 C  
BRANCH   7   8
HETATM    8  C   UNL     1      -8.349   8.954  66.465  1.00  0.00    -0.115 C  
BRANCH   8   9
HETATM    9  C   UNL     1      -9.269   7.806  66.861  1.00  0.00    -0.187 C  
BRANCH   9  10
HETATM   10  C   UNL     1      -8.453   6.650  67.419  1.00  0.00    -0.120 C  
BRANCH  10  11
HETATM   11  C   UNL     1      -9.273   5.839  68.407  1.00  0.00    -0.121 C  
BRANCH  11  12
HETATM   12  C   UNL     1      -8.551   4.543  68.735  1.00  0.00    -0.100 C  
BRANCH  12  13
HETATM   13  C   UNL     1      -9.360   3.681  69.696  1.00  0.00    -0.243 C  
BRANCH  13  14
HETATM   14  C   UNL     1     -10.045   4.509  70.783  1.00  0.00    -0.233 C  
BRANCH  14  15
HETATM   15  C   UNL     1      -9.122   4.978  71.911  1.00  0.00    -0.157 C  
BRANCH  15  16
HETATM   16  C   UNL     1      -8.671   6.433  71.752  1.00  0.00    -0.132 C  
BRANCH  16  17
HETATM   17  N   UNL     1      -9.480   7.428  72.604  1.00  0.00    -0.146 N  
HETATM   18  C   UNL     1     -10.566   6.705  73.391  1.00  0.00    -0.309 C  
HETATM   19  C   UNL     1      -8.561   8.170  73.573  1.00  0.00    -0.246 C  
BRANCH  17  20
HETATM   20  C   UNL     1     -10.128   8.461  71.616  1.00  0.00    -0.239 C  
BRANCH  20  21
HETATM   21  C   UNL     1     -11.637   8.460  71.613  1.00  0.00    -0.348 A  
HETATM   22  C   UNL     1     -12.351   9.467  72.283  1.00  0.00    -0.298 A  
HETATM   23  C   UNL     1     -13.719   9.322  72.515  1.00  0.00    -0.475 A  
HETATM   24  C   UNL     1     -14.388   8.192  72.050  1.00  0.00    -0.524 A  
HETATM   25  C   UNL     1     -13.707   7.236  71.303  1.00  0.00    -0.328 A  
HETATM   26  C   UNL     1     -12.342   7.380  71.062  1.00  0.00    -0.303 A  
ENDBRANCH  20  21
ENDBRANCH  17  20
ENDBRANCH  16  17
ENDBRANCH  15  16
ENDBRANCH  14  15
ENDBRANCH  13  14
ENDBRANCH  12  13
ENDBRANCH  11  12
ENDBRANCH  10  11
ENDBRANCH   9  10
ENDBRANCH   8   9
ENDBRANCH   7   8
ENDBRANCH   6   7
ENDBRANCH   5   6
ENDBRANCH   4   5
ENDBRANCH   3   4
ENDBRANCH   2   3
TORSDOF 17
ENDMDL
MODEL      381
REMARK 921   NORMALIZED FREE ENERGY PREDICTED BY IDOCK:   -2.02 KCAL/MOL
REMARK 922        TOTAL FREE ENERGY PREDICTED BY IDOCK:   -6.86 KCAL/MOL
REMARK 923 INTER-LIGAND FREE ENERGY PREDICTED BY IDOCK:   -4.72 KCAL/MOL
REMARK 924 INTRA-LIGAND FREE ENERGY PREDICTED BY IDOCK:   -2.14 KCAL/MOL
REMARK 927      BINDING AFFINITY PREDICTED BY RF-SCORE:    0.00 PKD
ROOT
HETATM    1  C   UNL     1      -7.328  11.728  68.492  1.00  0.00    -0.103 C  
HETATM    2  C   UNL     1      -6.751  12.599  67.388  1.00  0.00    -0.143 C  
ENDROOT
BRANCH   2   3
HETATM    3  C   UNL     1      -7.490  13.932  67.300  1.00  0.00    -0.051 C  
BRANCH   3   4
HETATM    4  C   UNL     1      -8.953  13.721  66.922  1.00  0.00    -0.234 C  
BRANCH   4   5
HETATM    5  C   UNL     1      -9.565  15.019  66.411  1.00  0.00    -0.314 C  
BRANCH   5   6
HETATM    6  C   UNL     1     -11.060  14.855  66.170  1.00  0.00    -0.335 C  
BRANCH   6   7
HETATM    7  C   UNL     1     -11.322  14.466  64.721  1.00  0.00    -0.388 C  
BRANCH   7   8
HETATM    8  C   UNL     1     -12.028  13.120  64.650  1.00  0.00    -0.439 C  
BRANCH   8   9
HETATM    9  C   UNL     1     -11.019  12.008  64.394  1.00  0.00    -0.385 C  
BRANCH   9  10
HETATM   10  C   UNL     1     -10.853  11.154  65.640  1.00  0.00    -0.206 C  
BRANCH  10  11
HETATM   11  C   UNL     1      -9.880  10.014  65.388  1.00  0.00    -0.384 C  
BRANCH  11  12
HETATM   12  C   UNL     1      -8.547  10.570  64.919  1.00  0.00    -0.179 C  
BRANCH  12  13
HETATM   13  C   UNL     1      -7.477   9.485  64.867  1.00  0.00    -0.111 C  
BRANCH  13  14
HETATM   14  C   UNL     1      -7.999   8.184  64.257  1.00  0.00    -0.144 C  
BRANCH  14  15
HETATM   15  C   UNL     1      -7.430   6.907  64.882  1.00  0.00    -0.094 C  
BRANCH  15  16
HETATM   16  C   UNL     1      -7.759   6.769  66.371  1.00  0.00    -0.098 C  
BRANCH  16  17
HETATM   17  N   UNL     1      -6.616   6.158  67.202  1.00  0.00    -0.053 N  
HETATM   18  C   UNL     1      -6.163   4.833  66.602  1.00  0.00    -0.032 C  
HETATM   19  C   UNL     1      -5.429   7.118  67.263  1.00  0.00    -0.021 C  
BRANCH  17  20
HETATM   20  C   UNL     1      -7.171   5.931  68.652  1.00  0.00    -0.083 C  
BRANCH  20  21
HETATM   21  C   UNL     1      -8.385   6.760  68.992  1.00  0.00    -0.124 A  
HETATM   22  C   UNL     1      -9.673   6.207  68.905  1.00  0.00    -0.151 A  
HETATM   23  C   UNL     1     -10.796   7.033  68.950  1.00  0.00    -0.203 A  
HETATM   24  C   UNL     1     -10.644   8.407  69.119  1.00  0.00    -0.177 A  
HETATM   25  C   UNL     1      -9.376   8.952  69.301  1.00  0.00    -0.149 A  
HETATM   26  C   UNL     1      -8.252   8.129  69.265  1.00  0.00    -0.119 A  
ENDBRANCH  20  21
ENDBRANCH  17  20
ENDBRANCH  16  17
ENDBRANCH  15  16
ENDBRANCH  14  15
ENDBRANCH  13  14
ENDBRANCH  12  13
ENDBRANCH  11  12
ENDBRANCH  10  11
ENDBRANCH   9  10
ENDBRANCH   8   9
ENDBRANCH   7   8
ENDBRANCH   6   7
ENDBRANCH   5   6
ENDBRANCH   4   5
ENDBRANCH   3   4
ENDBRANCH   2   3
TORSDOF 17
ENDMDL
MODEL      382
REMARK 921   NORMALIZED FREE ENERGY PREDICTED BY IDOCK:   -2.02 KCAL/MOL
REMARK 922        TOTAL FREE ENERGY PREDICTED BY IDOCK:   -6.86 KCAL/MOL
REMARK 923 INTER-LIGAND FREE ENERGY PREDICTED BY IDOCK:   -6.92 KCAL/MOL
REMARK 924 INTRA-LIGAND FREE ENERGY PREDICTED BY IDOCK:    0.06 KCAL/MOL
REMARK 927      BINDING AFFINITY PREDICTED BY RF-SCORE:    0.00 PKD
ROOT
HETATM    1  C   UNL     1      -8.635  20.086  67.049  1.00  0.00    -0.399 C  
HETATM    2  C   UNL     1      -9.899  20.047  66.208  1.00  0.00    -0.576 C  
ENDROOT
BRANCH   2   3
HETATM    3  C   UNL     1     -10.671  18.751  66.439  1.00  0.00    -0.324 C  
BRANCH   3   4
HETATM    4  C   UNL     1      -9.922  17.833  67.400  1.00  0.00    -0.323 C  
BRANCH   4   5
HETATM    5  C   UNL     1     -10.198  16.372  67.068  1.00  0.00    -0.282 C  
BRANCH   5   6
HETATM    6  C   UNL     1      -9.740  16.043  65.653  1.00  0.00    -0.273 C  
BRANCH   6   7
HETATM    7  C   UNL     1     -10.587  14.919  65.072  1.00  0.00    -0.446 C  
BRANCH   7   8
HETATM    8  C   UNL     1     -11.629  14.461  66.080  1.00  0.00    -0.372 C  
BRANCH   8   9
HETATM    9  C   UNL     1     -12.217  13.119  65.661  1.00  0.00    -0.521 C  
BRANCH   9  10
HETATM   10  C   UNL     1     -12.092  12.939  64.157  1.00  0.00    -0.503 C  
BRANCH  10  11
HETATM   11  C   UNL     1     -11.187  11.765  63.827  1.00  0.00    -0.518 C  
BRANCH  11  12
HETATM   12  C   UNL     1     -10.859  10.995  65.094  1.00  0.00    -0.183 C  
BRANCH  12  13
HETATM   13  C   UNL     1      -9.467  11.337  65.611  1.00  0.00    -0.254 C  
BRANCH  13  14
HETATM   14  C   UNL     1      -9.308  11.028  67.100  1.00  0.00    -0.177 C  
BRANCH  14  15
HETATM   15  C   UNL     1     -10.047   9.775  67.578  1.00  0.00    -0.246 C  
BRANCH  15  16
HETATM   16  C   UNL     1      -9.256   8.485  67.342  1.00  0.00    -0.140 C  
BRANCH  16  17
HETATM   17  N   UNL     1      -9.515   7.398  68.401  1.00  0.00    -0.143 N  
HETATM   18  C   UNL     1      -9.589   8.009  69.795  1.00  0.00    -0.171 C  
HETATM   19  C   UNL     1     -10.822   6.664  68.101  1.00  0.00    -0.263 C  
BRANCH  17  20
HETATM   20  C   UNL     1      -8.323   6.381  68.320  1.00  0.00    -0.116 C  
BRANCH  20  21
HETATM   21  C   UNL     1      -8.314   5.528  67.075  1.00  0.00    -0.107 A  
HETATM   22  C   UNL     1      -9.389   5.575  66.172  1.00  0.00    -0.169 A  
HETATM   23  C   UNL     1      -9.514   4.604  65.178  1.00  0.00    -0.147 A  
HETATM   24  C   UNL     1      -8.551   3.604  65.057  1.00  0.00    -0.109 A  
HETATM   25  C   UNL     1      -7.434   3.606  65.887  1.00  0.00    -0.077 A  
HETATM   26  C   UNL     1      -7.301   4.579  66.876  1.00  0.00    -0.081 A  
ENDBRANCH  20  21
ENDBRANCH  17  20
ENDBRANCH  16  17
ENDBRANCH  15  16
ENDBRANCH  14  15
ENDBRANCH  13  14
ENDBRANCH  12  13
ENDBRANCH  11  12
ENDBRANCH  10  11
ENDBRANCH   9  10
ENDBRANCH   8   9
ENDBRANCH   7   8
ENDBRANCH   6   7
ENDBRANCH   5   6
ENDBRANCH   4   5
ENDBRANCH   3   4
ENDBRANCH   2   3
TORSDOF 17
ENDMDL
MODEL      383
REMARK 921   NORMALIZED FREE ENERGY PREDICTED BY IDOCK:   -2.01 KCAL/MOL
REMARK 922        TOTAL FREE ENERGY PREDICTED BY IDOCK:   -6.85 KCAL/MOL
REMARK 923 INTER-LIGAND FREE ENERGY PREDICTED BY IDOCK:   -5.65 KCAL/MOL
REMARK 924 INTRA-LIGAND FREE ENERGY PREDICTED BY IDOCK:   -1.19 KCAL/MOL
REMARK 927      BINDING AFFINITY PREDICTED BY RF-SCORE:    0.00 PKD
ROOT
HETATM    1  C   UNL     1      -7.349   5.784  73.545  1.00  0.00    -0.087 C  
HETATM    2  C   UNL     1      -7.217   5.935  72.039  1.00  0.00    -0.092 C  
ENDROOT
BRANCH   2   3
HETATM    3  C   UNL     1      -8.553   6.319  71.408  1.00  0.00    -0.131 C  
BRANCH   3   4
HETATM    4  C   UNL     1      -8.501   6.178  69.890  1.00  0.00    -0.129 C  
BRANCH   4   5
HETATM    5  C   UNL     1      -8.303   7.538  69.233  1.00  0.00    -0.132 C  
BRANCH   5   6
HETATM    6  C   UNL     1      -9.094   8.613  69.966  1.00  0.00    -0.157 C  
BRANCH   6   7
HETATM    7  C   UNL     1      -9.964   9.389  68.986  1.00  0.00    -0.182 C  
BRANCH   7   8
HETATM    8  C   UNL     1      -9.226   9.604  67.673  1.00  0.00    -0.144 C  
BRANCH   8   9
HETATM    9  C   UNL     1      -8.793  11.059  67.542  1.00  0.00    -0.131 C  
BRANCH   9  10
HETATM   10  C   UNL     1      -8.042  11.496  68.789  1.00  0.00    -0.093 C  
BRANCH  10  11
HETATM   11  C   UNL     1      -6.546  11.544  68.528  1.00  0.00    -0.063 C  
BRANCH  11  12
HETATM   12  C   UNL     1      -6.236  12.620  67.502  1.00  0.00    -0.159 C  
BRANCH  12  13
HETATM   13  C   UNL     1      -5.424  13.756  68.112  1.00  0.00    -0.116 C  
BRANCH  13  14
HETATM   14  C   UNL     1      -6.083  15.119  67.901  1.00  0.00    -0.170 C  
BRANCH  14  15
HETATM   15  C   UNL     1      -7.589  15.155  68.179  1.00  0.00    -0.116 C  
BRANCH  15  16
HETATM   16  C   UNL     1      -8.407  15.662  66.988  1.00  0.00    -0.228 C  
BRANCH  16  17
HETATM   17  N   UNL     1      -9.863  15.163  66.981  1.00  0.00    -0.228 N  
HETATM   18  C   UNL     1     -10.060  14.087  65.920  1.00  0.00    -0.321 C  
HETATM   19  C   UNL     1     -10.239  14.598  68.351  1.00  0.00    -0.235 C  
BRANCH  17  20
HETATM   20  C   UNL     1     -10.774  16.402  66.667  1.00  0.00    -0.173 C  
BRANCH  20  21
HETATM   21  C   UNL     1     -10.203  17.725  67.115  1.00  0.00    -0.353 A  
HETATM   22  C   UNL     1     -10.111  18.035  68.481  1.00  0.00    -0.399 A  
HETATM   23  C   UNL     1      -9.845  19.343  68.888  1.00  0.00    -0.523 A  
HETATM   24  C   UNL     1      -9.634  20.339  67.936  1.00  0.00    -0.438 A  
HETATM   25  C   UNL     1      -9.629  20.020  66.582  1.00  0.00    -0.548 A  
HETATM   26  C   UNL     1      -9.886  18.713  66.171  1.00  0.00    -0.308 A  
ENDBRANCH  20  21
ENDBRANCH  17  20
ENDBRANCH  16  17
ENDBRANCH  15  16
ENDBRANCH  14  15
ENDBRANCH  13  14
ENDBRANCH  12  13
ENDBRANCH  11  12
ENDBRANCH  10  11
ENDBRANCH   9  10
ENDBRANCH   8   9
ENDBRANCH   7   8
ENDBRANCH   6   7
ENDBRANCH   5   6
ENDBRANCH   4   5
ENDBRANCH   3   4
ENDBRANCH   2   3
TORSDOF 17
ENDMDL
MODEL      384
REMARK 921   NORMALIZED FREE ENERGY PREDICTED BY IDOCK:   -2.00 KCAL/MOL
REMARK 922        TOTAL FREE ENERGY PREDICTED BY IDOCK:   -6.83 KCAL/MOL
REMARK 923 INTER-LIGAND FREE ENERGY PREDICTED BY IDOCK:   -6.65 KCAL/MOL
REMARK 924 INTRA-LIGAND FREE ENERGY PREDICTED BY IDOCK:   -0.18 KCAL/MOL
REMARK 927      BINDING AFFINITY PREDICTED BY RF-SCORE:    0.00 PKD
ROOT
HETATM    1  C   UNL     1      -7.976  10.820  62.340  1.00  0.00    -0.215 C  
HETATM    2  C   UNL     1      -8.814   9.745  63.010  1.00  0.00    -0.255 C  
ENDROOT
BRANCH   2   3
HETATM    3  C   UNL     1      -9.507  10.288  64.257  1.00  0.00    -0.365 C  
BRANCH   3   4
HETATM    4  C   UNL     1     -10.812  10.991  63.894  1.00  0.00    -0.221 C  
BRANCH   4   5
HETATM    5  C   UNL     1     -10.581  12.485  63.707  1.00  0.00    -0.471 C  
BRANCH   5   6
HETATM    6  C   UNL     1     -10.423  13.180  65.053  1.00  0.00    -0.358 C  
BRANCH   6   7
HETATM    7  C   UNL     1     -11.629  12.897  65.938  1.00  0.00    -0.423 C  
BRANCH   7   8
HETATM    8  C   UNL     1     -12.188  14.192  66.508  1.00  0.00    -0.463 C  
BRANCH   8   9
HETATM    9  C   UNL     1     -11.054  15.150  66.854  1.00  0.00    -0.314 C  
BRANCH   9  10
HETATM   10  C   UNL     1     -11.327  15.825  68.188  1.00  0.00    -0.337 C  
BRANCH  10  11
HETATM   11  C   UNL     1     -10.921  14.924  69.342  1.00  0.00    -0.284 C  
BRANCH  11  12
HETATM   12  C   UNL     1      -9.823  13.976  68.893  1.00  0.00    -0.077 C  
BRANCH  12  13
HETATM   13  C   UNL     1      -8.644  14.731  68.291  1.00  0.00    -0.164 C  
BRANCH  13  14
HETATM   14  C   UNL     1      -7.465  13.811  67.976  1.00  0.00    -0.139 C  
BRANCH  14  15
HETATM   15  C   UNL     1      -7.844  12.356  67.684  1.00  0.00    -0.163 C  
BRANCH  15  16
HETATM   16  C   UNL     1      -8.188  11.561  68.947  1.00  0.00    -0.017 C  
BRANCH  16  17
HETATM   17  N   UNL     1      -7.806  10.072  68.863  1.00  0.00    -0.089 N  
HETATM   18  C   UNL     1      -6.646   9.867  67.897  1.00  0.00    -0.064 C  
HETATM   19  C   UNL     1      -7.415   9.545  70.243  1.00  0.00    -0.143 C  
BRANCH  17  20
HETATM   20  C   UNL     1      -9.074   9.298  68.356  1.00  0.00    -0.128 C  
BRANCH  20  21
HETATM   21  C   UNL     1     -10.197   9.216  69.360  1.00  0.00    -0.212 A  
HETATM   22  C   UNL     1     -10.790  10.386  69.863  1.00  0.00    -0.353 A  
HETATM   23  C   UNL     1     -11.626  10.326  70.978  1.00  0.00    -0.430 A  
HETATM   24  C   UNL     1     -11.904   9.098  71.574  1.00  0.00    -0.428 A  
HETATM   25  C   UNL     1     -11.397   7.925  71.026  1.00  0.00    -0.292 A  
HETATM   26  C   UNL     1     -10.568   7.979  69.907  1.00  0.00    -0.242 A  
ENDBRANCH  20  21
ENDBRANCH  17  20
ENDBRANCH  16  17
ENDBRANCH  15  16
ENDBRANCH  14  15
ENDBRANCH  13  14
ENDBRANCH  12  13
ENDBRANCH  11  12
ENDBRANCH  10  11
ENDBRANCH   9  10
ENDBRANCH   8   9
ENDBRANCH   7   8
ENDBRANCH   6   7
ENDBRANCH   5   6
ENDBRANCH   4   5
ENDBRANCH   3   4
ENDBRANCH   2   3
TORSDOF 17
ENDMDL
MODEL      385
REMARK 921   NORMALIZED FREE ENERGY PREDICTED BY IDOCK:   -1.99 KCAL/MOL
REMARK 922        TOTAL FREE ENERGY PREDICTED BY IDOCK:   -6.81 KCAL/MOL
REMARK 923 INTER-LIGAND FREE ENERGY PREDICTED BY IDOCK:   -6.10 KCAL/MOL
REMARK 924 INTRA-LIGAND FREE ENERGY PREDICTED BY IDOCK:   -0.71 KCAL/MOL
REMARK 927      BINDING AFFINITY PREDICTED BY RF-SCORE:    0.00 PKD
ROOT
HETATM    1  C   UNL     1     -10.424  16.938  67.218  1.00  0.00    -0.301 C  
HETATM    2  C   UNL     1      -9.809  16.404  65.936  1.00  0.00    -0.344 C  
ENDROOT
BRANCH   2   3
HETATM    3  C   UNL     1     -10.879  15.828  65.013  1.00  0.00    -0.461 C  
BRANCH   3   4
HETATM    4  C   UNL     1     -11.116  14.349  65.306  1.00  0.00    -0.344 C  
BRANCH   4   5
HETATM    5  C   UNL     1     -12.530  13.945  64.908  1.00  0.00    -0.420 C  
BRANCH   5   6
HETATM    6  C   UNL     1     -12.518  12.642  64.119  1.00  0.00    -0.488 C  
BRANCH   6   7
HETATM    7  C   UNL     1     -11.089  12.247  63.773  1.00  0.00    -0.507 C  
BRANCH   7   8
HETATM    8  C   UNL     1     -10.610  11.128  64.686  1.00  0.00    -0.386 C  
BRANCH   8   9
HETATM    9  C   UNL     1      -9.748  10.143  63.907  1.00  0.00    -0.236 C  
BRANCH   9  10
HETATM   10  C   UNL     1      -9.036   9.200  64.863  1.00  0.00    -0.201 C  
BRANCH  10  11
HETATM   11  C   UNL     1      -7.775   9.842  65.416  1.00  0.00    -0.130 C  
BRANCH  11  12
HETATM   12  C   UNL     1      -7.073   8.876  66.355  1.00  0.00    -0.083 C  
BRANCH  12  13
HETATM   13  C   UNL     1      -6.461   9.602  67.547  1.00  0.00    -0.069 C  
BRANCH  13  14
HETATM   14  C   UNL     1      -7.327   9.489  68.802  1.00  0.00    -0.074 C  
BRANCH  14  15
HETATM   15  C   UNL     1      -8.527  10.439  68.842  1.00  0.00    -0.144 C  
BRANCH  15  16
HETATM   16  C   UNL     1      -9.440  10.204  70.049  1.00  0.00    -0.036 C  
BRANCH  16  17
HETATM   17  N   UNL     1     -10.848   9.708  69.672  1.00  0.00    -0.238 N  
HETATM   18  C   UNL     1     -11.799   9.840  70.855  1.00  0.00    -0.336 C  
HETATM   19  C   UNL     1     -11.395  10.508  68.491  1.00  0.00    -0.257 C  
BRANCH  17  20
HETATM   20  C   UNL     1     -10.711   8.202  69.256  1.00  0.00    -0.129 C  
BRANCH  20  21
HETATM   21  C   UNL     1      -9.815   7.385  70.154  1.00  0.00    -0.180 A  
HETATM   22  C   UNL     1      -8.661   6.770  69.642  1.00  0.00    -0.137 A  
HETATM   23  C   UNL     1      -7.988   5.804  70.390  1.00  0.00    -0.105 A  
HETATM   24  C   UNL     1      -8.440   5.472  71.665  1.00  0.00    -0.131 A  
HETATM   25  C   UNL     1      -9.525   6.145  72.219  1.00  0.00    -0.156 A  
HETATM   26  C   UNL     1     -10.195   7.117  71.477  1.00  0.00    -0.210 A  
ENDBRANCH  20  21
ENDBRANCH  17  20
ENDBRANCH  16  17
ENDBRANCH  15  16
ENDBRANCH  14  15
ENDBRANCH  13  14
ENDBRANCH  12  13
ENDBRANCH  11  12
ENDBRANCH  10  11
ENDBRANCH   9  10
ENDBRANCH   8   9
ENDBRANCH   7   8
ENDBRANCH   6   7
ENDBRANCH   5   6
ENDBRANCH   4   5
ENDBRANCH   3   4
ENDBRANCH   2   3
TORSDOF 17
ENDMDL
MODEL      386
REMARK 921   NORMALIZED FREE ENERGY PREDICTED BY IDOCK:   -1.99 KCAL/MOL
REMARK 922        TOTAL FREE ENERGY PREDICTED BY IDOCK:   -6.80 KCAL/MOL
REMARK 923 INTER-LIGAND FREE ENERGY PREDICTED BY IDOCK:   -6.20 KCAL/MOL
REMARK 924 INTRA-LIGAND FREE ENERGY PREDICTED BY IDOCK:   -0.60 KCAL/MOL
REMARK 927      BINDING AFFINITY PREDICTED BY RF-SCORE:    0.00 PKD
ROOT
HETATM    1  C   UNL     1     -12.705  15.500  73.968  1.00  0.00    -0.689 C  
HETATM    2  C   UNL     1     -13.318  15.445  72.579  1.00  0.00    -0.569 C  
ENDROOT
BRANCH   2   3
HETATM    3  C   UNL     1     -13.701  14.015  72.206  1.00  0.00    -0.646 C  
BRANCH   3   4
HETATM    4  C   UNL     1     -13.154  13.644  70.831  1.00  0.00    -0.184 C  
BRANCH   4   5
HETATM    5  C   UNL     1     -12.195  12.465  70.938  1.00  0.00    -0.290 C  
BRANCH   5   6
HETATM    6  C   UNL     1     -12.905  11.158  70.610  1.00  0.00    -0.271 C  
BRANCH   6   7
HETATM    7  C   UNL     1     -12.089   9.974  71.108  1.00  0.00    -0.475 C  
BRANCH   7   8
HETATM    8  C   UNL     1     -10.773   9.877  70.351  1.00  0.00    -0.379 C  
BRANCH   8   9
HETATM    9  C   UNL     1     -10.990   9.212  68.998  1.00  0.00    -0.035 C  
BRANCH   9  10
HETATM   10  C   UNL     1     -10.967  10.254  67.891  1.00  0.00    -0.350 C  
BRANCH  10  11
HETATM   11  C   UNL     1      -9.677  10.167  67.094  1.00  0.00    -0.214 C  
BRANCH  11  12
HETATM   12  C   UNL     1      -9.810   9.109  66.012  1.00  0.00    -0.342 C  
BRANCH  12  13
HETATM   13  C   UNL     1      -8.584   8.205  65.962  1.00  0.00    -0.165 C  
BRANCH  13  14
HETATM   14  C   UNL     1      -8.290   7.550  67.311  1.00  0.00    -0.118 C  
BRANCH  14  15
HETATM   15  C   UNL     1      -9.010   6.219  67.550  1.00  0.00    -0.108 C  
BRANCH  15  16
HETATM   16  C   UNL     1      -8.049   5.053  67.799  1.00  0.00    -0.098 C  
BRANCH  16  17
HETATM   17  N   UNL     1      -8.235   3.879  66.822  1.00  0.00    -0.100 N  
HETATM   18  C   UNL     1      -6.892   3.250  66.472  1.00  0.00    -0.053 C  
HETATM   19  C   UNL     1      -9.147   2.817  67.435  1.00  0.00    -0.177 C  
BRANCH  17  20
HETATM   20  C   UNL     1      -8.913   4.456  65.530  1.00  0.00    -0.135 C  
BRANCH  20  21
HETATM   21  C   UNL     1      -9.454   3.409  64.589  1.00  0.00    -0.154 A  
HETATM   22  C   UNL     1      -8.668   2.303  64.224  1.00  0.00    -0.098 A  
HETATM   23  C   UNL     1      -9.052   1.489  63.158  1.00  0.00    -0.086 A  
HETATM   24  C   UNL     1     -10.238   1.751  62.475  1.00  0.00    -0.096 A  
HETATM   25  C   UNL     1     -11.069   2.786  62.890  1.00  0.00    -0.115 A  
HETATM   26  C   UNL     1     -10.694   3.597  63.959  1.00  0.00    -0.250 A  
ENDBRANCH  20  21
ENDBRANCH  17  20
ENDBRANCH  16  17
ENDBRANCH  15  16
ENDBRANCH  14  15
ENDBRANCH  13  14
ENDBRANCH  12  13
ENDBRANCH  11  12
ENDBRANCH  10  11
ENDBRANCH   9  10
ENDBRANCH   8   9
ENDBRANCH   7   8
ENDBRANCH   6   7
ENDBRANCH   5   6
ENDBRANCH   4   5
ENDBRANCH   3   4
ENDBRANCH   2   3
TORSDOF 17
ENDMDL
MODEL      387
REMARK 921   NORMALIZED FREE ENERGY PREDICTED BY IDOCK:   -1.98 KCAL/MOL
REMARK 922        TOTAL FREE ENERGY PREDICTED BY IDOCK:   -6.79 KCAL/MOL
REMARK 923 INTER-LIGAND FREE ENERGY PREDICTED BY IDOCK:   -5.25 KCAL/MOL
REMARK 924 INTRA-LIGAND FREE ENERGY PREDICTED BY IDOCK:   -1.54 KCAL/MOL
REMARK 927      BINDING AFFINITY PREDICTED BY RF-SCORE:    0.00 PKD
ROOT
HETATM    1  C   UNL     1      -7.856  12.760  68.626  1.00  0.00    -0.044 C  
HETATM    2  C   UNL     1      -6.889  13.556  67.766  1.00  0.00    -0.168 C  
ENDROOT
BRANCH   2   3
HETATM    3  C   UNL     1      -7.514  14.875  67.317  1.00  0.00    -0.193 C  
BRANCH   3   4
HETATM    4  C   UNL     1      -9.011  14.713  67.068  1.00  0.00    -0.258 C  
BRANCH   4   5
HETATM    5  C   UNL     1      -9.373  15.186  65.666  1.00  0.00    -0.096 C  
BRANCH   5   6
HETATM    6  C   UNL     1     -10.700  15.935  65.674  1.00  0.00    -0.350 C  
BRANCH   6   7
HETATM    7  C   UNL     1     -11.587  15.449  64.536  1.00  0.00    -0.296 C  
BRANCH   7   8
HETATM    8  C   UNL     1     -12.677  14.528  65.065  1.00  0.00    -0.153 C  
BRANCH   8   9
HETATM    9  C   UNL     1     -12.244  13.073  64.942  1.00  0.00    -0.490 C  
BRANCH   9  10
HETATM   10  C   UNL     1     -11.944  12.496  66.316  1.00  0.00    -0.410 C  
BRANCH  10  11
HETATM   11  C   UNL     1     -11.057  11.268  66.204  1.00  0.00    -0.207 C  
BRANCH  11  12
HETATM   12  C   UNL     1      -9.874  11.568  65.300  1.00  0.00    -0.286 C  
BRANCH  12  13
HETATM   13  C   UNL     1      -8.684  10.671  65.622  1.00  0.00    -0.198 C  
BRANCH  13  14
HETATM   14  C   UNL     1      -9.109   9.353  66.268  1.00  0.00    -0.204 C  
BRANCH  14  15
HETATM   15  C   UNL     1      -7.973   8.564  66.926  1.00  0.00    -0.095 C  
BRANCH  15  16
HETATM   16  C   UNL     1      -7.939   8.718  68.449  1.00  0.00    -0.109 C  
BRANCH  16  17
HETATM   17  N   UNL     1      -8.688   7.603  69.201  1.00  0.00    -0.139 N  
HETATM   18  C   UNL     1     -10.162   7.588  68.813  1.00  0.00    -0.197 C  
HETATM   19  C   UNL     1      -8.068   6.242  68.888  1.00  0.00    -0.110 C  
BRANCH  17  20
HETATM   20  C   UNL     1      -8.538   7.898  70.734  1.00  0.00    -0.132 C  
BRANCH  20  21
HETATM   21  C   UNL     1      -9.090   6.820  71.634  1.00  0.00    -0.144 A  
HETATM   22  C   UNL     1     -10.476   6.685  71.817  1.00  0.00    -0.233 A  
HETATM   23  C   UNL     1     -10.974   5.883  72.843  1.00  0.00    -0.303 A  
HETATM   24  C   UNL     1     -10.096   5.183  73.668  1.00  0.00    -0.213 A  
HETATM   25  C   UNL     1      -8.725   5.235  73.433  1.00  0.00    -0.115 A  
HETATM   26  C   UNL     1      -8.224   6.030  72.404  1.00  0.00    -0.109 A  
ENDBRANCH  20  21
ENDBRANCH  17  20
ENDBRANCH  16  17
ENDBRANCH  15  16
ENDBRANCH  14  15
ENDBRANCH  13  14
ENDBRANCH  12  13
ENDBRANCH  11  12
ENDBRANCH  10  11
ENDBRANCH   9  10
ENDBRANCH   8   9
ENDBRANCH   7   8
ENDBRANCH   6   7
ENDBRANCH   5   6
ENDBRANCH   4   5
ENDBRANCH   3   4
ENDBRANCH   2   3
TORSDOF 17
ENDMDL
MODEL      388
REMARK 921   NORMALIZED FREE ENERGY PREDICTED BY IDOCK:   -1.98 KCAL/MOL
REMARK 922        TOTAL FREE ENERGY PREDICTED BY IDOCK:   -6.78 KCAL/MOL
REMARK 923 INTER-LIGAND FREE ENERGY PREDICTED BY IDOCK:   -5.96 KCAL/MOL
REMARK 924 INTRA-LIGAND FREE ENERGY PREDICTED BY IDOCK:   -0.83 KCAL/MOL
REMARK 927      BINDING AFFINITY PREDICTED BY RF-SCORE:    0.00 PKD
ROOT
HETATM    1  C   UNL     1      -6.445   6.034  74.014  1.00  0.00    -0.071 C  
HETATM    2  C   UNL     1      -6.363   4.999  72.905  1.00  0.00    -0.043 C  
ENDROOT
BRANCH   2   3
HETATM    3  C   UNL     1      -7.557   5.112  71.961  1.00  0.00    -0.097 C  
BRANCH   3   4
HETATM    4  C   UNL     1      -7.110   5.037  70.504  1.00  0.00    -0.053 C  
BRANCH   4   5
HETATM    5  C   UNL     1      -7.695   6.194  69.704  1.00  0.00    -0.098 C  
BRANCH   5   6
HETATM    6  C   UNL     1      -8.933   6.755  70.391  1.00  0.00    -0.152 C  
BRANCH   6   7
HETATM    7  C   UNL     1     -10.188   6.349  69.631  1.00  0.00    -0.229 C  
BRANCH   7   8
HETATM    8  C   UNL     1     -10.052   6.694  68.155  1.00  0.00    -0.174 C  
BRANCH   8   9
HETATM    9  C   UNL     1     -10.767   8.005  67.851  1.00  0.00    -0.139 C  
BRANCH   9  10
HETATM   10  C   UNL     1      -9.870   9.183  68.194  1.00  0.00    -0.188 C  
BRANCH  10  11
HETATM   11  C   UNL     1      -8.836   9.409  67.105  1.00  0.00    -0.138 C  
BRANCH  11  12
HETATM   12  C   UNL     1      -9.023  10.787  66.494  1.00  0.00    -0.168 C  
BRANCH  12  13
HETATM   13  C   UNL     1      -7.759  11.629  66.617  1.00  0.00    -0.065 C  
BRANCH  13  14
HETATM   14  C   UNL     1      -7.874  12.695  67.707  1.00  0.00    -0.154 C  
BRANCH  14  15
HETATM   15  C   UNL     1      -9.309  13.093  68.067  1.00  0.00    -0.219 C  
BRANCH  15  16
HETATM   16  C   UNL     1      -9.491  14.605  68.222  1.00  0.00    -0.211 C  
BRANCH  16  17
HETATM   17  N   UNL     1     -10.845  15.005  68.835  1.00  0.00    -0.234 N  
HETATM   18  C   UNL     1     -10.778  16.411  69.421  1.00  0.00    -0.324 C  
HETATM   19  C   UNL     1     -11.946  14.951  67.777  1.00  0.00    -0.162 C  
BRANCH  17  20
HETATM   20  C   UNL     1     -11.165  13.966  69.966  1.00  0.00     0.031 C  
BRANCH  20  21
HETATM   21  C   UNL     1     -12.071  14.487  71.054  1.00  0.00    -0.409 A  
HETATM   22  C   UNL     1     -13.463  14.326  70.960  1.00  0.00    -0.274 A  
HETATM   23  C   UNL     1     -14.311  15.034  71.811  1.00  0.00    -0.674 A  
HETATM   24  C   UNL     1     -13.777  15.879  72.781  1.00  0.00    -0.571 A  
HETATM   25  C   UNL     1     -12.398  15.972  72.943  1.00  0.00    -0.609 A  
HETATM   26  C   UNL     1     -11.547  15.259  72.101  1.00  0.00    -0.535 A  
ENDBRANCH  20  21
ENDBRANCH  17  20
ENDBRANCH  16  17
ENDBRANCH  15  16
ENDBRANCH  14  15
ENDBRANCH  13  14
ENDBRANCH  12  13
ENDBRANCH  11  12
ENDBRANCH  10  11
ENDBRANCH   9  10
ENDBRANCH   8   9
ENDBRANCH   7   8
ENDBRANCH   6   7
ENDBRANCH   5   6
ENDBRANCH   4   5
ENDBRANCH   3   4
ENDBRANCH   2   3
TORSDOF 17
ENDMDL
MODEL      389
REMARK 921   NORMALIZED FREE ENERGY PREDICTED BY IDOCK:   -1.97 KCAL/MOL
REMARK 922        TOTAL FREE ENERGY PREDICTED BY IDOCK:   -6.77 KCAL/MOL
REMARK 923 INTER-LIGAND FREE ENERGY PREDICTED BY IDOCK:   -4.92 KCAL/MOL
REMARK 924 INTRA-LIGAND FREE ENERGY PREDICTED BY IDOCK:   -1.85 KCAL/MOL
REMARK 927      BINDING AFFINITY PREDICTED BY RF-SCORE:    0.00 PKD
ROOT
HETATM    1  C   UNL     1      -6.340  10.442  68.352  1.00  0.00    -0.051 C  
HETATM    2  C   UNL     1      -5.699   9.925  69.629  1.00  0.00    -0.037 C  
ENDROOT
BRANCH   2   3
HETATM    3  C   UNL     1      -6.631  10.114  70.824  1.00  0.00    -0.003 C  
BRANCH   3   4
HETATM    4  C   UNL     1      -7.923   9.323  70.640  1.00  0.00    -0.189 C  
BRANCH   4   5
HETATM    5  C   UNL     1      -8.121   8.347  71.792  1.00  0.00    -0.192 C  
BRANCH   5   6
HETATM    6  C   UNL     1      -9.436   8.617  72.511  1.00  0.00    -0.247 C  
BRANCH   6   7
HETATM    7  C   UNL     1      -9.782   7.458  73.435  1.00  0.00    -0.319 C  
BRANCH   7   8
HETATM    8  C   UNL     1     -11.143   6.880  73.079  1.00  0.00    -0.267 C  
BRANCH   8   9
HETATM    9  C   UNL     1     -11.103   5.358  73.141  1.00  0.00    -0.363 C  
BRANCH   9  10
HETATM   10  C   UNL     1     -10.244   4.809  72.013  1.00  0.00    -0.261 C  
BRANCH  10  11
HETATM   11  C   UNL     1      -9.412   3.633  72.492  1.00  0.00    -0.178 C  
BRANCH  11  12
HETATM   12  C   UNL     1      -7.956   3.842  72.111  1.00  0.00    -0.080 C  
BRANCH  12  13
HETATM   13  C   UNL     1      -7.695   3.444  70.664  1.00  0.00    -0.040 C  
BRANCH  13  14
HETATM   14  C   UNL     1      -7.229   4.625  69.812  1.00  0.00    -0.054 C  
BRANCH  14  15
HETATM   15  C   UNL     1      -7.841   4.687  68.409  1.00  0.00    -0.080 C  
BRANCH  15  16
HETATM   16  C   UNL     1      -9.372   4.663  68.420  1.00  0.00    -0.137 C  
BRANCH  16  17
HETATM   17  N   UNL     1     -10.014   6.017  68.065  1.00  0.00    -0.133 N  
HETATM   18  C   UNL     1     -10.705   5.947  66.709  1.00  0.00    -0.299 C  
HETATM   19  C   UNL     1     -11.031   6.419  69.132  1.00  0.00    -0.355 C  
BRANCH  17  20
HETATM   20  C   UNL     1      -8.859   7.079  68.027  1.00  0.00    -0.124 C  
BRANCH  20  21
HETATM   21  C   UNL     1      -9.162   8.299  67.192  1.00  0.00    -0.175 A  
HETATM   22  C   UNL     1     -10.058   9.276  67.657  1.00  0.00    -0.266 A  
HETATM   23  C   UNL     1     -10.546  10.252  66.788  1.00  0.00    -0.252 A  
HETATM   24  C   UNL     1     -10.117  10.281  65.463  1.00  0.00    -0.351 A  
HETATM   25  C   UNL     1      -9.158   9.376  65.019  1.00  0.00    -0.271 A  
HETATM   26  C   UNL     1      -8.662   8.404  65.886  1.00  0.00    -0.197 A  
ENDBRANCH  20  21
ENDBRANCH  17  20
ENDBRANCH  16  17
ENDBRANCH  15  16
ENDBRANCH  14  15
ENDBRANCH  13  14
ENDBRANCH  12  13
ENDBRANCH  11  12
ENDBRANCH  10  11
ENDBRANCH   9  10
ENDBRANCH   8   9
ENDBRANCH   7   8
ENDBRANCH   6   7
ENDBRANCH   5   6
ENDBRANCH   4   5
ENDBRANCH   3   4
ENDBRANCH   2   3
TORSDOF 17
ENDMDL
MODEL      390
REMARK 921   NORMALIZED FREE ENERGY PREDICTED BY IDOCK:   -1.97 KCAL/MOL
REMARK 922        TOTAL FREE ENERGY PREDICTED BY IDOCK:   -6.77 KCAL/MOL
REMARK 923 INTER-LIGAND FREE ENERGY PREDICTED BY IDOCK:   -4.19 KCAL/MOL
REMARK 924 INTRA-LIGAND FREE ENERGY PREDICTED BY IDOCK:   -2.58 KCAL/MOL
REMARK 927      BINDING AFFINITY PREDICTED BY RF-SCORE:    0.00 PKD
ROOT
HETATM    1  C   UNL     1      -7.227  15.387  69.600  1.00  0.00    -0.174 C  
HETATM    2  C   UNL     1      -5.959  14.562  69.458  1.00  0.00    -0.107 C  
ENDROOT
BRANCH   2   3
HETATM    3  C   UNL     1      -6.245  13.236  68.758  1.00  0.00    -0.090 C  
BRANCH   3   4
HETATM    4  C   UNL     1      -7.150  13.441  67.547  1.00  0.00    -0.154 C  
BRANCH   4   5
HETATM    5  C   UNL     1      -8.300  12.442  67.564  1.00  0.00    -0.173 C  
BRANCH   5   6
HETATM    6  C   UNL     1      -9.546  13.040  66.924  1.00  0.00    -0.243 C  
BRANCH   6   7
HETATM    7  C   UNL     1     -10.120  14.137  67.810  1.00  0.00    -0.239 C  
BRANCH   7   8
HETATM    8  C   UNL     1     -11.553  13.810  68.202  1.00  0.00    -0.370 C  
BRANCH   8   9
HETATM    9  C   UNL     1     -11.572  12.861  69.393  1.00  0.00    -0.363 C  
BRANCH   9  10
HETATM   10  C   UNL     1     -12.218  11.542  69.003  1.00  0.00    -0.186 C  
BRANCH  10  11
HETATM   11  C   UNL     1     -11.675  10.403  69.849  1.00  0.00    -0.341 C  
BRANCH  11  12
HETATM   12  C   UNL     1     -10.341   9.939  69.292  1.00  0.00    -0.235 C  
BRANCH  12  13
HETATM   13  C   UNL     1     -10.418   9.693  67.790  1.00  0.00    -0.309 C  
BRANCH  13  14
HETATM   14  C   UNL     1     -10.628   8.216  67.453  1.00  0.00    -0.325 C  
BRANCH  14  15
HETATM   15  C   UNL     1      -9.409   7.516  66.846  1.00  0.00    -0.197 C  
BRANCH  15  16
HETATM   16  C   UNL     1      -8.249   8.473  66.556  1.00  0.00    -0.108 C  
BRANCH  16  17
HETATM   17  N   UNL     1      -7.084   7.819  65.790  1.00  0.00    -0.060 N  
HETATM   18  C   UNL     1      -7.429   6.385  65.407  1.00  0.00    -0.084 C  
HETATM   19  C   UNL     1      -6.763   8.617  64.528  1.00  0.00    -0.066 C  
BRANCH  17  20
HETATM   20  C   UNL     1      -5.838   7.837  66.743  1.00  0.00    -0.043 C  
BRANCH  20  21
HETATM   21  C   UNL     1      -6.166   8.087  68.194  1.00  0.00    -0.046 A  
HETATM   22  C   UNL     1      -6.404   7.011  69.066  1.00  0.00    -0.028 A  
HETATM   23  C   UNL     1      -6.968   7.236  70.322  1.00  0.00    -0.060 A  
HETATM   24  C   UNL     1      -7.266   8.535  70.728  1.00  0.00    -0.060 A  
HETATM   25  C   UNL     1      -6.946   9.614  69.910  1.00  0.00    -0.081 A  
HETATM   26  C   UNL     1      -6.374   9.394  68.658  1.00  0.00    -0.048 A  
ENDBRANCH  20  21
ENDBRANCH  17  20
ENDBRANCH  16  17
ENDBRANCH  15  16
ENDBRANCH  14  15
ENDBRANCH  13  14
ENDBRANCH  12  13
ENDBRANCH  11  12
ENDBRANCH  10  11
ENDBRANCH   9  10
ENDBRANCH   8   9
ENDBRANCH   7   8
ENDBRANCH   6   7
ENDBRANCH   5   6
ENDBRANCH   4   5
ENDBRANCH   3   4
ENDBRANCH   2   3
TORSDOF 17
ENDMDL
MODEL      391
REMARK 921   NORMALIZED FREE ENERGY PREDICTED BY IDOCK:   -1.96 KCAL/MOL
REMARK 922        TOTAL FREE ENERGY PREDICTED BY IDOCK:   -6.75 KCAL/MOL
REMARK 923 INTER-LIGAND FREE ENERGY PREDICTED BY IDOCK:   -5.02 KCAL/MOL
REMARK 924 INTRA-LIGAND FREE ENERGY PREDICTED BY IDOCK:   -1.72 KCAL/MOL
REMARK 927      BINDING AFFINITY PREDICTED BY RF-SCORE:    0.00 PKD
ROOT
HETATM    1  C   UNL     1      -9.727  11.787  63.462  1.00  0.00    -0.325 C  
HETATM    2  C   UNL     1     -11.099  11.237  63.113  1.00  0.00     0.038 C  
ENDROOT
BRANCH   2   3
HETATM    3  C   UNL     1     -12.204  12.159  63.625  1.00  0.00    -0.663 C  
BRANCH   3   4
HETATM    4  C   UNL     1     -11.682  13.579  63.824  1.00  0.00    -0.367 C  
BRANCH   4   5
HETATM    5  C   UNL     1     -12.620  14.371  64.726  1.00  0.00    -0.282 C  
BRANCH   5   6
HETATM    6  C   UNL     1     -12.593  13.824  66.147  1.00  0.00    -0.423 C  
BRANCH   6   7
HETATM    7  C   UNL     1     -11.333  14.284  66.867  1.00  0.00    -0.354 C  
BRANCH   7   8
HETATM    8  C   UNL     1     -10.613  13.097  67.490  1.00  0.00    -0.240 C  
BRANCH   8   9
HETATM    9  C   UNL     1      -9.188  13.005  66.958  1.00  0.00    -0.232 C  
BRANCH   9  10
HETATM   10  C   UNL     1      -8.192  13.169  68.095  1.00  0.00    -0.160 C  
BRANCH  10  11
HETATM   11  C   UNL     1      -6.819  12.664  67.686  1.00  0.00    -0.144 C  
BRANCH  11  12
HETATM   12  C   UNL     1      -6.616  11.249  68.201  1.00  0.00    -0.057 C  
BRANCH  12  13
HETATM   13  C   UNL     1      -6.531  11.216  69.722  1.00  0.00    -0.137 C  
BRANCH  13  14
HETATM   14  C   UNL     1      -6.994   9.878  70.300  1.00  0.00    -0.147 C  
BRANCH  14  15
HETATM   15  C   UNL     1      -8.485   9.582  70.121  1.00  0.00    -0.227 C  
BRANCH  15  16
HETATM   16  C   UNL     1      -8.758   8.170  69.594  1.00  0.00    -0.142 C  
BRANCH  16  17
HETATM   17  N   UNL     1      -9.681   8.136  68.363  1.00  0.00    -0.158 N  
HETATM   18  C   UNL     1     -10.581   6.907  68.397  1.00  0.00    -0.210 C  
HETATM   19  C   UNL     1     -10.546   9.395  68.312  1.00  0.00    -0.210 C  
BRANCH  17  20
HETATM   20  C   UNL     1      -8.758   8.093  67.095  1.00  0.00    -0.127 C  
BRANCH  20  21
HETATM   21  C   UNL     1      -7.989   6.806  66.928  1.00  0.00    -0.109 A  
HETATM   22  C   UNL     1      -6.861   6.542  67.723  1.00  0.00    -0.080 A  
HETATM   23  C   UNL     1      -5.997   5.498  67.391  1.00  0.00    -0.022 A  
HETATM   24  C   UNL     1      -6.271   4.692  66.289  1.00  0.00    -0.032 A  
HETATM   25  C   UNL     1      -7.435   4.887  65.552  1.00  0.00    -0.081 A  
HETATM   26  C   UNL     1      -8.305   5.924  65.885  1.00  0.00    -0.136 A  
ENDBRANCH  20  21
ENDBRANCH  17  20
ENDBRANCH  16  17
ENDBRANCH  15  16
ENDBRANCH  14  15
ENDBRANCH  13  14
ENDBRANCH  12  13
ENDBRANCH  11  12
ENDBRANCH  10  11
ENDBRANCH   9  10
ENDBRANCH   8   9
ENDBRANCH   7   8
ENDBRANCH   6   7
ENDBRANCH   5   6
ENDBRANCH   4   5
ENDBRANCH   3   4
ENDBRANCH   2   3
TORSDOF 17
ENDMDL
MODEL      392
REMARK 921   NORMALIZED FREE ENERGY PREDICTED BY IDOCK:   -1.94 KCAL/MOL
REMARK 922        TOTAL FREE ENERGY PREDICTED BY IDOCK:   -6.72 KCAL/MOL
REMARK 923 INTER-LIGAND FREE ENERGY PREDICTED BY IDOCK:   -4.49 KCAL/MOL
REMARK 924 INTRA-LIGAND FREE ENERGY PREDICTED BY IDOCK:   -2.23 KCAL/MOL
REMARK 927      BINDING AFFINITY PREDICTED BY RF-SCORE:    0.00 PKD
ROOT
HETATM    1  C   UNL     1      -6.996  14.723  69.859  1.00  0.00    -0.128 C  
HETATM    2  C   UNL     1      -5.808  13.780  69.943  1.00  0.00    -0.126 C  
ENDROOT
BRANCH   2   3
HETATM    3  C   UNL     1      -6.261  12.323  69.903  1.00  0.00    -0.110 C  
BRANCH   3   4
HETATM    4  C   UNL     1      -7.044  12.029  68.626  1.00  0.00    -0.103 C  
BRANCH   4   5
HETATM    5  C   UNL     1      -8.349  11.314  68.953  1.00  0.00    -0.074 C  
BRANCH   5   6
HETATM    6  C   UNL     1      -9.349  11.466  67.814  1.00  0.00    -0.162 C  
BRANCH   6   7
HETATM    7  C   UNL     1     -10.061  12.808  67.912  1.00  0.00    -0.231 C  
BRANCH   7   8
HETATM    8  C   UNL     1     -11.557  12.605  68.098  1.00  0.00    -0.386 C  
BRANCH   8   9
HETATM    9  C   UNL     1     -11.885  12.411  69.573  1.00  0.00    -0.368 C  
BRANCH   9  10
HETATM   10  C   UNL     1     -12.645  11.110  69.775  1.00  0.00    -0.129 C  
BRANCH  10  11
HETATM   11  C   UNL     1     -12.266  10.463  71.096  1.00  0.00    -0.498 C  
BRANCH  11  12
HETATM   12  C   UNL     1     -10.854   9.908  71.012  1.00  0.00    -0.300 C  
BRANCH  12  13
HETATM   13  C   UNL     1     -10.789   8.681  70.110  1.00  0.00    -0.242 C  
BRANCH  13  14
HETATM   14  C   UNL     1     -11.614   7.515  70.656  1.00  0.00    -0.272 C  
BRANCH  14  15
HETATM   15  C   UNL     1     -10.861   6.185  70.752  1.00  0.00    -0.350 C  
BRANCH  15  16
HETATM   16  C   UNL     1     -11.026   5.311  69.506  1.00  0.00     0.353 C  
BRANCH  16  17
HETATM   17  N   UNL     1      -9.724   4.624  69.055  1.00  0.00    -0.172 N  
HETATM   18  C   UNL     1      -8.518   5.252  69.742  1.00  0.00    -0.098 C  
HETATM   19  C   UNL     1      -9.771   3.131  69.379  1.00  0.00     0.117 C  
BRANCH  17  20
HETATM   20  C   UNL     1      -9.618   4.811  67.501  1.00  0.00    -0.158 C  
BRANCH  20  21
HETATM   21  C   UNL     1      -9.119   6.168  67.069  1.00  0.00    -0.119 A  
HETATM   22  C   UNL     1      -9.983   7.275  67.058  1.00  0.00    -0.293 A  
HETATM   23  C   UNL     1      -9.610   8.452  66.410  1.00  0.00    -0.307 A  
HETATM   24  C   UNL     1      -8.360   8.544  65.801  1.00  0.00    -0.144 A  
HETATM   25  C   UNL     1      -7.460   7.486  65.889  1.00  0.00    -0.082 A  
HETATM   26  C   UNL     1      -7.827   6.311  66.543  1.00  0.00    -0.104 A  
ENDBRANCH  20  21
ENDBRANCH  17  20
ENDBRANCH  16  17
ENDBRANCH  15  16
ENDBRANCH  14  15
ENDBRANCH  13  14
ENDBRANCH  12  13
ENDBRANCH  11  12
ENDBRANCH  10  11
ENDBRANCH   9  10
ENDBRANCH   8   9
ENDBRANCH   7   8
ENDBRANCH   6   7
ENDBRANCH   5   6
ENDBRANCH   4   5
ENDBRANCH   3   4
ENDBRANCH   2   3
TORSDOF 17
ENDMDL
MODEL      393
REMARK 921   NORMALIZED FREE ENERGY PREDICTED BY IDOCK:   -1.94 KCAL/MOL
REMARK 922        TOTAL FREE ENERGY PREDICTED BY IDOCK:   -6.71 KCAL/MOL
REMARK 923 INTER-LIGAND FREE ENERGY PREDICTED BY IDOCK:   -4.98 KCAL/MOL
REMARK 924 INTRA-LIGAND FREE ENERGY PREDICTED BY IDOCK:   -1.73 KCAL/MOL
REMARK 927      BINDING AFFINITY PREDICTED BY RF-SCORE:    0.00 PKD
ROOT
HETATM    1  C   UNL     1      -6.395  14.627  70.191  1.00  0.00    -0.173 C  
HETATM    2  C   UNL     1      -7.577  14.537  69.242  1.00  0.00    -0.073 C  
ENDROOT
BRANCH   2   3
HETATM    3  C   UNL     1      -8.051  15.926  68.824  1.00  0.00    -0.190 C  
BRANCH   3   4
HETATM    4  C   UNL     1      -8.154  16.033  67.305  1.00  0.00    -0.205 C  
BRANCH   4   5
HETATM    5  C   UNL     1      -9.569  15.709  66.841  1.00  0.00    -0.244 C  
BRANCH   5   6
HETATM    6  C   UNL     1      -9.553  14.612  65.784  1.00  0.00    -0.266 C  
BRANCH   6   7
HETATM    7  C   UNL     1     -10.891  14.558  65.060  1.00  0.00    -0.425 C  
BRANCH   7   8
HETATM    8  C   UNL     1     -11.766  13.455  65.637  1.00  0.00    -0.374 C  
BRANCH   8   9
HETATM    9  C   UNL     1     -11.040  12.117  65.570  1.00  0.00    -0.361 C  
BRANCH   9  10
HETATM   10  C   UNL     1     -10.771  11.596  66.973  1.00  0.00    -0.292 C  
BRANCH  10  11
HETATM   11  C   UNL     1     -11.774  12.164  67.962  1.00  0.00    -0.409 C  
BRANCH  11  12
HETATM   12  C   UNL     1     -11.140  12.263  69.339  1.00  0.00    -0.166 C  
BRANCH  12  13
HETATM   13  C   UNL     1     -10.383  10.990  69.698  1.00  0.00     0.001 C  
BRANCH  13  14
HETATM   14  C   UNL     1     -11.322   9.821  69.996  1.00  0.00    -0.269 C  
BRANCH  14  15
HETATM   15  C   UNL     1     -10.881   8.924  71.156  1.00  0.00    -0.352 C  
BRANCH  15  16
HETATM   16  C   UNL     1     -10.358   7.560  70.695  1.00  0.00    -0.208 C  
BRANCH  16  17
HETATM   17  N   UNL     1      -9.337   6.931  71.661  1.00  0.00    -0.154 N  
HETATM   18  C   UNL     1      -9.106   7.835  72.865  1.00  0.00    -0.197 C  
HETATM   19  C   UNL     1      -9.830   5.566  72.140  1.00  0.00    -0.163 C  
BRANCH  17  20
HETATM   20  C   UNL     1      -8.000   6.745  70.862  1.00  0.00    -0.106 C  
BRANCH  20  21
HETATM   21  C   UNL     1      -7.366   8.033  70.399  1.00  0.00    -0.063 A  
HETATM   22  C   UNL     1      -7.615   8.526  69.107  1.00  0.00    -0.089 A  
HETATM   23  C   UNL     1      -6.830   9.553  68.583  1.00  0.00    -0.057 A  
HETATM   24  C   UNL     1      -5.817  10.117  69.356  1.00  0.00    -0.037 A  
HETATM   25  C   UNL     1      -5.625   9.700  70.669  1.00  0.00    -0.053 A  
HETATM   26  C   UNL     1      -6.413   8.680  71.199  1.00  0.00    -0.055 A  
ENDBRANCH  20  21
ENDBRANCH  17  20
ENDBRANCH  16  17
ENDBRANCH  15  16
ENDBRANCH  14  15
ENDBRANCH  13  14
ENDBRANCH  12  13
ENDBRANCH  11  12
ENDBRANCH  10  11
ENDBRANCH   9  10
ENDBRANCH   8   9
ENDBRANCH   7   8
ENDBRANCH   6   7
ENDBRANCH   5   6
ENDBRANCH   4   5
ENDBRANCH   3   4
ENDBRANCH   2   3
TORSDOF 17
ENDMDL
MODEL      394
REMARK 921   NORMALIZED FREE ENERGY PREDICTED BY IDOCK:   -1.93 KCAL/MOL
REMARK 922        TOTAL FREE ENERGY PREDICTED BY IDOCK:   -6.69 KCAL/MOL
REMARK 923 INTER-LIGAND FREE ENERGY PREDICTED BY IDOCK:   -6.24 KCAL/MOL
REMARK 924 INTRA-LIGAND FREE ENERGY PREDICTED BY IDOCK:   -0.45 KCAL/MOL
REMARK 927      BINDING AFFINITY PREDICTED BY RF-SCORE:    0.00 PKD
ROOT
HETATM    1  C   UNL     1      -8.186  18.041  68.546  1.00  0.00    -0.311 C  
HETATM    2  C   UNL     1      -9.516  18.772  68.473  1.00  0.00    -0.400 C  
ENDROOT
BRANCH   2   3
HETATM    3  C   UNL     1     -10.623  17.846  67.976  1.00  0.00    -0.366 C  
BRANCH   3   4
HETATM    4  C   UNL     1     -10.256  16.383  68.206  1.00  0.00    -0.255 C  
BRANCH   4   5
HETATM    5  C   UNL     1     -10.986  15.487  67.214  1.00  0.00    -0.303 C  
BRANCH   5   6
HETATM    6  C   UNL     1     -10.077  15.115  66.050  1.00  0.00    -0.323 C  
BRANCH   6   7
HETATM    7  C   UNL     1      -9.791  13.620  66.059  1.00  0.00    -0.290 C  
BRANCH   7   8
HETATM    8  C   UNL     1     -11.090  12.828  66.036  1.00  0.00    -0.315 C  
BRANCH   8   9
HETATM    9  C   UNL     1     -10.829  11.374  66.406  1.00  0.00    -0.323 C  
BRANCH   9  10
HETATM   10  C   UNL     1     -10.001  10.698  65.325  1.00  0.00    -0.356 C  
BRANCH  10  11
HETATM   11  C   UNL     1     -10.009   9.189  65.503  1.00  0.00     0.095 C  
BRANCH  11  12
HETATM   12  C   UNL     1      -9.636   8.837  66.933  1.00  0.00    -0.249 C  
BRANCH  12  13
HETATM   13  C   UNL     1      -8.124   8.781  67.118  1.00  0.00    -0.100 C  
BRANCH  13  14
HETATM   14  C   UNL     1      -7.694   7.637  68.037  1.00  0.00    -0.119 C  
BRANCH  14  15
HETATM   15  C   UNL     1      -7.819   6.239  67.424  1.00  0.00    -0.101 C  
BRANCH  15  16
HETATM   16  C   UNL     1      -7.465   5.119  68.406  1.00  0.00    -0.075 C  
BRANCH  16  17
HETATM   17  N   UNL     1      -8.364   3.876  68.277  1.00  0.00    -0.090 N  
HETATM   18  C   UNL     1      -9.463   4.110  67.249  1.00  0.00    -0.189 C  
HETATM   19  C   UNL     1      -7.535   2.660  67.864  1.00  0.00    -0.056 C  
BRANCH  17  20
HETATM   20  C   UNL     1      -8.994   3.613  69.690  1.00  0.00    -0.111 C  
BRANCH  20  21
HETATM   21  C   UNL     1      -9.806   4.763  70.233  1.00  0.00    -0.313 A  
HETATM   22  C   UNL     1      -9.888   4.985  71.618  1.00  0.00    -0.239 A  
HETATM   23  C   UNL     1     -10.841   5.863  72.133  1.00  0.00    -0.290 A  
HETATM   24  C   UNL     1     -11.693   6.550  71.270  1.00  0.00    -0.386 A  
HETATM   25  C   UNL     1     -11.556   6.407  69.893  1.00  0.00    -0.422 A  
HETATM   26  C   UNL     1     -10.599   5.537  69.374  1.00  0.00    -0.349 A  
ENDBRANCH  20  21
ENDBRANCH  17  20
ENDBRANCH  16  17
ENDBRANCH  15  16
ENDBRANCH  14  15
ENDBRANCH  13  14
ENDBRANCH  12  13
ENDBRANCH  11  12
ENDBRANCH  10  11
ENDBRANCH   9  10
ENDBRANCH   8   9
ENDBRANCH   7   8
ENDBRANCH   6   7
ENDBRANCH   5   6
ENDBRANCH   4   5
ENDBRANCH   3   4
ENDBRANCH   2   3
TORSDOF 17
ENDMDL
MODEL      395
REMARK 921   NORMALIZED FREE ENERGY PREDICTED BY IDOCK:   -1.93 KCAL/MOL
REMARK 922        TOTAL FREE ENERGY PREDICTED BY IDOCK:   -6.68 KCAL/MOL
REMARK 923 INTER-LIGAND FREE ENERGY PREDICTED BY IDOCK:   -5.07 KCAL/MOL
REMARK 924 INTRA-LIGAND FREE ENERGY PREDICTED BY IDOCK:   -1.62 KCAL/MOL
REMARK 927      BINDING AFFINITY PREDICTED BY RF-SCORE:    0.00 PKD
ROOT
HETATM    1  C   UNL     1      -7.756   4.925  66.167  1.00  0.00    -0.091 C  
HETATM    2  C   UNL     1      -7.438   5.527  67.525  1.00  0.00    -0.084 C  
ENDROOT
BRANCH   2   3
HETATM    3  C   UNL     1      -8.707   6.019  68.216  1.00  0.00    -0.113 C  
BRANCH   3   4
HETATM    4  C   UNL     1      -9.566   6.842  67.260  1.00  0.00    -0.173 C  
BRANCH   4   5
HETATM    5  C   UNL     1     -10.933   7.119  67.873  1.00  0.00    -0.154 C  
BRANCH   5   6
HETATM    6  C   UNL     1     -11.115   6.334  69.165  1.00  0.00    -0.457 C  
BRANCH   6   7
HETATM    7  C   UNL     1     -12.094   7.051  70.085  1.00  0.00    -0.054 C  
BRANCH   7   8
HETATM    8  C   UNL     1     -12.090   6.415  71.467  1.00  0.00    -0.289 C  
BRANCH   8   9
HETATM    9  C   UNL     1     -11.509   7.382  72.492  1.00  0.00    -0.346 C  
BRANCH   9  10
HETATM   10  C   UNL     1      -9.992   7.284  72.504  1.00  0.00    -0.213 C  
BRANCH  10  11
HETATM   11  C   UNL     1      -9.363   8.606  72.099  1.00  0.00    -0.343 C  
BRANCH  11  12
HETATM   12  C   UNL     1      -9.148   8.636  70.596  1.00  0.00    -0.201 C  
BRANCH  12  13
HETATM   13  C   UNL     1      -9.670   9.930  69.983  1.00  0.00    -0.274 C  
BRANCH  13  14
HETATM   14  C   UNL     1      -9.200  10.120  68.540  1.00  0.00    -0.144 C  
BRANCH  14  15
HETATM   15  C   UNL     1      -9.580  11.463  67.912  1.00  0.00    -0.180 C  
BRANCH  15  16
HETATM   16  C   UNL     1      -9.995  12.514  68.946  1.00  0.00     0.098 C  
BRANCH  16  17
HETATM   17  N   UNL     1     -11.333  13.203  68.624  1.00  0.00    -0.269 N  
HETATM   18  C   UNL     1     -11.171  14.719  68.617  1.00  0.00    -0.273 C  
HETATM   19  C   UNL     1     -11.855  12.744  67.263  1.00  0.00    -0.350 C  
BRANCH  17  20
HETATM   20  C   UNL     1     -12.352  12.776  69.738  1.00  0.00    -0.032 C  
BRANCH  20  21
HETATM   21  C   UNL     1     -12.581  13.817  70.806  1.00  0.00    -0.410 A  
HETATM   22  C   UNL     1     -11.928  13.721  72.046  1.00  0.00     0.637 A  
HETATM   23  C   UNL     1     -12.338  14.513  73.119  1.00  0.00    -0.278 A  
HETATM   24  C   UNL     1     -13.376  15.427  72.952  1.00  0.00    -0.636 A  
HETATM   25  C   UNL     1     -13.965  15.596  71.703  1.00  0.00    -0.406 A  
HETATM   26  C   UNL     1     -13.553  14.812  70.626  1.00  0.00    -0.033 A  
ENDBRANCH  20  21
ENDBRANCH  17  20
ENDBRANCH  16  17
ENDBRANCH  15  16
ENDBRANCH  14  15
ENDBRANCH  13  14
ENDBRANCH  12  13
ENDBRANCH  11  12
ENDBRANCH  10  11
ENDBRANCH   9  10
ENDBRANCH   8   9
ENDBRANCH   7   8
ENDBRANCH   6   7
ENDBRANCH   5   6
ENDBRANCH   4   5
ENDBRANCH   3   4
ENDBRANCH   2   3
TORSDOF 17
ENDMDL
MODEL      396
REMARK 921   NORMALIZED FREE ENERGY PREDICTED BY IDOCK:   -1.93 KCAL/MOL
REMARK 922        TOTAL FREE ENERGY PREDICTED BY IDOCK:   -6.68 KCAL/MOL
REMARK 923 INTER-LIGAND FREE ENERGY PREDICTED BY IDOCK:   -5.96 KCAL/MOL
REMARK 924 INTRA-LIGAND FREE ENERGY PREDICTED BY IDOCK:   -0.72 KCAL/MOL
REMARK 927      BINDING AFFINITY PREDICTED BY RF-SCORE:    0.00 PKD
ROOT
HETATM    1  C   UNL     1     -10.886  17.529  68.556  1.00  0.00    -0.136 C  
HETATM    2  C   UNL     1      -9.815  16.887  67.690  1.00  0.00    -0.259 C  
ENDROOT
BRANCH   2   3
HETATM    3  C   UNL     1     -10.431  15.907  66.695  1.00  0.00    -0.306 C  
BRANCH   3   4
HETATM    4  C   UNL     1     -10.361  14.477  67.224  1.00  0.00    -0.260 C  
BRANCH   4   5
HETATM    5  C   UNL     1     -11.761  13.905  67.403  1.00  0.00    -0.422 C  
BRANCH   5   6
HETATM    6  C   UNL     1     -11.879  12.542  66.734  1.00  0.00    -0.416 C  
BRANCH   6   7
HETATM    7  C   UNL     1     -10.522  12.090  66.212  1.00  0.00    -0.273 C  
BRANCH   7   8
HETATM    8  C   UNL     1     -10.045  10.857  66.964  1.00  0.00    -0.244 C  
BRANCH   8   9
HETATM    9  C   UNL     1     -10.256   9.608  66.118  1.00  0.00    -0.276 C  
BRANCH   9  10
HETATM   10  C   UNL     1     -10.218   8.367  66.995  1.00  0.00    -0.377 C  
BRANCH  10  11
HETATM   11  C   UNL     1      -9.396   7.269  66.342  1.00  0.00    -0.199 C  
BRANCH  11  12
HETATM   12  C   UNL     1      -9.840   5.913  66.863  1.00  0.00    -0.182 C  
BRANCH  12  13
HETATM   13  C   UNL     1      -8.659   5.101  67.383  1.00  0.00    -0.104 C  
BRANCH  13  14
HETATM   14  C   UNL     1      -8.778   4.795  68.876  1.00  0.00    -0.107 C  
BRANCH  14  15
HETATM   15  C   UNL     1      -8.919   6.026  69.775  1.00  0.00    -0.135 C  
BRANCH  15  16
HETATM   16  C   UNL     1      -9.487   5.697  71.158  1.00  0.00    -0.158 C  
BRANCH  16  17
HETATM   17  N   UNL     1     -10.692   6.570  71.556  1.00  0.00    -0.230 N  
HETATM   18  C   UNL     1     -11.552   6.888  70.339  1.00  0.00    -0.335 C  
HETATM   19  C   UNL     1     -11.543   5.856  72.605  1.00  0.00    -0.241 C  
BRANCH  17  20
HETATM   20  C   UNL     1     -10.119   7.895  72.171  1.00  0.00    -0.220 C  
BRANCH  20  21
HETATM   21  C   UNL     1      -8.962   8.488  71.406  1.00  0.00    -0.262 A  
HETATM   22  C   UNL     1      -7.643   8.298  71.848  1.00  0.00    -0.132 A  
HETATM   23  C   UNL     1      -6.605   9.060  71.312  1.00  0.00    -0.086 A  
HETATM   24  C   UNL     1      -6.871   9.989  70.308  1.00  0.00    -0.147 A  
HETATM   25  C   UNL     1      -8.159  10.117  69.798  1.00  0.00    -0.167 A  
HETATM   26  C   UNL     1      -9.197   9.351  70.326  1.00  0.00    -0.285 A  
ENDBRANCH  20  21
ENDBRANCH  17  20
ENDBRANCH  16  17
ENDBRANCH  15  16
ENDBRANCH  14  15
ENDBRANCH  13  14
ENDBRANCH  12  13
ENDBRANCH  11  12
ENDBRANCH  10  11
ENDBRANCH   9  10
ENDBRANCH   8   9
ENDBRANCH   7   8
ENDBRANCH   6   7
ENDBRANCH   5   6
ENDBRANCH   4   5
ENDBRANCH   3   4
ENDBRANCH   2   3
TORSDOF 17
ENDMDL
MODEL      397
REMARK 921   NORMALIZED FREE ENERGY PREDICTED BY IDOCK:   -1.92 KCAL/MOL
REMARK 922        TOTAL FREE ENERGY PREDICTED BY IDOCK:   -6.67 KCAL/MOL
REMARK 923 INTER-LIGAND FREE ENERGY PREDICTED BY IDOCK:   -5.75 KCAL/MOL
REMARK 924 INTRA-LIGAND FREE ENERGY PREDICTED BY IDOCK:   -0.92 KCAL/MOL
REMARK 927      BINDING AFFINITY PREDICTED BY RF-SCORE:    0.00 PKD
ROOT
HETATM    1  C   UNL     1     -12.927  15.541  71.413  1.00  0.00    -0.553 C  
HETATM    2  C   UNL     1     -12.326  14.643  70.346  1.00  0.00    -0.399 C  
ENDROOT
BRANCH   2   3
HETATM    3  C   UNL     1     -12.316  13.185  70.800  1.00  0.00    -0.404 C  
BRANCH   3   4
HETATM    4  C   UNL     1     -11.606  12.300  69.779  1.00  0.00    -0.314 C  
BRANCH   4   5
HETATM    5  C   UNL     1     -12.119  10.869  69.865  1.00  0.00    -0.428 C  
BRANCH   5   6
HETATM    6  C   UNL     1     -12.425  10.489  71.307  1.00  0.00    -0.524 C  
BRANCH   6   7
HETATM    7  C   UNL     1     -11.358   9.544  71.843  1.00  0.00    -0.156 C  
BRANCH   7   8
HETATM    8  C   UNL     1     -11.978   8.219  72.258  1.00  0.00    -0.448 C  
BRANCH   8   9
HETATM    9  C   UNL     1     -11.154   7.057  71.717  1.00  0.00    -0.270 C  
BRANCH   9  10
HETATM   10  C   UNL     1     -10.043   7.576  70.819  1.00  0.00    -0.192 C  
BRANCH  10  11
HETATM   11  C   UNL     1     -10.557   7.823  69.411  1.00  0.00    -0.211 C  
BRANCH  11  12
HETATM   12  C   UNL     1      -9.677   7.099  68.406  1.00  0.00    -0.143 C  
BRANCH  12  13
HETATM   13  C   UNL     1     -10.509   6.314  67.399  1.00  0.00    -0.308 C  
BRANCH  13  14
HETATM   14  C   UNL     1     -10.154   4.827  67.387  1.00  0.00    -0.177 C  
BRANCH  14  15
HETATM   15  C   UNL     1      -9.058   4.419  68.375  1.00  0.00    -0.165 C  
BRANCH  15  16
HETATM   16  C   UNL     1      -8.802   2.910  68.400  1.00  0.00    -0.123 C  
BRANCH  16  17
HETATM   17  N   UNL     1      -8.152   2.414  69.704  1.00  0.00    -0.041 N  
HETATM   18  C   UNL     1      -9.108   1.511  70.474  1.00  0.00    -0.081 C  
HETATM   19  C   UNL     1      -6.866   1.647  69.399  1.00  0.00    -0.033 C  
BRANCH  17  20
HETATM   20  C   UNL     1      -7.804   3.683  70.558  1.00  0.00    -0.047 C  
BRANCH  20  21
HETATM   21  C   UNL     1      -8.312   3.637  71.978  1.00  0.00    -0.083 A  
HETATM   22  C   UNL     1      -7.583   2.968  72.975  1.00  0.00    -0.051 A  
HETATM   23  C   UNL     1      -8.171   2.690  74.209  1.00  0.00    -0.067 A  
HETATM   24  C   UNL     1      -9.475   3.108  74.468  1.00  0.00    -0.121 A  
HETATM   25  C   UNL     1     -10.171   3.854  73.522  1.00  0.00    -0.211 A  
HETATM   26  C   UNL     1      -9.584   4.141  72.291  1.00  0.00    -0.200 A  
ENDBRANCH  20  21
ENDBRANCH  17  20
ENDBRANCH  16  17
ENDBRANCH  15  16
ENDBRANCH  14  15
ENDBRANCH  13  14
ENDBRANCH  12  13
ENDBRANCH  11  12
ENDBRANCH  10  11
ENDBRANCH   9  10
ENDBRANCH   8   9
ENDBRANCH   7   8
ENDBRANCH   6   7
ENDBRANCH   5   6
ENDBRANCH   4   5
ENDBRANCH   3   4
ENDBRANCH   2   3
TORSDOF 17
ENDMDL
MODEL      398
REMARK 921   NORMALIZED FREE ENERGY PREDICTED BY IDOCK:   -1.91 KCAL/MOL
REMARK 922        TOTAL FREE ENERGY PREDICTED BY IDOCK:   -6.64 KCAL/MOL
REMARK 923 INTER-LIGAND FREE ENERGY PREDICTED BY IDOCK:   -6.53 KCAL/MOL
REMARK 924 INTRA-LIGAND FREE ENERGY PREDICTED BY IDOCK:   -0.11 KCAL/MOL
REMARK 927      BINDING AFFINITY PREDICTED BY RF-SCORE:    0.00 PKD
ROOT
HETATM    1  C   UNL     1      -8.635  20.084  67.048  1.00  0.00    -0.399 C  
HETATM    2  C   UNL     1      -9.901  20.066  66.208  1.00  0.00    -0.576 C  
ENDROOT
BRANCH   2   3
HETATM    3  C   UNL     1     -10.676  18.767  66.414  1.00  0.00    -0.324 C  
BRANCH   3   4
HETATM    4  C   UNL     1      -9.918  17.820  67.340  1.00  0.00    -0.323 C  
BRANCH   4   5
HETATM    5  C   UNL     1     -10.201  16.370  66.969  1.00  0.00    -0.282 C  
BRANCH   5   6
HETATM    6  C   UNL     1      -9.765  16.083  65.537  1.00  0.00    -0.169 C  
BRANCH   6   7
HETATM    7  C   UNL     1     -10.630  14.986  64.932  1.00  0.00    -0.400 C  
BRANCH   7   8
HETATM    8  C   UNL     1     -11.651  14.492  65.945  1.00  0.00    -0.349 C  
BRANCH   8   9
HETATM    9  C   UNL     1     -12.270  13.181  65.476  1.00  0.00    -0.513 C  
BRANCH   9  10
HETATM   10  C   UNL     1     -12.198  13.080  63.961  1.00  0.00    -0.489 C  
BRANCH  10  11
HETATM   11  C   UNL     1     -11.328  11.909  63.539  1.00  0.00    -0.516 C  
BRANCH  11  12
HETATM   12  C   UNL     1     -10.980  11.062  64.751  1.00  0.00    -0.142 C  
BRANCH  12  13
HETATM   13  C   UNL     1      -9.564  11.343  65.241  1.00  0.00    -0.256 C  
BRANCH  13  14
HETATM   14  C   UNL     1      -9.363  10.935  66.700  1.00  0.00    -0.191 C  
BRANCH  14  15
HETATM   15  C   UNL     1     -10.114   9.669  67.123  1.00  0.00    -0.276 C  
BRANCH  15  16
HETATM   16  C   UNL     1      -9.366   8.380  66.769  1.00  0.00    -0.184 C  
BRANCH  16  17
HETATM   17  N   UNL     1      -9.613   7.229  67.760  1.00  0.00    -0.137 N  
HETATM   18  C   UNL     1     -11.028   6.683  67.611  1.00  0.00    -0.309 C  
HETATM   19  C   UNL     1      -8.608   6.102  67.528  1.00  0.00    -0.106 C  
BRANCH  17  20
HETATM   20  C   UNL     1      -9.411   7.811  69.203  1.00  0.00    -0.151 C  
BRANCH  20  21
HETATM   21  C   UNL     1      -7.979   8.140  69.547  1.00  0.00    -0.113 A  
HETATM   22  C   UNL     1      -7.676   8.885  70.699  1.00  0.00    -0.112 A  
HETATM   23  C   UNL     1      -6.399   9.420  70.874  1.00  0.00    -0.078 A  
HETATM   24  C   UNL     1      -5.410   9.184  69.922  1.00  0.00    -0.029 A  
HETATM   25  C   UNL     1      -5.675   8.369  68.826  1.00  0.00    -0.040 A  
HETATM   26  C   UNL     1      -6.947   7.826  68.652  1.00  0.00    -0.067 A  
ENDBRANCH  20  21
ENDBRANCH  17  20
ENDBRANCH  16  17
ENDBRANCH  15  16
ENDBRANCH  14  15
ENDBRANCH  13  14
ENDBRANCH  12  13
ENDBRANCH  11  12
ENDBRANCH  10  11
ENDBRANCH   9  10
ENDBRANCH   8   9
ENDBRANCH   7   8
ENDBRANCH   6   7
ENDBRANCH   5   6
ENDBRANCH   4   5
ENDBRANCH   3   4
ENDBRANCH   2   3
TORSDOF 17
ENDMDL
MODEL      399
REMARK 921   NORMALIZED FREE ENERGY PREDICTED BY IDOCK:   -1.90 KCAL/MOL
REMARK 922        TOTAL FREE ENERGY PREDICTED BY IDOCK:   -6.62 KCAL/MOL
REMARK 923 INTER-LIGAND FREE ENERGY PREDICTED BY IDOCK:   -5.31 KCAL/MOL
REMARK 924 INTRA-LIGAND FREE ENERGY PREDICTED BY IDOCK:   -1.32 KCAL/MOL
REMARK 927      BINDING AFFINITY PREDICTED BY RF-SCORE:    0.00 PKD
ROOT
HETATM    1  C   UNL     1      -8.680   7.023  71.654  1.00  0.00    -0.116 C  
HETATM    2  C   UNL     1      -7.412   7.018  70.817  1.00  0.00    -0.082 C  
ENDROOT
BRANCH   2   3
HETATM    3  C   UNL     1      -7.073   5.605  70.347  1.00  0.00    -0.066 C  
BRANCH   3   4
HETATM    4  C   UNL     1      -7.136   5.506  68.826  1.00  0.00    -0.065 C  
BRANCH   4   5
HETATM    5  C   UNL     1      -7.269   4.052  68.391  1.00  0.00    -0.055 C  
BRANCH   5   6
HETATM    6  C   UNL     1      -8.320   3.908  67.297  1.00  0.00    -0.099 C  
BRANCH   6   7
HETATM    7  C   UNL     1      -7.802   3.010  66.182  1.00  0.00    -0.081 C  
BRANCH   7   8
HETATM    8  C   UNL     1      -8.088   3.630  64.823  1.00  0.00    -0.090 C  
BRANCH   8   9
HETATM    9  C   UNL     1      -8.888   4.917  64.987  1.00  0.00    -0.154 C  
BRANCH   9  10
HETATM   10  C   UNL     1      -8.225   6.048  64.217  1.00  0.00    -0.069 C  
BRANCH  10  11
HETATM   11  C   UNL     1      -7.572   7.038  65.167  1.00  0.00    -0.102 C  
BRANCH  11  12
HETATM   12  C   UNL     1      -8.583   7.501  66.202  1.00  0.00    -0.159 C  
BRANCH  12  13
HETATM   13  C   UNL     1      -8.670   9.022  66.255  1.00  0.00    -0.155 C  
BRANCH  13  14
HETATM   14  C   UNL     1      -9.242   9.616  64.968  1.00  0.00    -0.310 C  
BRANCH  14  15
HETATM   15  C   UNL     1     -10.369  10.632  65.174  1.00  0.00    -0.331 C  
BRANCH  15  16
HETATM   16  C   UNL     1     -10.791  10.771  66.640  1.00  0.00    -0.164 C  
BRANCH  16  17
HETATM   17  N   UNL     1     -10.514  12.164  67.234  1.00  0.00    -0.215 N  
HETATM   18  C   UNL     1      -9.763  12.048  68.554  1.00  0.00    -0.161 C  
HETATM   19  C   UNL     1      -9.692  13.005  66.257  1.00  0.00    -0.263 C  
BRANCH  17  20
HETATM   20  C   UNL     1     -11.905  12.853  67.463  1.00  0.00    -0.351 C  
BRANCH  20  21
HETATM   21  C   UNL     1     -11.884  13.979  68.467  1.00  0.00    -0.399 A  
HETATM   22  C   UNL     1     -11.347  15.231  68.124  1.00  0.00    -0.346 A  
HETATM   23  C   UNL     1     -11.078  16.176  69.114  1.00  0.00    -0.329 A  
HETATM   24  C   UNL     1     -11.375  15.892  70.445  1.00  0.00    -0.399 A  
HETATM   25  C   UNL     1     -11.995  14.693  70.783  1.00  0.00    -0.380 A  
HETATM   26  C   UNL     1     -12.273  13.750  69.795  1.00  0.00    -0.368 A  
ENDBRANCH  20  21
ENDBRANCH  17  20
ENDBRANCH  16  17
ENDBRANCH  15  16
ENDBRANCH  14  15
ENDBRANCH  13  14
ENDBRANCH  12  13
ENDBRANCH  11  12
ENDBRANCH  10  11
ENDBRANCH   9  10
ENDBRANCH   8   9
ENDBRANCH   7   8
ENDBRANCH   6   7
ENDBRANCH   5   6
ENDBRANCH   4   5
ENDBRANCH   3   4
ENDBRANCH   2   3
TORSDOF 17
ENDMDL
MODEL      400
REMARK 921   NORMALIZED FREE ENERGY PREDICTED BY IDOCK:   -1.88 KCAL/MOL
REMARK 922        TOTAL FREE ENERGY PREDICTED BY IDOCK:   -6.59 KCAL/MOL
REMARK 923 INTER-LIGAND FREE ENERGY PREDICTED BY IDOCK:   -6.85 KCAL/MOL
REMARK 924 INTRA-LIGAND FREE ENERGY PREDICTED BY IDOCK:    0.25 KCAL/MOL
REMARK 927      BINDING AFFINITY PREDICTED BY RF-SCORE:    0.00 PKD
ROOT
HETATM    1  C   UNL     1      -8.442   8.054  68.598  1.00  0.00    -0.128 C  
HETATM    2  C   UNL     1      -7.918   8.579  67.273  1.00  0.00    -0.102 C  
ENDROOT
BRANCH   2   3
HETATM    3  C   UNL     1      -7.297   7.457  66.446  1.00  0.00    -0.083 C  
BRANCH   3   4
HETATM    4  C   UNL     1      -5.864   7.800  66.047  1.00  0.00    -0.037 C  
BRANCH   4   5
HETATM    5  C   UNL     1      -5.721   7.818  64.531  1.00  0.00    -0.041 C  
BRANCH   5   6
HETATM    6  C   UNL     1      -5.341   9.208  64.039  1.00  0.00    -0.060 C  
BRANCH   6   7
HETATM    7  C   UNL     1      -6.587   9.987  63.640  1.00  0.00    -0.130 C  
BRANCH   7   8
HETATM    8  C   UNL     1      -7.667   9.042  63.135  1.00  0.00    -0.115 C  
BRANCH   8   9
HETATM    9  C   UNL     1      -8.768   9.825  62.433  1.00  0.00    -0.237 C  
BRANCH   9  10
HETATM   10  C   UNL     1      -9.771  10.347  63.449  1.00  0.00    -0.318 C  
BRANCH  10  11
HETATM   11  C   UNL     1     -10.306  11.706  63.032  1.00  0.00    -0.284 C  
BRANCH  11  12
HETATM   12  C   UNL     1     -10.548  12.564  64.261  1.00  0.00    -0.395 C  
BRANCH  12  13
HETATM   13  C   UNL     1     -11.867  13.320  64.164  1.00  0.00    -0.497 C  
BRANCH  13  14
HETATM   14  C   UNL     1     -12.096  14.246  65.359  1.00  0.00    -0.396 C  
BRANCH  14  15
HETATM   15  C   UNL     1     -11.303  15.555  65.319  1.00  0.00    -0.189 C  
BRANCH  15  16
HETATM   16  C   UNL     1     -10.145  15.586  66.321  1.00  0.00    -0.295 C  
BRANCH  16  17
HETATM   17  N   UNL     1     -10.586  15.386  67.782  1.00  0.00    -0.267 N  
HETATM   18  C   UNL     1     -11.881  14.587  67.850  1.00  0.00    -0.336 C  
HETATM   19  C   UNL     1      -9.499  14.657  68.571  1.00  0.00    -0.216 C  
BRANCH  17  20
HETATM   20  C   UNL     1     -10.800  16.813  68.398  1.00  0.00    -0.355 C  
BRANCH  20  21
HETATM   21  C   UNL     1     -10.018  17.910  67.718  1.00  0.00    -0.331 A  
HETATM   22  C   UNL     1      -8.639  18.046  67.943  1.00  0.00    -0.258 A  
HETATM   23  C   UNL     1      -7.973  19.204  67.541  1.00  0.00    -0.284 A  
HETATM   24  C   UNL     1      -8.670  20.215  66.883  1.00  0.00    -0.412 A  
HETATM   25  C   UNL     1     -10.015  20.048  66.572  1.00  0.00    -0.603 A  
HETATM   26  C   UNL     1     -10.683  18.888  66.964  1.00  0.00    -0.477 A  
ENDBRANCH  20  21
ENDBRANCH  17  20
ENDBRANCH  16  17
ENDBRANCH  15  16
ENDBRANCH  14  15
ENDBRANCH  13  14
ENDBRANCH  12  13
ENDBRANCH  11  12
ENDBRANCH  10  11
ENDBRANCH   9  10
ENDBRANCH   8   9
ENDBRANCH   7   8
ENDBRANCH   6   7
ENDBRANCH   5   6
ENDBRANCH   4   5
ENDBRANCH   3   4
ENDBRANCH   2   3
TORSDOF 17
ENDMDL
MODEL      401
REMARK 921   NORMALIZED FREE ENERGY PREDICTED BY IDOCK:   -1.84 KCAL/MOL
REMARK 922        TOTAL FREE ENERGY PREDICTED BY IDOCK:   -6.51 KCAL/MOL
REMARK 923 INTER-LIGAND FREE ENERGY PREDICTED BY IDOCK:   -4.06 KCAL/MOL
REMARK 924 INTRA-LIGAND FREE ENERGY PREDICTED BY IDOCK:   -2.45 KCAL/MOL
REMARK 927      BINDING AFFINITY PREDICTED BY RF-SCORE:    0.00 PKD
ROOT
HETATM    1  C   UNL     1      -6.187  12.952  67.208  1.00  0.00    -0.005 C  
HETATM    2  C   UNL     1      -6.509  11.656  67.931  1.00  0.00    -0.061 C  
ENDROOT
BRANCH   2   3
HETATM    3  C   UNL     1      -7.611  11.865  68.967  1.00  0.00     0.029 C  
BRANCH   3   4
HETATM    4  C   UNL     1      -8.935  12.212  68.293  1.00  0.00    -0.186 C  
BRANCH   4   5
HETATM    5  C   UNL     1     -10.037  11.272  68.766  1.00  0.00    -0.204 C  
BRANCH   5   6
HETATM    6  C   UNL     1     -11.356  12.018  68.921  1.00  0.00    -0.333 C  
BRANCH   6   7
HETATM    7  C   UNL     1     -11.944  11.770  70.303  1.00  0.00    -0.429 C  
BRANCH   7   8
HETATM    8  C   UNL     1     -12.822  10.527  70.293  1.00  0.00    -0.192 C  
BRANCH   8   9
HETATM    9  C   UNL     1     -12.769   9.832  71.648  1.00  0.00    -0.517 C  
BRANCH   9  10
HETATM   10  C   UNL     1     -12.042   8.503  71.527  1.00  0.00    -0.351 C  
BRANCH  10  11
HETATM   11  C   UNL     1     -10.679   8.570  72.194  1.00  0.00    -0.426 C  
BRANCH  11  12
HETATM   12  C   UNL     1      -9.588   8.561  71.137  1.00  0.00    -0.248 C  
BRANCH  12  13
HETATM   13  C   UNL     1      -9.938   7.632  69.981  1.00  0.00    -0.190 C  
BRANCH  13  14
HETATM   14  C   UNL     1      -9.243   6.276  70.094  1.00  0.00    -0.162 C  
BRANCH  14  15
HETATM   15  C   UNL     1      -8.177   6.008  69.027  1.00  0.00    -0.108 C  
BRANCH  15  16
HETATM   16  C   UNL     1      -8.192   7.037  67.893  1.00  0.00    -0.115 C  
BRANCH  16  17
HETATM   17  N   UNL     1      -6.935   6.997  67.005  1.00  0.00    -0.068 N  
HETATM   18  C   UNL     1      -5.930   8.055  67.445  1.00  0.00    -0.050 C  
HETATM   19  C   UNL     1      -6.280   5.618  67.073  1.00  0.00    -0.034 C  
BRANCH  17  20
HETATM   20  C   UNL     1      -7.400   7.275  65.533  1.00  0.00    -0.075 C  
BRANCH  20  21
HETATM   21  C   UNL     1      -7.773   8.710  65.257  1.00  0.00    -0.092 A  
HETATM   22  C   UNL     1      -8.923   9.272  65.837  1.00  0.00    -0.225 A  
HETATM   23  C   UNL     1      -9.417  10.493  65.377  1.00  0.00    -0.273 A  
HETATM   24  C   UNL     1      -8.749  11.176  64.364  1.00  0.00     0.174 A  
HETATM   25  C   UNL     1      -7.558  10.674  63.850  1.00  0.00     0.181 A  
HETATM   26  C   UNL     1      -7.056   9.458  64.312  1.00  0.00    -0.102 A  
ENDBRANCH  20  21
ENDBRANCH  17  20
ENDBRANCH  16  17
ENDBRANCH  15  16
ENDBRANCH  14  15
ENDBRANCH  13  14
ENDBRANCH  12  13
ENDBRANCH  11  12
ENDBRANCH  10  11
ENDBRANCH   9  10
ENDBRANCH   8   9
ENDBRANCH   7   8
ENDBRANCH   6   7
ENDBRANCH   5   6
ENDBRANCH   4   5
ENDBRANCH   3   4
ENDBRANCH   2   3
TORSDOF 17
ENDMDL
MODEL      402
REMARK 921   NORMALIZED FREE ENERGY PREDICTED BY IDOCK:   -1.84 KCAL/MOL
REMARK 922        TOTAL FREE ENERGY PREDICTED BY IDOCK:   -6.50 KCAL/MOL
REMARK 923 INTER-LIGAND FREE ENERGY PREDICTED BY IDOCK:   -5.47 KCAL/MOL
REMARK 924 INTRA-LIGAND FREE ENERGY PREDICTED BY IDOCK:   -1.03 KCAL/MOL
REMARK 927      BINDING AFFINITY PREDICTED BY RF-SCORE:    0.00 PKD
ROOT
HETATM    1  C   UNL     1     -12.528  12.986  65.718  1.00  0.00    -0.394 C  
HETATM    2  C   UNL     1     -11.618  13.790  64.804  1.00  0.00    -0.377 C  
ENDROOT
BRANCH   2   3
HETATM    3  C   UNL     1     -10.159  13.377  64.983  1.00  0.00    -0.261 C  
BRANCH   3   4
HETATM    4  C   UNL     1     -10.039  11.869  65.183  1.00  0.00    -0.293 C  
BRANCH   4   5
HETATM    5  C   UNL     1      -9.441  11.558  66.549  1.00  0.00    -0.220 C  
BRANCH   5   6
HETATM    6  C   UNL     1      -8.354  12.563  66.906  1.00  0.00    -0.097 C  
BRANCH   6   7
HETATM    7  C   UNL     1      -7.349  11.937  67.863  1.00  0.00    -0.104 C  
BRANCH   7   8
HETATM    8  C   UNL     1      -7.651  10.459  68.060  1.00  0.00    -0.091 C  
BRANCH   8   9
HETATM    9  C   UNL     1      -6.553   9.607  67.435  1.00  0.00    -0.070 C  
BRANCH   9  10
HETATM   10  C   UNL     1      -7.131   8.295  66.929  1.00  0.00    -0.078 C  
BRANCH  10  11
HETATM   11  C   UNL     1      -7.103   7.237  68.019  1.00  0.00    -0.081 C  
BRANCH  11  12
HETATM   12  C   UNL     1      -7.935   6.039  67.596  1.00  0.00    -0.102 C  
BRANCH  12  13
HETATM   13  C   UNL     1      -9.047   5.750  68.597  1.00  0.00    -0.116 C  
BRANCH  13  14
HETATM   14  C   UNL     1      -9.001   6.689  69.802  1.00  0.00    -0.143 C  
BRANCH  14  15
HETATM   15  C   UNL     1     -10.164   7.681  69.888  1.00  0.00    -0.215 C  
BRANCH  15  16
HETATM   16  C   UNL     1     -11.406   7.094  70.565  1.00  0.00    -0.297 C  
BRANCH  16  17
HETATM   17  N   UNL     1     -12.157   8.099  71.458  1.00  0.00    -0.290 N  
HETATM   18  C   UNL     1     -12.008   9.516  70.918  1.00  0.00    -0.295 C  
HETATM   19  C   UNL     1     -13.640   7.739  71.533  1.00  0.00    -0.331 C  
BRANCH  17  20
HETATM   20  C   UNL     1     -11.529   8.000  72.893  1.00  0.00    -0.264 C  
BRANCH  20  21
HETATM   21  C   UNL     1     -10.888   6.670  73.203  1.00  0.00    -0.298 A  
HETATM   22  C   UNL     1      -9.602   6.613  73.763  1.00  0.00    -0.226 A  
HETATM   23  C   UNL     1      -8.903   5.406  73.797  1.00  0.00    -0.124 A  
HETATM   24  C   UNL     1      -9.496   4.245  73.305  1.00  0.00    -0.129 A  
HETATM   25  C   UNL     1     -10.805   4.274  72.835  1.00  0.00    -0.230 A  
HETATM   26  C   UNL     1     -11.510   5.477  72.807  1.00  0.00    -0.339 A  
ENDBRANCH  20  21
ENDBRANCH  17  20
ENDBRANCH  16  17
ENDBRANCH  15  16
ENDBRANCH  14  15
ENDBRANCH  13  14
ENDBRANCH  12  13
ENDBRANCH  11  12
ENDBRANCH  10  11
ENDBRANCH   9  10
ENDBRANCH   8   9
ENDBRANCH   7   8
ENDBRANCH   6   7
ENDBRANCH   5   6
ENDBRANCH   4   5
ENDBRANCH   3   4
ENDBRANCH   2   3
TORSDOF 17
ENDMDL
MODEL      403
REMARK 921   NORMALIZED FREE ENERGY PREDICTED BY IDOCK:   -1.83 KCAL/MOL
REMARK 922        TOTAL FREE ENERGY PREDICTED BY IDOCK:   -6.49 KCAL/MOL
REMARK 923 INTER-LIGAND FREE ENERGY PREDICTED BY IDOCK:   -6.29 KCAL/MOL
REMARK 924 INTRA-LIGAND FREE ENERGY PREDICTED BY IDOCK:   -0.20 KCAL/MOL
REMARK 927      BINDING AFFINITY PREDICTED BY RF-SCORE:    0.00 PKD
ROOT
HETATM    1  C   UNL     1      -7.941  20.153  67.426  1.00  0.00    -0.357 C  
HETATM    2  C   UNL     1      -8.611  18.801  67.602  1.00  0.00    -0.293 C  
ENDROOT
BRANCH   2   3
HETATM    3  C   UNL     1      -9.816  18.662  66.675  1.00  0.00    -0.377 C  
BRANCH   3   4
HETATM    4  C   UNL     1     -10.813  17.645  67.224  1.00  0.00    -0.141 C  
BRANCH   4   5
HETATM    5  C   UNL     1     -11.182  16.628  66.152  1.00  0.00     0.452 C  
BRANCH   5   6
HETATM    6  C   UNL     1     -11.582  15.299  66.781  1.00  0.00    -0.051 C  
BRANCH   6   7
HETATM    7  C   UNL     1     -11.974  14.300  65.701  1.00  0.00    -0.390 C  
BRANCH   7   8
HETATM    8  C   UNL     1     -10.743  13.819  64.947  1.00  0.00    -0.410 C  
BRANCH   8   9
HETATM    9  C   UNL     1     -10.715  12.296  64.900  1.00  0.00    -0.335 C  
BRANCH   9  10
HETATM   10  C   UNL     1      -9.921  11.825  63.692  1.00  0.00    -0.404 C  
BRANCH  10  11
HETATM   11  C   UNL     1      -9.598  10.345  63.803  1.00  0.00    -0.366 C  
BRANCH  11  12
HETATM   12  C   UNL     1      -8.157  10.099  63.390  1.00  0.00    -0.161 C  
BRANCH  12  13
HETATM   13  C   UNL     1      -7.433   9.207  64.392  1.00  0.00    -0.101 C  
BRANCH  13  14
HETATM   14  C   UNL     1      -7.939   9.409  65.820  1.00  0.00    -0.110 C  
BRANCH  14  15
HETATM   15  C   UNL     1      -9.055   8.452  66.249  1.00  0.00    -0.241 C  
BRANCH  15  16
HETATM   16  C   UNL     1      -8.865   7.905  67.666  1.00  0.00    -0.128 C  
BRANCH  16  17
HETATM   17  N   UNL     1      -9.685   8.652  68.733  1.00  0.00    -0.163 N  
HETATM   18  C   UNL     1     -10.690   7.716  69.394  1.00  0.00    -0.184 C  
HETATM   19  C   UNL     1      -8.762   9.238  69.800  1.00  0.00    -0.162 C  
BRANCH  17  20
HETATM   20  C   UNL     1     -10.437   9.820  68.003  1.00  0.00    -0.226 C  
BRANCH  20  21
HETATM   21  C   UNL     1     -11.296  10.670  68.906  1.00  0.00    -0.337 A  
HETATM   22  C   UNL     1     -11.333  12.065  68.749  1.00  0.00    -0.331 A  
HETATM   23  C   UNL     1     -11.899  12.868  69.739  1.00  0.00    -0.380 A  
HETATM   24  C   UNL     1     -12.464  12.285  70.871  1.00  0.00    -0.371 A  
HETATM   25  C   UNL     1     -12.516  10.899  70.990  1.00  0.00    -0.514 A  
HETATM   26  C   UNL     1     -11.958  10.092  70.000  1.00  0.00    -0.210 A  
ENDBRANCH  20  21
ENDBRANCH  17  20
ENDBRANCH  16  17
ENDBRANCH  15  16
ENDBRANCH  14  15
ENDBRANCH  13  14
ENDBRANCH  12  13
ENDBRANCH  11  12
ENDBRANCH  10  11
ENDBRANCH   9  10
ENDBRANCH   8   9
ENDBRANCH   7   8
ENDBRANCH   6   7
ENDBRANCH   5   6
ENDBRANCH   4   5
ENDBRANCH   3   4
ENDBRANCH   2   3
TORSDOF 17
ENDMDL
MODEL      404
REMARK 921   NORMALIZED FREE ENERGY PREDICTED BY IDOCK:   -1.83 KCAL/MOL
REMARK 922        TOTAL FREE ENERGY PREDICTED BY IDOCK:   -6.48 KCAL/MOL
REMARK 923 INTER-LIGAND FREE ENERGY PREDICTED BY IDOCK:   -6.31 KCAL/MOL
REMARK 924 INTRA-LIGAND FREE ENERGY PREDICTED BY IDOCK:   -0.17 KCAL/MOL
REMARK 927      BINDING AFFINITY PREDICTED BY RF-SCORE:    0.00 PKD
ROOT
HETATM    1  C   UNL     1     -10.727  17.472  67.288  1.00  0.00    -0.222 C  
HETATM    2  C   UNL     1      -9.967  16.753  66.187  1.00  0.00    -0.345 C  
ENDROOT
BRANCH   2   3
HETATM    3  C   UNL     1     -10.926  16.154  65.161  1.00  0.00    -0.327 C  
BRANCH   3   4
HETATM    4  C   UNL     1     -10.576  14.698  64.870  1.00  0.00    -0.446 C  
BRANCH   4   5
HETATM    5  C   UNL     1     -11.838  13.848  64.802  1.00  0.00    -0.414 C  
BRANCH   5   6
HETATM    6  C   UNL     1     -11.560  12.521  64.109  1.00  0.00    -0.457 C  
BRANCH   6   7
HETATM    7  C   UNL     1     -10.099  12.439  63.690  1.00  0.00    -0.302 C  
BRANCH   7   8
HETATM    8  C   UNL     1      -9.335  11.490  64.601  1.00  0.00    -0.040 C  
BRANCH   8   9
HETATM    9  C   UNL     1      -8.568  10.467  63.773  1.00  0.00    -0.178 C  
BRANCH   9  10
HETATM   10  C   UNL     1      -8.681   9.089  64.405  1.00  0.00    -0.151 C  
BRANCH  10  11
HETATM   11  C   UNL     1      -7.574   8.174  63.909  1.00  0.00    -0.127 C  
BRANCH  11  12
HETATM   12  C   UNL     1      -7.830   6.753  64.380  1.00  0.00    -0.113 C  
BRANCH  12  13
HETATM   13  C   UNL     1      -6.755   6.285  65.353  1.00  0.00    -0.047 C  
BRANCH  13  14
HETATM   14  C   UNL     1      -7.326   5.948  66.730  1.00  0.00    -0.079 C  
BRANCH  14  15
HETATM   15  C   UNL     1      -7.697   7.161  67.587  1.00  0.00    -0.112 C  
BRANCH  15  16
HETATM   16  C   UNL     1      -8.435   6.784  68.875  1.00  0.00    -0.120 C  
BRANCH  16  17
HETATM   17  N   UNL     1      -9.796   7.486  69.036  1.00  0.00    -0.166 N  
HETATM   18  C   UNL     1     -10.932   6.563  68.610  1.00  0.00    -0.293 C  
HETATM   19  C   UNL     1     -10.007   7.911  70.488  1.00  0.00    -0.191 C  
BRANCH  17  20
HETATM   20  C   UNL     1      -9.768   8.762  68.124  1.00  0.00    -0.158 C  
BRANCH  20  21
HETATM   21  C   UNL     1     -10.725   9.850  68.545  1.00  0.00    -0.260 A  
HETATM   22  C   UNL     1     -11.005  10.925  67.685  1.00  0.00    -0.350 A  
HETATM   23  C   UNL     1     -11.663  12.057  68.167  1.00  0.00    -0.398 A  
HETATM   24  C   UNL     1     -12.076  12.109  69.496  1.00  0.00    -0.263 A  
HETATM   25  C   UNL     1     -11.887  11.011  70.330  1.00  0.00    -0.456 A  
HETATM   26  C   UNL     1     -11.237   9.875  69.851  1.00  0.00    -0.298 A  
ENDBRANCH  20  21
ENDBRANCH  17  20
ENDBRANCH  16  17
ENDBRANCH  15  16
ENDBRANCH  14  15
ENDBRANCH  13  14
ENDBRANCH  12  13
ENDBRANCH  11  12
ENDBRANCH  10  11
ENDBRANCH   9  10
ENDBRANCH   8   9
ENDBRANCH   7   8
ENDBRANCH   6   7
ENDBRANCH   5   6
ENDBRANCH   4   5
ENDBRANCH   3   4
ENDBRANCH   2   3
TORSDOF 17
ENDMDL
MODEL      405
REMARK 921   NORMALIZED FREE ENERGY PREDICTED BY IDOCK:   -1.80 KCAL/MOL
REMARK 922        TOTAL FREE ENERGY PREDICTED BY IDOCK:   -6.42 KCAL/MOL
REMARK 923 INTER-LIGAND FREE ENERGY PREDICTED BY IDOCK:   -4.37 KCAL/MOL
REMARK 924 INTRA-LIGAND FREE ENERGY PREDICTED BY IDOCK:   -2.05 KCAL/MOL
REMARK 927      BINDING AFFINITY PREDICTED BY RF-SCORE:    0.00 PKD
ROOT
HETATM    1  C   UNL     1      -5.599   5.511  67.598  1.00  0.00    -0.012 C  
HETATM    2  C   UNL     1      -5.803   6.929  68.106  1.00  0.00    -0.021 C  
ENDROOT
BRANCH   2   3
HETATM    3  C   UNL     1      -5.850   7.923  66.949  1.00  0.00    -0.044 C  
BRANCH   3   4
HETATM    4  C   UNL     1      -5.913   7.199  65.607  1.00  0.00    -0.037 C  
BRANCH   4   5
HETATM    5  C   UNL     1      -6.990   7.810  64.720  1.00  0.00    -0.055 C  
BRANCH   5   6
HETATM    6  C   UNL     1      -7.877   6.726  64.122  1.00  0.00    -0.106 C  
BRANCH   6   7
HETATM    7  C   UNL     1      -7.418   5.351  64.587  1.00  0.00    -0.070 C  
BRANCH   7   8
HETATM    8  C   UNL     1      -8.613   4.495  64.980  1.00  0.00    -0.133 C  
BRANCH   8   9
HETATM    9  C   UNL     1      -9.040   4.808  66.408  1.00  0.00    -0.119 C  
BRANCH   9  10
HETATM   10  C   UNL     1     -10.546   5.005  66.474  1.00  0.00    -0.289 C  
BRANCH  10  11
HETATM   11  C   UNL     1     -10.886   6.399  66.973  1.00  0.00    -0.464 C  
BRANCH  11  12
HETATM   12  C   UNL     1      -9.792   6.895  67.903  1.00  0.00    -0.155 C  
BRANCH  12  13
HETATM   13  C   UNL     1      -9.520   8.381  67.702  1.00  0.00    -0.176 C  
BRANCH  13  14
HETATM   14  C   UNL     1     -10.128   8.912  66.404  1.00  0.00    -0.333 C  
BRANCH  14  15
HETATM   15  C   UNL     1      -9.650  10.308  65.994  1.00  0.00    -0.259 C  
BRANCH  15  16
HETATM   16  C   UNL     1     -10.767  11.355  66.014  1.00  0.00    -0.263 C  
BRANCH  16  17
HETATM   17  N   UNL     1     -10.395  12.642  66.772  1.00  0.00    -0.233 N  
HETATM   18  C   UNL     1      -9.484  12.328  67.953  1.00  0.00    -0.200 C  
HETATM   19  C   UNL     1      -9.693  13.626  65.838  1.00  0.00    -0.187 C  
BRANCH  17  20
HETATM   20  C   UNL     1     -11.735  13.281  67.281  1.00  0.00    -0.377 C  
BRANCH  20  21
HETATM   21  C   UNL     1     -11.558  14.336  68.345  1.00  0.00    -0.354 A  
HETATM   22  C   UNL     1     -11.848  15.682  68.068  1.00  0.00    -0.032 A  
HETATM   23  C   UNL     1     -11.432  16.685  68.945  1.00  0.00    -0.023 A  
HETATM   24  C   UNL     1     -10.757  16.349  70.117  1.00  0.00    -0.209 A  
HETATM   25  C   UNL     1     -10.550  15.013  70.445  1.00  0.00    -0.079 A  
HETATM   26  C   UNL     1     -10.971  14.008  69.576  1.00  0.00    -0.138 A  
ENDBRANCH  20  21
ENDBRANCH  17  20
ENDBRANCH  16  17
ENDBRANCH  15  16
ENDBRANCH  14  15
ENDBRANCH  13  14
ENDBRANCH  12  13
ENDBRANCH  11  12
ENDBRANCH  10  11
ENDBRANCH   9  10
ENDBRANCH   8   9
ENDBRANCH   7   8
ENDBRANCH   6   7
ENDBRANCH   5   6
ENDBRANCH   4   5
ENDBRANCH   3   4
ENDBRANCH   2   3
TORSDOF 17
ENDMDL
MODEL      406
REMARK 921   NORMALIZED FREE ENERGY PREDICTED BY IDOCK:   -1.73 KCAL/MOL
REMARK 922        TOTAL FREE ENERGY PREDICTED BY IDOCK:   -6.29 KCAL/MOL
REMARK 923 INTER-LIGAND FREE ENERGY PREDICTED BY IDOCK:   -5.56 KCAL/MOL
REMARK 924 INTRA-LIGAND FREE ENERGY PREDICTED BY IDOCK:   -0.73 KCAL/MOL
REMARK 927      BINDING AFFINITY PREDICTED BY RF-SCORE:    0.00 PKD
ROOT
HETATM    1  C   UNL     1      -6.803   4.899  64.625  1.00  0.00    -0.049 C  
HETATM    2  C   UNL     1      -6.896   4.262  66.001  1.00  0.00    -0.057 C  
ENDROOT
BRANCH   2   3
HETATM    3  C   UNL     1      -8.341   3.919  66.350  1.00  0.00    -0.105 C  
BRANCH   3   4
HETATM    4  C   UNL     1      -9.315   4.813  65.588  1.00  0.00    -0.166 C  
BRANCH   4   5
HETATM    5  C   UNL     1     -10.667   4.851  66.288  1.00  0.00    -0.217 C  
BRANCH   5   6
HETATM    6  C   UNL     1     -10.493   4.837  67.801  1.00  0.00     0.081 C  
BRANCH   6   7
HETATM    7  C   UNL     1     -10.812   6.208  68.382  1.00  0.00    -0.382 C  
BRANCH   7   8
HETATM    8  C   UNL     1     -11.247   6.084  69.834  1.00  0.00    -0.438 C  
BRANCH   8   9
HETATM    9  C   UNL     1     -11.178   7.440  70.525  1.00  0.00    -0.296 C  
BRANCH   9  10
HETATM   10  C   UNL     1      -9.868   7.576  71.284  1.00  0.00    -0.188 C  
BRANCH  10  11
HETATM   11  C   UNL     1      -9.494   9.038  71.458  1.00  0.00    -0.316 C  
BRANCH  11  12
HETATM   12  C   UNL     1      -8.336   9.386  70.538  1.00  0.00    -0.233 C  
BRANCH  12  13
HETATM   13  C   UNL     1      -8.566  10.715  69.829  1.00  0.00     0.252 C  
BRANCH  13  14
HETATM   14  C   UNL     1      -7.503  10.997  68.767  1.00  0.00    -0.116 C  
BRANCH  14  15
HETATM   15  C   UNL     1      -8.051  11.231  67.356  1.00  0.00    -0.135 C  
BRANCH  15  16
HETATM   16  C   UNL     1      -9.180  12.265  67.313  1.00  0.00    -0.185 C  
BRANCH  16  17
HETATM   17  N   UNL     1     -10.479  11.736  66.680  1.00  0.00    -0.218 N  
HETATM   18  C   UNL     1     -10.343  11.648  65.164  1.00  0.00    -0.279 C  
HETATM   19  C   UNL     1     -10.821  10.356  67.239  1.00  0.00    -0.264 C  
BRANCH  17  20
HETATM   20  C   UNL     1     -11.621  12.743  67.060  1.00  0.00    -0.360 C  
BRANCH  20  21
HETATM   21  C   UNL     1     -11.349  13.554  68.303  1.00  0.00    -0.328 A  
HETATM   22  C   UNL     1     -12.144  13.390  69.449  1.00  0.00    -0.321 A  
HETATM   23  C   UNL     1     -12.075  14.314  70.491  1.00  0.00    -0.413 A  
HETATM   24  C   UNL     1     -11.189  15.387  70.412  1.00  0.00    -0.345 A  
HETATM   25  C   UNL     1     -10.330  15.504  69.324  1.00  0.00    -0.252 A  
HETATM   26  C   UNL     1     -10.390  14.577  68.284  1.00  0.00    -0.236 A  
ENDBRANCH  20  21
ENDBRANCH  17  20
ENDBRANCH  16  17
ENDBRANCH  15  16
ENDBRANCH  14  15
ENDBRANCH  13  14
ENDBRANCH  12  13
ENDBRANCH  11  12
ENDBRANCH  10  11
ENDBRANCH   9  10
ENDBRANCH   8   9
ENDBRANCH   7   8
ENDBRANCH   6   7
ENDBRANCH   5   6
ENDBRANCH   4   5
ENDBRANCH   3   4
ENDBRANCH   2   3
TORSDOF 17
ENDMDL
MODEL      407
REMARK 921   NORMALIZED FREE ENERGY PREDICTED BY IDOCK:   -1.73 KCAL/MOL
REMARK 922        TOTAL FREE ENERGY PREDICTED BY IDOCK:   -6.28 KCAL/MOL
REMARK 923 INTER-LIGAND FREE ENERGY PREDICTED BY IDOCK:   -4.91 KCAL/MOL
REMARK 924 INTRA-LIGAND FREE ENERGY PREDICTED BY IDOCK:   -1.37 KCAL/MOL
REMARK 927      BINDING AFFINITY PREDICTED BY RF-SCORE:    0.00 PKD
ROOT
HETATM    1  C   UNL     1      -7.460   4.702  74.020  1.00  0.00    -0.082 C  
HETATM    2  C   UNL     1      -8.793   4.349  73.383  1.00  0.00    -0.101 C  
ENDROOT
BRANCH   2   3
HETATM    3  C   UNL     1      -9.951   4.991  74.142  1.00  0.00    -0.215 C  
BRANCH   3   4
HETATM    4  C   UNL     1     -11.248   4.893  73.346  1.00  0.00    -0.415 C  
BRANCH   4   5
HETATM    5  C   UNL     1     -11.332   6.015  72.320  1.00  0.00    -0.353 C  
BRANCH   5   6
HETATM    6  C   UNL     1     -11.363   7.375  73.006  1.00  0.00    -0.283 C  
BRANCH   6   7
HETATM    7  C   UNL     1     -11.105   8.483  71.995  1.00  0.00    -0.412 C  
BRANCH   7   8
HETATM    8  C   UNL     1     -11.027   7.913  70.587  1.00  0.00    -0.248 C  
BRANCH   8   9
HETATM    9  C   UNL     1      -9.725   8.336  69.917  1.00  0.00    -0.180 C  
BRANCH   9  10
HETATM   10  C   UNL     1      -8.661   8.610  70.967  1.00  0.00    -0.211 C  
BRANCH  10  11
HETATM   11  C   UNL     1      -7.466   7.692  70.776  1.00  0.00    -0.071 C  
BRANCH  11  12
HETATM   12  C   UNL     1      -6.377   8.417  70.004  1.00  0.00    -0.035 C  
BRANCH  12  13
HETATM   13  C   UNL     1      -6.570   9.928  70.052  1.00  0.00    -0.091 C  
BRANCH  13  14
HETATM   14  C   UNL     1      -6.308  10.590  68.699  1.00  0.00    -0.047 C  
BRANCH  14  15
HETATM   15  C   UNL     1      -5.867   9.632  67.589  1.00  0.00    -0.044 C  
BRANCH  15  16
HETATM   16  C   UNL     1      -6.665   9.805  66.294  1.00  0.00    -0.087 C  
BRANCH  16  17
HETATM   17  N   UNL     1      -6.672   8.552  65.399  1.00  0.00    -0.062 N  
HETATM   18  C   UNL     1      -5.624   8.668  64.300  1.00  0.00    -0.064 C  
HETATM   19  C   UNL     1      -6.395   7.302  66.233  1.00  0.00    -0.041 C  
BRANCH  17  20
HETATM   20  C   UNL     1      -8.105   8.444  64.769  1.00  0.00    -0.155 C  
BRANCH  20  21
HETATM   21  C   UNL     1      -8.668   9.753  64.273  1.00  0.00    -0.227 A  
HETATM   22  C   UNL     1      -9.689  10.404  64.983  1.00  0.00    -0.362 A  
HETATM   23  C   UNL     1     -10.394  11.455  64.396  1.00  0.00    -0.375 A  
HETATM   24  C   UNL     1     -10.062  11.885  63.113  1.00  0.00    -0.341 A  
HETATM   25  C   UNL     1      -8.990  11.308  62.439  1.00  0.00    -0.245 A  
HETATM   26  C   UNL     1      -8.278  10.263  63.026  1.00  0.00    -0.162 A  
ENDBRANCH  20  21
ENDBRANCH  17  20
ENDBRANCH  16  17
ENDBRANCH  15  16
ENDBRANCH  14  15
ENDBRANCH  13  14
ENDBRANCH  12  13
ENDBRANCH  11  12
ENDBRANCH  10  11
ENDBRANCH   9  10
ENDBRANCH   8   9
ENDBRANCH   7   8
ENDBRANCH   6   7
ENDBRANCH   5   6
ENDBRANCH   4   5
ENDBRANCH   3   4
ENDBRANCH   2   3
TORSDOF 17
ENDMDL
MODEL      408
REMARK 921   NORMALIZED FREE ENERGY PREDICTED BY IDOCK:   -1.72 KCAL/MOL
REMARK 922        TOTAL FREE ENERGY PREDICTED BY IDOCK:   -6.28 KCAL/MOL
REMARK 923 INTER-LIGAND FREE ENERGY PREDICTED BY IDOCK:   -4.69 KCAL/MOL
REMARK 924 INTRA-LIGAND FREE ENERGY PREDICTED BY IDOCK:   -1.59 KCAL/MOL
REMARK 927      BINDING AFFINITY PREDICTED BY RF-SCORE:    0.00 PKD
ROOT
HETATM    1  C   UNL     1      -6.329  14.433  70.678  1.00  0.00    -0.080 C  
HETATM    2  C   UNL     1      -7.253  14.465  69.473  1.00  0.00    -0.051 C  
ENDROOT
BRANCH   2   3
HETATM    3  C   UNL     1      -7.049  15.741  68.661  1.00  0.00    -0.129 C  
BRANCH   3   4
HETATM    4  C   UNL     1      -7.299  15.489  67.176  1.00  0.00    -0.226 C  
BRANCH   4   5
HETATM    5  C   UNL     1      -8.628  16.097  66.747  1.00  0.00    -0.282 C  
BRANCH   5   6
HETATM    6  C   UNL     1      -9.438  15.103  65.925  1.00  0.00    -0.334 C  
BRANCH   6   7
HETATM    7  C   UNL     1     -10.861  15.609  65.736  1.00  0.00    -0.312 C  
BRANCH   7   8
HETATM    8  C   UNL     1     -11.855  14.666  66.396  1.00  0.00    -0.304 C  
BRANCH   8   9
HETATM    9  C   UNL     1     -12.182  13.506  65.464  1.00  0.00    -0.490 C  
BRANCH   9  10
HETATM   10  C   UNL     1     -11.732  12.193  66.082  1.00  0.00    -0.384 C  
BRANCH  10  11
HETATM   11  C   UNL     1     -11.670  12.302  67.596  1.00  0.00    -0.403 C  
BRANCH  11  12
HETATM   12  C   UNL     1     -10.351  11.740  68.099  1.00  0.00    -0.213 C  
BRANCH  12  13
HETATM   13  C   UNL     1     -10.077  10.357  67.523  1.00  0.00    -0.231 C  
BRANCH  13  14
HETATM   14  C   UNL     1      -8.658  10.230  66.968  1.00  0.00    -0.129 C  
BRANCH  14  15
HETATM   15  C   UNL     1      -8.526   9.320  65.742  1.00  0.00    -0.144 C  
BRANCH  15  16
HETATM   16  C   UNL     1      -7.245   8.483  65.752  1.00  0.00    -0.076 C  
BRANCH  16  17
HETATM   17  N   UNL     1      -7.472   7.009  66.136  1.00  0.00    -0.078 N  
HETATM   18  C   UNL     1      -8.961   6.692  66.198  1.00  0.00    -0.139 C  
HETATM   19  C   UNL     1      -6.799   6.085  65.121  1.00  0.00    -0.051 C  
BRANCH  17  20
HETATM   20  C   UNL     1      -6.815   6.793  67.544  1.00  0.00    -0.077 C  
BRANCH  20  21
HETATM   21  C   UNL     1      -7.073   7.906  68.530  1.00  0.00    -0.076 A  
HETATM   22  C   UNL     1      -6.101   8.892  68.762  1.00  0.00    -0.045 A  
HETATM   23  C   UNL     1      -6.219   9.752  69.854  1.00  0.00    -0.051 A  
HETATM   24  C   UNL     1      -7.323   9.657  70.698  1.00  0.00    -0.112 A  
HETATM   25  C   UNL     1      -8.338   8.747  70.421  1.00  0.00    -0.146 A  
HETATM   26  C   UNL     1      -8.228   7.891  69.326  1.00  0.00    -0.128 A  
ENDBRANCH  20  21
ENDBRANCH  17  20
ENDBRANCH  16  17
ENDBRANCH  15  16
ENDBRANCH  14  15
ENDBRANCH  13  14
ENDBRANCH  12  13
ENDBRANCH  11  12
ENDBRANCH  10  11
ENDBRANCH   9  10
ENDBRANCH   8   9
ENDBRANCH   7   8
ENDBRANCH   6   7
ENDBRANCH   5   6
ENDBRANCH   4   5
ENDBRANCH   3   4
ENDBRANCH   2   3
TORSDOF 17
ENDMDL
MODEL      409
REMARK 921   NORMALIZED FREE ENERGY PREDICTED BY IDOCK:   -1.72 KCAL/MOL
REMARK 922        TOTAL FREE ENERGY PREDICTED BY IDOCK:   -6.27 KCAL/MOL
REMARK 923 INTER-LIGAND FREE ENERGY PREDICTED BY IDOCK:   -5.03 KCAL/MOL
REMARK 924 INTRA-LIGAND FREE ENERGY PREDICTED BY IDOCK:   -1.24 KCAL/MOL
REMARK 927      BINDING AFFINITY PREDICTED BY RF-SCORE:    0.00 PKD
ROOT
HETATM    1  C   UNL     1      -5.901  10.613  66.648  1.00  0.00    -0.074 C  
HETATM    2  C   UNL     1      -6.628  10.365  67.958  1.00  0.00    -0.061 C  
ENDROOT
BRANCH   2   3
HETATM    3  C   UNL     1      -8.101  10.047  67.716  1.00  0.00    -0.109 C  
BRANCH   3   4
HETATM    4  C   UNL     1      -8.273   8.631  67.176  1.00  0.00    -0.107 C  
BRANCH   4   5
HETATM    5  C   UNL     1      -9.019   8.652  65.847  1.00  0.00    -0.245 C  
BRANCH   5   6
HETATM    6  C   UNL     1      -8.042   8.701  64.679  1.00  0.00    -0.156 C  
BRANCH   6   7
HETATM    7  C   UNL     1      -8.403   7.645  63.644  1.00  0.00     0.142 C  
BRANCH   7   8
HETATM    8  C   UNL     1      -7.516   6.419  63.801  1.00  0.00    -0.084 C  
BRANCH   8   9
HETATM    9  C   UNL     1      -8.263   5.317  64.542  1.00  0.00    -0.135 C  
BRANCH   9  10
HETATM   10  C   UNL     1      -7.351   4.121  64.760  1.00  0.00    -0.071 C  
BRANCH  10  11
HETATM   11  C   UNL     1      -7.506   3.574  66.168  1.00  0.00    -0.077 C  
BRANCH  11  12
HETATM   12  C   UNL     1      -8.945   3.146  66.400  1.00  0.00    -0.158 C  
BRANCH  12  13
HETATM   13  C   UNL     1      -9.479   3.677  67.724  1.00  0.00    -0.231 C  
BRANCH  13  14
HETATM   14  C   UNL     1      -8.846   5.013  68.112  1.00  0.00    -0.110 C  
BRANCH  14  15
HETATM   15  C   UNL     1      -9.686   5.872  69.061  1.00  0.00    -0.170 C  
BRANCH  15  16
HETATM   16  C   UNL     1      -9.292   5.703  70.531  1.00  0.00    -0.161 C  
BRANCH  16  17
HETATM   17  N   UNL     1      -9.470   6.982  71.370  1.00  0.00    -0.159 N  
HETATM   18  C   UNL     1     -10.243   6.685  72.649  1.00  0.00    -0.186 C  
HETATM   19  C   UNL     1      -8.109   7.578  71.727  1.00  0.00    -0.102 C  
BRANCH  17  20
HETATM   20  C   UNL     1     -10.265   8.006  70.486  1.00  0.00    -0.198 C  
BRANCH  20  21
HETATM   21  C   UNL     1     -11.696   8.221  70.915  1.00  0.00    -0.256 A  
HETATM   22  C   UNL     1     -12.117   9.473  71.390  1.00  0.00    -0.459 A  
HETATM   23  C   UNL     1     -13.347   9.603  72.036  1.00  0.00    -0.547 A  
HETATM   24  C   UNL     1     -14.177   8.493  72.180  1.00  0.00    -0.516 A  
HETATM   25  C   UNL     1     -13.810   7.270  71.629  1.00  0.00    -0.461 A  
HETATM   26  C   UNL     1     -12.586   7.138  70.975  1.00  0.00    -0.335 A  
ENDBRANCH  20  21
ENDBRANCH  17  20
ENDBRANCH  16  17
ENDBRANCH  15  16
ENDBRANCH  14  15
ENDBRANCH  13  14
ENDBRANCH  12  13
ENDBRANCH  11  12
ENDBRANCH  10  11
ENDBRANCH   9  10
ENDBRANCH   8   9
ENDBRANCH   7   8
ENDBRANCH   6   7
ENDBRANCH   5   6
ENDBRANCH   4   5
ENDBRANCH   3   4
ENDBRANCH   2   3
TORSDOF 17
ENDMDL
MODEL      410
REMARK 921   NORMALIZED FREE ENERGY PREDICTED BY IDOCK:   -1.71 KCAL/MOL
REMARK 922        TOTAL FREE ENERGY PREDICTED BY IDOCK:   -6.26 KCAL/MOL
REMARK 923 INTER-LIGAND FREE ENERGY PREDICTED BY IDOCK:   -5.18 KCAL/MOL
REMARK 924 INTRA-LIGAND FREE ENERGY PREDICTED BY IDOCK:   -1.08 KCAL/MOL
REMARK 927      BINDING AFFINITY PREDICTED BY RF-SCORE:    0.00 PKD
ROOT
HETATM    1  C   UNL     1     -10.988  13.288  64.241  1.00  0.00    -0.418 C  
HETATM    2  C   UNL     1     -10.729  11.856  64.675  1.00  0.00    -0.356 C  
ENDROOT
BRANCH   2   3
HETATM    3  C   UNL     1     -10.527  10.945  63.467  1.00  0.00    -0.267 C  
BRANCH   3   4
HETATM    4  C   UNL     1      -9.346  10.003  63.685  1.00  0.00    -0.301 C  
BRANCH   4   5
HETATM    5  C   UNL     1      -8.647  10.318  65.001  1.00  0.00    -0.190 C  
BRANCH   5   6
HETATM    6  C   UNL     1      -8.238   9.037  65.716  1.00  0.00    -0.120 C  
BRANCH   6   7
HETATM    7  C   UNL     1      -6.766   8.739  65.466  1.00  0.00    -0.071 C  
BRANCH   7   8
HETATM    8  C   UNL     1      -6.331   7.509  66.248  1.00  0.00    -0.042 C  
BRANCH   8   9
HETATM    9  C   UNL     1      -7.032   7.467  67.600  1.00  0.00    -0.080 C  
BRANCH   9  10
HETATM   10  C   UNL     1      -6.128   8.042  68.678  1.00  0.00    -0.044 C  
BRANCH  10  11
HETATM   11  C   UNL     1      -6.947   8.702  69.774  1.00  0.00    -0.046 C  
BRANCH  11  12
HETATM   12  C   UNL     1      -6.213   9.923  70.301  1.00  0.00    -0.082 C  
BRANCH  12  13
HETATM   13  C   UNL     1      -6.777  11.211  69.714  1.00  0.00    -0.121 C  
BRANCH  13  14
HETATM   14  C   UNL     1      -5.680  12.145  69.203  1.00  0.00    -0.069 C  
BRANCH  14  15
HETATM   15  C   UNL     1      -6.166  13.253  68.263  1.00  0.00    -0.099 C  
BRANCH  15  16
HETATM   16  C   UNL     1      -6.945  14.355  68.987  1.00  0.00    -0.114 C  
BRANCH  16  17
HETATM   17  N   UNL     1      -8.226  14.791  68.252  1.00  0.00    -0.135 N  
HETATM   18  C   UNL     1      -9.037  13.577  67.815  1.00  0.00    -0.207 C  
HETATM   19  C   UNL     1      -9.085  15.673  69.158  1.00  0.00    -0.256 C  
BRANCH  17  20
HETATM   20  C   UNL     1      -7.779  15.620  66.998  1.00  0.00    -0.222 C  
BRANCH  20  21
HETATM   21  C   UNL     1      -8.326  17.025  66.952  1.00  0.00    -0.247 A  
HETATM   22  C   UNL     1      -7.638  18.078  67.577  1.00  0.00    -0.214 A  
HETATM   23  C   UNL     1      -8.265  19.309  67.772  1.00  0.00    -0.322 A  
HETATM   24  C   UNL     1      -9.566  19.508  67.315  1.00  0.00    -0.437 A  
HETATM   25  C   UNL     1     -10.220  18.501  66.611  1.00  0.00    -0.429 A  
HETATM   26  C   UNL     1      -9.594  17.273  66.406  1.00  0.00    -0.290 A  
ENDBRANCH  20  21
ENDBRANCH  17  20
ENDBRANCH  16  17
ENDBRANCH  15  16
ENDBRANCH  14  15
ENDBRANCH  13  14
ENDBRANCH  12  13
ENDBRANCH  11  12
ENDBRANCH  10  11
ENDBRANCH   9  10
ENDBRANCH   8   9
ENDBRANCH   7   8
ENDBRANCH   6   7
ENDBRANCH   5   6
ENDBRANCH   4   5
ENDBRANCH   3   4
ENDBRANCH   2   3
TORSDOF 17
ENDMDL
MODEL      411
REMARK 921   NORMALIZED FREE ENERGY PREDICTED BY IDOCK:   -1.71 KCAL/MOL
REMARK 922        TOTAL FREE ENERGY PREDICTED BY IDOCK:   -6.24 KCAL/MOL
REMARK 923 INTER-LIGAND FREE ENERGY PREDICTED BY IDOCK:   -4.95 KCAL/MOL
REMARK 924 INTRA-LIGAND FREE ENERGY PREDICTED BY IDOCK:   -1.29 KCAL/MOL
REMARK 927      BINDING AFFINITY PREDICTED BY RF-SCORE:    0.00 PKD
ROOT
HETATM    1  C   UNL     1      -7.275   3.691  67.345  1.00  0.00    -0.059 C  
HETATM    2  C   UNL     1      -8.304   4.806  67.421  1.00  0.00    -0.105 C  
ENDROOT
BRANCH   2   3
HETATM    3  C   UNL     1      -8.401   5.553  66.093  1.00  0.00    -0.119 C  
BRANCH   3   4
HETATM    4  C   UNL     1      -7.187   5.266  65.215  1.00  0.00    -0.067 C  
BRANCH   4   5
HETATM    5  C   UNL     1      -6.568   6.567  64.719  1.00  0.00    -0.038 C  
BRANCH   5   6
HETATM    6  C   UNL     1      -7.345   7.769  65.239  1.00  0.00    -0.078 C  
BRANCH   6   7
HETATM    7  C   UNL     1      -6.389   8.818  65.790  1.00  0.00    -0.056 C  
BRANCH   7   8
HETATM    8  C   UNL     1      -5.876   8.403  67.161  1.00  0.00    -0.043 C  
BRANCH   8   9
HETATM    9  C   UNL     1      -7.040   8.213  68.125  1.00  0.00    -0.082 C  
BRANCH   9  10
HETATM   10  C   UNL     1      -7.464   9.552  68.706  1.00  0.00    -0.075 C  
BRANCH  10  11
HETATM   11  C   UNL     1      -6.256  10.339  69.186  1.00  0.00    -0.040 C  
BRANCH  11  12
HETATM   12  C   UNL     1      -6.659  11.774  69.478  1.00  0.00    -0.102 C  
BRANCH  12  13
HETATM   13  C   UNL     1      -7.786  12.235  68.561  1.00  0.00    -0.111 C  
BRANCH  13  14
HETATM   14  C   UNL     1      -7.307  13.240  67.513  1.00  0.00    -0.159 C  
BRANCH  14  15
HETATM   15  C   UNL     1      -8.340  14.301  67.121  1.00  0.00    -0.202 C  
BRANCH  15  16
HETATM   16  C   UNL     1      -9.538  14.353  68.073  1.00  0.00    -0.216 C  
BRANCH  16  17
HETATM   17  N   UNL     1     -10.749  15.113  67.502  1.00  0.00    -0.278 N  
HETATM   18  C   UNL     1     -12.052  14.437  67.911  1.00  0.00    -0.245 C  
HETATM   19  C   UNL     1     -10.752  16.559  67.998  1.00  0.00    -0.343 C  
BRANCH  17  20
HETATM   20  C   UNL     1     -10.605  15.104  65.940  1.00  0.00    -0.337 C  
BRANCH  20  21
HETATM   21  C   UNL     1     -11.197  13.891  65.266  1.00  0.00    -0.313 A  
HETATM   22  C   UNL     1     -10.369  12.965  64.610  1.00  0.00    -0.366 A  
HETATM   23  C   UNL     1     -10.922  12.004  63.764  1.00  0.00    -0.492 A  
HETATM   24  C   UNL     1     -12.304  11.938  63.595  1.00  0.00    -0.591 A  
HETATM   25  C   UNL     1     -13.137  12.789  64.314  1.00  0.00     0.034 A  
HETATM   26  C   UNL     1     -12.588  13.746  65.167  1.00  0.00    -0.471 A  
ENDBRANCH  20  21
ENDBRANCH  17  20
ENDBRANCH  16  17
ENDBRANCH  15  16
ENDBRANCH  14  15
ENDBRANCH  13  14
ENDBRANCH  12  13
ENDBRANCH  11  12
ENDBRANCH  10  11
ENDBRANCH   9  10
ENDBRANCH   8   9
ENDBRANCH   7   8
ENDBRANCH   6   7
ENDBRANCH   5   6
ENDBRANCH   4   5
ENDBRANCH   3   4
ENDBRANCH   2   3
TORSDOF 17
ENDMDL
MODEL      412
REMARK 921   NORMALIZED FREE ENERGY PREDICTED BY IDOCK:   -1.70 KCAL/MOL
REMARK 922        TOTAL FREE ENERGY PREDICTED BY IDOCK:   -6.23 KCAL/MOL
REMARK 923 INTER-LIGAND FREE ENERGY PREDICTED BY IDOCK:   -5.26 KCAL/MOL
REMARK 924 INTRA-LIGAND FREE ENERGY PREDICTED BY IDOCK:   -0.97 KCAL/MOL
REMARK 927      BINDING AFFINITY PREDICTED BY RF-SCORE:    0.00 PKD
ROOT
HETATM    1  C   UNL     1      -9.840   7.597  72.301  1.00  0.00    -0.229 C  
HETATM    2  C   UNL     1      -8.335   7.635  72.092  1.00  0.00    -0.134 C  
ENDROOT
BRANCH   2   3
HETATM    3  C   UNL     1      -7.690   6.319  72.518  1.00  0.00    -0.102 C  
BRANCH   3   4
HETATM    4  C   UNL     1      -7.381   5.445  71.306  1.00  0.00    -0.084 C  
BRANCH   4   5
HETATM    5  C   UNL     1      -7.246   3.985  71.720  1.00  0.00    -0.057 C  
BRANCH   5   6
HETATM    6  C   UNL     1      -8.333   3.137  71.074  1.00  0.00    -0.087 C  
BRANCH   6   7
HETATM    7  C   UNL     1      -7.711   2.001  70.273  1.00  0.00    -0.044 C  
BRANCH   7   8
HETATM    8  C   UNL     1      -8.409   1.851  68.930  1.00  0.00    -0.075 C  
BRANCH   8   9
HETATM    9  C   UNL     1      -9.397   2.991  68.718  1.00  0.00    -0.235 C  
BRANCH   9  10
HETATM   10  C   UNL     1      -9.511   3.317  67.237  1.00  0.00    -0.189 C  
BRANCH  10  11
HETATM   11  C   UNL     1      -8.785   4.612  66.913  1.00  0.00    -0.107 C  
BRANCH  11  12
HETATM   12  C   UNL     1      -8.846   5.550  68.106  1.00  0.00    -0.105 C  
BRANCH  12  13
HETATM   13  C   UNL     1      -8.415   6.962  67.728  1.00  0.00    -0.123 C  
BRANCH  13  14
HETATM   14  C   UNL     1      -8.403   7.180  66.215  1.00  0.00    -0.129 C  
BRANCH  14  15
HETATM   15  C   UNL     1      -8.859   8.569  65.761  1.00  0.00    -0.229 C  
BRANCH  15  16
HETATM   16  C   UNL     1     -10.164   9.019  66.425  1.00  0.00    -0.227 C  
BRANCH  16  17
HETATM   17  N   UNL     1     -10.164  10.499  66.849  1.00  0.00    -0.220 N  
HETATM   18  C   UNL     1      -8.982  10.798  67.762  1.00  0.00    -0.137 C  
HETATM   19  C   UNL     1     -10.096  11.405  65.620  1.00  0.00    -0.248 C  
BRANCH  17  20
HETATM   20  C   UNL     1     -11.512  10.761  67.609  1.00  0.00    -0.151 C  
BRANCH  20  21
HETATM   21  C   UNL     1     -11.745  12.204  67.984  1.00  0.00    -0.409 A  
HETATM   22  C   UNL     1     -11.687  13.212  67.008  1.00  0.00    -0.431 A  
HETATM   23  C   UNL     1     -11.629  14.554  67.386  1.00  0.00    -0.406 A  
HETATM   24  C   UNL     1     -11.666  14.898  68.736  1.00  0.00    -0.353 A  
HETATM   25  C   UNL     1     -11.819  13.912  69.705  1.00  0.00    -0.385 A  
HETATM   26  C   UNL     1     -11.885  12.570  69.330  1.00  0.00    -0.368 A  
ENDBRANCH  20  21
ENDBRANCH  17  20
ENDBRANCH  16  17
ENDBRANCH  15  16
ENDBRANCH  14  15
ENDBRANCH  13  14
ENDBRANCH  12  13
ENDBRANCH  11  12
ENDBRANCH  10  11
ENDBRANCH   9  10
ENDBRANCH   8   9
ENDBRANCH   7   8
ENDBRANCH   6   7
ENDBRANCH   5   6
ENDBRANCH   4   5
ENDBRANCH   3   4
ENDBRANCH   2   3
TORSDOF 17
ENDMDL
MODEL      413
REMARK 921   NORMALIZED FREE ENERGY PREDICTED BY IDOCK:   -1.70 KCAL/MOL
REMARK 922        TOTAL FREE ENERGY PREDICTED BY IDOCK:   -6.22 KCAL/MOL
REMARK 923 INTER-LIGAND FREE ENERGY PREDICTED BY IDOCK:   -5.86 KCAL/MOL
REMARK 924 INTRA-LIGAND FREE ENERGY PREDICTED BY IDOCK:   -0.36 KCAL/MOL
REMARK 927      BINDING AFFINITY PREDICTED BY RF-SCORE:    0.00 PKD
ROOT
HETATM    1  C   UNL     1      -8.169   4.128  67.446  1.00  0.00    -0.099 C  
HETATM    2  C   UNL     1      -9.193   5.225  67.679  1.00  0.00    -0.121 C  
ENDROOT
BRANCH   2   3
HETATM    3  C   UNL     1      -9.876   5.623  66.373  1.00  0.00    -0.184 C  
BRANCH   3   4
HETATM    4  C   UNL     1      -9.142   5.034  65.172  1.00  0.00    -0.127 C  
BRANCH   4   5
HETATM    5  C   UNL     1      -8.376   6.120  64.427  1.00  0.00     0.002 C  
BRANCH   5   6
HETATM    6  C   UNL     1      -8.299   7.394  65.258  1.00  0.00    -0.110 C  
BRANCH   6   7
HETATM    7  C   UNL     1      -7.049   8.185  64.898  1.00  0.00    -0.079 C  
BRANCH   7   8
HETATM    8  C   UNL     1      -5.832   7.608  65.605  1.00  0.00    -0.038 C  
BRANCH   8   9
HETATM    9  C   UNL     1      -6.152   7.332  67.069  1.00  0.00    -0.045 C  
BRANCH   9  10
HETATM   10  C   UNL     1      -6.745   8.572  67.719  1.00  0.00    -0.066 C  
BRANCH  10  11
HETATM   11  C   UNL     1      -5.773   9.737  67.643  1.00  0.00    -0.039 C  
BRANCH  11  12
HETATM   12  C   UNL     1      -6.462  11.013  68.097  1.00  0.00    -0.057 C  
BRANCH  12  13
HETATM   13  C   UNL     1      -7.877  11.112  67.538  1.00  0.00    -0.117 C  
BRANCH  13  14
HETATM   14  C   UNL     1      -8.189  12.507  66.995  1.00  0.00    -0.125 C  
BRANCH  14  15
HETATM   15  C   UNL     1      -9.642  12.956  67.175  1.00  0.00    -0.225 C  
BRANCH  15  16
HETATM   16  C   UNL     1      -9.964  13.388  68.609  1.00  0.00    -0.135 C  
BRANCH  16  17
HETATM   17  N   UNL     1     -11.180  14.326  68.714  1.00  0.00    -0.249 N  
HETATM   18  C   UNL     1     -10.748  15.720  69.152  1.00  0.00    -0.246 C  
HETATM   19  C   UNL     1     -11.899  14.417  67.369  1.00  0.00    -0.400 C  
BRANCH  17  20
HETATM   20  C   UNL     1     -12.152  13.704  69.777  1.00  0.00    -0.334 C  
BRANCH  20  21
HETATM   21  C   UNL     1     -12.596  14.664  70.853  1.00  0.00    -0.410 A  
HETATM   22  C   UNL     1     -11.656  15.255  71.713  1.00  0.00    -0.498 A  
HETATM   23  C   UNL     1     -12.077  15.918  72.866  1.00  0.00    -0.612 A  
HETATM   24  C   UNL     1     -13.437  16.027  73.148  1.00  0.00    -0.587 A  
HETATM   25  C   UNL     1     -14.378  15.527  72.254  1.00  0.00    -0.556 A  
HETATM   26  C   UNL     1     -13.961  14.871  71.096  1.00  0.00    -0.403 A  
ENDBRANCH  20  21
ENDBRANCH  17  20
ENDBRANCH  16  17
ENDBRANCH  15  16
ENDBRANCH  14  15
ENDBRANCH  13  14
ENDBRANCH  12  13
ENDBRANCH  11  12
ENDBRANCH  10  11
ENDBRANCH   9  10
ENDBRANCH   8   9
ENDBRANCH   7   8
ENDBRANCH   6   7
ENDBRANCH   5   6
ENDBRANCH   4   5
ENDBRANCH   3   4
ENDBRANCH   2   3
TORSDOF 17
ENDMDL
MODEL      414
REMARK 921   NORMALIZED FREE ENERGY PREDICTED BY IDOCK:   -1.68 KCAL/MOL
REMARK 922        TOTAL FREE ENERGY PREDICTED BY IDOCK:   -6.20 KCAL/MOL
REMARK 923 INTER-LIGAND FREE ENERGY PREDICTED BY IDOCK:   -5.01 KCAL/MOL
REMARK 924 INTRA-LIGAND FREE ENERGY PREDICTED BY IDOCK:   -1.19 KCAL/MOL
REMARK 927      BINDING AFFINITY PREDICTED BY RF-SCORE:    0.00 PKD
ROOT
HETATM    1  C   UNL     1     -12.463  12.299  71.696  1.00  0.00    -0.037 C  
HETATM    2  C   UNL     1     -12.116  11.879  70.278  1.00  0.00    -0.409 C  
ENDROOT
BRANCH   2   3
HETATM    3  C   UNL     1     -12.189  10.362  70.122  1.00  0.00    -0.305 C  
BRANCH   3   4
HETATM    4  C   UNL     1     -12.066   9.668  71.475  1.00  0.00    -0.482 C  
BRANCH   4   5
HETATM    5  C   UNL     1     -10.963   8.617  71.438  1.00  0.00    -0.341 C  
BRANCH   5   6
HETATM    6  C   UNL     1     -11.221   7.526  72.469  1.00  0.00    -0.381 C  
BRANCH   6   7
HETATM    7  C   UNL     1     -11.294   6.165  71.790  1.00  0.00    -0.346 C  
BRANCH   7   8
HETATM    8  C   UNL     1     -10.883   5.065  72.757  1.00  0.00    -0.305 C  
BRANCH   8   9
HETATM    9  C   UNL     1      -9.388   4.792  72.641  1.00  0.00    -0.150 C  
BRANCH   9  10
HETATM   10  C   UNL     1      -9.097   3.331  72.946  1.00  0.00    -0.109 C  
BRANCH  10  11
HETATM   11  C   UNL     1     -10.234   2.443  72.471  1.00  0.00    -0.231 C  
BRANCH  11  12
HETATM   12  C   UNL     1      -9.746   1.530  71.360  1.00  0.00    -0.206 C  
BRANCH  12  13
HETATM   13  C   UNL     1      -9.051   2.318  70.256  1.00  0.00    -0.174 C  
BRANCH  13  14
HETATM   14  C   UNL     1      -7.547   2.050  70.211  1.00  0.00    -0.039 C  
BRANCH  14  15
HETATM   15  C   UNL     1      -6.835   2.589  68.966  1.00  0.00    -0.036 C  
BRANCH  15  16
HETATM   16  C   UNL     1      -7.649   3.649  68.220  1.00  0.00    -0.061 C  
BRANCH  16  17
HETATM   17  N   UNL     1      -7.749   3.400  66.705  1.00  0.00    -0.080 N  
HETATM   18  C   UNL     1      -6.543   3.985  65.981  1.00  0.00    -0.041 C  
HETATM   19  C   UNL     1      -7.834   1.901  66.417  1.00  0.00    -0.071 C  
BRANCH  17  20
HETATM   20  C   UNL     1      -9.065   4.095  66.208  1.00  0.00    -0.134 C  
BRANCH  20  21
HETATM   21  C   UNL     1      -9.340   5.436  66.843  1.00  0.00    -0.127 A  
HETATM   22  C   UNL     1      -8.362   6.444  66.830  1.00  0.00    -0.111 A  
HETATM   23  C   UNL     1      -8.503   7.570  67.641  1.00  0.00    -0.117 A  
HETATM   24  C   UNL     1      -9.634   7.714  68.442  1.00  0.00    -0.155 A  
HETATM   25  C   UNL     1     -10.651   6.766  68.390  1.00  0.00    -0.270 A  
HETATM   26  C   UNL     1     -10.518   5.644  67.575  1.00  0.00    -0.294 A  
ENDBRANCH  20  21
ENDBRANCH  17  20
ENDBRANCH  16  17
ENDBRANCH  15  16
ENDBRANCH  14  15
ENDBRANCH  13  14
ENDBRANCH  12  13
ENDBRANCH  11  12
ENDBRANCH  10  11
ENDBRANCH   9  10
ENDBRANCH   8   9
ENDBRANCH   7   8
ENDBRANCH   6   7
ENDBRANCH   5   6
ENDBRANCH   4   5
ENDBRANCH   3   4
ENDBRANCH   2   3
TORSDOF 17
ENDMDL
MODEL      415
REMARK 921   NORMALIZED FREE ENERGY PREDICTED BY IDOCK:   -1.68 KCAL/MOL
REMARK 922        TOTAL FREE ENERGY PREDICTED BY IDOCK:   -6.19 KCAL/MOL
REMARK 923 INTER-LIGAND FREE ENERGY PREDICTED BY IDOCK:   -5.05 KCAL/MOL
REMARK 924 INTRA-LIGAND FREE ENERGY PREDICTED BY IDOCK:   -1.14 KCAL/MOL
REMARK 927      BINDING AFFINITY PREDICTED BY RF-SCORE:    0.00 PKD
ROOT
HETATM    1  C   UNL     1     -12.155  15.200  70.748  1.00  0.00    -0.387 C  
HETATM    2  C   UNL     1     -11.502  14.345  69.676  1.00  0.00    -0.331 C  
ENDROOT
BRANCH   2   3
HETATM    3  C   UNL     1     -12.351  13.115  69.364  1.00  0.00    -0.053 C  
BRANCH   3   4
HETATM    4  C   UNL     1     -11.680  12.242  68.308  1.00  0.00    -0.392 C  
BRANCH   4   5
HETATM    5  C   UNL     1     -11.502  10.820  68.824  1.00  0.00    -0.364 C  
BRANCH   5   6
HETATM    6  C   UNL     1     -11.811  10.743  70.314  1.00  0.00    -0.438 C  
BRANCH   6   7
HETATM    7  C   UNL     1     -10.753   9.914  71.030  1.00  0.00    -0.241 C  
BRANCH   7   8
HETATM    8  C   UNL     1     -11.403   8.781  71.811  1.00  0.00    -0.409 C  
BRANCH   8   9
HETATM    9  C   UNL     1     -11.457   7.518  70.962  1.00  0.00    -0.299 C  
BRANCH   9  10
HETATM   10  C   UNL     1     -12.058   6.373  71.762  1.00  0.00    -0.351 C  
BRANCH  10  11
HETATM   11  C   UNL     1     -11.003   5.711  72.631  1.00  0.00    -0.316 C  
BRANCH  11  12
HETATM   12  C   UNL     1     -10.021   4.948  71.759  1.00  0.00    -0.252 C  
BRANCH  12  13
HETATM   13  C   UNL     1      -8.594   5.083  72.275  1.00  0.00    -0.125 C  
BRANCH  13  14
HETATM   14  C   UNL     1      -7.687   5.818  71.288  1.00  0.00    -0.109 C  
BRANCH  14  15
HETATM   15  C   UNL     1      -8.293   6.039  69.899  1.00  0.00    -0.123 C  
BRANCH  15  16
HETATM   16  C   UNL     1      -7.287   5.831  68.765  1.00  0.00    -0.084 C  
BRANCH  16  17
HETATM   17  N   UNL     1      -6.926   7.125  68.013  1.00  0.00    -0.077 N  
HETATM   18  C   UNL     1      -5.426   7.198  67.755  1.00  0.00    -0.020 C  
HETATM   19  C   UNL     1      -7.671   7.191  66.680  1.00  0.00    -0.097 C  
BRANCH  17  20
HETATM   20  C   UNL     1      -7.377   8.325  68.917  1.00  0.00    -0.090 C  
BRANCH  20  21
HETATM   21  C   UNL     1      -7.623   9.611  68.168  1.00  0.00    -0.082 A  
HETATM   22  C   UNL     1      -8.507   9.643  67.077  1.00  0.00    -0.124 A  
HETATM   23  C   UNL     1      -8.529  10.745  66.223  1.00  0.00    -0.161 A  
HETATM   24  C   UNL     1      -7.698  11.835  66.471  1.00  0.00     0.046 A  
HETATM   25  C   UNL     1      -6.888  11.853  67.602  1.00  0.00    -0.112 A  
HETATM   26  C   UNL     1      -6.868  10.756  68.463  1.00  0.00    -0.062 A  
ENDBRANCH  20  21
ENDBRANCH  17  20
ENDBRANCH  16  17
ENDBRANCH  15  16
ENDBRANCH  14  15
ENDBRANCH  13  14
ENDBRANCH  12  13
ENDBRANCH  11  12
ENDBRANCH  10  11
ENDBRANCH   9  10
ENDBRANCH   8   9
ENDBRANCH   7   8
ENDBRANCH   6   7
ENDBRANCH   5   6
ENDBRANCH   4   5
ENDBRANCH   3   4
ENDBRANCH   2   3
TORSDOF 17
ENDMDL
MODEL      416
REMARK 921   NORMALIZED FREE ENERGY PREDICTED BY IDOCK:   -1.64 KCAL/MOL
REMARK 922        TOTAL FREE ENERGY PREDICTED BY IDOCK:   -6.11 KCAL/MOL
REMARK 923 INTER-LIGAND FREE ENERGY PREDICTED BY IDOCK:   -4.43 KCAL/MOL
REMARK 924 INTRA-LIGAND FREE ENERGY PREDICTED BY IDOCK:   -1.68 KCAL/MOL
REMARK 927      BINDING AFFINITY PREDICTED BY RF-SCORE:    0.00 PKD
ROOT
HETATM    1  C   UNL     1      -7.955  12.169  68.231  1.00  0.00    -0.163 C  
HETATM    2  C   UNL     1      -9.212  11.321  68.319  1.00  0.00    -0.176 C  
ENDROOT
BRANCH   2   3
HETATM    3  C   UNL     1     -10.084  11.504  67.079  1.00  0.00    -0.237 C  
BRANCH   3   4
HETATM    4  C   UNL     1      -9.954  10.309  66.139  1.00  0.00    -0.300 C  
BRANCH   4   5
HETATM    5  C   UNL     1      -9.043  10.649  64.966  1.00  0.00    -0.229 C  
BRANCH   5   6
HETATM    6  C   UNL     1      -7.725   9.892  65.067  1.00  0.00    -0.133 C  
BRANCH   6   7
HETATM    7  C   UNL     1      -7.034   9.852  63.711  1.00  0.00    -0.124 C  
BRANCH   7   8
HETATM    8  C   UNL     1      -6.030   8.711  63.658  1.00  0.00    -0.072 C  
BRANCH   8   9
HETATM    9  C   UNL     1      -6.408   7.724  62.560  1.00  0.00    -0.076 C  
BRANCH   9  10
HETATM   10  C   UNL     1      -5.631   6.429  62.728  1.00  0.00    -0.023 C  
BRANCH  10  11
HETATM   11  C   UNL     1      -6.306   5.522  63.743  1.00  0.00    -0.022 C  
BRANCH  11  12
HETATM   12  C   UNL     1      -7.804   5.491  63.490  1.00  0.00    -0.096 C  
BRANCH  12  13
HETATM   13  C   UNL     1      -8.591   5.758  64.767  1.00  0.00    -0.040 C  
BRANCH  13  14
HETATM   14  C   UNL     1      -7.694   6.213  65.918  1.00  0.00    -0.093 C  
BRANCH  14  15
HETATM   15  C   UNL     1      -8.211   5.859  67.315  1.00  0.00    -0.105 C  
BRANCH  15  16
HETATM   16  C   UNL     1      -8.770   7.066  68.073  1.00  0.00    -0.126 C  
BRANCH  16  17
HETATM   17  N   UNL     1     -10.238   6.898  68.506  1.00  0.00    -0.169 N  
HETATM   18  C   UNL     1     -10.726   8.137  69.247  1.00  0.00    -0.129 C  
HETATM   19  C   UNL     1     -11.127   6.654  67.288  1.00  0.00    -0.345 C  
BRANCH  17  20
HETATM   20  C   UNL     1     -10.300   5.646  69.449  1.00  0.00    -0.273 C  
BRANCH  20  21
HETATM   21  C   UNL     1     -10.342   5.976  70.921  1.00  0.00    -0.277 A  
HETATM   22  C   UNL     1     -11.542   6.383  71.527  1.00  0.00    -0.364 A  
HETATM   23  C   UNL     1     -11.529   6.945  72.803  1.00  0.00    -0.183 A  
HETATM   24  C   UNL     1     -10.327   7.072  73.496  1.00  0.00    -0.394 A  
HETATM   25  C   UNL     1      -9.147   6.585  72.942  1.00  0.00    -0.135 A  
HETATM   26  C   UNL     1      -9.157   6.015  71.670  1.00  0.00    -0.147 A  
ENDBRANCH  20  21
ENDBRANCH  17  20
ENDBRANCH  16  17
ENDBRANCH  15  16
ENDBRANCH  14  15
ENDBRANCH  13  14
ENDBRANCH  12  13
ENDBRANCH  11  12
ENDBRANCH  10  11
ENDBRANCH   9  10
ENDBRANCH   8   9
ENDBRANCH   7   8
ENDBRANCH   6   7
ENDBRANCH   5   6
ENDBRANCH   4   5
ENDBRANCH   3   4
ENDBRANCH   2   3
TORSDOF 17
ENDMDL
MODEL      417
REMARK 921   NORMALIZED FREE ENERGY PREDICTED BY IDOCK:   -1.61 KCAL/MOL
REMARK 922        TOTAL FREE ENERGY PREDICTED BY IDOCK:   -6.04 KCAL/MOL
REMARK 923 INTER-LIGAND FREE ENERGY PREDICTED BY IDOCK:   -4.29 KCAL/MOL
REMARK 924 INTRA-LIGAND FREE ENERGY PREDICTED BY IDOCK:   -1.75 KCAL/MOL
REMARK 927      BINDING AFFINITY PREDICTED BY RF-SCORE:    0.00 PKD
ROOT
HETATM    1  C   UNL     1      -6.313  10.170  69.174  1.00  0.00    -0.044 C  
HETATM    2  C   UNL     1      -6.733  10.164  67.714  1.00  0.00    -0.071 C  
ENDROOT
BRANCH   2   3
HETATM    3  C   UNL     1      -6.550   8.780  67.097  1.00  0.00    -0.062 C  
BRANCH   3   4
HETATM    4  C   UNL     1      -6.214   7.745  68.167  1.00  0.00    -0.045 C  
BRANCH   4   5
HETATM    5  C   UNL     1      -7.375   6.777  68.357  1.00  0.00    -0.087 C  
BRANCH   5   6
HETATM    6  C   UNL     1      -6.887   5.454  68.933  1.00  0.00    -0.055 C  
BRANCH   6   7
HETATM    7  C   UNL     1      -7.527   5.201  70.292  1.00  0.00    -0.067 C  
BRANCH   7   8
HETATM    8  C   UNL     1      -6.703   5.846  71.396  1.00  0.00    -0.058 C  
BRANCH   8   9
HETATM    9  C   UNL     1      -7.517   5.929  72.682  1.00  0.00    -0.096 C  
BRANCH   9  10
HETATM   10  C   UNL     1      -8.963   6.277  72.365  1.00  0.00    -0.138 C  
BRANCH  10  11
HETATM   11  C   UNL     1      -9.392   7.531  73.108  1.00  0.00    -0.258 C  
BRANCH  11  12
HETATM   12  C   UNL     1     -10.002   8.523  72.133  1.00  0.00    -0.387 C  
BRANCH  12  13
HETATM   13  C   UNL     1      -8.955   9.085  71.179  1.00  0.00    -0.303 C  
BRANCH  13  14
HETATM   14  C   UNL     1      -9.466   9.167  69.740  1.00  0.00    -0.191 C  
BRANCH  14  15
HETATM   15  C   UNL     1     -10.072  10.517  69.348  1.00  0.00    -0.233 C  
BRANCH  15  16
HETATM   16  C   UNL     1     -10.401  10.618  67.856  1.00  0.00    -0.199 C  
BRANCH  16  17
HETATM   17  N   UNL     1     -10.620  12.061  67.367  1.00  0.00    -0.218 N  
HETATM   18  C   UNL     1     -10.373  12.165  65.867  1.00  0.00    -0.255 C  
HETATM   19  C   UNL     1     -12.044  12.518  67.679  1.00  0.00    -0.056 C  
BRANCH  17  20
HETATM   20  C   UNL     1      -9.605  12.971  68.144  1.00  0.00    -0.227 C  
BRANCH  20  21
HETATM   21  C   UNL     1      -9.429  14.350  67.558  1.00  0.00    -0.207 A  
HETATM   22  C   UNL     1      -8.317  14.645  66.752  1.00  0.00    -0.078 A  
HETATM   23  C   UNL     1      -8.008  15.968  66.438  1.00  0.00    -0.197 A  
HETATM   24  C   UNL     1      -8.824  17.001  66.895  1.00  0.00    -0.251 A  
HETATM   25  C   UNL     1      -9.980  16.711  67.614  1.00  0.00    -0.264 A  
HETATM   26  C   UNL     1     -10.297  15.390  67.923  1.00  0.00    -0.247 A  
ENDBRANCH  20  21
ENDBRANCH  17  20
ENDBRANCH  16  17
ENDBRANCH  15  16
ENDBRANCH  14  15
ENDBRANCH  13  14
ENDBRANCH  12  13
ENDBRANCH  11  12
ENDBRANCH  10  11
ENDBRANCH   9  10
ENDBRANCH   8   9
ENDBRANCH   7   8
ENDBRANCH   6   7
ENDBRANCH   5   6
ENDBRANCH   4   5
ENDBRANCH   3   4
ENDBRANCH   2   3
TORSDOF 17
ENDMDL
MODEL      418
REMARK 921   NORMALIZED FREE ENERGY PREDICTED BY IDOCK:   -1.54 KCAL/MOL
REMARK 922        TOTAL FREE ENERGY PREDICTED BY IDOCK:   -5.92 KCAL/MOL
REMARK 923 INTER-LIGAND FREE ENERGY PREDICTED BY IDOCK:   -4.76 KCAL/MOL
REMARK 924 INTRA-LIGAND FREE ENERGY PREDICTED BY IDOCK:   -1.16 KCAL/MOL
REMARK 927      BINDING AFFINITY PREDICTED BY RF-SCORE:    0.00 PKD
ROOT
HETATM    1  C   UNL     1     -10.878  17.530  68.518  1.00  0.00    -0.136 C  
HETATM    2  C   UNL     1      -9.750  17.093  67.599  1.00  0.00    -0.263 C  
ENDROOT
BRANCH   2   3
HETATM    3  C   UNL     1     -10.256  16.126  66.532  1.00  0.00    -0.304 C  
BRANCH   3   4
HETATM    4  C   UNL     1      -9.883  14.687  66.879  1.00  0.00    -0.252 C  
BRANCH   4   5
HETATM    5  C   UNL     1     -11.136  13.839  67.057  1.00  0.00    -0.313 C  
BRANCH   5   6
HETATM    6  C   UNL     1     -11.045  12.559  66.237  1.00  0.00    -0.336 C  
BRANCH   6   7
HETATM    7  C   UNL     1      -9.717  12.502  65.493  1.00  0.00    -0.133 C  
BRANCH   7   8
HETATM    8  C   UNL     1      -8.818  11.430  66.091  1.00  0.00    -0.186 C  
BRANCH   8   9
HETATM    9  C   UNL     1      -8.808  10.193  65.201  1.00  0.00    -0.207 C  
BRANCH   9  10
HETATM   10  C   UNL     1      -8.250   9.003  65.964  1.00  0.00    -0.113 C  
BRANCH  10  11
HETATM   11  C   UNL     1      -6.826   9.273  66.418  1.00  0.00    -0.083 C  
BRANCH  11  12
HETATM   12  C   UNL     1      -6.122   7.960  66.716  1.00  0.00    -0.049 C  
BRANCH  12  13
HETATM   13  C   UNL     1      -5.470   7.976  68.094  1.00  0.00    -0.033 C  
BRANCH  13  14
HETATM   14  C   UNL     1      -6.081   6.941  69.038  1.00  0.00    -0.026 C  
BRANCH  14  15
HETATM   15  C   UNL     1      -7.600   7.041  69.205  1.00  0.00    -0.100 C  
BRANCH  15  16
HETATM   16  C   UNL     1      -8.221   5.783  69.819  1.00  0.00    -0.108 C  
BRANCH  16  17
HETATM   17  N   UNL     1      -9.358   5.179  68.976  1.00  0.00    -0.114 N  
HETATM   18  C   UNL     1      -9.107   5.406  67.490  1.00  0.00    -0.107 C  
HETATM   19  C   UNL     1      -9.482   3.680  69.245  1.00  0.00    -0.174 C  
BRANCH  17  20
HETATM   20  C   UNL     1     -10.686   5.893  69.413  1.00  0.00    -0.336 C  
BRANCH  20  21
HETATM   21  C   UNL     1     -10.574   7.392  69.544  1.00  0.00    -0.244 A  
HETATM   22  C   UNL     1     -10.448   7.989  70.809  1.00  0.00    -0.221 A  
HETATM   23  C   UNL     1     -10.618   9.366  70.956  1.00  0.00    -0.400 A  
HETATM   24  C   UNL     1     -10.879  10.158  69.840  1.00  0.00    -0.347 A  
HETATM   25  C   UNL     1     -10.912   9.588  68.571  1.00  0.00    -0.109 A  
HETATM   26  C   UNL     1     -10.734   8.214  68.419  1.00  0.00    -0.066 A  
ENDBRANCH  20  21
ENDBRANCH  17  20
ENDBRANCH  16  17
ENDBRANCH  15  16
ENDBRANCH  14  15
ENDBRANCH  13  14
ENDBRANCH  12  13
ENDBRANCH  11  12
ENDBRANCH  10  11
ENDBRANCH   9  10
ENDBRANCH   8   9
ENDBRANCH   7   8
ENDBRANCH   6   7
ENDBRANCH   5   6
ENDBRANCH   4   5
ENDBRANCH   3   4
ENDBRANCH   2   3
TORSDOF 17
ENDMDL
MODEL      419
REMARK 921   NORMALIZED FREE ENERGY PREDICTED BY IDOCK:   -1.50 KCAL/MOL
REMARK 922        TOTAL FREE ENERGY PREDICTED BY IDOCK:   -5.83 KCAL/MOL
REMARK 923 INTER-LIGAND FREE ENERGY PREDICTED BY IDOCK:   -4.57 KCAL/MOL
REMARK 924 INTRA-LIGAND FREE ENERGY PREDICTED BY IDOCK:   -1.26 KCAL/MOL
REMARK 927      BINDING AFFINITY PREDICTED BY RF-SCORE:    0.00 PKD
ROOT
HETATM    1  C   UNL     1     -12.937  12.988  65.863  1.00  0.00     0.512 C  
HETATM    2  C   UNL     1     -12.748  13.479  64.437  1.00  0.00    -0.126 C  
ENDROOT
BRANCH   2   3
HETATM    3  C   UNL     1     -11.282  13.394  64.019  1.00  0.00    -0.318 C  
BRANCH   3   4
HETATM    4  C   UNL     1     -10.521  12.403  64.895  1.00  0.00    -0.327 C  
BRANCH   4   5
HETATM    5  C   UNL     1      -9.737  13.136  65.975  1.00  0.00    -0.234 C  
BRANCH   5   6
HETATM    6  C   UNL     1      -9.621  14.619  65.647  1.00  0.00    -0.215 C  
BRANCH   6   7
HETATM    7  C   UNL     1      -9.953  15.459  66.873  1.00  0.00    -0.247 C  
BRANCH   7   8
HETATM    8  C   UNL     1     -10.348  14.566  68.040  1.00  0.00    -0.229 C  
BRANCH   8   9
HETATM    9  C   UNL     1     -11.525  15.172  68.794  1.00  0.00    -0.335 C  
BRANCH   9  10
HETATM   10  C   UNL     1     -11.711  14.467  70.128  1.00  0.00    -0.357 C  
BRANCH  10  11
HETATM   11  C   UNL     1     -12.598  13.244  69.973  1.00  0.00    -0.055 C  
BRANCH  11  12
HETATM   12  C   UNL     1     -12.539  12.402  71.236  1.00  0.00    -0.332 C  
BRANCH  12  13
HETATM   13  C   UNL     1     -12.360  10.923  70.914  1.00  0.00    -0.501 C  
BRANCH  13  14
HETATM   14  C   UNL     1     -12.511  10.632  69.421  1.00  0.00     0.063 C  
BRANCH  14  15
HETATM   15  C   UNL     1     -11.192  10.449  68.664  1.00  0.00    -0.305 C  
BRANCH  15  16
HETATM   16  C   UNL     1     -10.335   9.307  69.220  1.00  0.00    -0.215 C  
BRANCH  16  17
HETATM   17  N   UNL     1      -9.603   8.499  68.133  1.00  0.00    -0.141 N  
HETATM   18  C   UNL     1      -9.436   9.327  66.865  1.00  0.00    -0.161 C  
HETATM   19  C   UNL     1      -8.229   8.057  68.634  1.00  0.00    -0.126 C  
BRANCH  17  20
HETATM   20  C   UNL     1     -10.476   7.229  67.837  1.00  0.00    -0.209 C  
BRANCH  20  21
HETATM   21  C   UNL     1      -9.714   5.927  67.867  1.00  0.00    -0.128 A  
HETATM   22  C   UNL     1      -9.520   5.243  69.078  1.00  0.00    -0.182 A  
HETATM   23  C   UNL     1      -8.597   4.200  69.156  1.00  0.00    -0.112 A  
HETATM   24  C   UNL     1      -7.889   3.811  68.021  1.00  0.00    -0.073 A  
HETATM   25  C   UNL     1      -8.143   4.420  66.797  1.00  0.00    -0.102 A  
HETATM   26  C   UNL     1      -9.071   5.457  66.712  1.00  0.00    -0.116 A  
ENDBRANCH  20  21
ENDBRANCH  17  20
ENDBRANCH  16  17
ENDBRANCH  15  16
ENDBRANCH  14  15
ENDBRANCH  13  14
ENDBRANCH  12  13
ENDBRANCH  11  12
ENDBRANCH  10  11
ENDBRANCH   9  10
ENDBRANCH   8   9
ENDBRANCH   7   8
ENDBRANCH   6   7
ENDBRANCH   5   6
ENDBRANCH   4   5
ENDBRANCH   3   4
ENDBRANCH   2   3
TORSDOF 17
ENDMDL
MODEL      420
REMARK 921   NORMALIZED FREE ENERGY PREDICTED BY IDOCK:   -1.47 KCAL/MOL
REMARK 922        TOTAL FREE ENERGY PREDICTED BY IDOCK:   -5.76 KCAL/MOL
REMARK 923 INTER-LIGAND FREE ENERGY PREDICTED BY IDOCK:   -5.11 KCAL/MOL
REMARK 924 INTRA-LIGAND FREE ENERGY PREDICTED BY IDOCK:   -0.65 KCAL/MOL
REMARK 927      BINDING AFFINITY PREDICTED BY RF-SCORE:    0.00 PKD
ROOT
HETATM    1  C   UNL     1     -12.648  11.847  71.516  1.00  0.00    -0.298 C  
HETATM    2  C   UNL     1     -12.982  10.455  71.009  1.00  0.00    -0.490 C  
ENDROOT
BRANCH   2   3
HETATM    3  C   UNL     1     -13.350   9.526  72.163  1.00  0.00    -0.545 C  
BRANCH   3   4
HETATM    4  C   UNL     1     -13.475   8.082  71.683  1.00  0.00    -0.375 C  
BRANCH   4   5
HETATM    5  C   UNL     1     -12.112   7.402  71.676  1.00  0.00    -0.349 C  
BRANCH   5   6
HETATM    6  C   UNL     1     -12.030   6.365  70.563  1.00  0.00    -0.217 C  
BRANCH   6   7
HETATM    7  C   UNL     1     -10.726   6.519  69.792  1.00  0.00    -0.322 C  
BRANCH   7   8
HETATM    8  C   UNL     1      -9.779   7.454  70.528  1.00  0.00    -0.175 C  
BRANCH   8   9
HETATM    9  C   UNL     1      -8.516   7.680  69.707  1.00  0.00    -0.134 C  
BRANCH   9  10
HETATM   10  C   UNL     1      -7.574   6.496  69.858  1.00  0.00    -0.100 C  
BRANCH  10  11
HETATM   11  C   UNL     1      -6.448   6.822  70.824  1.00  0.00    -0.051 C  
BRANCH  11  12
HETATM   12  C   UNL     1      -6.810   8.050  71.642  1.00  0.00    -0.057 C  
BRANCH  12  13
HETATM   13  C   UNL     1      -6.010   9.270  71.201  1.00  0.00    -0.068 C  
BRANCH  13  14
HETATM   14  C   UNL     1      -5.143   8.983  69.975  1.00  0.00    -0.029 C  
BRANCH  14  15
HETATM   15  C   UNL     1      -5.479   9.824  68.740  1.00  0.00    -0.036 C  
BRANCH  15  16
HETATM   16  C   UNL     1      -5.540  11.325  69.034  1.00  0.00    -0.040 C  
BRANCH  16  17
HETATM   17  N   UNL     1      -6.739  12.036  68.381  1.00  0.00    -0.060 N  
HETATM   18  C   UNL     1      -6.714  13.528  68.686  1.00  0.00    -0.094 C  
HETATM   19  C   UNL     1      -6.719  11.829  66.867  1.00  0.00    -0.105 C  
BRANCH  17  20
HETATM   20  C   UNL     1      -8.039  11.386  68.973  1.00  0.00    -0.001 C  
BRANCH  20  21
HETATM   21  C   UNL     1      -9.310  11.770  68.256  1.00  0.00    -0.193 A  
HETATM   22  C   UNL     1     -10.437  10.934  68.307  1.00  0.00    -0.205 A  
HETATM   23  C   UNL     1     -11.507  11.143  67.437  1.00  0.00    -0.261 A  
HETATM   24  C   UNL     1     -11.474  12.205  66.536  1.00  0.00    -0.430 A  
HETATM   25  C   UNL     1     -10.404  13.094  66.543  1.00  0.00    -0.284 A  
HETATM   26  C   UNL     1      -9.336  12.894  67.418  1.00  0.00    -0.194 A  
ENDBRANCH  20  21
ENDBRANCH  17  20
ENDBRANCH  16  17
ENDBRANCH  15  16
ENDBRANCH  14  15
ENDBRANCH  13  14
ENDBRANCH  12  13
ENDBRANCH  11  12
ENDBRANCH  10  11
ENDBRANCH   9  10
ENDBRANCH   8   9
ENDBRANCH   7   8
ENDBRANCH   6   7
ENDBRANCH   5   6
ENDBRANCH   4   5
ENDBRANCH   3   4
ENDBRANCH   2   3
TORSDOF 17
ENDMDL
MODEL      421
REMARK 921   NORMALIZED FREE ENERGY PREDICTED BY IDOCK:   -1.44 KCAL/MOL
REMARK 922        TOTAL FREE ENERGY PREDICTED BY IDOCK:   -5.71 KCAL/MOL
REMARK 923 INTER-LIGAND FREE ENERGY PREDICTED BY IDOCK:   -5.07 KCAL/MOL
REMARK 924 INTRA-LIGAND FREE ENERGY PREDICTED BY IDOCK:   -0.65 KCAL/MOL
REMARK 927      BINDING AFFINITY PREDICTED BY RF-SCORE:    0.00 PKD
ROOT
HETATM    1  C   UNL     1      -9.797  11.837  62.908  1.00  0.00    -0.124 C  
HETATM    2  C   UNL     1     -10.960  11.104  63.554  1.00  0.00    -0.198 C  
ENDROOT
BRANCH   2   3
HETATM    3  C   UNL     1     -11.222  11.628  64.964  1.00  0.00    -0.275 C  
BRANCH   3   4
HETATM    4  C   UNL     1     -10.130  12.603  65.396  1.00  0.00    -0.277 C  
BRANCH   4   5
HETATM    5  C   UNL     1     -10.715  13.708  66.266  1.00  0.00    -0.285 C  
BRANCH   5   6
HETATM    6  C   UNL     1     -10.483  13.415  67.742  1.00  0.00    -0.246 C  
BRANCH   6   7
HETATM    7  C   UNL     1      -8.991  13.379  68.046  1.00  0.00    -0.190 C  
BRANCH   7   8
HETATM    8  C   UNL     1      -8.587  12.010  68.571  1.00  0.00    -0.093 C  
BRANCH   8   9
HETATM    9  C   UNL     1      -7.184  11.654  68.095  1.00  0.00    -0.085 C  
BRANCH   9  10
HETATM   10  C   UNL     1      -6.327  11.218  69.272  1.00  0.00    -0.081 C  
BRANCH  10  11
HETATM   11  C   UNL     1      -5.955   9.750  69.153  1.00  0.00    -0.034 C  
BRANCH  11  12
HETATM   12  C   UNL     1      -6.812   8.923  70.096  1.00  0.00    -0.042 C  
BRANCH  12  13
HETATM   13  C   UNL     1      -6.239   8.914  71.508  1.00  0.00    -0.069 C  
BRANCH  13  14
HETATM   14  C   UNL     1      -7.230   8.364  72.534  1.00  0.00    -0.114 C  
BRANCH  14  15
HETATM   15  C   UNL     1      -8.705   8.544  72.163  1.00  0.00    -0.267 C  
BRANCH  15  16
HETATM   16  C   UNL     1      -9.377   7.241  71.722  1.00  0.00    -0.149 C  
BRANCH  16  17
HETATM   17  N   UNL     1     -10.885   7.187  72.029  1.00  0.00    -0.218 N  
HETATM   18  C   UNL     1     -11.149   6.380  73.295  1.00  0.00    -0.108 C  
HETATM   19  C   UNL     1     -11.442   8.599  72.204  1.00  0.00    -0.373 C  
BRANCH  17  20
HETATM   20  C   UNL     1     -11.583   6.506  70.800  1.00  0.00    -0.377 C  
BRANCH  20  21
HETATM   21  C   UNL     1     -11.041   6.935  69.459  1.00  0.00    -0.270 A  
HETATM   22  C   UNL     1     -10.349   8.150  69.326  1.00  0.00    -0.222 A  
HETATM   23  C   UNL     1     -10.090   8.676  68.060  1.00  0.00    -0.241 A  
HETATM   24  C   UNL     1     -10.487   7.977  66.922  1.00  0.00    -0.387 A  
HETATM   25  C   UNL     1     -11.089   6.729  67.043  1.00  0.00    -0.369 A  
HETATM   26  C   UNL     1     -11.342   6.196  68.306  1.00  0.00     0.029 A  
ENDBRANCH  20  21
ENDBRANCH  17  20
ENDBRANCH  16  17
ENDBRANCH  15  16
ENDBRANCH  14  15
ENDBRANCH  13  14
ENDBRANCH  12  13
ENDBRANCH  11  12
ENDBRANCH  10  11
ENDBRANCH   9  10
ENDBRANCH   8   9
ENDBRANCH   7   8
ENDBRANCH   6   7
ENDBRANCH   5   6
ENDBRANCH   4   5
ENDBRANCH   3   4
ENDBRANCH   2   3
TORSDOF 17
ENDMDL
MODEL      422
REMARK 921   NORMALIZED FREE ENERGY PREDICTED BY IDOCK:   -1.29 KCAL/MOL
REMARK 922        TOTAL FREE ENERGY PREDICTED BY IDOCK:   -5.42 KCAL/MOL
REMARK 923 INTER-LIGAND FREE ENERGY PREDICTED BY IDOCK:   -4.54 KCAL/MOL
REMARK 924 INTRA-LIGAND FREE ENERGY PREDICTED BY IDOCK:   -0.87 KCAL/MOL
REMARK 927      BINDING AFFINITY PREDICTED BY RF-SCORE:    0.00 PKD
ROOT
HETATM    1  C   UNL     1      -6.915  14.638  70.167  1.00  0.00     0.015 C  
HETATM    2  C   UNL     1      -5.643  13.843  69.930  1.00  0.00    -0.108 C  
ENDROOT
BRANCH   2   3
HETATM    3  C   UNL     1      -5.961  12.436  69.432  1.00  0.00    -0.100 C  
BRANCH   3   4
HETATM    4  C   UNL     1      -6.923  12.480  68.247  1.00  0.00    -0.089 C  
BRANCH   4   5
HETATM    5  C   UNL     1      -8.185  11.684  68.553  1.00  0.00    -0.144 C  
BRANCH   5   6
HETATM    6  C   UNL     1      -9.302  12.047  67.584  1.00  0.00    -0.185 C  
BRANCH   6   7
HETATM    7  C   UNL     1      -9.963  13.353  68.005  1.00  0.00    -0.239 C  
BRANCH   7   8
HETATM    8  C   UNL     1     -11.447  13.139  68.264  1.00  0.00    -0.349 C  
BRANCH   8   9
HETATM    9  C   UNL     1     -11.662  12.561  69.657  1.00  0.00    -0.372 C  
BRANCH   9  10
HETATM   10  C   UNL     1     -12.278  11.175  69.559  1.00  0.00    -0.347 C  
BRANCH  10  11
HETATM   11  C   UNL     1     -12.230  10.467  70.902  1.00  0.00    -0.484 C  
BRANCH  11  12
HETATM   12  C   UNL     1     -10.789  10.158  71.270  1.00  0.00     0.251 C  
BRANCH  12  13
HETATM   13  C   UNL     1     -10.299   8.885  70.589  1.00  0.00    -0.265 C  
BRANCH  13  14
HETATM   14  C   UNL     1     -11.432   7.890  70.335  1.00  0.00    -0.154 C  
BRANCH  14  15
HETATM   15  C   UNL     1     -11.094   6.433  70.663  1.00  0.00    -0.376 C  
BRANCH  15  16
HETATM   16  C   UNL     1     -10.652   5.629  69.437  1.00  0.00    -0.304 C  
BRANCH  16  17
HETATM   17  N   UNL     1      -9.135   5.375  69.377  1.00  0.00    -0.107 N  
HETATM   18  C   UNL     1      -8.836   4.062  68.663  1.00  0.00    -0.106 C  
HETATM   19  C   UNL     1      -8.432   6.519  68.648  1.00  0.00    -0.121 C  
BRANCH  17  20
HETATM   20  C   UNL     1      -8.619   5.313  70.858  1.00  0.00    -0.128 C  
BRANCH  20  21
HETATM   21  C   UNL     1      -8.971   4.040  71.587  1.00  0.00    -0.162 A  
HETATM   22  C   UNL     1     -10.206   3.912  72.244  1.00  0.00    -0.216 A  
HETATM   23  C   UNL     1     -10.422   2.862  73.137  1.00  0.00    -0.249 A  
HETATM   24  C   UNL     1      -9.422   1.916  73.353  1.00  0.00    -0.092 A  
HETATM   25  C   UNL     1      -8.232   1.981  72.636  1.00  0.00    -0.054 A  
HETATM   26  C   UNL     1      -8.015   3.024  71.736  1.00  0.00    -0.057 A  
ENDBRANCH  20  21
ENDBRANCH  17  20
ENDBRANCH  16  17
ENDBRANCH  15  16
ENDBRANCH  14  15
ENDBRANCH  13  14
ENDBRANCH  12  13
ENDBRANCH  11  12
ENDBRANCH  10  11
ENDBRANCH   9  10
ENDBRANCH   8   9
ENDBRANCH   7   8
ENDBRANCH   6   7
ENDBRANCH   5   6
ENDBRANCH   4   5
ENDBRANCH   3   4
ENDBRANCH   2   3
TORSDOF 17
ENDMDL
MODEL      423
REMARK 921   NORMALIZED FREE ENERGY PREDICTED BY IDOCK:   -1.29 KCAL/MOL
REMARK 922        TOTAL FREE ENERGY PREDICTED BY IDOCK:   -5.40 KCAL/MOL
REMARK 923 INTER-LIGAND FREE ENERGY PREDICTED BY IDOCK:   -4.71 KCAL/MOL
REMARK 924 INTRA-LIGAND FREE ENERGY PREDICTED BY IDOCK:   -0.69 KCAL/MOL
REMARK 927      BINDING AFFINITY PREDICTED BY RF-SCORE:    0.00 PKD
ROOT
HETATM    1  C   UNL     1      -8.048   8.866  71.542  1.00  0.00    -0.128 C  
HETATM    2  C   UNL     1      -6.695   9.164  70.920  1.00  0.00    -0.087 C  
ENDROOT
BRANCH   2   3
HETATM    3  C   UNL     1      -5.936   7.875  70.616  1.00  0.00    -0.033 C  
BRANCH   3   4
HETATM    4  C   UNL     1      -5.829   7.645  69.111  1.00  0.00    -0.030 C  
BRANCH   4   5
HETATM    5  C   UNL     1      -5.712   6.157  68.805  1.00  0.00    -0.015 C  
BRANCH   5   6
HETATM    6  C   UNL     1      -6.662   5.759  67.683  1.00  0.00    -0.059 C  
BRANCH   6   7
HETATM    7  C   UNL     1      -6.125   4.542  66.943  1.00  0.00    -0.031 C  
BRANCH   7   8
HETATM    8  C   UNL     1      -6.900   4.318  65.653  1.00  0.00    -0.057 C  
BRANCH   8   9
HETATM    9  C   UNL     1      -8.215   5.086  65.687  1.00  0.00    -0.117 C  
BRANCH   9  10
HETATM   10  C   UNL     1      -8.339   5.968  64.455  1.00  0.00    -0.021 C  
BRANCH  10  11
HETATM   11  C   UNL     1      -7.865   7.380  64.752  1.00  0.00    -0.126 C  
BRANCH  11  12
HETATM   12  C   UNL     1      -8.949   8.142  65.496  1.00  0.00    -0.082 C  
BRANCH  12  13
HETATM   13  C   UNL     1      -8.841   9.643  65.256  1.00  0.00    -0.204 C  
BRANCH  13  14
HETATM   14  C   UNL     1      -9.770  10.120  64.139  1.00  0.00    -0.301 C  
BRANCH  14  15
HETATM   15  C   UNL     1     -10.644  11.324  64.501  1.00  0.00    -0.401 C  
BRANCH  15  16
HETATM   16  C   UNL     1     -10.510  11.744  65.968  1.00  0.00    -0.246 C  
BRANCH  16  17
HETATM   17  N   UNL     1     -10.440  13.269  66.171  1.00  0.00    -0.288 N  
HETATM   18  C   UNL     1     -10.274  13.983  64.835  1.00  0.00    -0.348 C  
HETATM   19  C   UNL     1     -11.707  13.773  66.860  1.00  0.00    -0.395 C  
BRANCH  17  20
HETATM   20  C   UNL     1      -9.203  13.555  67.092  1.00  0.00    -0.236 C  
BRANCH  20  21
HETATM   21  C   UNL     1      -8.997  15.013  67.424  1.00  0.00    -0.196 A  
HETATM   22  C   UNL     1      -9.835  15.659  68.347  1.00  0.00    -0.206 A  
HETATM   23  C   UNL     1      -9.825  17.050  68.451  1.00  0.00    -0.283 A  
HETATM   24  C   UNL     1      -8.957  17.801  67.662  1.00  0.00    -0.249 A  
HETATM   25  C   UNL     1      -8.057  17.164  66.814  1.00  0.00    -0.278 A  
HETATM   26  C   UNL     1      -8.057  15.773  66.713  1.00  0.00    -0.297 A  
ENDBRANCH  20  21
ENDBRANCH  17  20
ENDBRANCH  16  17
ENDBRANCH  15  16
ENDBRANCH  14  15
ENDBRANCH  13  14
ENDBRANCH  12  13
ENDBRANCH  11  12
ENDBRANCH  10  11
ENDBRANCH   9  10
ENDBRANCH   8   9
ENDBRANCH   7   8
ENDBRANCH   6   7
ENDBRANCH   5   6
ENDBRANCH   4   5
ENDBRANCH   3   4
ENDBRANCH   2   3
TORSDOF 17
ENDMDL
MODEL      424
REMARK 921   NORMALIZED FREE ENERGY PREDICTED BY IDOCK:   -1.25 KCAL/MOL
REMARK 922        TOTAL FREE ENERGY PREDICTED BY IDOCK:   -5.34 KCAL/MOL
REMARK 923 INTER-LIGAND FREE ENERGY PREDICTED BY IDOCK:   -4.50 KCAL/MOL
REMARK 924 INTRA-LIGAND FREE ENERGY PREDICTED BY IDOCK:   -0.83 KCAL/MOL
REMARK 927      BINDING AFFINITY PREDICTED BY RF-SCORE:    0.00 PKD
ROOT
HETATM    1  C   UNL     1      -8.742   6.814  71.602  1.00  0.00    -0.126 C  
HETATM    2  C   UNL     1      -7.471   6.841  70.770  1.00  0.00    -0.083 C  
ENDROOT
BRANCH   2   3
HETATM    3  C   UNL     1      -6.970   5.426  70.491  1.00  0.00    -0.053 C  
BRANCH   3   4
HETATM    4  C   UNL     1      -7.040   5.106  69.000  1.00  0.00    -0.057 C  
BRANCH   4   5
HETATM    5  C   UNL     1      -7.011   3.600  68.775  1.00  0.00    -0.046 C  
BRANCH   5   6
HETATM    6  C   UNL     1      -8.155   3.167  67.867  1.00  0.00    -0.083 C  
BRANCH   6   7
HETATM    7  C   UNL     1      -7.662   2.153  66.844  1.00  0.00    -0.066 C  
BRANCH   7   8
HETATM    8  C   UNL     1      -8.258   2.446  65.475  1.00  0.00    -0.087 C  
BRANCH   8   9
HETATM    9  C   UNL     1      -9.080   3.727  65.519  1.00  0.00    -0.146 C  
BRANCH   9  10
HETATM   10  C   UNL     1      -8.914   4.502  64.222  1.00  0.00    -0.150 C  
BRANCH  10  11
HETATM   11  C   UNL     1      -7.953   5.664  64.406  1.00  0.00    -0.125 C  
BRANCH  11  12
HETATM   12  C   UNL     1      -8.078   6.218  65.814  1.00  0.00    -0.126 C  
BRANCH  12  13
HETATM   13  C   UNL     1      -7.421   7.588  65.936  1.00  0.00    -0.082 C  
BRANCH  13  14
HETATM   14  C   UNL     1      -6.851   8.078  64.605  1.00  0.00    -0.063 C  
BRANCH  14  15
HETATM   15  C   UNL     1      -7.196   9.528  64.253  1.00  0.00    -0.115 C  
BRANCH  15  16
HETATM   16  C   UNL     1      -8.703   9.775  64.134  1.00  0.00    -0.213 C  
BRANCH  16  17
HETATM   17  N   UNL     1      -9.287  10.600  65.295  1.00  0.00    -0.200 N  
HETATM   18  C   UNL     1     -10.281   9.771  66.099  1.00  0.00    -0.208 C  
HETATM   19  C   UNL     1      -8.170  11.087  66.217  1.00  0.00    -0.164 C  
BRANCH  17  20
HETATM   20  C   UNL     1     -10.009  11.841  64.661  1.00  0.00    -0.243 C  
BRANCH  20  21
HETATM   21  C   UNL     1     -10.420  12.898  65.655  1.00  0.00    -0.292 A  
HETATM   22  C   UNL     1     -10.940  12.534  66.909  1.00  0.00    -0.296 A  
HETATM   23  C   UNL     1     -11.568  13.486  67.712  1.00  0.00    -0.374 A  
HETATM   24  C   UNL     1     -11.649  14.811  67.287  1.00  0.00    -0.385 A  
HETATM   25  C   UNL     1     -11.054  15.198  66.091  1.00  0.00    -0.311 A  
HETATM   26  C   UNL     1     -10.418  14.252  65.289  1.00  0.00    -0.408 A  
ENDBRANCH  20  21
ENDBRANCH  17  20
ENDBRANCH  16  17
ENDBRANCH  15  16
ENDBRANCH  14  15
ENDBRANCH  13  14
ENDBRANCH  12  13
ENDBRANCH  11  12
ENDBRANCH  10  11
ENDBRANCH   9  10
ENDBRANCH   8   9
ENDBRANCH   7   8
ENDBRANCH   6   7
ENDBRANCH   5   6
ENDBRANCH   4   5
ENDBRANCH   3   4
ENDBRANCH   2   3
TORSDOF 17
ENDMDL
MODEL      425
REMARK 921   NORMALIZED FREE ENERGY PREDICTED BY IDOCK:   -1.23 KCAL/MOL
REMARK 922        TOTAL FREE ENERGY PREDICTED BY IDOCK:   -5.29 KCAL/MOL
REMARK 923 INTER-LIGAND FREE ENERGY PREDICTED BY IDOCK:   -4.98 KCAL/MOL
REMARK 924 INTRA-LIGAND FREE ENERGY PREDICTED BY IDOCK:   -0.32 KCAL/MOL
REMARK 927      BINDING AFFINITY PREDICTED BY RF-SCORE:    0.00 PKD
ROOT
HETATM    1  C   UNL     1     -12.143  15.248  73.905  1.00  0.00    -0.649 C  
HETATM    2  C   UNL     1     -12.643  15.837  72.597  1.00  0.00    -0.541 C  
ENDROOT
BRANCH   2   3
HETATM    3  C   UNL     1     -13.446  14.809  71.804  1.00  0.00    -0.470 C  
BRANCH   3   4
HETATM    4  C   UNL     1     -12.905  14.670  70.384  1.00  0.00    -0.321 C  
BRANCH   4   5
HETATM    5  C   UNL     1     -12.000  13.449  70.274  1.00  0.00    -0.378 C  
BRANCH   5   6
HETATM    6  C   UNL     1     -12.824  12.174  70.154  1.00  0.00     0.348 C  
BRANCH   6   7
HETATM    7  C   UNL     1     -12.074  11.001  70.770  1.00  0.00    -0.467 C  
BRANCH   7   8
HETATM    8  C   UNL     1     -10.802  10.711  69.987  1.00  0.00    -0.280 C  
BRANCH   8   9
HETATM    9  C   UNL     1     -11.133   9.972  68.696  1.00  0.00    -0.223 C  
BRANCH   9  10
HETATM   10  C   UNL     1     -11.361  10.965  67.568  1.00  0.00    -0.309 C  
BRANCH  10  11
HETATM   11  C   UNL     1     -10.107  11.121  66.724  1.00  0.00    -0.255 C  
BRANCH  11  12
HETATM   12  C   UNL     1     -10.027   9.995  65.708  1.00  0.00    -0.346 C  
BRANCH  12  13
HETATM   13  C   UNL     1      -8.615   9.429  65.612  1.00  0.00    -0.159 C  
BRANCH  13  14
HETATM   14  C   UNL     1      -8.016   9.128  66.986  1.00  0.00    -0.102 C  
BRANCH  14  15
HETATM   15  C   UNL     1      -8.480   7.811  67.616  1.00  0.00    -0.121 C  
BRANCH  15  16
HETATM   16  C   UNL     1      -7.392   6.734  67.625  1.00  0.00    -0.096 C  
BRANCH  16  17
HETATM   17  N   UNL     1      -7.712   5.523  66.730  1.00  0.00    -0.099 N  
HETATM   18  C   UNL     1      -7.911   4.268  67.570  1.00  0.00    -0.088 C  
HETATM   19  C   UNL     1      -8.974   5.788  65.909  1.00  0.00    -0.151 C  
BRANCH  17  20
HETATM   20  C   UNL     1      -6.495   5.334  65.757  1.00  0.00    -0.036 C  
BRANCH  20  21
HETATM   21  C   UNL     1      -6.750   4.377  64.619  1.00  0.00    -0.045 A  
HETATM   22  C   UNL     1      -7.489   3.201  64.829  1.00  0.00    -0.075 A  
HETATM   23  C   UNL     1      -7.494   2.193  63.864  1.00  0.00    -0.058 A  
HETATM   24  C   UNL     1      -6.794   2.367  62.672  1.00  0.00    -0.027 A  
HETATM   25  C   UNL     1      -6.138   3.567  62.416  1.00  0.00    -0.013 A  
HETATM   26  C   UNL     1      -6.137   4.580  63.374  1.00  0.00    -0.018 A  
ENDBRANCH  20  21
ENDBRANCH  17  20
ENDBRANCH  16  17
ENDBRANCH  15  16
ENDBRANCH  14  15
ENDBRANCH  13  14
ENDBRANCH  12  13
ENDBRANCH  11  12
ENDBRANCH  10  11
ENDBRANCH   9  10
ENDBRANCH   8   9
ENDBRANCH   7   8
ENDBRANCH   6   7
ENDBRANCH   5   6
ENDBRANCH   4   5
ENDBRANCH   3   4
ENDBRANCH   2   3
TORSDOF 17
ENDMDL
MODEL      426
REMARK 921   NORMALIZED FREE ENERGY PREDICTED BY IDOCK:   -1.21 KCAL/MOL
REMARK 922        TOTAL FREE ENERGY PREDICTED BY IDOCK:   -5.25 KCAL/MOL
REMARK 923 INTER-LIGAND FREE ENERGY PREDICTED BY IDOCK:   -3.82 KCAL/MOL
REMARK 924 INTRA-LIGAND FREE ENERGY PREDICTED BY IDOCK:   -1.43 KCAL/MOL
REMARK 927      BINDING AFFINITY PREDICTED BY RF-SCORE:    0.00 PKD
ROOT
HETATM    1  C   UNL     1      -7.816  12.862  67.109  1.00  0.00    -0.084 C  
HETATM    2  C   UNL     1      -8.906  11.925  67.601  1.00  0.00    -0.169 C  
ENDROOT
BRANCH   2   3
HETATM    3  C   UNL     1      -9.922  11.639  66.498  1.00  0.00    -0.230 C  
BRANCH   3   4
HETATM    4  C   UNL     1      -9.839  10.185  66.043  1.00  0.00    -0.308 C  
BRANCH   4   5
HETATM    5  C   UNL     1      -8.894  10.049  64.856  1.00  0.00    -0.219 C  
BRANCH   5   6
HETATM    6  C   UNL     1      -7.731   9.125  65.193  1.00  0.00    -0.104 C  
BRANCH   6   7
HETATM    7  C   UNL     1      -6.957   8.767  63.932  1.00  0.00    -0.087 C  
BRANCH   7   8
HETATM    8  C   UNL     1      -6.275   7.417  64.090  1.00  0.00    -0.044 C  
BRANCH   8   9
HETATM    9  C   UNL     1      -6.666   6.490  62.947  1.00  0.00    -0.042 C  
BRANCH   9  10
HETATM   10  C   UNL     1      -6.076   5.106  63.168  1.00  0.00    -0.021 C  
BRANCH  10  11
HETATM   11  C   UNL     1      -7.006   4.252  64.013  1.00  0.00    -0.046 C  
BRANCH  11  12
HETATM   12  C   UNL     1      -8.446   4.484  63.590  1.00  0.00    -0.118 C  
BRANCH  12  13
HETATM   13  C   UNL     1      -9.344   4.759  64.790  1.00  0.00    -0.065 C  
BRANCH  13  14
HETATM   14  C   UNL     1      -8.572   5.356  65.967  1.00  0.00    -0.127 C  
BRANCH  14  15
HETATM   15  C   UNL     1      -9.112   4.975  67.349  1.00  0.00    -0.120 C  
BRANCH  15  16
HETATM   16  C   UNL     1      -8.007   4.775  68.391  1.00  0.00    -0.084 C  
BRANCH  16  17
HETATM   17  N   UNL     1      -8.240   5.554  69.697  1.00  0.00    -0.100 N  
HETATM   18  C   UNL     1      -7.254   5.113  70.772  1.00  0.00    -0.064 C  
HETATM   19  C   UNL     1      -8.087   7.056  69.456  1.00  0.00    -0.130 C  
BRANCH  17  20
HETATM   20  C   UNL     1      -9.709   5.253  70.159  1.00  0.00    -0.196 C  
BRANCH  20  21
HETATM   21  C   UNL     1      -9.816   4.274  71.301  1.00  0.00    -0.257 A  
HETATM   22  C   UNL     1      -9.584   2.905  71.090  1.00  0.00    -0.226 A  
HETATM   23  C   UNL     1      -9.944   1.973  72.063  1.00  0.00    -0.221 A  
HETATM   24  C   UNL     1     -10.502   2.402  73.265  1.00  0.00    -0.228 A  
HETATM   25  C   UNL     1     -10.647   3.762  73.521  1.00  0.00    -0.281 A  
HETATM   26  C   UNL     1     -10.281   4.697  72.554  1.00  0.00    -0.243 A  
ENDBRANCH  20  21
ENDBRANCH  17  20
ENDBRANCH  16  17
ENDBRANCH  15  16
ENDBRANCH  14  15
ENDBRANCH  13  14
ENDBRANCH  12  13
ENDBRANCH  11  12
ENDBRANCH  10  11
ENDBRANCH   9  10
ENDBRANCH   8   9
ENDBRANCH   7   8
ENDBRANCH   6   7
ENDBRANCH   5   6
ENDBRANCH   4   5
ENDBRANCH   3   4
ENDBRANCH   2   3
TORSDOF 17
ENDMDL
MODEL      427
REMARK 921   NORMALIZED FREE ENERGY PREDICTED BY IDOCK:   -1.18 KCAL/MOL
REMARK 922        TOTAL FREE ENERGY PREDICTED BY IDOCK:   -5.19 KCAL/MOL
REMARK 923 INTER-LIGAND FREE ENERGY PREDICTED BY IDOCK:   -3.51 KCAL/MOL
REMARK 924 INTRA-LIGAND FREE ENERGY PREDICTED BY IDOCK:   -1.68 KCAL/MOL
REMARK 927      BINDING AFFINITY PREDICTED BY RF-SCORE:    0.00 PKD
ROOT
HETATM    1  C   UNL     1      -8.069   7.605  67.742  1.00  0.00    -0.118 C  
HETATM    2  C   UNL     1      -9.331   8.266  67.215  1.00  0.00    -0.181 C  
ENDROOT
BRANCH   2   3
HETATM    3  C   UNL     1      -9.004   9.267  66.110  1.00  0.00    -0.202 C  
BRANCH   3   4
HETATM    4  C   UNL     1      -7.724   8.873  65.377  1.00  0.00    -0.092 C  
BRANCH   4   5
HETATM    5  C   UNL     1      -8.025   8.530  63.924  1.00  0.00    -0.160 C  
BRANCH   5   6
HETATM    6  C   UNL     1      -6.797   8.754  63.050  1.00  0.00    -0.090 C  
BRANCH   6   7
HETATM    7  C   UNL     1      -6.048   7.444  62.846  1.00  0.00    -0.054 C  
BRANCH   7   8
HETATM    8  C   UNL     1      -6.995   6.359  62.357  1.00  0.00    -0.039 C  
BRANCH   8   9
HETATM    9  C   UNL     1      -6.798   5.082  63.163  1.00  0.00    -0.034 C  
BRANCH   9  10
HETATM   10  C   UNL     1      -8.055   4.229  63.111  1.00  0.00    -0.083 C  
BRANCH  10  11
HETATM   11  C   UNL     1      -9.015   4.614  64.223  1.00  0.00    -0.136 C  
BRANCH  11  12
HETATM   12  C   UNL     1      -8.236   5.129  65.421  1.00  0.00    -0.124 C  
BRANCH  12  13
HETATM   13  C   UNL     1      -7.933   4.012  66.412  1.00  0.00    -0.097 C  
BRANCH  13  14
HETATM   14  C   UNL     1      -9.203   3.407  67.011  1.00  0.00    -0.208 C  
BRANCH  14  15
HETATM   15  C   UNL     1      -9.762   4.158  68.223  1.00  0.00    -0.148 C  
BRANCH  15  16
HETATM   16  C   UNL     1      -9.247   3.612  69.558  1.00  0.00    -0.155 C  
BRANCH  16  17
HETATM   17  N   UNL     1      -9.517   4.544  70.753  1.00  0.00    -0.154 N  
HETATM   18  C   UNL     1     -10.677   5.484  70.453  1.00  0.00    -0.251 C  
HETATM   19  C   UNL     1      -9.838   3.726  72.004  1.00  0.00    -0.173 C  
BRANCH  17  20
HETATM   20  C   UNL     1      -8.205   5.369  71.000  1.00  0.00    -0.118 C  
BRANCH  20  21
HETATM   21  C   UNL     1      -8.272   6.309  72.178  1.00  0.00    -0.109 A  
HETATM   22  C   UNL     1      -8.767   7.614  72.021  1.00  0.00    -0.146 A  
HETATM   23  C   UNL     1      -8.579   8.563  73.026  1.00  0.00    -0.116 A  
HETATM   24  C   UNL     1      -7.930   8.207  74.206  1.00  0.00    -0.310 A  
HETATM   25  C   UNL     1      -7.521   6.893  74.409  1.00  0.00    -0.113 A  
HETATM   26  C   UNL     1      -7.714   5.939  73.410  1.00  0.00    -0.101 A  
ENDBRANCH  20  21
ENDBRANCH  17  20
ENDBRANCH  16  17
ENDBRANCH  15  16
ENDBRANCH  14  15
ENDBRANCH  13  14
ENDBRANCH  12  13
ENDBRANCH  11  12
ENDBRANCH  10  11
ENDBRANCH   9  10
ENDBRANCH   8   9
ENDBRANCH   7   8
ENDBRANCH   6   7
ENDBRANCH   5   6
ENDBRANCH   4   5
ENDBRANCH   3   4
ENDBRANCH   2   3
TORSDOF 17
ENDMDL
MODEL      428
REMARK 921   NORMALIZED FREE ENERGY PREDICTED BY IDOCK:   -1.17 KCAL/MOL
REMARK 922        TOTAL FREE ENERGY PREDICTED BY IDOCK:   -5.17 KCAL/MOL
REMARK 923 INTER-LIGAND FREE ENERGY PREDICTED BY IDOCK:   -4.22 KCAL/MOL
REMARK 924 INTRA-LIGAND FREE ENERGY PREDICTED BY IDOCK:   -0.95 KCAL/MOL
REMARK 927      BINDING AFFINITY PREDICTED BY RF-SCORE:    0.00 PKD
ROOT
HETATM    1  C   UNL     1      -6.894  14.653  70.135  1.00  0.00    -0.051 C  
HETATM    2  C   UNL     1      -5.608  13.903  69.830  1.00  0.00    -0.103 C  
ENDROOT
BRANCH   2   3
HETATM    3  C   UNL     1      -5.904  12.499  69.309  1.00  0.00    -0.086 C  
BRANCH   3   4
HETATM    4  C   UNL     1      -6.958  12.536  68.206  1.00  0.00    -0.089 C  
BRANCH   4   5
HETATM    5  C   UNL     1      -8.125  11.620  68.551  1.00  0.00    -0.145 C  
BRANCH   5   6
HETATM    6  C   UNL     1      -9.358  11.983  67.734  1.00  0.00    -0.190 C  
BRANCH   6   7
HETATM    7  C   UNL     1     -10.082  13.164  68.367  1.00  0.00    -0.231 C  
BRANCH   7   8
HETATM    8  C   UNL     1     -11.500  12.775  68.753  1.00  0.00    -0.347 C  
BRANCH   8   9
HETATM    9  C   UNL     1     -11.497  12.009  70.071  1.00  0.00    -0.183 C  
BRANCH   9  10
HETATM   10  C   UNL     1     -12.042  10.606  69.863  1.00  0.00    -0.372 C  
BRANCH  10  11
HETATM   11  C   UNL     1     -11.760   9.732  71.073  1.00  0.00    -0.453 C  
BRANCH  11  12
HETATM   12  C   UNL     1     -10.284   9.374  71.117  1.00  0.00    -0.361 C  
BRANCH  12  13
HETATM   13  C   UNL     1      -9.809   8.803  69.787  1.00  0.00    -0.189 C  
BRANCH  13  14
HETATM   14  C   UNL     1     -10.917   8.051  69.049  1.00  0.00     0.086 C  
BRANCH  14  15
HETATM   15  C   UNL     1     -10.483   6.725  68.417  1.00  0.00    -0.238 C  
BRANCH  15  16
HETATM   16  C   UNL     1     -10.173   6.846  66.922  1.00  0.00    -0.240 C  
BRANCH  16  17
HETATM   17  N   UNL     1      -8.672   6.745  66.592  1.00  0.00    -0.122 N  
HETATM   18  C   UNL     1      -8.466   6.250  65.166  1.00  0.00    -0.084 C  
HETATM   19  C   UNL     1      -7.999   8.107  66.757  1.00  0.00    -0.103 C  
BRANCH  17  20
HETATM   20  C   UNL     1      -8.042   5.732  67.611  1.00  0.00    -0.102 C  
BRANCH  20  21
HETATM   21  C   UNL     1      -8.218   4.281  67.235  1.00  0.00    -0.100 A  
HETATM   22  C   UNL     1      -9.381   3.586  67.603  1.00  0.00    -0.250 A  
HETATM   23  C   UNL     1      -9.431   2.195  67.502  1.00  0.00    -0.062 A  
HETATM   24  C   UNL     1      -8.335   1.495  67.002  1.00  0.00    -0.082 A  
HETATM   25  C   UNL     1      -7.214   2.183  66.548  1.00  0.00    -0.056 A  
HETATM   26  C   UNL     1      -7.164   3.573  66.639  1.00  0.00    -0.067 A  
ENDBRANCH  20  21
ENDBRANCH  17  20
ENDBRANCH  16  17
ENDBRANCH  15  16
ENDBRANCH  14  15
ENDBRANCH  13  14
ENDBRANCH  12  13
ENDBRANCH  11  12
ENDBRANCH  10  11
ENDBRANCH   9  10
ENDBRANCH   8   9
ENDBRANCH   7   8
ENDBRANCH   6   7
ENDBRANCH   5   6
ENDBRANCH   4   5
ENDBRANCH   3   4
ENDBRANCH   2   3
TORSDOF 17
ENDMDL
MODEL      429
REMARK 921   NORMALIZED FREE ENERGY PREDICTED BY IDOCK:   -1.16 KCAL/MOL
REMARK 922        TOTAL FREE ENERGY PREDICTED BY IDOCK:   -5.16 KCAL/MOL
REMARK 923 INTER-LIGAND FREE ENERGY PREDICTED BY IDOCK:   -5.12 KCAL/MOL
REMARK 924 INTRA-LIGAND FREE ENERGY PREDICTED BY IDOCK:   -0.03 KCAL/MOL
REMARK 927      BINDING AFFINITY PREDICTED BY RF-SCORE:    0.00 PKD
ROOT
HETATM    1  C   UNL     1     -10.381   6.434  73.883  1.00  0.00    -0.338 C  
HETATM    2  C   UNL     1     -10.940   6.851  72.533  1.00  0.00    -0.294 C  
ENDROOT
BRANCH   2   3
HETATM    3  C   UNL     1     -10.207   8.074  71.990  1.00  0.00    -0.288 C  
BRANCH   3   4
HETATM    4  C   UNL     1      -8.706   7.968  72.244  1.00  0.00    -0.220 C  
BRANCH   4   5
HETATM    5  C   UNL     1      -7.925   8.300  70.979  1.00  0.00    -0.105 C  
BRANCH   5   6
HETATM    6  C   UNL     1      -7.241   9.655  71.105  1.00  0.00     0.177 C  
BRANCH   6   7
HETATM    7  C   UNL     1      -5.764   9.536  70.754  1.00  0.00    -0.062 C  
BRANCH   7   8
HETATM    8  C   UNL     1      -5.491  10.140  69.385  1.00  0.00    -0.038 C  
BRANCH   8   9
HETATM    9  C   UNL     1      -5.834   9.140  68.288  1.00  0.00    -0.038 C  
BRANCH   9  10
HETATM   10  C   UNL     1      -5.880   9.838  66.938  1.00  0.00    -0.051 C  
BRANCH  10  11
HETATM   11  C   UNL     1      -7.288   9.815  66.368  1.00  0.00    -0.095 C  
BRANCH  11  12
HETATM   12  C   UNL     1      -8.229   9.130  67.343  1.00  0.00    -0.107 C  
BRANCH  12  13
HETATM   13  C   UNL     1      -9.626   9.736  67.291  1.00  0.00    -0.194 C  
BRANCH  13  14
HETATM   14  C   UNL     1     -10.004  10.203  65.885  1.00  0.00    -0.334 C  
BRANCH  14  15
HETATM   15  C   UNL     1      -9.892  11.713  65.657  1.00  0.00    -0.270 C  
BRANCH  15  16
HETATM   16  C   UNL     1     -10.816  12.528  66.566  1.00  0.00    -0.256 C  
BRANCH  16  17
HETATM   17  N   UNL     1     -11.565  13.656  65.834  1.00  0.00    -0.318 N  
HETATM   18  C   UNL     1     -11.191  13.683  64.357  1.00  0.00    -0.367 C  
HETATM   19  C   UNL     1     -13.075  13.468  65.971  1.00  0.00     0.377 C  
BRANCH  17  20
HETATM   20  C   UNL     1     -11.150  15.006  66.519  1.00  0.00    -0.329 C  
BRANCH  20  21
HETATM   21  C   UNL     1     -11.098  14.950  68.026  1.00  0.00    -0.301 A  
HETATM   22  C   UNL     1     -11.712  13.895  68.722  1.00  0.00    -0.392 A  
HETATM   23  C   UNL     1     -11.903  13.979  70.101  1.00  0.00    -0.377 A  
HETATM   24  C   UNL     1     -11.452  15.098  70.798  1.00  0.00    -0.350 A  
HETATM   25  C   UNL     1     -10.759  16.104  70.132  1.00  0.00    -0.289 A  
HETATM   26  C   UNL     1     -10.559  16.019  68.755  1.00  0.00    -0.262 A  
ENDBRANCH  20  21
ENDBRANCH  17  20
ENDBRANCH  16  17
ENDBRANCH  15  16
ENDBRANCH  14  15
ENDBRANCH  13  14
ENDBRANCH  12  13
ENDBRANCH  11  12
ENDBRANCH  10  11
ENDBRANCH   9  10
ENDBRANCH   8   9
ENDBRANCH   7   8
ENDBRANCH   6   7
ENDBRANCH   5   6
ENDBRANCH   4   5
ENDBRANCH   3   4
ENDBRANCH   2   3
TORSDOF 17
ENDMDL
MODEL      430
REMARK 921   NORMALIZED FREE ENERGY PREDICTED BY IDOCK:   -0.99 KCAL/MOL
REMARK 922        TOTAL FREE ENERGY PREDICTED BY IDOCK:   -4.81 KCAL/MOL
REMARK 923 INTER-LIGAND FREE ENERGY PREDICTED BY IDOCK:   -3.74 KCAL/MOL
REMARK 924 INTRA-LIGAND FREE ENERGY PREDICTED BY IDOCK:   -1.07 KCAL/MOL
REMARK 927      BINDING AFFINITY PREDICTED BY RF-SCORE:    0.00 PKD
ROOT
HETATM    1  C   UNL     1      -6.892  14.637  70.273  1.00  0.00     0.025 C  
HETATM    2  C   UNL     1      -5.509  14.036  70.093  1.00  0.00    -0.109 C  
ENDROOT
BRANCH   2   3
HETATM    3  C   UNL     1      -5.590  12.664  69.428  1.00  0.00    -0.084 C  
BRANCH   3   4
HETATM    4  C   UNL     1      -6.360  12.740  68.113  1.00  0.00    -0.088 C  
BRANCH   4   5
HETATM    5  C   UNL     1      -7.607  11.867  68.173  1.00  0.00    -0.121 C  
BRANCH   5   6
HETATM    6  C   UNL     1      -8.583  12.240  67.064  1.00  0.00    -0.191 C  
BRANCH   6   7
HETATM    7  C   UNL     1      -9.371  13.484  67.449  1.00  0.00    -0.228 C  
BRANCH   7   8
HETATM    8  C   UNL     1     -10.860  13.179  67.493  1.00  0.00    -0.269 C  
BRANCH   8   9
HETATM    9  C   UNL     1     -11.223  12.499  68.807  1.00  0.00    -0.318 C  
BRANCH   9  10
HETATM   10  C   UNL     1     -11.673  11.070  68.552  1.00  0.00    -0.348 C  
BRANCH  10  11
HETATM   11  C   UNL     1     -11.855  10.320  69.860  1.00  0.00    -0.267 C  
BRANCH  11  12
HETATM   12  C   UNL     1     -10.509  10.134  70.539  1.00  0.00    -0.173 C  
BRANCH  12  13
HETATM   13  C   UNL     1      -9.682   9.052  69.855  1.00  0.00    -0.194 C  
BRANCH  13  14
HETATM   14  C   UNL     1     -10.548   8.085  69.047  1.00  0.00    -0.169 C  
BRANCH  14  15
HETATM   15  C   UNL     1     -10.149   6.611  69.167  1.00  0.00    -0.185 C  
BRANCH  15  16
HETATM   16  C   UNL     1      -9.198   6.154  68.057  1.00  0.00    -0.116 C  
BRANCH  16  17
HETATM   17  N   UNL     1      -7.716   6.155  68.473  1.00  0.00    -0.098 N  
HETATM   18  C   UNL     1      -7.030   7.439  68.024  1.00  0.00    -0.075 C  
HETATM   19  C   UNL     1      -7.590   6.017  69.990  1.00  0.00    -0.087 C  
BRANCH  17  20
HETATM   20  C   UNL     1      -7.043   4.916  67.785  1.00  0.00    -0.062 C  
BRANCH  20  21
HETATM   21  C   UNL     1      -7.430   4.718  66.341  1.00  0.00    -0.086 A  
HETATM   22  C   UNL     1      -7.072   5.669  65.371  1.00  0.00    -0.066 A  
HETATM   23  C   UNL     1      -7.652   5.632  64.103  1.00  0.00    -0.080 A  
HETATM   24  C   UNL     1      -8.565   4.629  63.784  1.00  0.00    -0.132 A  
HETATM   25  C   UNL     1      -8.854   3.629  64.707  1.00  0.00    -0.120 A  
HETATM   26  C   UNL     1      -8.270   3.657  65.972  1.00  0.00    -0.101 A  
ENDBRANCH  20  21
ENDBRANCH  17  20
ENDBRANCH  16  17
ENDBRANCH  15  16
ENDBRANCH  14  15
ENDBRANCH  13  14
ENDBRANCH  12  13
ENDBRANCH  11  12
ENDBRANCH  10  11
ENDBRANCH   9  10
ENDBRANCH   8   9
ENDBRANCH   7   8
ENDBRANCH   6   7
ENDBRANCH   5   6
ENDBRANCH   4   5
ENDBRANCH   3   4
ENDBRANCH   2   3
TORSDOF 17
ENDMDL
MODEL      431
REMARK 921   NORMALIZED FREE ENERGY PREDICTED BY IDOCK:   -0.76 KCAL/MOL
REMARK 922        TOTAL FREE ENERGY PREDICTED BY IDOCK:   -4.36 KCAL/MOL
REMARK 923 INTER-LIGAND FREE ENERGY PREDICTED BY IDOCK:   -3.29 KCAL/MOL
REMARK 924 INTRA-LIGAND FREE ENERGY PREDICTED BY IDOCK:   -1.07 KCAL/MOL
REMARK 927      BINDING AFFINITY PREDICTED BY RF-SCORE:    0.00 PKD
ROOT
HETATM    1  C   UNL     1     -10.157   7.046  74.113  1.00  0.00    -0.290 C  
HETATM    2  C   UNL     1     -10.392   7.590  72.714  1.00  0.00    -0.331 C  
ENDROOT
BRANCH   2   3
HETATM    3  C   UNL     1      -9.520   8.814  72.449  1.00  0.00    -0.181 C  
BRANCH   3   4
HETATM    4  C   UNL     1      -8.065   8.540  72.820  1.00  0.00    -0.103 C  
BRANCH   4   5
HETATM    5  C   UNL     1      -7.339   7.860  71.667  1.00  0.00    -0.070 C  
BRANCH   5   6
HETATM    6  C   UNL     1      -6.361   8.821  71.002  1.00  0.00    -0.053 C  
BRANCH   6   7
HETATM    7  C   UNL     1      -5.409   8.058  70.090  1.00  0.00    -0.023 C  
BRANCH   7   8
HETATM    8  C   UNL     1      -6.079   7.750  68.759  1.00  0.00    -0.039 C  
BRANCH   8   9
HETATM    9  C   UNL     1      -5.125   6.980  67.854  1.00  0.00    -0.015 C  
BRANCH   9  10
HETATM   10  C   UNL     1      -5.125   7.583  66.459  1.00  0.00    -0.024 C  
BRANCH  10  11
HETATM   11  C   UNL     1      -5.630   6.579  65.437  1.00  0.00    -0.025 C  
BRANCH  11  12
HETATM   12  C   UNL     1      -5.181   5.180  65.824  1.00  0.00    -0.012 C  
BRANCH  12  13
HETATM   13  C   UNL     1      -6.144   4.120  65.303  1.00  0.00    -0.023 C  
BRANCH  13  14
HETATM   14  C   UNL     1      -6.973   4.620  64.120  1.00  0.00    -0.049 C  
BRANCH  14  15
HETATM   15  C   UNL     1      -8.027   5.674  64.473  1.00  0.00    -0.124 C  
BRANCH  15  16
HETATM   16  C   UNL     1      -9.146   5.129  65.365  1.00  0.00    -0.140 C  
BRANCH  16  17
HETATM   17  N   UNL     1      -9.468   6.027  66.573  1.00  0.00    -0.154 N  
HETATM   18  C   UNL     1      -9.275   7.496  66.219  1.00  0.00    -0.146 C  
HETATM   19  C   UNL     1     -10.907   5.803  67.034  1.00  0.00    -0.241 C  
BRANCH  17  20
HETATM   20  C   UNL     1      -8.487   5.617  67.727  1.00  0.00    -0.102 C  
BRANCH  20  21
HETATM   21  C   UNL     1      -9.098   4.721  68.775  1.00  0.00    -0.151 A  
HETATM   22  C   UNL     1      -9.642   5.266  69.950  1.00  0.00    -0.241 A  
HETATM   23  C   UNL     1      -9.955   4.439  71.029  1.00  0.00    -0.242 A  
HETATM   24  C   UNL     1      -9.760   3.063  70.931  1.00  0.00    -0.155 A  
HETATM   25  C   UNL     1      -9.311   2.505  69.738  1.00  0.00    -0.176 A  
HETATM   26  C   UNL     1      -9.006   3.327  68.654  1.00  0.00    -0.185 A  
ENDBRANCH  20  21
ENDBRANCH  17  20
ENDBRANCH  16  17
ENDBRANCH  15  16
ENDBRANCH  14  15
ENDBRANCH  13  14
ENDBRANCH  12  13
ENDBRANCH  11  12
ENDBRANCH  10  11
ENDBRANCH   9  10
ENDBRANCH   8   9
ENDBRANCH   7   8
ENDBRANCH   6   7
ENDBRANCH   5   6
ENDBRANCH   4   5
ENDBRANCH   3   4
ENDBRANCH   2   3
TORSDOF 17
ENDMDL
MODEL      432
REMARK 921   NORMALIZED FREE ENERGY PREDICTED BY IDOCK:   -0.76 KCAL/MOL
REMARK 922        TOTAL FREE ENERGY PREDICTED BY IDOCK:   -4.36 KCAL/MOL
REMARK 923 INTER-LIGAND FREE ENERGY PREDICTED BY IDOCK:   -2.84 KCAL/MOL
REMARK 924 INTRA-LIGAND FREE ENERGY PREDICTED BY IDOCK:   -1.52 KCAL/MOL
REMARK 927      BINDING AFFINITY PREDICTED BY RF-SCORE:    0.00 PKD
ROOT
HETATM    1  C   UNL     1      -8.052   7.498  67.674  1.00  0.00    -0.118 C  
HETATM    2  C   UNL     1      -9.323   8.260  67.342  1.00  0.00    -0.171 C  
ENDROOT
BRANCH   2   3
HETATM    3  C   UNL     1      -9.030   9.435  66.412  1.00  0.00    -0.182 C  
BRANCH   3   4
HETATM    4  C   UNL     1      -7.802   9.156  65.550  1.00  0.00    -0.095 C  
BRANCH   4   5
HETATM    5  C   UNL     1      -8.199   9.011  64.086  1.00  0.00    -0.166 C  
BRANCH   5   6
HETATM    6  C   UNL     1      -7.037   9.374  63.172  1.00  0.00    -0.097 C  
BRANCH   6   7
HETATM    7  C   UNL     1      -6.102   8.183  63.006  1.00  0.00    -0.077 C  
BRANCH   7   8
HETATM    8  C   UNL     1      -6.830   7.023  62.345  1.00  0.00    -0.052 C  
BRANCH   8   9
HETATM    9  C   UNL     1      -6.421   5.705  62.992  1.00  0.00    -0.025 C  
BRANCH   9  10
HETATM   10  C   UNL     1      -7.475   4.642  62.730  1.00  0.00    -0.052 C  
BRANCH  10  11
HETATM   11  C   UNL     1      -8.673   4.833  63.645  1.00  0.00    -0.130 C  
BRANCH  11  12
HETATM   12  C   UNL     1      -8.227   5.465  64.952  1.00  0.00    -0.138 C  
BRANCH  12  13
HETATM   13  C   UNL     1      -7.940   4.410  66.013  1.00  0.00    -0.099 C  
BRANCH  13  14
HETATM   14  C   UNL     1      -9.208   3.692  66.476  1.00  0.00    -0.183 C  
BRANCH  14  15
HETATM   15  C   UNL     1      -9.936   4.363  67.645  1.00  0.00    -0.111 C  
BRANCH  15  16
HETATM   16  C   UNL     1      -9.597   3.739  69.001  1.00  0.00    -0.120 C  
BRANCH  16  17
HETATM   17  N   UNL     1      -9.713   4.722  70.180  1.00  0.00    -0.197 N  
HETATM   18  C   UNL     1     -10.815   5.743  69.925  1.00  0.00    -0.347 C  
HETATM   19  C   UNL     1     -10.012   3.967  71.475  1.00  0.00    -0.150 C  
BRANCH  17  20
HETATM   20  C   UNL     1      -8.328   5.447  70.315  1.00  0.00    -0.112 C  
BRANCH  20  21
HETATM   21  C   UNL     1      -7.360   4.774  71.256  1.00  0.00    -0.068 A  
HETATM   22  C   UNL     1      -7.103   5.319  72.524  1.00  0.00    -0.087 A  
HETATM   23  C   UNL     1      -6.022   4.863  73.279  1.00  0.00    -0.022 A  
HETATM   24  C   UNL     1      -5.215   3.839  72.791  1.00  0.00     0.000 A  
HETATM   25  C   UNL     1      -5.519   3.228  71.578  1.00  0.00    -0.008 A  
HETATM   26  C   UNL     1      -6.603   3.675  70.824  1.00  0.00    -0.032 A  
ENDBRANCH  20  21
ENDBRANCH  17  20
ENDBRANCH  16  17
ENDBRANCH  15  16
ENDBRANCH  14  15
ENDBRANCH  13  14
ENDBRANCH  12  13
ENDBRANCH  11  12
ENDBRANCH  10  11
ENDBRANCH   9  10
ENDBRANCH   8   9
ENDBRANCH   7   8
ENDBRANCH   6   7
ENDBRANCH   5   6
ENDBRANCH   4   5
ENDBRANCH   3   4
ENDBRANCH   2   3
TORSDOF 17
ENDMDL
MODEL      433
REMARK 921   NORMALIZED FREE ENERGY PREDICTED BY IDOCK:   -0.66 KCAL/MOL
REMARK 922        TOTAL FREE ENERGY PREDICTED BY IDOCK:   -4.16 KCAL/MOL
REMARK 923 INTER-LIGAND FREE ENERGY PREDICTED BY IDOCK:   -3.71 KCAL/MOL
REMARK 924 INTRA-LIGAND FREE ENERGY PREDICTED BY IDOCK:   -0.45 KCAL/MOL
REMARK 927      BINDING AFFINITY PREDICTED BY RF-SCORE:    0.00 PKD
ROOT
HETATM    1  C   UNL     1     -10.473   6.458  73.980  1.00  0.00    -0.286 C  
HETATM    2  C   UNL     1     -10.927   7.046  72.655  1.00  0.00    -0.313 C  
ENDROOT
BRANCH   2   3
HETATM    3  C   UNL     1     -10.144   8.313  72.321  1.00  0.00    -0.370 C  
BRANCH   3   4
HETATM    4  C   UNL     1      -8.763   8.289  72.969  1.00  0.00    -0.287 C  
BRANCH   4   5
HETATM    5  C   UNL     1      -7.857   7.290  72.260  1.00  0.00    -0.097 C  
BRANCH   5   6
HETATM    6  C   UNL     1      -6.824   8.009  71.404  1.00  0.00    -0.053 C  
BRANCH   6   7
HETATM    7  C   UNL     1      -5.457   7.357  71.565  1.00  0.00    -0.035 C  
BRANCH   7   8
HETATM    8  C   UNL     1      -5.166   6.433  70.393  1.00  0.00    -0.014 C  
BRANCH   8   9
HETATM    9  C   UNL     1      -5.909   5.113  70.563  1.00  0.00    -0.017 C  
BRANCH   9  10
HETATM   10  C   UNL     1      -5.799   4.282  69.295  1.00  0.00    -0.018 C  
BRANCH  10  11
HETATM   11  C   UNL     1      -7.173   4.021  68.701  1.00  0.00    -0.055 C  
BRANCH  11  12
HETATM   12  C   UNL     1      -8.246   4.580  69.619  1.00  0.00    -0.066 C  
BRANCH  12  13
HETATM   13  C   UNL     1      -9.493   4.982  68.841  1.00  0.00    -0.195 C  
BRANCH  13  14
HETATM   14  C   UNL     1      -9.816   4.000  67.715  1.00  0.00    -0.088 C  
BRANCH  14  15
HETATM   15  C   UNL     1      -9.100   4.281  66.391  1.00  0.00    -0.130 C  
BRANCH  15  16
HETATM   16  C   UNL     1      -9.298   5.717  65.895  1.00  0.00    -0.103 C  
BRANCH  16  17
HETATM   17  N   UNL     1      -7.983   6.501  65.730  1.00  0.00    -0.108 N  
HETATM   18  C   UNL     1      -6.828   5.557  65.417  1.00  0.00    -0.056 C  
HETATM   19  C   UNL     1      -8.115   7.529  64.607  1.00  0.00    -0.101 C  
BRANCH  17  20
HETATM   20  C   UNL     1      -7.718   7.247  67.084  1.00  0.00    -0.112 C  
BRANCH  20  21
HETATM   21  C   UNL     1      -8.884   8.061  67.586  1.00  0.00    -0.125 A  
HETATM   22  C   UNL     1      -9.924   8.429  66.716  1.00  0.00    -0.354 A  
HETATM   23  C   UNL     1     -10.852   9.397  67.100  1.00  0.00    -0.132 A  
HETATM   24  C   UNL     1     -10.770   9.978  68.363  1.00  0.00    -0.271 A  
HETATM   25  C   UNL     1      -9.801   9.551  69.266  1.00  0.00    -0.184 A  
HETATM   26  C   UNL     1      -8.877   8.578  68.890  1.00  0.00    -0.139 A  
ENDBRANCH  20  21
ENDBRANCH  17  20
ENDBRANCH  16  17
ENDBRANCH  15  16
ENDBRANCH  14  15
ENDBRANCH  13  14
ENDBRANCH  12  13
ENDBRANCH  11  12
ENDBRANCH  10  11
ENDBRANCH   9  10
ENDBRANCH   8   9
ENDBRANCH   7   8
ENDBRANCH   6   7
ENDBRANCH   5   6
ENDBRANCH   4   5
ENDBRANCH   3   4
ENDBRANCH   2   3
TORSDOF 17
ENDMDL
MODEL      434
REMARK 921   NORMALIZED FREE ENERGY PREDICTED BY IDOCK:   -0.47 KCAL/MOL
REMARK 922        TOTAL FREE ENERGY PREDICTED BY IDOCK:   -3.78 KCAL/MOL
REMARK 923 INTER-LIGAND FREE ENERGY PREDICTED BY IDOCK:   -2.75 KCAL/MOL
REMARK 924 INTRA-LIGAND FREE ENERGY PREDICTED BY IDOCK:   -1.03 KCAL/MOL
REMARK 927      BINDING AFFINITY PREDICTED BY RF-SCORE:    0.00 PKD
ROOT
HETATM    1  C   UNL     1      -8.152   7.243  67.690  1.00  0.00    -0.114 C  
HETATM    2  C   UNL     1      -9.623   7.545  67.463  1.00  0.00    -0.175 C  
ENDROOT
BRANCH   2   3
HETATM    3  C   UNL     1      -9.801   8.654  66.430  1.00  0.00    -0.341 C  
BRANCH   3   4
HETATM    4  C   UNL     1      -8.571   8.769  65.534  1.00  0.00    -0.198 C  
BRANCH   4   5
HETATM    5  C   UNL     1      -8.854   8.174  64.160  1.00  0.00     0.492 C  
BRANCH   5   6
HETATM    6  C   UNL     1      -8.202   9.009  63.065  1.00  0.00    -0.184 C  
BRANCH   6   7
HETATM    7  C   UNL     1      -6.715   8.694  62.976  1.00  0.00    -0.090 C  
BRANCH   7   8
HETATM    8  C   UNL     1      -6.500   7.268  62.493  1.00  0.00    -0.057 C  
BRANCH   8   9
HETATM    9  C   UNL     1      -5.172   6.729  63.011  1.00  0.00    -0.031 C  
BRANCH   9  10
HETATM   10  C   UNL     1      -5.141   5.214  62.898  1.00  0.00    -0.009 C  
BRANCH  10  11
HETATM   11  C   UNL     1      -6.093   4.579  63.898  1.00  0.00    -0.018 C  
BRANCH  11  12
HETATM   12  C   UNL     1      -6.335   5.532  65.056  1.00  0.00    -0.038 C  
BRANCH  12  13
HETATM   13  C   UNL     1      -5.459   5.189  66.254  1.00  0.00    -0.013 C  
BRANCH  13  14
HETATM   14  C   UNL     1      -5.873   3.876  66.918  1.00  0.00    -0.023 C  
BRANCH  14  15
HETATM   15  C   UNL     1      -7.176   3.942  67.719  1.00  0.00    -0.063 C  
BRANCH  15  16
HETATM   16  C   UNL     1      -6.962   3.791  69.228  1.00  0.00    -0.046 C  
BRANCH  16  17
HETATM   17  N   UNL     1      -8.228   4.060  70.062  1.00  0.00    -0.057 N  
HETATM   18  C   UNL     1      -9.406   4.404  69.159  1.00  0.00    -0.155 C  
HETATM   19  C   UNL     1      -8.579   2.836  70.906  1.00  0.00    -0.063 C  
BRANCH  17  20
HETATM   20  C   UNL     1      -7.907   5.267  71.012  1.00  0.00    -0.102 C  
BRANCH  20  21
HETATM   21  C   UNL     1      -8.997   6.308  71.087  1.00  0.00    -0.146 A  
HETATM   22  C   UNL     1      -8.691   7.670  70.938  1.00  0.00    -0.138 A  
HETATM   23  C   UNL     1      -9.634   8.642  71.275  1.00  0.00    -0.292 A  
HETATM   24  C   UNL     1     -10.895   8.262  71.728  1.00  0.00    -0.332 A  
HETATM   25  C   UNL     1     -11.238   6.915  71.788  1.00  0.00    -0.284 A  
HETATM   26  C   UNL     1     -10.302   5.940  71.445  1.00  0.00    -0.271 A  
ENDBRANCH  20  21
ENDBRANCH  17  20
ENDBRANCH  16  17
ENDBRANCH  15  16
ENDBRANCH  14  15
ENDBRANCH  13  14
ENDBRANCH  12  13
ENDBRANCH  11  12
ENDBRANCH  10  11
ENDBRANCH   9  10
ENDBRANCH   8   9
ENDBRANCH   7   8
ENDBRANCH   6   7
ENDBRANCH   5   6
ENDBRANCH   4   5
ENDBRANCH   3   4
ENDBRANCH   2   3
TORSDOF 17
ENDMDL
MODEL      435
REMARK 921   NORMALIZED FREE ENERGY PREDICTED BY IDOCK:   -0.37 KCAL/MOL
REMARK 922        TOTAL FREE ENERGY PREDICTED BY IDOCK:   -3.58 KCAL/MOL
REMARK 923 INTER-LIGAND FREE ENERGY PREDICTED BY IDOCK:   -2.41 KCAL/MOL
REMARK 924 INTRA-LIGAND FREE ENERGY PREDICTED BY IDOCK:   -1.17 KCAL/MOL
REMARK 927      BINDING AFFINITY PREDICTED BY RF-SCORE:    0.00 PKD
ROOT
HETATM    1  C   UNL     1      -7.377  14.260  70.787  1.00  0.00     1.451 C  
HETATM    2  C   UNL     1      -5.973  13.786  71.119  1.00  0.00    -0.098 C  
ENDROOT
BRANCH   2   3
HETATM    3  C   UNL     1      -5.777  12.327  70.712  1.00  0.00    -0.085 C  
BRANCH   3   4
HETATM    4  C   UNL     1      -5.889  12.162  69.199  1.00  0.00    -0.070 C  
BRANCH   4   5
HETATM    5  C   UNL     1      -7.297  11.728  68.813  1.00  0.00    -0.114 C  
BRANCH   5   6
HETATM    6  C   UNL     1      -7.635  12.184  67.399  1.00  0.00    -0.155 C  
BRANCH   6   7
HETATM    7  C   UNL     1      -8.088  13.638  67.407  1.00  0.00    -0.184 C  
BRANCH   7   8
HETATM    8  C   UNL     1      -9.495  13.760  66.842  1.00  0.00    -0.265 C  
BRANCH   8   9
HETATM    9  C   UNL     1     -10.518  13.276  67.861  1.00  0.00    -0.244 C  
BRANCH   9  10
HETATM   10  C   UNL     1     -11.090  11.933  67.433  1.00  0.00    -0.336 C  
BRANCH  10  11
HETATM   11  C   UNL     1     -12.076  11.413  68.465  1.00  0.00    -0.168 C  
BRANCH  11  12
HETATM   12  C   UNL     1     -11.323  10.857  69.662  1.00  0.00    -0.362 C  
BRANCH  12  13
HETATM   13  C   UNL     1     -10.511   9.624  69.288  1.00  0.00    -0.232 C  
BRANCH  13  14
HETATM   14  C   UNL     1      -9.838   8.982  70.501  1.00  0.00    -0.263 C  
BRANCH  14  15
HETATM   15  C   UNL     1      -8.402   8.505  70.262  1.00  0.00    -0.125 C  
BRANCH  15  16
HETATM   16  C   UNL     1      -8.320   7.038  69.831  1.00  0.00    -0.139 C  
BRANCH  16  17
HETATM   17  N   UNL     1      -7.994   6.850  68.338  1.00  0.00    -0.121 N  
HETATM   18  C   UNL     1      -9.259   6.549  67.543  1.00  0.00    -0.113 C  
HETATM   19  C   UNL     1      -7.330   8.106  67.776  1.00  0.00    -0.093 C  
BRANCH  17  20
HETATM   20  C   UNL     1      -6.992   5.647  68.233  1.00  0.00    -0.068 C  
BRANCH  20  21
HETATM   21  C   UNL     1      -7.553   4.326  68.701  1.00  0.00    -0.063 A  
HETATM   22  C   UNL     1      -8.187   3.460  67.794  1.00  0.00    -0.086 A  
HETATM   23  C   UNL     1      -8.939   2.382  68.261  1.00  0.00    -0.187 A  
HETATM   24  C   UNL     1      -9.033   2.141  69.630  1.00  0.00    -0.156 A  
HETATM   25  C   UNL     1      -8.332   2.937  70.530  1.00  0.00    -0.083 A  
HETATM   26  C   UNL     1      -7.573   4.010  70.067  1.00  0.00    -0.049 A  
ENDBRANCH  20  21
ENDBRANCH  17  20
ENDBRANCH  16  17
ENDBRANCH  15  16
ENDBRANCH  14  15
ENDBRANCH  13  14
ENDBRANCH  12  13
ENDBRANCH  11  12
ENDBRANCH  10  11
ENDBRANCH   9  10
ENDBRANCH   8   9
ENDBRANCH   7   8
ENDBRANCH   6   7
ENDBRANCH   5   6
ENDBRANCH   4   5
ENDBRANCH   3   4
ENDBRANCH   2   3
TORSDOF 17
ENDMDL
MODEL      436
REMARK 921   NORMALIZED FREE ENERGY PREDICTED BY IDOCK:   -0.29 KCAL/MOL
REMARK 922        TOTAL FREE ENERGY PREDICTED BY IDOCK:   -3.41 KCAL/MOL
REMARK 923 INTER-LIGAND FREE ENERGY PREDICTED BY IDOCK:   -4.15 KCAL/MOL
REMARK 924 INTRA-LIGAND FREE ENERGY PREDICTED BY IDOCK:    0.74 KCAL/MOL
REMARK 927      BINDING AFFINITY PREDICTED BY RF-SCORE:    0.00 PKD
ROOT
HETATM    1  C   UNL     1     -10.162  11.860  69.233  1.00  0.00     0.199 C  
HETATM    2  C   UNL     1     -11.395  10.981  69.358  1.00  0.00    -0.352 C  
ENDROOT
BRANCH   2   3
HETATM    3  C   UNL     1     -11.016   9.502  69.357  1.00  0.00    -0.192 C  
BRANCH   3   4
HETATM    4  C   UNL     1     -11.596   8.788  70.574  1.00  0.00    -0.170 C  
BRANCH   4   5
HETATM    5  C   UNL     1     -10.724   9.028  71.800  1.00  0.00    -0.437 C  
BRANCH   5   6
HETATM    6  C   UNL     1     -10.809   7.852  72.763  1.00  0.00    -0.451 C  
BRANCH   6   7
HETATM    7  C   UNL     1     -10.879   6.541  71.992  1.00  0.00    -0.267 C  
BRANCH   7   8
HETATM    8  C   UNL     1      -9.905   6.558  70.823  1.00  0.00    -0.201 C  
BRANCH   8   9
HETATM    9  C   UNL     1      -8.870   5.452  70.983  1.00  0.00    -0.149 C  
BRANCH   9  10
HETATM   10  C   UNL     1      -8.748   4.657  69.692  1.00  0.00    -0.111 C  
BRANCH  10  11
HETATM   11  C   UNL     1      -9.311   5.443  68.520  1.00  0.00    -0.144 C  
BRANCH  11  12
HETATM   12  C   UNL     1      -8.245   6.369  67.961  1.00  0.00    -0.116 C  
BRANCH  12  13
HETATM   13  C   UNL     1      -8.838   7.704  67.525  1.00  0.00    -0.124 C  
BRANCH  13  14
HETATM   14  C   UNL     1      -7.761   8.743  67.212  1.00  0.00    -0.096 C  
BRANCH  14  15
HETATM   15  C   UNL     1      -8.291  10.078  66.681  1.00  0.00    -0.125 C  
BRANCH  15  16
HETATM   16  C   UNL     1      -9.778  10.032  66.319  1.00  0.00    -0.214 C  
BRANCH  16  17
HETATM   17  N   UNL     1     -10.269  11.278  65.560  1.00  0.00    -0.249 N  
HETATM   18  C   UNL     1      -9.507  11.448  64.252  1.00  0.00    -0.133 C  
HETATM   19  C   UNL     1     -11.764  11.167  65.264  1.00  0.00     0.695 C  
BRANCH  17  20
HETATM   20  C   UNL     1     -10.019  12.515  66.493  1.00  0.00    -0.244 C  
BRANCH  20  21
HETATM   21  C   UNL     1     -10.274  13.850  65.840  1.00  0.00    -0.326 A  
HETATM   22  C   UNL     1      -9.317  14.876  65.917  1.00  0.00    -0.216 A  
HETATM   23  C   UNL     1      -9.655  16.181  65.559  1.00  0.00    -0.057 A  
HETATM   24  C   UNL     1     -10.936  16.464  65.090  1.00  0.00    -0.242 A  
HETATM   25  C   UNL     1     -11.860  15.438  64.921  1.00  0.00    -0.095 A  
HETATM   26  C   UNL     1     -11.524  14.131  65.270  1.00  0.00    -0.330 A  
ENDBRANCH  20  21
ENDBRANCH  17  20
ENDBRANCH  16  17
ENDBRANCH  15  16
ENDBRANCH  14  15
ENDBRANCH  13  14
ENDBRANCH  12  13
ENDBRANCH  11  12
ENDBRANCH  10  11
ENDBRANCH   9  10
ENDBRANCH   8   9
ENDBRANCH   7   8
ENDBRANCH   6   7
ENDBRANCH   5   6
ENDBRANCH   4   5
ENDBRANCH   3   4
ENDBRANCH   2   3
TORSDOF 17
ENDMDL
MODEL      437
REMARK 921   NORMALIZED FREE ENERGY PREDICTED BY IDOCK:   -0.26 KCAL/MOL
REMARK 922        TOTAL FREE ENERGY PREDICTED BY IDOCK:   -3.36 KCAL/MOL
REMARK 923 INTER-LIGAND FREE ENERGY PREDICTED BY IDOCK:   -3.55 KCAL/MOL
REMARK 924 INTRA-LIGAND FREE ENERGY PREDICTED BY IDOCK:    0.19 KCAL/MOL
REMARK 927      BINDING AFFINITY PREDICTED BY RF-SCORE:    0.00 PKD
ROOT
HETATM    1  C   UNL     1      -9.792  11.817  69.128  1.00  0.00     0.198 C  
HETATM    2  C   UNL     1     -10.706  10.736  68.577  1.00  0.00    -0.245 C  
ENDROOT
BRANCH   2   3
HETATM    3  C   UNL     1      -9.928   9.455  68.289  1.00  0.00    -0.197 C  
BRANCH   3   4
HETATM    4  C   UNL     1     -10.422   8.307  69.165  1.00  0.00    -0.217 C  
BRANCH   4   5
HETATM    5  C   UNL     1      -9.806   8.394  70.556  1.00  0.00    -0.204 C  
BRANCH   5   6
HETATM    6  C   UNL     1      -9.106   7.092  70.920  1.00  0.00    -0.153 C  
BRANCH   6   7
HETATM    7  C   UNL     1      -8.371   6.531  69.710  1.00  0.00    -0.127 C  
BRANCH   7   8
HETATM    8  C   UNL     1      -7.562   7.622  69.026  1.00  0.00    -0.104 C  
BRANCH   8   9
HETATM    9  C   UNL     1      -6.089   7.234  68.975  1.00  0.00    -0.027 C  
BRANCH   9  10
HETATM   10  C   UNL     1      -5.420   7.872  67.768  1.00  0.00    -0.033 C  
BRANCH  10  11
HETATM   11  C   UNL     1      -5.942   9.281  67.544  1.00  0.00    -0.049 C  
BRANCH  11  12
HETATM   12  C   UNL     1      -5.598  10.154  68.739  1.00  0.00    -0.038 C  
BRANCH  12  13
HETATM   13  C   UNL     1      -6.363  11.471  68.706  1.00  0.00    -0.054 C  
BRANCH  13  14
HETATM   14  C   UNL     1      -5.884  12.393  67.585  1.00  0.00    -0.127 C  
BRANCH  14  15
HETATM   15  C   UNL     1      -6.550  13.772  67.557  1.00  0.00    -0.113 C  
BRANCH  15  16
HETATM   16  C   UNL     1      -5.745  14.843  68.299  1.00  0.00    -0.115 C  
BRANCH  16  17
HETATM   17  N   UNL     1      -6.381  16.243  68.245  1.00  0.00    -0.120 N  
HETATM   18  C   UNL     1      -7.423  16.404  69.345  1.00  0.00    -0.122 C  
HETATM   19  C   UNL     1      -5.310  17.321  68.402  1.00  0.00    -0.136 C  
BRANCH  17  20
HETATM   20  C   UNL     1      -7.058  16.389  66.837  1.00  0.00    -0.221 C  
BRANCH  20  21
HETATM   21  C   UNL     1      -8.566  16.374  66.865  1.00  0.00    -0.245 A  
HETATM   22  C   UNL     1      -9.283  17.518  67.253  1.00  0.00    -0.240 A  
HETATM   23  C   UNL     1     -10.645  17.430  67.542  1.00  0.00    -0.330 A  
HETATM   24  C   UNL     1     -11.306  16.210  67.412  1.00  0.00     0.061 A  
HETATM   25  C   UNL     1     -10.625  15.094  66.938  1.00  0.00    -0.297 A  
HETATM   26  C   UNL     1      -9.266  15.180  66.640  1.00  0.00    -0.298 A  
ENDBRANCH  20  21
ENDBRANCH  17  20
ENDBRANCH  16  17
ENDBRANCH  15  16
ENDBRANCH  14  15
ENDBRANCH  13  14
ENDBRANCH  12  13
ENDBRANCH  11  12
ENDBRANCH  10  11
ENDBRANCH   9  10
ENDBRANCH   8   9
ENDBRANCH   7   8
ENDBRANCH   6   7
ENDBRANCH   5   6
ENDBRANCH   4   5
ENDBRANCH   3   4
ENDBRANCH   2   3
TORSDOF 17
ENDMDL
MODEL      438
REMARK 921   NORMALIZED FREE ENERGY PREDICTED BY IDOCK:   -0.20 KCAL/MOL
REMARK 922        TOTAL FREE ENERGY PREDICTED BY IDOCK:   -3.24 KCAL/MOL
REMARK 923 INTER-LIGAND FREE ENERGY PREDICTED BY IDOCK:   -1.85 KCAL/MOL
REMARK 924 INTRA-LIGAND FREE ENERGY PREDICTED BY IDOCK:   -1.39 KCAL/MOL
REMARK 927      BINDING AFFINITY PREDICTED BY RF-SCORE:    0.00 PKD
ROOT
HETATM    1  C   UNL     1      -8.156   7.235  67.682  1.00  0.00    -0.114 C  
HETATM    2  C   UNL     1      -9.636   7.494  67.461  1.00  0.00    -0.175 C  
ENDROOT
BRANCH   2   3
HETATM    3  C   UNL     1      -9.852   8.577  66.407  1.00  0.00    -0.327 C  
BRANCH   3   4
HETATM    4  C   UNL     1      -8.642   8.687  65.483  1.00  0.00    -0.200 C  
BRANCH   4   5
HETATM    5  C   UNL     1      -8.938   8.041  64.135  1.00  0.00     0.824 C  
BRANCH   5   6
HETATM    6  C   UNL     1      -8.351   8.868  62.999  1.00  0.00    -0.190 C  
BRANCH   6   7
HETATM    7  C   UNL     1      -6.851   8.631  62.893  1.00  0.00    -0.090 C  
BRANCH   7   8
HETATM    8  C   UNL     1      -6.565   7.189  62.500  1.00  0.00    -0.053 C  
BRANCH   8   9
HETATM    9  C   UNL     1      -5.211   6.752  63.043  1.00  0.00    -0.031 C  
BRANCH   9  10
HETATM   10  C   UNL     1      -5.140   5.235  63.116  1.00  0.00    -0.009 C  
BRANCH  10  11
HETATM   11  C   UNL     1      -6.130   4.697  64.135  1.00  0.00    -0.022 C  
BRANCH  11  12
HETATM   12  C   UNL     1      -5.931   5.398  65.468  1.00  0.00    -0.025 C  
BRANCH  12  13
HETATM   13  C   UNL     1      -5.136   4.535  66.440  1.00  0.00    -0.008 C  
BRANCH  13  14
HETATM   14  C   UNL     1      -5.958   3.365  66.982  1.00  0.00    -0.024 C  
BRANCH  14  15
HETATM   15  C   UNL     1      -6.671   3.640  68.309  1.00  0.00    -0.046 C  
BRANCH  15  16
HETATM   16  C   UNL     1      -6.045   2.896  69.492  1.00  0.00    -0.024 C  
BRANCH  16  17
HETATM   17  N   UNL     1      -6.577   3.353  70.862  1.00  0.00    -0.030 N  
HETATM   18  C   UNL     1      -6.887   2.153  71.748  1.00  0.00    -0.023 C  
HETATM   19  C   UNL     1      -5.552   4.247  71.560  1.00  0.00    -0.008 C  
BRANCH  17  20
HETATM   20  C   UNL     1      -7.885   4.179  70.597  1.00  0.00    -0.052 C  
BRANCH  20  21
HETATM   21  C   UNL     1      -8.707   4.459  71.831  1.00  0.00    -0.131 A  
HETATM   22  C   UNL     1      -9.754   3.599  72.200  1.00  0.00    -0.231 A  
HETATM   23  C   UNL     1     -10.679   3.993  73.167  1.00  0.00    -0.272 A  
HETATM   24  C   UNL     1     -10.544   5.229  73.796  1.00  0.00    -0.330 A  
HETATM   25  C   UNL     1      -9.456   6.046  73.505  1.00  0.00    -0.139 A  
HETATM   26  C   UNL     1      -8.525   5.652  72.545  1.00  0.00    -0.117 A  
ENDBRANCH  20  21
ENDBRANCH  17  20
ENDBRANCH  16  17
ENDBRANCH  15  16
ENDBRANCH  14  15
ENDBRANCH  13  14
ENDBRANCH  12  13
ENDBRANCH  11  12
ENDBRANCH  10  11
ENDBRANCH   9  10
ENDBRANCH   8   9
ENDBRANCH   7   8
ENDBRANCH   6   7
ENDBRANCH   5   6
ENDBRANCH   4   5
ENDBRANCH   3   4
ENDBRANCH   2   3
TORSDOF 17
ENDMDL
MODEL      439
REMARK 921   NORMALIZED FREE ENERGY PREDICTED BY IDOCK:    0.41 KCAL/MOL
REMARK 922        TOTAL FREE ENERGY PREDICTED BY IDOCK:   -2.03 KCAL/MOL
REMARK 923 INTER-LIGAND FREE ENERGY PREDICTED BY IDOCK:   -1.86 KCAL/MOL
REMARK 924 INTRA-LIGAND FREE ENERGY PREDICTED BY IDOCK:   -0.17 KCAL/MOL
REMARK 927      BINDING AFFINITY PREDICTED BY RF-SCORE:    0.00 PKD
ROOT
HETATM    1  C   UNL     1      -7.553  11.520  70.511  1.00  0.00     2.853 C  
HETATM    2  C   UNL     1      -6.261  11.559  69.712  1.00  0.00    -0.138 C  
ENDROOT
BRANCH   2   3
HETATM    3  C   UNL     1      -6.375  10.714  68.446  1.00  0.00    -0.054 C  
BRANCH   3   4
HETATM    4  C   UNL     1      -7.513   9.704  68.563  1.00  0.00    -0.079 C  
BRANCH   4   5
HETATM    5  C   UNL     1      -7.005   8.293  68.299  1.00  0.00    -0.076 C  
BRANCH   5   6
HETATM    6  C   UNL     1      -5.840   8.311  67.318  1.00  0.00    -0.043 C  
BRANCH   6   7
HETATM    7  C   UNL     1      -6.344   8.096  65.897  1.00  0.00    -0.045 C  
BRANCH   7   8
HETATM    8  C   UNL     1      -7.510   9.026  65.598  1.00  0.00    -0.086 C  
BRANCH   8   9
HETATM    9  C   UNL     1      -8.800   8.228  65.461  1.00  0.00    -0.152 C  
BRANCH   9  10
HETATM   10  C   UNL     1      -9.989   9.077  65.881  1.00  0.00    -0.169 C  
BRANCH  10  11
HETATM   11  C   UNL     1      -9.855   9.514  67.330  1.00  0.00    -0.228 C  
BRANCH  11  12
HETATM   12  C   UNL     1     -11.026  10.403  67.710  1.00  0.00    -0.369 C  
BRANCH  12  13
HETATM   13  C   UNL     1     -10.688  11.293  68.900  1.00  0.00    -0.246 C  
BRANCH  13  14
HETATM   14  C   UNL     1     -11.902  11.559  69.790  1.00  0.00    -0.429 C  
BRANCH  14  15
HETATM   15  C   UNL     1     -11.933  10.755  71.093  1.00  0.00    -0.361 C  
BRANCH  15  16
HETATM   16  C   UNL     1     -10.983   9.554  71.080  1.00  0.00    -0.353 C  
BRANCH  16  17
HETATM   17  N   UNL     1     -11.662   8.225  71.460  1.00  0.00    -0.280 N  
HETATM   18  C   UNL     1     -13.160   8.422  71.658  1.00  0.00    -0.334 C  
HETATM   19  C   UNL     1     -11.429   7.178  70.371  1.00  0.00    -0.278 C  
BRANCH  17  20
HETATM   20  C   UNL     1     -11.002   7.735  72.796  1.00  0.00    -0.388 C  
BRANCH  20  21
HETATM   21  C   UNL     1      -9.495   7.813  72.813  1.00  0.00    -0.274 A  
HETATM   22  C   UNL     1      -8.731   7.018  71.943  1.00  0.00    -0.127 A  
HETATM   23  C   UNL     1      -7.357   6.883  72.139  1.00  0.00    -0.087 A  
HETATM   24  C   UNL     1      -6.732   7.568  73.179  1.00  0.00    -0.068 A  
HETATM   25  C   UNL     1      -7.465   8.432  73.987  1.00  0.00    -0.192 A  
HETATM   26  C   UNL     1      -8.837   8.576  73.789  1.00  0.00     0.146 A  
ENDBRANCH  20  21
ENDBRANCH  17  20
ENDBRANCH  16  17
ENDBRANCH  15  16
ENDBRANCH  14  15
ENDBRANCH  13  14
ENDBRANCH  12  13
ENDBRANCH  11  12
ENDBRANCH  10  11
ENDBRANCH   9  10
ENDBRANCH   8   9
ENDBRANCH   7   8
ENDBRANCH   6   7
ENDBRANCH   5   6
ENDBRANCH   4   5
ENDBRANCH   3   4
ENDBRANCH   2   3
TORSDOF 17
ENDMDL
MODEL      440
REMARK 921   NORMALIZED FREE ENERGY PREDICTED BY IDOCK:    4.73 KCAL/MOL
REMARK 922        TOTAL FREE ENERGY PREDICTED BY IDOCK:    6.59 KCAL/MOL
REMARK 923 INTER-LIGAND FREE ENERGY PREDICTED BY IDOCK:    6.62 KCAL/MOL
REMARK 924 INTRA-LIGAND FREE ENERGY PREDICTED BY IDOCK:   -0.02 KCAL/MOL
REMARK 927      BINDING AFFINITY PREDICTED BY RF-SCORE:    0.00 PKD
ROOT
HETATM    1  C   UNL     1      -8.550  11.639  70.992  1.00  0.00     8.389 C  
HETATM    2  C   UNL     1      -7.529  10.790  70.253  1.00  0.00     0.608 C  
ENDROOT
BRANCH   2   3
HETATM    3  C   UNL     1      -8.213   9.826  69.288  1.00  0.00    -0.132 C  
BRANCH   3   4
HETATM    4  C   UNL     1      -9.721  10.062  69.258  1.00  0.00    -0.227 C  
BRANCH   4   5
HETATM    5  C   UNL     1     -10.462   8.851  69.810  1.00  0.00    -0.217 C  
BRANCH   5   6
HETATM    6  C   UNL     1      -9.597   7.601  69.724  1.00  0.00    -0.163 C  
BRANCH   6   7
HETATM    7  C   UNL     1      -9.912   6.827  68.452  1.00  0.00    -0.153 C  
BRANCH   7   8
HETATM    8  C   UNL     1      -9.941   7.762  67.252  1.00  0.00    -0.277 C  
BRANCH   8   9
HETATM    9  C   UNL     1      -8.612   7.710  66.510  1.00  0.00    -0.142 C  
BRANCH   9  10
HETATM   10  C   UNL     1      -8.752   6.886  65.240  1.00  0.00     0.068 C  
BRANCH  10  11
HETATM   11  C   UNL     1      -9.484   5.585  65.519  1.00  0.00     0.039 C  
BRANCH  11  12
HETATM   12  C   UNL     1      -9.222   4.596  64.396  1.00  0.00    -0.090 C  
BRANCH  12  13
HETATM   13  C   UNL     1     -10.130   3.376  64.504  1.00  0.00    -0.121 C  
BRANCH  13  14
HETATM   14  C   UNL     1      -9.390   2.073  64.201  1.00  0.00    -0.126 C  
BRANCH  14  15
HETATM   15  C   UNL     1      -8.608   1.489  65.381  1.00  0.00    -0.106 C  
BRANCH  15  16
HETATM   16  C   UNL     1      -8.219   2.542  66.423  1.00  0.00    -0.087 C  
BRANCH  16  17
HETATM   17  N   UNL     1      -6.720   2.537  66.778  1.00  0.00    -0.039 N  
HETATM   18  C   UNL     1      -5.965   1.537  65.911  1.00  0.00    -0.018 C  
HETATM   19  C   UNL     1      -6.123   3.930  66.581  1.00  0.00    -0.028 C  
BRANCH  17  20
HETATM   20  C   UNL     1      -6.605   2.135  68.290  1.00  0.00    -0.029 C  
BRANCH  20  21
HETATM   21  C   UNL     1      -7.386   3.019  69.231  1.00  0.00    -0.045 A  
HETATM   22  C   UNL     1      -7.008   4.356  69.431  1.00  0.00    -0.050 A  
HETATM   23  C   UNL     1      -7.548   5.088  70.489  1.00  0.00    -0.070 A  
HETATM   24  C   UNL     1      -8.492   4.503  71.330  1.00  0.00    -0.116 A  
HETATM   25  C   UNL     1      -8.942   3.210  71.082  1.00  0.00    -0.164 A  
HETATM   26  C   UNL     1      -8.411   2.478  70.021  1.00  0.00    -0.088 A  
ENDBRANCH  20  21
ENDBRANCH  17  20
ENDBRANCH  16  17
ENDBRANCH  15  16
ENDBRANCH  14  15
ENDBRANCH  13  14
ENDBRANCH  12  13
ENDBRANCH  11  12
ENDBRANCH  10  11
ENDBRANCH   9  10
ENDBRANCH   8   9
ENDBRANCH   7   8
ENDBRANCH   6   7
ENDBRANCH   5   6
ENDBRANCH   4   5
ENDBRANCH   3   4
ENDBRANCH   2   3
TORSDOF 17
ENDMDL
MODEL      441
REMARK 921   NORMALIZED FREE ENERGY PREDICTED BY IDOCK:    7.58 KCAL/MOL
REMARK 922        TOTAL FREE ENERGY PREDICTED BY IDOCK:   12.28 KCAL/MOL
REMARK 923 INTER-LIGAND FREE ENERGY PREDICTED BY IDOCK:    8.38 KCAL/MOL
REMARK 924 INTRA-LIGAND FREE ENERGY PREDICTED BY IDOCK:    3.89 KCAL/MOL
REMARK 927      BINDING AFFINITY PREDICTED BY RF-SCORE:    0.00 PKD
ROOT
HETATM    1  C   UNL     1     -11.702  11.380  72.691  1.00  0.00     5.693 C  
HETATM    2  C   UNL     1     -12.410  10.275  71.927  1.00  0.00    -0.239 C  
ENDROOT
BRANCH   2   3
HETATM    3  C   UNL     1     -12.084   8.905  72.517  1.00  0.00    -0.266 C  
BRANCH   3   4
HETATM    4  C   UNL     1     -13.006   7.831  71.947  1.00  0.00    -0.309 C  
BRANCH   4   5
HETATM    5  C   UNL     1     -12.249   6.524  71.754  1.00  0.00    -0.374 C  
BRANCH   5   6
HETATM    6  C   UNL     1     -12.583   5.899  70.406  1.00  0.00     2.470 C  
BRANCH   6   7
HETATM    7  C   UNL     1     -11.538   6.289  69.369  1.00  0.00    -0.172 C  
BRANCH   7   8
HETATM    8  C   UNL     1     -10.764   7.515  69.829  1.00  0.00    -0.249 C  
BRANCH   8   9
HETATM    9  C   UNL     1      -9.815   7.983  68.732  1.00  0.00    -0.176 C  
BRANCH   9  10
HETATM   10  C   UNL     1      -8.545   7.147  68.745  1.00  0.00    -0.125 C  
BRANCH  10  11
HETATM   11  C   UNL     1      -8.056   6.932  70.167  1.00  0.00    -0.127 C  
BRANCH  11  12
HETATM   12  C   UNL     1      -8.504   8.087  71.046  1.00  0.00    -0.134 C  
BRANCH  12  13
HETATM   13  C   UNL     1      -7.900   9.407  70.584  1.00  0.00    -0.178 C  
BRANCH  13  14
HETATM   14  C   UNL     1      -6.703   9.205  69.655  1.00  0.00    -0.046 C  
BRANCH  14  15
HETATM   15  C   UNL     1      -6.993   9.447  68.171  1.00  0.00    -0.075 C  
BRANCH  15  16
HETATM   16  C   UNL     1      -7.290  10.914  67.849  1.00  0.00    -0.088 C  
BRANCH  16  17
HETATM   17  N   UNL     1      -7.768  11.145  66.404  1.00  0.00    -0.147 N  
HETATM   18  C   UNL     1      -7.802  12.634  66.079  1.00  0.00     1.571 C  
HETATM   19  C   UNL     1      -6.844  10.433  65.417  1.00  0.00    -0.120 C  
BRANCH  17  20
HETATM   20  C   UNL     1      -9.210  10.537  66.291  1.00  0.00    -0.168 C  
BRANCH  20  21
HETATM   21  C   UNL     1     -10.097  11.218  65.279  1.00  0.00    -0.318 A  
HETATM   22  C   UNL     1     -11.271  10.594  64.826  1.00  0.00     0.743 A  
HETATM   23  C   UNL     1     -11.941  11.086  63.706  1.00  0.00     1.082 A  
HETATM   24  C   UNL     1     -11.465  12.222  63.054  1.00  0.00    -0.056 A  
HETATM   25  C   UNL     1     -10.358  12.901  63.552  1.00  0.00     0.187 A  
HETATM   26  C   UNL     1      -9.691  12.417  64.676  1.00  0.00     0.008 A  
ENDBRANCH  20  21
ENDBRANCH  17  20
ENDBRANCH  16  17
ENDBRANCH  15  16
ENDBRANCH  14  15
ENDBRANCH  13  14
ENDBRANCH  12  13
ENDBRANCH  11  12
ENDBRANCH  10  11
ENDBRANCH   9  10
ENDBRANCH   8   9
ENDBRANCH   7   8
ENDBRANCH   6   7
ENDBRANCH   5   6
ENDBRANCH   4   5
ENDBRANCH   3   4
ENDBRANCH   2   3
TORSDOF 17
ENDMDL
MODEL      442
REMARK 921   NORMALIZED FREE ENERGY PREDICTED BY IDOCK:   17.85 KCAL/MOL
REMARK 922        TOTAL FREE ENERGY PREDICTED BY IDOCK:   32.74 KCAL/MOL
REMARK 923 INTER-LIGAND FREE ENERGY PREDICTED BY IDOCK:    8.54 KCAL/MOL
REMARK 924 INTRA-LIGAND FREE ENERGY PREDICTED BY IDOCK:   24.20 KCAL/MOL
REMARK 927      BINDING AFFINITY PREDICTED BY RF-SCORE:    0.00 PKD
ROOT
HETATM    1  C   UNL     1     -11.422  11.465  73.012  1.00  0.00     9.691 C  
HETATM    2  C   UNL     1     -12.150  10.465  72.130  1.00  0.00     0.609 C  
ENDROOT
BRANCH   2   3
HETATM    3  C   UNL     1     -11.985   9.043  72.662  1.00  0.00     0.062 C  
BRANCH   3   4
HETATM    4  C   UNL     1     -12.962   8.089  71.983  1.00  0.00    -0.302 C  
BRANCH   4   5
HETATM    5  C   UNL     1     -12.301   6.741  71.726  1.00  0.00    -0.400 C  
BRANCH   5   6
HETATM    6  C   UNL     1     -12.555   6.277  70.298  1.00  0.00     1.322 C  
BRANCH   6   7
HETATM    7  C   UNL     1     -11.337   6.556  69.428  1.00  0.00    -0.395 C  
BRANCH   7   8
HETATM    8  C   UNL     1     -10.324   7.401  70.185  1.00  0.00    -0.219 C  
BRANCH   8   9
HETATM    9  C   UNL     1      -8.938   6.773  70.094  1.00  0.00    -0.149 C  
BRANCH   9  10
HETATM   10  C   UNL     1      -8.915   5.446  70.836  1.00  0.00    -0.156 C  
BRANCH  10  11
HETATM   11  C   UNL     1      -9.881   5.466  72.007  1.00  0.00    -0.212 C  
BRANCH  11  12
HETATM   12  C   UNL     1     -10.261   6.899  72.339  1.00  0.00    -0.208 C  
BRANCH  12  13
HETATM   13  C   UNL     1      -9.044   7.816  72.323  1.00  0.00    -0.201 C  
BRANCH  13  14
HETATM   14  C   UNL     1      -7.730   7.039  72.402  1.00  0.00    -0.094 C  
BRANCH  14  15
HETATM   15  C   UNL     1      -7.211   6.516  71.059  1.00  0.00    -0.078 C  
BRANCH  15  16
HETATM   16  C   UNL     1      -6.834   7.636  70.085  1.00  0.00    -0.050 C  
BRANCH  16  17
HETATM   17  N   UNL     1      -6.452   7.132  68.681  1.00  0.00    -0.035 N  
HETATM   18  C   UNL     1      -5.982   8.285  67.803  1.00  0.00    -0.047 C  
HETATM   19  C   UNL     1      -5.345   6.083  68.775  1.00  0.00    -0.007 C  
BRANCH  17  20
HETATM   20  C   UNL     1      -7.735   6.472  68.063  1.00  0.00    -0.105 C  
BRANCH  20  21
HETATM   21  C   UNL     1      -7.808   6.542  66.558  1.00  0.00    -0.104 A  
HETATM   22  C   UNL     1      -8.691   5.712  65.848  1.00  0.00    -0.147 A  
HETATM   23  C   UNL     1      -8.570   5.577  64.465  1.00  0.00    -0.042 A  
HETATM   24  C   UNL     1      -7.592   6.294  63.779  1.00  0.00    -0.091 A  
HETATM   25  C   UNL     1      -6.775   7.190  64.461  1.00  0.00    -0.046 A  
HETATM   26  C   UNL     1      -6.899   7.335  65.842  1.00  0.00    -0.057 A  
ENDBRANCH  20  21
ENDBRANCH  17  20
ENDBRANCH  16  17
ENDBRANCH  15  16
ENDBRANCH  14  15
ENDBRANCH  13  14
ENDBRANCH  12  13
ENDBRANCH  11  12
ENDBRANCH  10  11
ENDBRANCH   9  10
ENDBRANCH   8   9
ENDBRANCH   7   8
ENDBRANCH   6   7
ENDBRANCH   5   6
ENDBRANCH   4   5
ENDBRANCH   3   4
ENDBRANCH   2   3
TORSDOF 17
ENDMDL
MODEL      443
REMARK 921   NORMALIZED FREE ENERGY PREDICTED BY IDOCK:   41.24 KCAL/MOL
REMARK 922        TOTAL FREE ENERGY PREDICTED BY IDOCK:   79.38 KCAL/MOL
REMARK 923 INTER-LIGAND FREE ENERGY PREDICTED BY IDOCK:   17.61 KCAL/MOL
REMARK 924 INTRA-LIGAND FREE ENERGY PREDICTED BY IDOCK:   61.77 KCAL/MOL
REMARK 927      BINDING AFFINITY PREDICTED BY RF-SCORE:    0.00 PKD
ROOT
HETATM    1  C   UNL     1     -11.383  11.482  73.068  1.00  0.00    10.755 C  
HETATM    2  C   UNL     1     -12.283  10.622  72.198  1.00  0.00     0.648 C  
ENDROOT
BRANCH   2   3
HETATM    3  C   UNL     1     -12.187   9.151  72.596  1.00  0.00     0.019 C  
BRANCH   3   4
HETATM    4  C   UNL     1     -13.394   8.368  72.087  1.00  0.00    -0.341 C  
BRANCH   4   5
HETATM    5  C   UNL     1     -12.955   7.035  71.494  1.00  0.00    -0.411 C  
BRANCH   5   6
HETATM    6  C   UNL     1     -13.681   6.760  70.184  1.00  0.00     3.240 C  
BRANCH   6   7
HETATM    7  C   UNL     1     -12.834   7.215  69.004  1.00  0.00     4.992 C  
BRANCH   7   8
HETATM    8  C   UNL     1     -11.688   8.095  69.479  1.00  0.00     0.798 C  
BRANCH   8   9
HETATM    9  C   UNL     1     -10.356   7.537  68.993  1.00  0.00    -0.217 C  
BRANCH   9  10
HETATM   10  C   UNL     1     -10.125   6.151  69.574  1.00  0.00    -0.232 C  
BRANCH  10  11
HETATM   11  C   UNL     1     -11.270   5.752  70.490  1.00  0.00    -0.200 C  
BRANCH  11  12
HETATM   12  C   UNL     1     -12.258   6.900  70.609  1.00  0.00    -0.311 C  
BRANCH  12  13
HETATM   13  C   UNL     1     -11.571   8.249  70.436  1.00  0.00    -0.060 C  
BRANCH  13  14
HETATM   14  C   UNL     1     -10.353   8.400  71.348  1.00  0.00    -0.285 C  
BRANCH  14  15
HETATM   15  C   UNL     1      -9.102   7.651  70.879  1.00  0.00    -0.149 C  
BRANCH  15  16
HETATM   16  C   UNL     1      -8.584   8.137  69.522  1.00  0.00    -0.134 C  
BRANCH  16  17
HETATM   17  N   UNL     1      -7.477   7.247  68.928  1.00  0.00    -0.099 N  
HETATM   18  C   UNL     1      -7.944   6.600  67.630  1.00  0.00    -0.115 C  
HETATM   19  C   UNL     1      -6.219   8.072  68.659  1.00  0.00    -0.044 C  
BRANCH  17  20
HETATM   20  C   UNL     1      -7.151   6.143  69.994  1.00  0.00    -0.072 C  
BRANCH  20  21
HETATM   21  C   UNL     1      -6.669   4.837  69.412  1.00  0.00    -0.045 A  
HETATM   22  C   UNL     1      -6.022   3.890  70.223  1.00  0.00    -0.018 A  
HETATM   23  C   UNL     1      -5.341   2.819  69.645  1.00  0.00    -0.012 A  
HETATM   24  C   UNL     1      -5.330   2.666  68.261  1.00  0.00    -0.013 A  
HETATM   25  C   UNL     1      -6.047   3.545  67.455  1.00  0.00    -0.028 A  
HETATM   26  C   UNL     1      -6.736   4.612  68.029  1.00  0.00    -0.054 A  
ENDBRANCH  20  21
ENDBRANCH  17  20
ENDBRANCH  16  17
ENDBRANCH  15  16
ENDBRANCH  14  15
ENDBRANCH  13  14
ENDBRANCH  12  13
ENDBRANCH  11  12
ENDBRANCH  10  11
ENDBRANCH   9  10
ENDBRANCH   8   9
ENDBRANCH   7   8
ENDBRANCH   6   7
ENDBRANCH   5   6
ENDBRANCH   4   5
ENDBRANCH   3   4
ENDBRANCH   2   3
TORSDOF 17
ENDMDL
