MODEL        1
REMARK 921   NORMALIZED FREE ENERGY PREDICTED BY IDOCK:   -6.88 KCAL/MOL
REMARK 922        TOTAL FREE ENERGY PREDICTED BY IDOCK:  -10.38 KCAL/MOL
REMARK 923 INTER-LIGAND FREE ENERGY PREDICTED BY IDOCK:   -9.69 KCAL/MOL
REMARK 924 INTRA-LIGAND FREE ENERGY PREDICTED BY IDOCK:   -0.68 KCAL/MOL
REMARK 927      BINDING AFFINITY PREDICTED BY RF-SCORE:    0.00 PKD
ROOT
HETATM    1  O   UNL     1     -13.195  12.029  64.161  1.00  0.00    -0.712 OA 
HETATM    2  C   UNL     1     -12.285  12.778  63.491  1.00  0.00    -0.525 C  
HETATM    3  C   UNL     1     -10.912  12.124  63.447  1.00  0.00    -0.412 C  
HETATM    4  O   UNL     1     -12.547  13.859  62.983  1.00  0.00    -0.694 OA 
ENDROOT
BRANCH   3   5
HETATM    5  O   UNL     1     -10.905  10.913  64.217  1.00  0.00    -0.309 OA 
BRANCH   5   6
HETATM    6  C   UNL     1      -9.840  10.891  65.188  1.00  0.00    -0.275 C  
BRANCH   6   7
HETATM    7  C   UNL     1     -10.315  11.295  66.602  1.00  0.00    -0.237 C  
BRANCH   7   8
HETATM    8  N   UNL     1     -11.151  12.510  66.664  1.00  0.00    -0.270 NA 
HETATM    9  C   UNL     1     -11.900  12.631  67.935  1.00  0.00    -0.332 C  
HETATM   10  C   UNL     1     -11.041  13.040  69.160  1.00  0.00    -0.192 C  
HETATM   11  N   UNL     1     -10.272  14.298  68.985  1.00  0.00    -0.194 NA 
HETATM   12  C   UNL     1      -9.497  14.158  67.728  1.00  0.00    -0.207 C  
HETATM   13  C   UNL     1     -10.318  13.725  66.485  1.00  0.00    -0.286 C  
BRANCH  11  14
HETATM   14  C   UNL     1     -11.166  15.500  69.001  1.00  0.00    -0.303 C  
BRANCH  14  15
HETATM   15  C   UNL     1     -11.944  15.619  70.325  1.00  0.00    -0.398 A  
HETATM   16  C   UNL     1     -13.320  15.323  70.359  1.00  0.00    -0.087 A  
HETATM   17  C   UNL     1     -11.306  15.924  71.541  1.00  0.00    -0.384 A  
HETATM   18  C   UNL     1     -14.021  15.307  71.570  1.00  0.00    -0.627 A  
HETATM   19  C   UNL     1     -13.368  15.608  72.761  1.00  0.00    -0.640 A  
HETATM   20  C   UNL     1     -12.013  15.928  72.746  1.00  0.00    -0.616 A  
ENDBRANCH  14  15
BRANCH  14  21
HETATM   21  C   UNL     1     -10.441  16.806  68.632  1.00  0.00    -0.333 A  
HETATM   22  C   UNL     1      -9.127  19.150  67.790  1.00  0.00    -0.299 A  
HETATM   23 CL   UNL     1      -8.315  20.565  67.247  1.00  0.00    -0.388 Cl 
HETATM   24  C   UNL     1      -8.441  18.203  68.543  1.00  0.00    -0.312 A  
HETATM   25  C   UNL     1     -11.118  17.788  67.884  1.00  0.00     0.070 A  
HETATM   26  C   UNL     1      -9.091  17.035  68.954  1.00  0.00    -0.208 A  
HETATM   27  C   UNL     1     -10.464  18.949  67.458  1.00  0.00    -0.522 A  
ENDBRANCH  14  21
ENDBRANCH  11  14
ENDBRANCH   7   8
ENDBRANCH   6   7
ENDBRANCH   5   6
ENDBRANCH   3   5
TORSDOF 7
ENDMDL
MODEL        2
REMARK 921   NORMALIZED FREE ENERGY PREDICTED BY IDOCK:   -6.70 KCAL/MOL
REMARK 922        TOTAL FREE ENERGY PREDICTED BY IDOCK:  -10.12 KCAL/MOL
REMARK 923 INTER-LIGAND FREE ENERGY PREDICTED BY IDOCK:  -10.48 KCAL/MOL
REMARK 924 INTRA-LIGAND FREE ENERGY PREDICTED BY IDOCK:    0.36 KCAL/MOL
REMARK 927      BINDING AFFINITY PREDICTED BY RF-SCORE:    0.00 PKD
ROOT
HETATM    1  O   UNL     1     -13.206  12.511  64.739  1.00  0.00    -0.839 OA 
HETATM    2  C   UNL     1     -12.036  12.390  64.064  1.00  0.00    -0.475 C  
HETATM    3  C   UNL     1     -11.219  13.673  64.081  1.00  0.00    -0.272 C  
HETATM    4  O   UNL     1     -11.687  11.361  63.505  1.00  0.00    -0.297 OA 
ENDROOT
BRANCH   3   5
HETATM    5  O   UNL     1     -11.945  14.726  64.732  1.00  0.00    -0.411 OA 
BRANCH   5   6
HETATM    6  C   UNL     1     -11.127  15.455  65.668  1.00  0.00    -0.271 C  
BRANCH   6   7
HETATM    7  C   UNL     1      -9.759  14.778  65.916  1.00  0.00    -0.323 C  
BRANCH   7   8
HETATM    8  N   UNL     1      -9.480  14.416  67.319  1.00  0.00    -0.209 NA 
HETATM    9  C   UNL     1     -10.142  15.316  68.290  1.00  0.00    -0.225 C  
HETATM   10  C   UNL     1     -11.672  15.103  68.436  1.00  0.00    -0.316 C  
HETATM   11  N   UNL     1     -12.074  13.717  68.782  1.00  0.00    -0.348 NA 
HETATM   12  C   UNL     1     -11.436  12.822  67.786  1.00  0.00    -0.326 C  
HETATM   13  C   UNL     1      -9.910  13.022  67.593  1.00  0.00    -0.212 C  
BRANCH  11  14
HETATM   14  C   UNL     1     -11.724  13.375  70.198  1.00  0.00    -0.196 C  
BRANCH  14  15
HETATM   15  C   UNL     1     -12.309  14.394  71.195  1.00  0.00    -0.428 A  
HETATM   16  C   UNL     1     -13.704  14.521  71.331  1.00  0.00    -0.448 A  
HETATM   17  C   UNL     1     -11.491  15.147  72.057  1.00  0.00    -0.450 A  
HETATM   18  C   UNL     1     -14.257  15.350  72.313  1.00  0.00    -0.639 A  
HETATM   19  C   UNL     1     -13.428  16.083  73.158  1.00  0.00    -0.587 A  
HETATM   20  C   UNL     1     -12.047  15.991  73.022  1.00  0.00    -0.628 A  
ENDBRANCH  14  15
BRANCH  14  21
HETATM   21  C   UNL     1     -12.064  11.924  70.579  1.00  0.00    -0.422 A  
HETATM   22  C   UNL     1     -12.628   9.302  71.437  1.00  0.00    -0.336 A  
HETATM   23 CL   UNL     1     -12.947   7.704  71.985  1.00  0.00    -0.263 Cl 
HETATM   24  C   UNL     1     -11.657   9.520  70.464  1.00  0.00    -0.316 A  
HETATM   25  C   UNL     1     -13.054  11.676  71.550  1.00  0.00    -0.405 A  
HETATM   26  C   UNL     1     -11.372  10.823  70.045  1.00  0.00    -0.397 A  
HETATM   27  C   UNL     1     -13.329  10.374  71.982  1.00  0.00    -0.440 A  
ENDBRANCH  14  21
ENDBRANCH  11  14
ENDBRANCH   7   8
ENDBRANCH   6   7
ENDBRANCH   5   6
ENDBRANCH   3   5
TORSDOF 7
ENDMDL
MODEL        3
REMARK 921   NORMALIZED FREE ENERGY PREDICTED BY IDOCK:   -6.68 KCAL/MOL
REMARK 922        TOTAL FREE ENERGY PREDICTED BY IDOCK:  -10.10 KCAL/MOL
REMARK 923 INTER-LIGAND FREE ENERGY PREDICTED BY IDOCK:   -9.28 KCAL/MOL
REMARK 924 INTRA-LIGAND FREE ENERGY PREDICTED BY IDOCK:   -0.82 KCAL/MOL
REMARK 927      BINDING AFFINITY PREDICTED BY RF-SCORE:    0.00 PKD
ROOT
HETATM    1  O   UNL     1      -6.714  18.541  64.968  1.00  0.00    -0.515 OA 
HETATM    2  C   UNL     1      -6.221  18.008  66.113  1.00  0.00    -0.227 C  
HETATM    3  C   UNL     1      -6.707  18.742  67.353  1.00  0.00    -0.202 C  
HETATM    4  O   UNL     1      -5.468  17.045  66.136  1.00  0.00    -0.336 OA 
ENDROOT
BRANCH   3   5
HETATM    5  O   UNL     1      -7.496  19.884  66.987  1.00  0.00    -0.233 OA 
BRANCH   5   6
HETATM    6  C   UNL     1      -8.843  19.800  67.491  1.00  0.00    -0.326 C  
BRANCH   6   7
HETATM    7  C   UNL     1      -9.056  18.585  68.423  1.00  0.00    -0.322 C  
BRANCH   7   8
HETATM    8  N   UNL     1     -10.336  17.873  68.249  1.00  0.00    -0.380 NA 
HETATM    9  C   UNL     1     -10.469  17.243  66.917  1.00  0.00    -0.272 C  
HETATM   10  C   UNL     1      -9.617  15.963  66.714  1.00  0.00    -0.236 C  
HETATM   11  N   UNL     1      -9.846  14.899  67.725  1.00  0.00    -0.216 NA 
HETATM   12  C   UNL     1      -9.677  15.528  69.058  1.00  0.00    -0.237 C  
HETATM   13  C   UNL     1     -10.495  16.826  69.289  1.00  0.00    -0.331 C  
BRANCH  11  14
HETATM   14  C   UNL     1     -11.178  14.240  67.543  1.00  0.00    -0.307 C  
BRANCH  14  15
HETATM   15  C   UNL     1     -11.289  13.537  66.177  1.00  0.00    -0.325 A  
HETATM   16  C   UNL     1     -10.170  12.879  65.633  1.00  0.00    -0.295 A  
HETATM   17  C   UNL     1     -12.509  13.444  65.483  1.00  0.00    -0.534 A  
HETATM   18  C   UNL     1     -10.278  12.134  64.455  1.00  0.00    -0.333 A  
HETATM   19  C   UNL     1     -11.496  12.052  63.787  1.00  0.00    -0.547 A  
HETATM   20  C   UNL     1     -12.609  12.717  64.294  1.00  0.00    -0.453 A  
ENDBRANCH  14  15
BRANCH  14  21
HETATM   21  C   UNL     1     -11.566  13.314  68.709  1.00  0.00    -0.350 A  
HETATM   22  C   UNL     1     -12.385  11.536  70.734  1.00  0.00    -0.375 A  
HETATM   23 CL   UNL     1     -12.915  10.446  71.953  1.00  0.00    -0.559 Cl 
HETATM   24  C   UNL     1     -12.680  12.891  70.839  1.00  0.00    -0.291 A  
HETATM   25  C   UNL     1     -11.264  11.940  68.634  1.00  0.00    -0.311 A  
HETATM   26  C   UNL     1     -12.281  13.772  69.829  1.00  0.00    -0.368 A  
HETATM   27  C   UNL     1     -11.677  11.055  69.635  1.00  0.00    -0.401 A  
ENDBRANCH  14  21
ENDBRANCH  11  14
ENDBRANCH   7   8
ENDBRANCH   6   7
ENDBRANCH   5   6
ENDBRANCH   3   5
TORSDOF 7
ENDMDL
MODEL        4
REMARK 921   NORMALIZED FREE ENERGY PREDICTED BY IDOCK:   -6.64 KCAL/MOL
REMARK 922        TOTAL FREE ENERGY PREDICTED BY IDOCK:  -10.04 KCAL/MOL
REMARK 923 INTER-LIGAND FREE ENERGY PREDICTED BY IDOCK:  -10.06 KCAL/MOL
REMARK 924 INTRA-LIGAND FREE ENERGY PREDICTED BY IDOCK:    0.02 KCAL/MOL
REMARK 927      BINDING AFFINITY PREDICTED BY RF-SCORE:    0.00 PKD
ROOT
HETATM    1  O   UNL     1     -10.145  19.979  65.210  1.00  0.00    -0.229 OA 
HETATM    2  C   UNL     1      -9.867  19.751  66.517  1.00  0.00    -0.436 C  
HETATM    3  C   UNL     1      -9.467  18.307  66.784  1.00  0.00    -0.300 C  
HETATM    4  O   UNL     1      -9.935  20.615  67.379  1.00  0.00    -0.438 OA 
ENDROOT
BRANCH   3   5
HETATM    5  O   UNL     1      -9.580  17.523  65.587  1.00  0.00    -0.510 OA 
BRANCH   5   6
HETATM    6  C   UNL     1     -10.637  16.547  65.673  1.00  0.00    -0.304 C  
BRANCH   6   7
HETATM    7  C   UNL     1     -10.106  15.111  65.882  1.00  0.00    -0.325 C  
BRANCH   7   8
HETATM    8  N   UNL     1      -9.750  14.766  67.272  1.00  0.00    -0.227 NA 
HETATM    9  C   UNL     1     -10.573  15.483  68.273  1.00  0.00    -0.255 C  
HETATM   10  C   UNL     1     -12.027  14.963  68.412  1.00  0.00    -0.221 C  
HETATM   11  N   UNL     1     -12.141  13.514  68.712  1.00  0.00    -0.326 NA 
HETATM   12  C   UNL     1     -11.344  12.798  67.686  1.00  0.00    -0.310 C  
HETATM   13  C   UNL     1      -9.890  13.306  67.499  1.00  0.00    -0.220 C  
BRANCH  11  14
HETATM   14  C   UNL     1     -11.720  13.203  70.115  1.00  0.00    -0.178 C  
BRANCH  14  15
HETATM   15  C   UNL     1     -12.317  14.199  71.127  1.00  0.00    -0.447 A  
HETATM   16  C   UNL     1     -13.710  14.254  71.320  1.00  0.00    -0.328 A  
HETATM   17  C   UNL     1     -11.506  15.004  71.948  1.00  0.00    -0.368 A  
HETATM   18  C   UNL     1     -14.266  15.063  72.316  1.00  0.00    -0.594 A  
HETATM   19  C   UNL     1     -13.444  15.847  73.120  1.00  0.00    -0.650 A  
HETATM   20  C   UNL     1     -12.066  15.827  72.929  1.00  0.00    -0.596 A  
ENDBRANCH  14  15
BRANCH  14  21
HETATM   21  C   UNL     1     -11.971  11.740  70.519  1.00  0.00    -0.383 A  
HETATM   22  C   UNL     1     -12.377   9.102  71.420  1.00  0.00    -0.333 A  
HETATM   23 CL   UNL     1     -12.601   7.497  71.994  1.00  0.00    -0.296 Cl 
HETATM   24  C   UNL     1     -11.405   9.366  70.460  1.00  0.00    -0.328 A  
HETATM   25  C   UNL     1     -12.961  11.445  71.477  1.00  0.00    -0.505 A  
HETATM   26  C   UNL     1     -11.198  10.677  70.019  1.00  0.00    -0.382 A  
HETATM   27  C   UNL     1     -13.157  10.136  71.931  1.00  0.00    -0.571 A  
ENDBRANCH  14  21
ENDBRANCH  11  14
ENDBRANCH   7   8
ENDBRANCH   6   7
ENDBRANCH   5   6
ENDBRANCH   3   5
TORSDOF 7
ENDMDL
MODEL        5
REMARK 921   NORMALIZED FREE ENERGY PREDICTED BY IDOCK:   -6.60 KCAL/MOL
REMARK 922        TOTAL FREE ENERGY PREDICTED BY IDOCK:   -9.98 KCAL/MOL
REMARK 923 INTER-LIGAND FREE ENERGY PREDICTED BY IDOCK:   -9.34 KCAL/MOL
REMARK 924 INTRA-LIGAND FREE ENERGY PREDICTED BY IDOCK:   -0.65 KCAL/MOL
REMARK 927      BINDING AFFINITY PREDICTED BY RF-SCORE:    0.00 PKD
ROOT
HETATM    1  O   UNL     1      -7.556  20.880  67.434  1.00  0.00    -0.345 OA 
HETATM    2  C   UNL     1      -8.766  20.422  67.026  1.00  0.00    -0.287 C  
HETATM    3  C   UNL     1      -8.652  19.222  66.099  1.00  0.00    -0.257 C  
HETATM    4  O   UNL     1      -9.825  20.927  67.370  1.00  0.00    -0.444 OA 
ENDROOT
BRANCH   3   5
HETATM    5  O   UNL     1      -7.276  18.935  65.812  1.00  0.00    -0.356 OA 
BRANCH   5   6
HETATM    6  C   UNL     1      -6.964  17.537  65.975  1.00  0.00    -0.261 C  
BRANCH   6   7
HETATM    7  C   UNL     1      -7.088  17.067  67.442  1.00  0.00    -0.157 C  
BRANCH   7   8
HETATM    8  N   UNL     1      -7.580  15.688  67.624  1.00  0.00    -0.144 NA 
HETATM    9  C   UNL     1      -8.012  15.409  69.012  1.00  0.00    -0.202 C  
HETATM   10  C   UNL     1      -9.365  16.050  69.414  1.00  0.00    -0.218 C  
HETATM   11  N   UNL     1     -10.503  15.704  68.525  1.00  0.00    -0.231 NA 
HETATM   12  C   UNL     1     -10.078  16.020  67.139  1.00  0.00    -0.270 C  
HETATM   13  C   UNL     1      -8.715  15.416  66.708  1.00  0.00    -0.269 C  
BRANCH  11  14
HETATM   14  C   UNL     1     -10.935  14.282  68.705  1.00  0.00    -0.255 C  
BRANCH  14  15
HETATM   15  C   UNL     1     -11.956  14.133  69.850  1.00  0.00    -0.398 A  
HETATM   16  C   UNL     1     -12.137  12.883  70.471  1.00  0.00    -0.364 A  
HETATM   17  C   UNL     1     -12.659  15.235  70.370  1.00  0.00    -0.421 A  
HETATM   18  C   UNL     1     -12.967  12.750  71.588  1.00  0.00    -0.402 A  
HETATM   19  C   UNL     1     -13.650  13.855  72.089  1.00  0.00    -0.599 A  
HETATM   20  C   UNL     1     -13.505  15.094  71.473  1.00  0.00    -0.549 A  
ENDBRANCH  14  15
BRANCH  14  21
HETATM   21  C   UNL     1     -11.417  13.619  67.404  1.00  0.00    -0.365 A  
HETATM   22  C   UNL     1     -12.142  12.434  64.953  1.00  0.00    -0.407 A  
HETATM   23 CL   UNL     1     -12.560  11.730  63.442  1.00  0.00    -0.612 Cl 
HETATM   24  C   UNL     1     -12.753  13.616  65.360  1.00  0.00    -0.500 A  
HETATM   25  C   UNL     1     -10.826  12.414  66.978  1.00  0.00    -0.282 A  
HETATM   26  C   UNL     1     -12.387  14.208  66.573  1.00  0.00    -0.405 A  
HETATM   27  C   UNL     1     -11.179  11.830  65.757  1.00  0.00    -0.337 A  
ENDBRANCH  14  21
ENDBRANCH  11  14
ENDBRANCH   7   8
ENDBRANCH   6   7
ENDBRANCH   5   6
ENDBRANCH   3   5
TORSDOF 7
ENDMDL
MODEL        6
REMARK 921   NORMALIZED FREE ENERGY PREDICTED BY IDOCK:   -6.55 KCAL/MOL
REMARK 922        TOTAL FREE ENERGY PREDICTED BY IDOCK:   -9.91 KCAL/MOL
REMARK 923 INTER-LIGAND FREE ENERGY PREDICTED BY IDOCK:   -8.84 KCAL/MOL
REMARK 924 INTRA-LIGAND FREE ENERGY PREDICTED BY IDOCK:   -1.07 KCAL/MOL
REMARK 927      BINDING AFFINITY PREDICTED BY RF-SCORE:    0.00 PKD
ROOT
HETATM    1  O   UNL     1      -8.644  19.421  65.514  1.00  0.00    -0.223 OA 
HETATM    2  C   UNL     1      -9.800  19.879  66.055  1.00  0.00    -0.417 C  
HETATM    3  C   UNL     1      -9.631  20.323  67.500  1.00  0.00    -0.425 C  
HETATM    4  O   UNL     1     -10.857  19.926  65.442  1.00  0.00    -0.398 OA 
ENDROOT
BRANCH   3   5
HETATM    5  O   UNL     1      -8.298  20.050  67.959  1.00  0.00    -0.287 OA 
BRANCH   5   6
HETATM    6  C   UNL     1      -8.272  19.038  68.985  1.00  0.00    -0.188 C  
BRANCH   6   7
HETATM    7  C   UNL     1      -8.267  17.604  68.407  1.00  0.00    -0.289 C  
BRANCH   7   8
HETATM    8  N   UNL     1      -9.578  16.929  68.383  1.00  0.00    -0.246 NA 
HETATM    9  C   UNL     1      -9.956  16.451  67.034  1.00  0.00    -0.261 C  
HETATM   10  C   UNL     1      -9.188  15.192  66.551  1.00  0.00    -0.287 C  
HETATM   11  N   UNL     1      -9.272  14.026  67.466  1.00  0.00    -0.189 NA 
HETATM   12  C   UNL     1      -8.859  14.503  68.809  1.00  0.00    -0.153 C  
HETATM   13  C   UNL     1      -9.587  15.775  69.317  1.00  0.00    -0.270 C  
BRANCH  11  14
HETATM   14  C   UNL     1     -10.634  13.405  67.449  1.00  0.00    -0.251 C  
BRANCH  14  15
HETATM   15  C   UNL     1     -10.975  12.808  66.070  1.00  0.00    -0.306 A  
HETATM   16  C   UNL     1     -12.223  13.076  65.478  1.00  0.00    -0.521 A  
HETATM   17  C   UNL     1     -10.037  12.070  65.325  1.00  0.00    -0.289 A  
HETATM   18  C   UNL     1     -12.509  12.646  64.178  1.00  0.00    -0.488 A  
HETATM   19  C   UNL     1     -11.564  11.921  63.458  1.00  0.00    -0.537 A  
HETATM   20  C   UNL     1     -10.333  11.623  64.035  1.00  0.00    -0.405 A  
ENDBRANCH  14  15
BRANCH  14  21
HETATM   21  C   UNL     1     -10.863  12.401  68.592  1.00  0.00    -0.273 A  
HETATM   22  C   UNL     1     -11.328  10.445  70.565  1.00  0.00    -0.341 A  
HETATM   23 CL   UNL     1     -11.634   9.236  71.748  1.00  0.00    -0.455 Cl 
HETATM   24  C   UNL     1     -12.130  11.582  70.512  1.00  0.00    -0.472 A  
HETATM   25  C   UNL     1     -10.055  11.251  68.678  1.00  0.00    -0.216 A  
HETATM   26  C   UNL     1     -11.904  12.548  69.526  1.00  0.00    -0.375 A  
HETATM   27  C   UNL     1     -10.291  10.275  69.652  1.00  0.00    -0.281 A  
ENDBRANCH  14  21
ENDBRANCH  11  14
ENDBRANCH   7   8
ENDBRANCH   6   7
ENDBRANCH   5   6
ENDBRANCH   3   5
TORSDOF 7
ENDMDL
MODEL        7
REMARK 921   NORMALIZED FREE ENERGY PREDICTED BY IDOCK:   -6.52 KCAL/MOL
REMARK 922        TOTAL FREE ENERGY PREDICTED BY IDOCK:   -9.87 KCAL/MOL
REMARK 923 INTER-LIGAND FREE ENERGY PREDICTED BY IDOCK:   -9.69 KCAL/MOL
REMARK 924 INTRA-LIGAND FREE ENERGY PREDICTED BY IDOCK:   -0.19 KCAL/MOL
REMARK 927      BINDING AFFINITY PREDICTED BY RF-SCORE:    0.00 PKD
ROOT
HETATM    1  O   UNL     1     -13.188  12.507  64.646  1.00  0.00    -0.848 OA 
HETATM    2  C   UNL     1     -12.410  13.475  64.101  1.00  0.00    -0.328 C  
HETATM    3  C   UNL     1     -11.117  12.924  63.520  1.00  0.00    -0.240 C  
HETATM    4  O   UNL     1     -12.721  14.657  64.085  1.00  0.00    -0.738 OA 
ENDROOT
BRANCH   3   5
HETATM    5  O   UNL     1     -11.003  11.518  63.784  1.00  0.00    -0.375 OA 
BRANCH   5   6
HETATM    6  C   UNL     1      -9.679  11.151  64.221  1.00  0.00    -0.271 C  
BRANCH   6   7
HETATM    7  C   UNL     1      -9.694  10.053  65.308  1.00  0.00    -0.306 C  
BRANCH   7   8
HETATM    8  N   UNL     1      -9.277  10.491  66.654  1.00  0.00    -0.155 NA 
HETATM    9  C   UNL     1      -9.973  11.719  67.101  1.00  0.00    -0.203 C  
HETATM   10  C   UNL     1     -11.453  11.512  67.519  1.00  0.00    -0.282 C  
HETATM   11  N   UNL     1     -11.663  10.484  68.569  1.00  0.00    -0.337 NA 
HETATM   12  C   UNL     1     -10.993   9.246  68.100  1.00  0.00    -0.002 C  
HETATM   13  C   UNL     1      -9.518   9.417  67.650  1.00  0.00    -0.132 C  
BRANCH  11  14
HETATM   14  C   UNL     1     -11.178  10.952  69.907  1.00  0.00    -0.282 C  
BRANCH  14  15
HETATM   15  C   UNL     1     -12.070  12.068  70.482  1.00  0.00    -0.402 A  
HETATM   16  C   UNL     1     -12.890  11.808  71.596  1.00  0.00    -0.433 A  
HETATM   17  C   UNL     1     -12.026  13.385  69.989  1.00  0.00    -0.407 A  
HETATM   18  C   UNL     1     -13.615  12.835  72.209  1.00  0.00    -0.563 A  
HETATM   19  C   UNL     1     -13.553  14.132  71.707  1.00  0.00    -0.483 A  
HETATM   20  C   UNL     1     -12.769  14.405  70.590  1.00  0.00    -0.421 A  
ENDBRANCH  14  15
BRANCH  14  21
HETATM   21  C   UNL     1     -10.956   9.807  70.911  1.00  0.00    -0.411 A  
HETATM   22  C   UNL     1     -10.626   7.812  72.870  1.00  0.00    -0.366 A  
HETATM   23 CL   UNL     1     -10.424   6.617  74.091  1.00  0.00    -0.341 Cl 
HETATM   24  C   UNL     1      -9.510   8.433  72.318  1.00  0.00    -0.367 A  
HETATM   25  C   UNL     1     -12.068   9.151  71.473  1.00  0.00    -0.422 A  
HETATM   26  C   UNL     1      -9.675   9.430  71.351  1.00  0.00    -0.126 A  
HETATM   27  C   UNL     1     -11.905   8.166  72.452  1.00  0.00    -0.448 A  
ENDBRANCH  14  21
ENDBRANCH  11  14
ENDBRANCH   7   8
ENDBRANCH   6   7
ENDBRANCH   5   6
ENDBRANCH   3   5
TORSDOF 7
ENDMDL
MODEL        8
REMARK 921   NORMALIZED FREE ENERGY PREDICTED BY IDOCK:   -6.52 KCAL/MOL
REMARK 922        TOTAL FREE ENERGY PREDICTED BY IDOCK:   -9.87 KCAL/MOL
REMARK 923 INTER-LIGAND FREE ENERGY PREDICTED BY IDOCK:  -10.06 KCAL/MOL
REMARK 924 INTRA-LIGAND FREE ENERGY PREDICTED BY IDOCK:    0.19 KCAL/MOL
REMARK 927      BINDING AFFINITY PREDICTED BY RF-SCORE:    0.00 PKD
ROOT
HETATM    1  O   UNL     1     -13.061  11.848  63.682  1.00  0.00    -0.696 OA 
HETATM    2  C   UNL     1     -12.184  12.867  63.505  1.00  0.00    -0.512 C  
HETATM    3  C   UNL     1     -10.736  12.412  63.614  1.00  0.00    -0.455 C  
HETATM    4  O   UNL     1     -12.527  14.019  63.285  1.00  0.00    -0.795 OA 
ENDROOT
BRANCH   3   5
HETATM    5  O   UNL     1     -10.668  11.025  63.976  1.00  0.00    -0.379 OA 
BRANCH   5   6
HETATM    6  C   UNL     1      -9.324  10.608  64.288  1.00  0.00    -0.258 C  
BRANCH   6   7
HETATM    7  C   UNL     1      -9.203   9.993  65.701  1.00  0.00    -0.186 C  
BRANCH   7   8
HETATM    8  N   UNL     1     -10.482   9.755  66.396  1.00  0.00    -0.168 NA 
HETATM    9  C   UNL     1     -10.382   8.717  67.447  1.00  0.00    -0.284 C  
HETATM   10  C   UNL     1      -9.650   9.167  68.739  1.00  0.00    -0.159 C  
HETATM   11  N   UNL     1     -10.213  10.382  69.379  1.00  0.00    -0.227 NA 
HETATM   12  C   UNL     1     -10.279  11.430  68.330  1.00  0.00    -0.193 C  
HETATM   13  C   UNL     1     -10.982  11.009  67.012  1.00  0.00    -0.272 C  
BRANCH  11  14
HETATM   14  C   UNL     1     -11.535  10.106  70.026  1.00  0.00    -0.277 C  
BRANCH  14  15
HETATM   15  C   UNL     1     -11.441   8.967  71.059  1.00  0.00    -0.351 A  
HETATM   16  C   UNL     1     -12.311   7.865  70.969  1.00  0.00    -0.180 A  
HETATM   17  C   UNL     1     -10.441   8.938  72.048  1.00  0.00    -0.383 A  
HETATM   18  C   UNL     1     -12.166   6.764  71.820  1.00  0.00    -0.402 A  
HETATM   19  C   UNL     1     -11.167   6.755  72.789  1.00  0.00    -0.267 A  
HETATM   20  C   UNL     1     -10.312   7.847  72.911  1.00  0.00    -0.413 A  
ENDBRANCH  14  15
BRANCH  14  21
HETATM   21  C   UNL     1     -12.207  11.363  70.605  1.00  0.00    -0.484 A  
HETATM   22  C   UNL     1     -13.281  13.718  71.716  1.00  0.00    -0.386 A  
HETATM   23 CL   UNL     1     -13.910  15.157  72.416  1.00  0.00    -0.574 Cl 
HETATM   24  C   UNL     1     -13.619  12.480  72.254  1.00  0.00    -0.443 A  
HETATM   25  C   UNL     1     -11.895  12.627  70.067  1.00  0.00    -0.358 A  
HETATM   26  C   UNL     1     -13.079  11.312  71.707  1.00  0.00    -0.527 A  
HETATM   27  C   UNL     1     -12.421  13.797  70.624  1.00  0.00    -0.429 A  
ENDBRANCH  14  21
ENDBRANCH  11  14
ENDBRANCH   7   8
ENDBRANCH   6   7
ENDBRANCH   5   6
ENDBRANCH   3   5
TORSDOF 7
ENDMDL
MODEL        9
REMARK 921   NORMALIZED FREE ENERGY PREDICTED BY IDOCK:   -6.48 KCAL/MOL
REMARK 922        TOTAL FREE ENERGY PREDICTED BY IDOCK:   -9.82 KCAL/MOL
REMARK 923 INTER-LIGAND FREE ENERGY PREDICTED BY IDOCK:   -9.47 KCAL/MOL
REMARK 924 INTRA-LIGAND FREE ENERGY PREDICTED BY IDOCK:   -0.35 KCAL/MOL
REMARK 927      BINDING AFFINITY PREDICTED BY RF-SCORE:    0.00 PKD
ROOT
HETATM    1  O   UNL     1      -9.231   9.606  63.794  1.00  0.00    -0.248 OA 
HETATM    2  C   UNL     1      -8.952  10.722  63.077  1.00  0.00    -0.255 C  
HETATM    3  C   UNL     1     -10.070  11.751  63.145  1.00  0.00    -0.354 C  
HETATM    4  O   UNL     1      -7.916  10.875  62.447  1.00  0.00    -0.182 OA 
ENDROOT
BRANCH   3   5
HETATM    5  O   UNL     1     -11.189  11.234  63.880  1.00  0.00    -0.356 OA 
BRANCH   5   6
HETATM    6  C   UNL     1     -12.355  12.073  63.760  1.00  0.00    -0.496 C  
BRANCH   6   7
HETATM    7  C   UNL     1     -12.003  13.534  63.399  1.00  0.00    -0.256 C  
BRANCH   7   8
HETATM    8  N   UNL     1     -12.441  14.549  64.376  1.00  0.00    -0.673 NA 
HETATM    9  C   UNL     1     -12.909  13.958  65.650  1.00  0.00    -0.424 C  
HETATM   10  C   UNL     1     -11.783  13.417  66.569  1.00  0.00    -0.373 C  
HETATM   11  N   UNL     1     -10.730  14.407  66.908  1.00  0.00    -0.289 NA 
HETATM   12  C   UNL     1     -10.240  14.971  65.626  1.00  0.00    -0.360 C  
HETATM   13  C   UNL     1     -11.339  15.500  64.668  1.00  0.00    -0.357 C  
BRANCH  11  14
HETATM   14  C   UNL     1     -11.233  15.448  67.860  1.00  0.00    -0.329 C  
BRANCH  14  15
HETATM   15  C   UNL     1     -11.765  14.823  69.164  1.00  0.00    -0.344 A  
HETATM   16  C   UNL     1     -12.439  15.626  70.103  1.00  0.00    -0.311 A  
HETATM   17  C   UNL     1     -11.685  13.441  69.415  1.00  0.00    -0.382 A  
HETATM   18  C   UNL     1     -13.035  15.060  71.235  1.00  0.00    -0.448 A  
HETATM   19  C   UNL     1     -12.947  13.689  71.461  1.00  0.00    -0.443 A  
HETATM   20  C   UNL     1     -12.262  12.881  70.558  1.00  0.00    -0.395 A  
ENDBRANCH  14  15
BRANCH  14  21
HETATM   21  C   UNL     1     -10.222  16.576  68.124  1.00  0.00    -0.271 A  
HETATM   22  C   UNL     1      -8.360  18.666  68.436  1.00  0.00    -0.334 A  
HETATM   23 CL   UNL     1      -7.211  19.936  68.595  1.00  0.00    -0.348 Cl 
HETATM   24  C   UNL     1      -8.015  17.369  68.803  1.00  0.00    -0.244 A  
HETATM   25  C   UNL     1     -10.553  17.901  67.777  1.00  0.00    -0.399 A  
HETATM   26  C   UNL     1      -8.937  16.330  68.640  1.00  0.00    -0.232 A  
HETATM   27  C   UNL     1      -9.626  18.937  67.924  1.00  0.00    -0.361 A  
ENDBRANCH  14  21
ENDBRANCH  11  14
ENDBRANCH   7   8
ENDBRANCH   6   7
ENDBRANCH   5   6
ENDBRANCH   3   5
TORSDOF 7
ENDMDL
MODEL       10
REMARK 921   NORMALIZED FREE ENERGY PREDICTED BY IDOCK:   -6.32 KCAL/MOL
REMARK 922        TOTAL FREE ENERGY PREDICTED BY IDOCK:   -9.59 KCAL/MOL
REMARK 923 INTER-LIGAND FREE ENERGY PREDICTED BY IDOCK:   -8.73 KCAL/MOL
REMARK 924 INTRA-LIGAND FREE ENERGY PREDICTED BY IDOCK:   -0.86 KCAL/MOL
REMARK 927      BINDING AFFINITY PREDICTED BY RF-SCORE:    0.00 PKD
ROOT
HETATM    1  O   UNL     1     -10.888  12.465  63.335  1.00  0.00    -0.451 OA 
HETATM    2  C   UNL     1     -12.141  12.841  63.690  1.00  0.00    -0.543 C  
HETATM    3  C   UNL     1     -12.177  14.228  64.316  1.00  0.00    -0.423 C  
HETATM    4  O   UNL     1     -13.126  12.137  63.525  1.00  0.00    -0.785 OA 
ENDROOT
BRANCH   3   5
HETATM    5  O   UNL     1     -10.848  14.751  64.460  1.00  0.00    -0.324 OA 
BRANCH   5   6
HETATM    6  C   UNL     1     -10.711  15.573  65.636  1.00  0.00    -0.366 C  
BRANCH   6   7
HETATM    7  C   UNL     1     -11.297  14.906  66.901  1.00  0.00    -0.337 C  
BRANCH   7   8
HETATM    8  N   UNL     1     -10.360  14.052  67.655  1.00  0.00    -0.240 NA 
HETATM    9  C   UNL     1     -10.842  13.731  69.018  1.00  0.00    -0.217 C  
HETATM   10  C   UNL     1     -11.991  12.691  69.074  1.00  0.00    -0.236 C  
HETATM   11  N   UNL     1     -11.693  11.401  68.402  1.00  0.00    -0.454 NA 
HETATM   12  C   UNL     1     -11.244  11.726  67.026  1.00  0.00    -0.322 C  
HETATM   13  C   UNL     1     -10.112  12.782  66.927  1.00  0.00    -0.232 C  
BRANCH  11  14
HETATM   14  C   UNL     1     -10.699  10.590  69.175  1.00  0.00    -0.231 C  
BRANCH  14  15
HETATM   15  C   UNL     1     -11.337   9.929  70.412  1.00  0.00    -0.376 A  
HETATM   16  C   UNL     1     -12.711  10.095  70.667  1.00  0.00    -0.334 A  
HETATM   17  C   UNL     1     -10.608   9.075  71.260  1.00  0.00    -0.378 A  
HETATM   18  C   UNL     1     -13.336   9.408  71.713  1.00  0.00    -0.489 A  
HETATM   19  C   UNL     1     -12.596   8.564  72.536  1.00  0.00    -0.346 A  
HETATM   20  C   UNL     1     -11.231   8.407  72.318  1.00  0.00    -0.446 A  
ENDBRANCH  14  15
BRANCH  14  21
HETATM   21  C   UNL     1      -9.925   9.582  68.309  1.00  0.00    -0.184 A  
HETATM   22  C   UNL     1      -8.558   7.611  66.833  1.00  0.00    -0.123 A  
HETATM   23 CL   UNL     1      -7.720   6.389  65.961  1.00  0.00    -0.090 Cl 
HETATM   24  C   UNL     1      -7.844   8.623  67.467  1.00  0.00    -0.102 A  
HETATM   25  C   UNL     1     -10.626   8.557  67.643  1.00  0.00    -0.268 A  
HETATM   26  C   UNL     1      -8.523   9.597  68.207  1.00  0.00    -0.118 A  
HETATM   27  C   UNL     1      -9.947   7.574  66.918  1.00  0.00    -0.318 A  
ENDBRANCH  14  21
ENDBRANCH  11  14
ENDBRANCH   7   8
ENDBRANCH   6   7
ENDBRANCH   5   6
ENDBRANCH   3   5
TORSDOF 7
ENDMDL
MODEL       11
REMARK 921   NORMALIZED FREE ENERGY PREDICTED BY IDOCK:   -6.20 KCAL/MOL
REMARK 922        TOTAL FREE ENERGY PREDICTED BY IDOCK:   -9.43 KCAL/MOL
REMARK 923 INTER-LIGAND FREE ENERGY PREDICTED BY IDOCK:   -8.96 KCAL/MOL
REMARK 924 INTRA-LIGAND FREE ENERGY PREDICTED BY IDOCK:   -0.47 KCAL/MOL
REMARK 927      BINDING AFFINITY PREDICTED BY RF-SCORE:    0.00 PKD
ROOT
HETATM    1  O   UNL     1     -11.905   8.133  72.465  1.00  0.00    -0.379 OA 
HETATM    2  C   UNL     1     -12.548   7.294  71.617  1.00  0.00    -0.368 C  
HETATM    3  C   UNL     1     -11.586   6.470  70.774  1.00  0.00    -0.377 C  
HETATM    4  O   UNL     1     -13.765   7.215  71.544  1.00  0.00    -0.377 OA 
ENDROOT
BRANCH   3   5
HETATM    5  O   UNL     1     -10.229   6.865  71.025  1.00  0.00    -0.197 OA 
BRANCH   5   6
HETATM    6  C   UNL     1      -9.444   6.914  69.817  1.00  0.00    -0.145 C  
BRANCH   6   7
HETATM    7  C   UNL     1     -10.019   7.896  68.772  1.00  0.00    -0.187 C  
BRANCH   7   8
HETATM    8  N   UNL     1      -9.511   9.278  68.858  1.00  0.00    -0.152 NA 
HETATM    9  C   UNL     1      -9.732  10.052  67.616  1.00  0.00    -0.158 C  
HETATM   10  C   UNL     1     -11.198  10.501  67.381  1.00  0.00    -0.173 C  
HETATM   11  N   UNL     1     -11.793  11.283  68.493  1.00  0.00    -0.516 NA 
HETATM   12  C   UNL     1     -11.600  10.487  69.730  1.00  0.00    -0.294 C  
HETATM   13  C   UNL     1     -10.150   9.998  69.988  1.00  0.00    -0.239 C  
BRANCH  11  14
HETATM   14  C   UNL     1     -11.211  12.660  68.576  1.00  0.00    -0.279 C  
BRANCH  14  15
HETATM   15  C   UNL     1     -11.282  13.396  67.224  1.00  0.00    -0.319 A  
HETATM   16  C   UNL     1     -10.100  13.843  66.605  1.00  0.00    -0.273 A  
HETATM   17  C   UNL     1     -12.493  13.557  66.526  1.00  0.00    -0.309 A  
HETATM   18  C   UNL     1     -10.128  14.405  65.325  1.00  0.00    -0.387 A  
HETATM   19  C   UNL     1     -11.338  14.550  64.651  1.00  0.00    -0.372 A  
HETATM   20  C   UNL     1     -12.521  14.138  65.256  1.00  0.00    -0.474 A  
ENDBRANCH  14  15
BRANCH  14  21
HETATM   21  C   UNL     1     -11.788  13.501  69.728  1.00  0.00    -0.395 A  
HETATM   22  C   UNL     1     -13.005  15.002  71.777  1.00  0.00    -0.347 A  
HETATM   23 CL   UNL     1     -13.775  15.924  73.007  1.00  0.00    -0.649 Cl 
HETATM   24  C   UNL     1     -12.221  15.640  70.821  1.00  0.00    -0.463 A  
HETATM   25  C   UNL     1     -12.573  12.876  70.717  1.00  0.00    -0.314 A  
HETATM   26  C   UNL     1     -11.624  14.895  69.799  1.00  0.00    -0.339 A  
HETATM   27  C   UNL     1     -13.184  13.622  71.730  1.00  0.00    -0.477 A  
ENDBRANCH  14  21
ENDBRANCH  11  14
ENDBRANCH   7   8
ENDBRANCH   6   7
ENDBRANCH   5   6
ENDBRANCH   3   5
TORSDOF 7
ENDMDL
MODEL       12
REMARK 921   NORMALIZED FREE ENERGY PREDICTED BY IDOCK:   -6.17 KCAL/MOL
REMARK 922        TOTAL FREE ENERGY PREDICTED BY IDOCK:   -9.38 KCAL/MOL
REMARK 923 INTER-LIGAND FREE ENERGY PREDICTED BY IDOCK:   -8.78 KCAL/MOL
REMARK 924 INTRA-LIGAND FREE ENERGY PREDICTED BY IDOCK:   -0.60 KCAL/MOL
REMARK 927      BINDING AFFINITY PREDICTED BY RF-SCORE:    0.00 PKD
ROOT
HETATM    1  O   UNL     1     -10.902  19.669  65.176  1.00  0.00    -0.386 OA 
HETATM    2  C   UNL     1     -10.533  19.135  66.367  1.00  0.00    -0.463 C  
HETATM    3  C   UNL     1     -10.389  17.622  66.306  1.00  0.00    -0.342 C  
HETATM    4  O   UNL     1     -10.342  19.803  67.372  1.00  0.00    -0.406 OA 
ENDROOT
BRANCH   3   5
HETATM    5  O   UNL     1     -10.777  17.129  65.015  1.00  0.00    -0.712 OA 
BRANCH   5   6
HETATM    6  C   UNL     1     -10.764  15.689  64.954  1.00  0.00    -0.382 C  
BRANCH   6   7
HETATM    7  C   UNL     1     -11.293  15.034  66.250  1.00  0.00    -0.273 C  
BRANCH   7   8
HETATM    8  N   UNL     1     -10.328  14.175  66.962  1.00  0.00    -0.266 NA 
HETATM    9  C   UNL     1     -10.674  13.979  68.388  1.00  0.00    -0.251 C  
HETATM   10  C   UNL     1     -11.866  13.020  68.643  1.00  0.00    -0.318 C  
HETATM   11  N   UNL     1     -11.716  11.671  68.042  1.00  0.00    -0.513 NA 
HETATM   12  C   UNL     1     -11.404  11.872  66.605  1.00  0.00    -0.337 C  
HETATM   13  C   UNL     1     -10.232  12.846  66.309  1.00  0.00    -0.278 C  
BRANCH  11  14
HETATM   14  C   UNL     1     -10.689  10.853  68.763  1.00  0.00    -0.207 C  
BRANCH  14  15
HETATM   15  C   UNL     1     -11.251  10.245  70.063  1.00  0.00    -0.376 A  
HETATM   16  C   UNL     1     -12.621  10.370  70.361  1.00  0.00    -0.329 A  
HETATM   17  C   UNL     1     -10.455   9.476  70.931  1.00  0.00    -0.382 A  
HETATM   18  C   UNL     1     -13.175   9.725  71.471  1.00  0.00    -0.493 A  
HETATM   19  C   UNL     1     -12.369   8.965  72.314  1.00  0.00    -0.430 A  
HETATM   20  C   UNL     1     -11.007   8.850  72.051  1.00  0.00    -0.412 A  
ENDBRANCH  14  15
BRANCH  14  21
HETATM   21  C   UNL     1     -10.009   9.800  67.873  1.00  0.00    -0.196 A  
HETATM   22  C   UNL     1      -8.783   7.756  66.371  1.00  0.00    -0.150 A  
HETATM   23 CL   UNL     1      -8.025   6.493  65.484  1.00  0.00    -0.111 Cl 
HETATM   24  C   UNL     1      -8.045   8.869  66.762  1.00  0.00    -0.111 A  
HETATM   25  C   UNL     1     -10.740   8.672  67.450  1.00  0.00    -0.212 A  
HETATM   26  C   UNL     1      -8.652   9.879  67.515  1.00  0.00    -0.122 A  
HETATM   27  C   UNL     1     -10.129   7.653  66.712  1.00  0.00    -0.325 A  
ENDBRANCH  14  21
ENDBRANCH  11  14
ENDBRANCH   7   8
ENDBRANCH   6   7
ENDBRANCH   5   6
ENDBRANCH   3   5
TORSDOF 7
ENDMDL
MODEL       13
REMARK 921   NORMALIZED FREE ENERGY PREDICTED BY IDOCK:   -6.16 KCAL/MOL
REMARK 922        TOTAL FREE ENERGY PREDICTED BY IDOCK:   -9.37 KCAL/MOL
REMARK 923 INTER-LIGAND FREE ENERGY PREDICTED BY IDOCK:   -9.26 KCAL/MOL
REMARK 924 INTRA-LIGAND FREE ENERGY PREDICTED BY IDOCK:   -0.11 KCAL/MOL
REMARK 927      BINDING AFFINITY PREDICTED BY RF-SCORE:    0.00 PKD
ROOT
HETATM    1  O   UNL     1     -10.068   9.533  66.084  1.00  0.00    -0.284 OA 
HETATM    2  C   UNL     1      -9.138   9.447  65.102  1.00  0.00    -0.225 C  
HETATM    3  C   UNL     1      -9.422  10.395  63.947  1.00  0.00    -0.304 C  
HETATM    4  O   UNL     1      -8.181   8.688  65.147  1.00  0.00    -0.133 OA 
ENDROOT
BRANCH   3   5
HETATM    5  O   UNL     1     -10.669  11.077  64.149  1.00  0.00    -0.378 OA 
BRANCH   5   6
HETATM    6  C   UNL     1     -10.617  12.449  63.711  1.00  0.00    -0.452 C  
BRANCH   6   7
HETATM    7  C   UNL     1     -12.020  13.078  63.554  1.00  0.00    -0.545 C  
BRANCH   7   8
HETATM    8  N   UNL     1     -12.287  14.247  64.414  1.00  0.00    -0.638 NA 
HETATM    9  C   UNL     1     -13.014  13.896  65.654  1.00  0.00    -0.315 C  
HETATM   10  C   UNL     1     -12.158  13.177  66.729  1.00  0.00    -0.327 C  
HETATM   11  N   UNL     1     -10.931  13.907  67.135  1.00  0.00    -0.287 NA 
HETATM   12  C   UNL     1     -10.189  14.226  65.891  1.00  0.00    -0.324 C  
HETATM   13  C   UNL     1     -11.018  14.924  64.781  1.00  0.00    -0.375 C  
BRANCH  11  14
HETATM   14  C   UNL     1     -11.253  15.114  67.961  1.00  0.00    -0.323 C  
BRANCH  14  15
HETATM   15  C   UNL     1     -11.814  14.730  69.344  1.00  0.00    -0.360 A  
HETATM   16  C   UNL     1     -12.420  15.710  70.152  1.00  0.00    -0.311 A  
HETATM   17  C   UNL     1     -11.829  13.399  69.799  1.00  0.00    -0.393 A  
HETATM   18  C   UNL     1     -13.042  15.363  71.356  1.00  0.00    -0.563 A  
HETATM   19  C   UNL     1     -13.049  14.039  71.784  1.00  0.00    -0.449 A  
HETATM   20  C   UNL     1     -12.432  13.059  71.013  1.00  0.00    -0.385 A  
ENDBRANCH  14  15
BRANCH  14  21
HETATM   21  C   UNL     1     -10.089  16.115  68.062  1.00  0.00    -0.242 A  
HETATM   22  C   UNL     1      -7.982  17.950  68.417  1.00  0.00    -0.298 A  
HETATM   23 CL   UNL     1      -6.712  19.082  68.663  1.00  0.00    -0.292 Cl 
HETATM   24  C   UNL     1      -9.122  18.329  67.714  1.00  0.00    -0.273 A  
HETATM   25  C   UNL     1      -8.918  15.750  68.754  1.00  0.00    -0.214 A  
HETATM   26  C   UNL     1     -10.171  17.420  67.546  1.00  0.00    -0.332 A  
HETATM   27  C   UNL     1      -7.875  16.663  68.938  1.00  0.00    -0.240 A  
ENDBRANCH  14  21
ENDBRANCH  11  14
ENDBRANCH   7   8
ENDBRANCH   6   7
ENDBRANCH   5   6
ENDBRANCH   3   5
TORSDOF 7
ENDMDL
MODEL       14
REMARK 921   NORMALIZED FREE ENERGY PREDICTED BY IDOCK:   -6.11 KCAL/MOL
REMARK 922        TOTAL FREE ENERGY PREDICTED BY IDOCK:   -9.30 KCAL/MOL
REMARK 923 INTER-LIGAND FREE ENERGY PREDICTED BY IDOCK:   -8.54 KCAL/MOL
REMARK 924 INTRA-LIGAND FREE ENERGY PREDICTED BY IDOCK:   -0.76 KCAL/MOL
REMARK 927      BINDING AFFINITY PREDICTED BY RF-SCORE:    0.00 PKD
ROOT
HETATM    1  O   UNL     1     -12.278  15.017  74.492  1.00  0.00    -0.556 OA 
HETATM    2  C   UNL     1     -12.539  15.914  73.509  1.00  0.00    -0.578 C  
HETATM    3  C   UNL     1     -13.690  15.480  72.615  1.00  0.00    -0.575 C  
HETATM    4  O   UNL     1     -11.911  16.954  73.365  1.00  0.00    -0.364 OA 
ENDROOT
BRANCH   3   5
HETATM    5  O   UNL     1     -14.149  14.171  72.984  1.00  0.00    -0.408 OA 
BRANCH   5   6
HETATM    6  C   UNL     1     -13.582  13.140  72.151  1.00  0.00    -0.544 C  
BRANCH   6   7
HETATM    7  C   UNL     1     -13.261  13.637  70.723  1.00  0.00     0.038 C  
BRANCH   7   8
HETATM    8  N   UNL     1     -11.877  13.402  70.270  1.00  0.00    -0.287 NA 
HETATM    9  C   UNL     1     -11.798  12.484  69.111  1.00  0.00    -0.296 C  
HETATM   10  C   UNL     1     -12.241  13.102  67.759  1.00  0.00    -0.076 C  
HETATM   11  N   UNL     1     -11.522  14.344  67.380  1.00  0.00    -0.340 NA 
HETATM   12  C   UNL     1     -11.634  15.274  68.531  1.00  0.00    -0.352 C  
HETATM   13  C   UNL     1     -11.224  14.684  69.906  1.00  0.00    -0.231 C  
BRANCH  11  14
HETATM   14  C   UNL     1     -10.107  14.064  66.978  1.00  0.00    -0.255 C  
BRANCH  14  15
HETATM   15  C   UNL     1     -10.032  13.111  65.770  1.00  0.00    -0.260 A  
HETATM   16  C   UNL     1      -9.415  11.853  65.906  1.00  0.00    -0.227 A  
HETATM   17  C   UNL     1     -10.648  13.413  64.542  1.00  0.00    -0.441 A  
HETATM   18  C   UNL     1      -9.440  10.925  64.861  1.00  0.00    -0.277 A  
HETATM   19  C   UNL     1     -10.060  11.244  63.656  1.00  0.00    -0.432 A  
HETATM   20  C   UNL     1     -10.653  12.491  63.492  1.00  0.00    -0.394 A  
ENDBRANCH  14  15
BRANCH  14  21
HETATM   21  C   UNL     1      -9.267  15.337  66.770  1.00  0.00    -0.274 A  
HETATM   22  C   UNL     1      -7.766  17.655  66.219  1.00  0.00    -0.289 A  
HETATM   23 CL   UNL     1      -6.845  19.059  65.850  1.00  0.00    -0.277 Cl 
HETATM   24  C   UNL     1      -7.129  16.512  66.692  1.00  0.00    -0.220 A  
HETATM   25  C   UNL     1      -9.891  16.512  66.307  1.00  0.00    -0.336 A  
HETATM   26  C   UNL     1      -7.874  15.358  66.957  1.00  0.00    -0.244 A  
HETATM   27  C   UNL     1      -9.145  17.660  66.025  1.00  0.00    -0.041 A  
ENDBRANCH  14  21
ENDBRANCH  11  14
ENDBRANCH   7   8
ENDBRANCH   6   7
ENDBRANCH   5   6
ENDBRANCH   3   5
TORSDOF 7
ENDMDL
MODEL       15
REMARK 921   NORMALIZED FREE ENERGY PREDICTED BY IDOCK:   -6.08 KCAL/MOL
REMARK 922        TOTAL FREE ENERGY PREDICTED BY IDOCK:   -9.25 KCAL/MOL
REMARK 923 INTER-LIGAND FREE ENERGY PREDICTED BY IDOCK:   -8.63 KCAL/MOL
REMARK 924 INTRA-LIGAND FREE ENERGY PREDICTED BY IDOCK:   -0.61 KCAL/MOL
REMARK 927      BINDING AFFINITY PREDICTED BY RF-SCORE:    0.00 PKD
ROOT
HETATM    1  O   UNL     1     -10.696   9.217  71.333  1.00  0.00    -0.317 OA 
HETATM    2  C   UNL     1     -11.733   8.704  72.039  1.00  0.00    -0.369 C  
HETATM    3  C   UNL     1     -12.884   9.688  72.180  1.00  0.00    -0.375 C  
HETATM    4  O   UNL     1     -11.733   7.575  72.509  1.00  0.00    -0.300 OA 
ENDROOT
BRANCH   3   5
HETATM    5  O   UNL     1     -12.537  10.957  71.606  1.00  0.00    -0.375 OA 
BRANCH   5   6
HETATM    6  C   UNL     1     -13.392  12.019  72.073  1.00  0.00    -0.341 C  
BRANCH   6   7
HETATM    7  C   UNL     1     -12.736  13.412  71.946  1.00  0.00    -0.176 C  
BRANCH   7   8
HETATM    8  N   UNL     1     -13.084  14.165  70.726  1.00  0.00    -0.284 NA 
HETATM    9  C   UNL     1     -12.631  15.574  70.769  1.00  0.00    -0.452 C  
HETATM   10  C   UNL     1     -11.105  15.773  70.575  1.00  0.00    -0.365 C  
HETATM   11  N   UNL     1     -10.555  15.175  69.332  1.00  0.00    -0.245 NA 
HETATM   12  C   UNL     1     -10.982  13.755  69.311  1.00  0.00    -0.163 C  
HETATM   13  C   UNL     1     -12.500  13.513  69.527  1.00  0.00    -0.005 C  
BRANCH  11  14
HETATM   14  C   UNL     1     -10.976  15.941  68.116  1.00  0.00    -0.335 C  
BRANCH  14  15
HETATM   15  C   UNL     1     -10.138  17.219  67.923  1.00  0.00    -0.317 A  
HETATM   16  C   UNL     1     -10.751  18.397  67.457  1.00  0.00    -0.399 A  
HETATM   17  C   UNL     1      -8.781  17.283  68.289  1.00  0.00    -0.251 A  
HETATM   18  C   UNL     1     -10.039  19.598  67.389  1.00  0.00    -0.536 A  
HETATM   19  C   UNL     1      -8.698  19.639  67.761  1.00  0.00    -0.372 A  
HETATM   20  C   UNL     1      -8.066  18.480  68.199  1.00  0.00    -0.310 A  
ENDBRANCH  14  15
BRANCH  14  21
HETATM   21  C   UNL     1     -11.031  15.082  66.841  1.00  0.00    -0.324 A  
HETATM   22  C   UNL     1     -11.199  13.380  64.603  1.00  0.00    -0.359 A  
HETATM   23 CL   UNL     1     -11.299  12.314  63.258  1.00  0.00    -0.468 Cl 
HETATM   24  C   UNL     1      -9.954  13.789  65.071  1.00  0.00    -0.211 A  
HETATM   25  C   UNL     1     -12.279  14.667  66.336  1.00  0.00    -0.157 A  
HETATM   26  C   UNL     1      -9.872  14.627  66.188  1.00  0.00    -0.334 A  
HETATM   27  C   UNL     1     -12.363  13.816  65.230  1.00  0.00    -0.491 A  
ENDBRANCH  14  21
ENDBRANCH  11  14
ENDBRANCH   7   8
ENDBRANCH   6   7
ENDBRANCH   5   6
ENDBRANCH   3   5
TORSDOF 7
ENDMDL
MODEL       16
REMARK 921   NORMALIZED FREE ENERGY PREDICTED BY IDOCK:   -6.00 KCAL/MOL
REMARK 922        TOTAL FREE ENERGY PREDICTED BY IDOCK:   -9.14 KCAL/MOL
REMARK 923 INTER-LIGAND FREE ENERGY PREDICTED BY IDOCK:   -9.06 KCAL/MOL
REMARK 924 INTRA-LIGAND FREE ENERGY PREDICTED BY IDOCK:   -0.08 KCAL/MOL
REMARK 927      BINDING AFFINITY PREDICTED BY RF-SCORE:    0.00 PKD
ROOT
HETATM    1  O   UNL     1      -7.062  20.809  66.886  1.00  0.00    -0.288 OA 
HETATM    2  C   UNL     1      -7.591  19.956  65.975  1.00  0.00    -0.325 C  
HETATM    3  C   UNL     1      -9.104  19.844  66.093  1.00  0.00    -0.322 C  
HETATM    4  O   UNL     1      -6.919  19.346  65.156  1.00  0.00    -0.426 OA 
ENDROOT
BRANCH   3   5
HETATM    5  O   UNL     1      -9.581  20.605  67.213  1.00  0.00    -0.451 OA 
BRANCH   5   6
HETATM    6  C   UNL     1     -10.224  19.776  68.201  1.00  0.00    -0.452 C  
BRANCH   6   7
HETATM    7  C   UNL     1     -10.636  18.394  67.643  1.00  0.00    -0.408 C  
BRANCH   7   8
HETATM    8  N   UNL     1      -9.926  17.241  68.227  1.00  0.00    -0.295 NA 
HETATM    9  C   UNL     1     -10.579  16.720  69.448  1.00  0.00    -0.318 C  
HETATM   10  C   UNL     1     -11.882  15.917  69.198  1.00  0.00    -0.330 C  
HETATM   11  N   UNL     1     -11.736  14.774  68.261  1.00  0.00    -0.318 NA 
HETATM   12  C   UNL     1     -11.113  15.308  67.025  1.00  0.00    -0.305 C  
HETATM   13  C   UNL     1      -9.820  16.139  67.237  1.00  0.00    -0.241 C  
BRANCH  11  14
HETATM   14  C   UNL     1     -10.965  13.648  68.877  1.00  0.00    -0.249 C  
BRANCH  14  15
HETATM   15  C   UNL     1     -11.812  12.862  69.895  1.00  0.00    -0.373 A  
HETATM   16  C   UNL     1     -11.802  11.455  69.879  1.00  0.00    -0.435 A  
HETATM   17  C   UNL     1     -12.533  13.504  70.918  1.00  0.00    -0.448 A  
HETATM   18  C   UNL     1     -12.466  10.721  70.867  1.00  0.00    -0.500 A  
HETATM   19  C   UNL     1     -13.170  11.377  71.873  1.00  0.00    -0.485 A  
HETATM   20  C   UNL     1     -13.214  12.768  71.892  1.00  0.00    -0.511 A  
ENDBRANCH  14  15
BRANCH  14  21
HETATM   21  C   UNL     1     -10.295  12.728  67.842  1.00  0.00    -0.228 A  
HETATM   22  C   UNL     1      -9.146  10.908  66.025  1.00  0.00    -0.191 A  
HETATM   23 CL   UNL     1      -8.447   9.772  64.940  1.00  0.00    -0.150 Cl 
HETATM   24  C   UNL     1      -8.333  11.618  66.904  1.00  0.00    -0.169 A  
HETATM   25  C   UNL     1     -11.094  12.011  66.931  1.00  0.00    -0.352 A  
HETATM   26  C   UNL     1      -8.905  12.515  67.811  1.00  0.00    -0.178 A  
HETATM   27  C   UNL     1     -10.525  11.101  66.034  1.00  0.00    -0.312 A  
ENDBRANCH  14  21
ENDBRANCH  11  14
ENDBRANCH   7   8
ENDBRANCH   6   7
ENDBRANCH   5   6
ENDBRANCH   3   5
TORSDOF 7
ENDMDL
MODEL       17
REMARK 921   NORMALIZED FREE ENERGY PREDICTED BY IDOCK:   -5.98 KCAL/MOL
REMARK 922        TOTAL FREE ENERGY PREDICTED BY IDOCK:   -9.12 KCAL/MOL
REMARK 923 INTER-LIGAND FREE ENERGY PREDICTED BY IDOCK:   -8.19 KCAL/MOL
REMARK 924 INTRA-LIGAND FREE ENERGY PREDICTED BY IDOCK:   -0.93 KCAL/MOL
REMARK 927      BINDING AFFINITY PREDICTED BY RF-SCORE:    0.00 PKD
ROOT
HETATM    1  O   UNL     1      -8.694   9.583  70.475  1.00  0.00    -0.228 OA 
HETATM    2  C   UNL     1      -9.983   9.267  70.754  1.00  0.00    -0.290 C  
HETATM    3  C   UNL     1     -10.824   9.094  69.498  1.00  0.00    -0.180 C  
HETATM    4  O   UNL     1     -10.413   9.139  71.891  1.00  0.00    -0.348 OA 
ENDROOT
BRANCH   3   5
HETATM    5  O   UNL     1     -10.055   9.407  68.328  1.00  0.00    -0.169 OA 
BRANCH   5   6
HETATM    6  C   UNL     1     -10.874   9.917  67.257  1.00  0.00    -0.199 C  
BRANCH   6   7
HETATM    7  C   UNL     1     -10.263  11.166  66.582  1.00  0.00    -0.232 C  
BRANCH   7   8
HETATM    8  N   UNL     1     -11.077  12.393  66.672  1.00  0.00    -0.275 NA 
HETATM    9  C   UNL     1     -11.845  12.484  67.934  1.00  0.00    -0.323 C  
HETATM   10  C   UNL     1     -11.001  12.834  69.187  1.00  0.00    -0.133 C  
HETATM   11  N   UNL     1     -10.206  14.082  69.070  1.00  0.00    -0.150 NA 
HETATM   12  C   UNL     1      -9.411  13.971  67.822  1.00  0.00    -0.209 C  
HETATM   13  C   UNL     1     -10.218  13.597  66.550  1.00  0.00    -0.284 C  
BRANCH  11  14
HETATM   14  C   UNL     1     -11.077  15.300  69.113  1.00  0.00    -0.263 C  
BRANCH  14  15
HETATM   15  C   UNL     1     -11.844  15.409  70.445  1.00  0.00    -0.366 A  
HETATM   16  C   UNL     1     -13.244  15.269  70.461  1.00  0.00    -0.278 A  
HETATM   17  C   UNL     1     -11.182  15.552  71.677  1.00  0.00    -0.388 A  
HETATM   18  C   UNL     1     -13.949  15.244  71.669  1.00  0.00    -0.627 A  
HETATM   19  C   UNL     1     -13.272  15.383  72.877  1.00  0.00    -0.622 A  
HETATM   20  C   UNL     1     -11.890  15.549  72.881  1.00  0.00    -0.565 A  
ENDBRANCH  14  15
BRANCH  14  21
HETATM   21  C   UNL     1     -10.331  16.598  68.761  1.00  0.00    -0.301 A  
HETATM   22  C   UNL     1      -8.998  18.943  67.950  1.00  0.00    -0.297 A  
HETATM   23 CL   UNL     1      -8.178  20.360  67.424  1.00  0.00    -0.383 Cl 
HETATM   24  C   UNL     1      -8.284  17.913  68.554  1.00  0.00    -0.300 A  
HETATM   25  C   UNL     1     -11.034  17.663  68.164  1.00  0.00    -0.089 A  
HETATM   26  C   UNL     1      -8.945  16.745  68.949  1.00  0.00    -0.227 A  
HETATM   27  C   UNL     1     -10.371  18.824  67.753  1.00  0.00    -0.467 A  
ENDBRANCH  14  21
ENDBRANCH  11  14
ENDBRANCH   7   8
ENDBRANCH   6   7
ENDBRANCH   5   6
ENDBRANCH   3   5
TORSDOF 7
ENDMDL
MODEL       18
REMARK 921   NORMALIZED FREE ENERGY PREDICTED BY IDOCK:   -5.97 KCAL/MOL
REMARK 922        TOTAL FREE ENERGY PREDICTED BY IDOCK:   -9.10 KCAL/MOL
REMARK 923 INTER-LIGAND FREE ENERGY PREDICTED BY IDOCK:   -8.30 KCAL/MOL
REMARK 924 INTRA-LIGAND FREE ENERGY PREDICTED BY IDOCK:   -0.80 KCAL/MOL
REMARK 927      BINDING AFFINITY PREDICTED BY RF-SCORE:    0.00 PKD
ROOT
HETATM    1  O   UNL     1     -12.472  14.802  63.929  1.00  0.00    -0.811 OA 
HETATM    2  C   UNL     1     -11.599  15.669  64.499  1.00  0.00    -0.262 C  
HETATM    3  C   UNL     1     -10.939  15.095  65.744  1.00  0.00    -0.349 C  
HETATM    4  O   UNL     1     -11.374  16.786  64.056  1.00  0.00    -1.153 OA 
ENDROOT
BRANCH   3   5
HETATM    5  O   UNL     1     -11.486  13.805  66.056  1.00  0.00    -0.313 OA 
BRANCH   5   6
HETATM    6  C   UNL     1     -12.077  13.767  67.371  1.00  0.00    -0.343 C  
BRANCH   6   7
HETATM    7  C   UNL     1     -11.412  12.720  68.292  1.00  0.00    -0.314 C  
BRANCH   7   8
HETATM    8  N   UNL     1     -11.983  11.361  68.218  1.00  0.00    -0.610 NA 
HETATM    9  C   UNL     1     -11.277  10.491  67.251  1.00  0.00    -0.125 C  
HETATM   10  C   UNL     1      -9.887   9.988  67.722  1.00  0.00    -0.157 C  
HETATM   11  N   UNL     1      -9.895   9.276  69.025  1.00  0.00    -0.162 NA 
HETATM   12  C   UNL     1     -10.572  10.167  69.999  1.00  0.00    -0.287 C  
HETATM   13  C   UNL     1     -11.955  10.712  69.552  1.00  0.00    -0.247 C  
BRANCH  11  14
HETATM   14  C   UNL     1     -10.530   7.925  68.914  1.00  0.00    -0.190 C  
BRANCH  14  15
HETATM   15  C   UNL     1      -9.866   7.067  67.821  1.00  0.00    -0.166 A  
HETATM   16  C   UNL     1      -8.485   7.188  67.575  1.00  0.00    -0.123 A  
HETATM   17  C   UNL     1     -10.577   6.082  67.110  1.00  0.00    -0.374 A  
HETATM   18  C   UNL     1      -7.839   6.337  66.673  1.00  0.00    -0.104 A  
HETATM   19  C   UNL     1      -8.563   5.367  65.985  1.00  0.00    -0.127 A  
HETATM   20  C   UNL     1      -9.933   5.247  66.194  1.00  0.00    -0.191 A  
ENDBRANCH  14  15
BRANCH  14  21
HETATM   21  C   UNL     1     -10.628   7.183  70.258  1.00  0.00    -0.245 A  
HETATM   22  C   UNL     1     -10.742   5.684  72.640  1.00  0.00    -0.242 A  
HETATM   23 CL   UNL     1     -10.814   4.740  74.075  1.00  0.00    -0.354 Cl 
HETATM   24  C   UNL     1     -11.918   6.123  72.040  1.00  0.00    -0.310 A  
HETATM   25  C   UNL     1      -9.452   6.742  70.895  1.00  0.00    -0.159 A  
HETATM   26  C   UNL     1     -11.861   6.860  70.852  1.00  0.00    -0.424 A  
HETATM   27  C   UNL     1      -9.508   5.990  72.073  1.00  0.00    -0.161 A  
ENDBRANCH  14  21
ENDBRANCH  11  14
ENDBRANCH   7   8
ENDBRANCH   6   7
ENDBRANCH   5   6
ENDBRANCH   3   5
TORSDOF 7
ENDMDL
MODEL       19
REMARK 921   NORMALIZED FREE ENERGY PREDICTED BY IDOCK:   -5.94 KCAL/MOL
REMARK 922        TOTAL FREE ENERGY PREDICTED BY IDOCK:   -9.05 KCAL/MOL
REMARK 923 INTER-LIGAND FREE ENERGY PREDICTED BY IDOCK:   -8.59 KCAL/MOL
REMARK 924 INTRA-LIGAND FREE ENERGY PREDICTED BY IDOCK:   -0.46 KCAL/MOL
REMARK 927      BINDING AFFINITY PREDICTED BY RF-SCORE:    0.00 PKD
ROOT
HETATM    1  O   UNL     1      -6.338  21.205  63.527  1.00  0.00    -0.314 OA 
HETATM    2  C   UNL     1      -5.782  19.968  63.490  1.00  0.00    -0.268 C  
HETATM    3  C   UNL     1      -5.952  19.216  64.801  1.00  0.00    -0.282 C  
HETATM    4  O   UNL     1      -5.208  19.518  62.509  1.00  0.00    -0.252 OA 
ENDROOT
BRANCH   3   5
HETATM    5  O   UNL     1      -6.579  20.051  65.785  1.00  0.00    -0.215 OA 
BRANCH   5   6
HETATM    6  C   UNL     1      -7.982  19.756  65.935  1.00  0.00    -0.280 C  
BRANCH   6   7
HETATM    7  C   UNL     1      -8.338  19.260  67.354  1.00  0.00    -0.287 C  
BRANCH   7   8
HETATM    8  N   UNL     1      -8.199  17.806  67.568  1.00  0.00    -0.223 NA 
HETATM    9  C   UNL     1      -8.681  17.370  68.898  1.00  0.00    -0.153 C  
HETATM   10  C   UNL     1     -10.224  17.344  69.054  1.00  0.00    -0.317 C  
HETATM   11  N   UNL     1     -10.936  16.525  68.042  1.00  0.00    -0.346 NA 
HETATM   12  C   UNL     1     -10.475  16.990  66.710  1.00  0.00    -0.257 C  
HETATM   13  C   UNL     1      -8.936  17.053  66.523  1.00  0.00    -0.269 C  
BRANCH  11  14
HETATM   14  C   UNL     1     -10.723  15.059  68.265  1.00  0.00    -0.253 C  
BRANCH  14  15
HETATM   15  C   UNL     1     -11.537  14.539  69.466  1.00  0.00    -0.350 A  
HETATM   16  C   UNL     1     -12.288  15.436  70.247  1.00  0.00    -0.425 A  
HETATM   17  C   UNL     1     -11.635  13.167  69.761  1.00  0.00    -0.291 A  
HETATM   18  C   UNL     1     -13.127  14.973  71.265  1.00  0.00    -0.472 A  
HETATM   19  C   UNL     1     -13.212  13.611  71.537  1.00  0.00    -0.409 A  
HETATM   20  C   UNL     1     -12.458  12.708  70.793  1.00  0.00    -0.357 A  
ENDBRANCH  14  15
BRANCH  14  21
HETATM   21  C   UNL     1     -10.940  14.210  67.002  1.00  0.00    -0.303 A  
HETATM   22  C   UNL     1     -11.449  12.556  64.779  1.00  0.00    -0.323 A  
HETATM   23 CL   UNL     1     -11.768  11.521  63.444  1.00  0.00    -0.353 Cl 
HETATM   24  C   UNL     1     -10.182  12.577  65.353  1.00  0.00    -0.303 A  
HETATM   25  C   UNL     1     -12.210  14.184  66.392  1.00  0.00    -0.473 A  
HETATM   26  C   UNL     1      -9.932  13.392  66.462  1.00  0.00    -0.286 A  
HETATM   27  C   UNL     1     -12.465  13.357  65.293  1.00  0.00    -0.532 A  
ENDBRANCH  14  21
ENDBRANCH  11  14
ENDBRANCH   7   8
ENDBRANCH   6   7
ENDBRANCH   5   6
ENDBRANCH   3   5
TORSDOF 7
ENDMDL
MODEL       20
REMARK 921   NORMALIZED FREE ENERGY PREDICTED BY IDOCK:   -5.91 KCAL/MOL
REMARK 922        TOTAL FREE ENERGY PREDICTED BY IDOCK:   -9.02 KCAL/MOL
REMARK 923 INTER-LIGAND FREE ENERGY PREDICTED BY IDOCK:   -8.79 KCAL/MOL
REMARK 924 INTRA-LIGAND FREE ENERGY PREDICTED BY IDOCK:   -0.23 KCAL/MOL
REMARK 927      BINDING AFFINITY PREDICTED BY RF-SCORE:    0.00 PKD
ROOT
HETATM    1  O   UNL     1      -9.259  11.262  62.404  1.00  0.00    -0.304 OA 
HETATM    2  C   UNL     1      -9.680  10.593  63.506  1.00  0.00    -0.339 C  
HETATM    3  C   UNL     1     -10.713  11.376  64.301  1.00  0.00    -0.356 C  
HETATM    4  O   UNL     1      -9.267   9.486  63.819  1.00  0.00    -0.209 OA 
ENDROOT
BRANCH   3   5
HETATM    5  O   UNL     1     -10.911  12.678  63.729  1.00  0.00    -0.398 OA 
BRANCH   5   6
HETATM    6  C   UNL     1     -10.094  13.681  64.363  1.00  0.00     0.078 C  
BRANCH   6   7
HETATM    7  C   UNL     1     -10.840  14.435  65.487  1.00  0.00    -0.331 C  
BRANCH   7   8
HETATM    8  N   UNL     1     -10.306  14.229  66.847  1.00  0.00    -0.267 NA 
HETATM    9  C   UNL     1     -10.945  15.103  67.856  1.00  0.00    -0.302 C  
HETATM   10  C   UNL     1     -12.387  14.692  68.254  1.00  0.00     0.076 C  
HETATM   11  N   UNL     1     -12.522  13.295  68.739  1.00  0.00     0.138 NA 
HETATM   12  C   UNL     1     -11.911  12.420  67.708  1.00  0.00    -0.298 C  
HETATM   13  C   UNL     1     -10.477  12.815  67.265  1.00  0.00    -0.232 C  
BRANCH  11  14
HETATM   14  C   UNL     1     -11.919  13.120  70.099  1.00  0.00    -0.310 C  
BRANCH  14  15
HETATM   15  C   UNL     1     -12.432  14.178  71.094  1.00  0.00    -0.445 A  
HETATM   16  C   UNL     1     -13.815  14.408  71.224  1.00  0.00    -0.333 A  
HETATM   17  C   UNL     1     -11.566  14.870  71.960  1.00  0.00    -0.314 A  
HETATM   18  C   UNL     1     -14.310  15.275  72.203  1.00  0.00    -0.651 A  
HETATM   19  C   UNL     1     -13.434  15.945  73.052  1.00  0.00    -0.653 A  
HETATM   20  C   UNL     1     -12.062  15.752  72.923  1.00  0.00    -0.596 A  
ENDBRANCH  14  15
BRANCH  14  21
HETATM   21  C   UNL     1     -12.054  11.689  70.648  1.00  0.00    -0.432 A  
HETATM   22  C   UNL     1     -12.336   9.017  71.492  1.00  0.00    -0.331 A  
HETATM   23 CL   UNL     1     -12.529   7.379  71.980  1.00  0.00    -0.305 Cl 
HETATM   24  C   UNL     1     -13.239   9.981  71.929  1.00  0.00    -0.557 A  
HETATM   25  C   UNL     1     -11.144  10.698  70.234  1.00  0.00    -0.310 A  
HETATM   26  C   UNL     1     -13.103  11.307  71.503  1.00  0.00    -0.459 A  
HETATM   27  C   UNL     1     -11.288   9.369  70.646  1.00  0.00    -0.352 A  
ENDBRANCH  14  21
ENDBRANCH  11  14
ENDBRANCH   7   8
ENDBRANCH   6   7
ENDBRANCH   5   6
ENDBRANCH   3   5
TORSDOF 7
ENDMDL
MODEL       21
REMARK 921   NORMALIZED FREE ENERGY PREDICTED BY IDOCK:   -5.91 KCAL/MOL
REMARK 922        TOTAL FREE ENERGY PREDICTED BY IDOCK:   -9.01 KCAL/MOL
REMARK 923 INTER-LIGAND FREE ENERGY PREDICTED BY IDOCK:   -8.08 KCAL/MOL
REMARK 924 INTRA-LIGAND FREE ENERGY PREDICTED BY IDOCK:   -0.94 KCAL/MOL
REMARK 927      BINDING AFFINITY PREDICTED BY RF-SCORE:    0.00 PKD
ROOT
HETATM    1  O   UNL     1      -8.855   9.205  62.537  1.00  0.00    -0.231 OA 
HETATM    2  C   UNL     1      -8.685   9.445  63.861  1.00  0.00    -0.202 C  
HETATM    3  C   UNL     1      -9.209  10.811  64.276  1.00  0.00    -0.218 C  
HETATM    4  O   UNL     1      -8.166   8.647  64.627  1.00  0.00    -0.151 OA 
ENDROOT
BRANCH   3   5
HETATM    5  O   UNL     1      -9.667  11.546  63.131  1.00  0.00    -0.366 OA 
BRANCH   5   6
HETATM    6  C   UNL     1     -10.925  12.205  63.374  1.00  0.00    -0.412 C  
BRANCH   6   7
HETATM    7  C   UNL     1     -11.355  12.140  64.857  1.00  0.00    -0.326 C  
BRANCH   7   8
HETATM    8  N   UNL     1     -11.961  13.374  65.393  1.00  0.00    -0.364 NA 
HETATM    9  C   UNL     1     -12.363  13.250  66.812  1.00  0.00    -0.178 C  
HETATM   10  C   UNL     1     -11.190  13.268  67.826  1.00  0.00    -0.280 C  
HETATM   11  N   UNL     1     -10.303  14.454  67.727  1.00  0.00    -0.236 NA 
HETATM   12  C   UNL     1      -9.874  14.554  66.310  1.00  0.00    -0.304 C  
HETATM   13  C   UNL     1     -11.019  14.515  65.263  1.00  0.00    -0.360 C  
BRANCH  11  14
HETATM   14  C   UNL     1     -10.976  15.693  68.232  1.00  0.00    -0.315 C  
BRANCH  14  15
HETATM   15  C   UNL     1     -11.587  15.483  69.631  1.00  0.00    -0.359 A  
HETATM   16  C   UNL     1     -10.755  15.480  70.767  1.00  0.00    -0.206 A  
HETATM   17  C   UNL     1     -12.976  15.387  69.832  1.00  0.00     0.111 A  
HETATM   18  C   UNL     1     -11.298  15.412  72.054  1.00  0.00    -0.466 A  
HETATM   19  C   UNL     1     -12.676  15.322  72.229  1.00  0.00    -0.435 A  
HETATM   20  C   UNL     1     -13.514  15.298  71.118  1.00  0.00    -0.559 A  
ENDBRANCH  14  15
BRANCH  14  21
HETATM   21  C   UNL     1     -10.084  16.944  68.167  1.00  0.00    -0.299 A  
HETATM   22  C   UNL     1      -8.497  19.253  67.881  1.00  0.00    -0.308 A  
HETATM   23 CL   UNL     1      -7.525  20.656  67.672  1.00  0.00    -0.325 Cl 
HETATM   24  C   UNL     1      -7.895  18.023  68.129  1.00  0.00    -0.274 A  
HETATM   25  C   UNL     1     -10.670  18.203  67.933  1.00  0.00    -0.331 A  
HETATM   26  C   UNL     1      -8.683  16.876  68.262  1.00  0.00    -0.235 A  
HETATM   27  C   UNL     1      -9.882  19.349  67.783  1.00  0.00    -0.449 A  
ENDBRANCH  14  21
ENDBRANCH  11  14
ENDBRANCH   7   8
ENDBRANCH   6   7
ENDBRANCH   5   6
ENDBRANCH   3   5
TORSDOF 7
ENDMDL
MODEL       22
REMARK 921   NORMALIZED FREE ENERGY PREDICTED BY IDOCK:   -5.77 KCAL/MOL
REMARK 922        TOTAL FREE ENERGY PREDICTED BY IDOCK:   -8.82 KCAL/MOL
REMARK 923 INTER-LIGAND FREE ENERGY PREDICTED BY IDOCK:   -8.04 KCAL/MOL
REMARK 924 INTRA-LIGAND FREE ENERGY PREDICTED BY IDOCK:   -0.78 KCAL/MOL
REMARK 927      BINDING AFFINITY PREDICTED BY RF-SCORE:    0.00 PKD
ROOT
HETATM    1  O   UNL     1     -12.630  14.091  63.578  1.00  0.00    -0.842 OA 
HETATM    2  C   UNL     1     -12.295  12.783  63.704  1.00  0.00    -0.463 C  
HETATM    3  C   UNL     1     -11.001  12.586  64.478  1.00  0.00    -0.323 C  
HETATM    4  O   UNL     1     -12.964  11.870  63.241  1.00  0.00    -0.707 OA 
ENDROOT
BRANCH   3   5
HETATM    5  O   UNL     1     -10.406  13.852  64.799  1.00  0.00    -0.418 OA 
BRANCH   5   6
HETATM    6  C   UNL     1      -9.854  13.873  66.130  1.00  0.00    -0.302 C  
BRANCH   6   7
HETATM    7  C   UNL     1      -9.505  12.462  66.653  1.00  0.00    -0.232 C  
BRANCH   7   8
HETATM    8  N   UNL     1      -9.546  12.304  68.120  1.00  0.00    -0.209 NA 
HETATM    9  C   UNL     1     -10.863  11.844  68.614  1.00  0.00    -0.235 C  
HETATM   10  C   UNL     1     -11.173  10.348  68.345  1.00  0.00    -0.258 C  
HETATM   11  N   UNL     1     -10.156   9.401  68.868  1.00  0.00    -0.183 NA 
HETATM   12  C   UNL     1      -8.843   9.846  68.342  1.00  0.00    -0.120 C  
HETATM   13  C   UNL     1      -8.507  11.344  68.569  1.00  0.00    -0.152 C  
BRANCH  11  14
HETATM   14  C   UNL     1     -10.198   9.313  70.363  1.00  0.00    -0.233 C  
BRANCH  14  15
HETATM   15  C   UNL     1     -11.619   9.016  70.880  1.00  0.00    -0.344 A  
HETATM   16  C   UNL     1     -12.120   7.702  70.842  1.00  0.00    -0.226 A  
HETATM   17  C   UNL     1     -12.414  10.007  71.486  1.00  0.00    -0.516 A  
HETATM   18  C   UNL     1     -13.357   7.388  71.415  1.00  0.00    -0.398 A  
HETATM   19  C   UNL     1     -14.124   8.383  72.013  1.00  0.00    -0.495 A  
HETATM   20  C   UNL     1     -13.659   9.694  72.038  1.00  0.00    -0.467 A  
ENDBRANCH  14  15
BRANCH  14  21
HETATM   21  C   UNL     1      -9.152   8.349  70.948  1.00  0.00    -0.190 A  
HETATM   22  C   UNL     1      -7.357   6.460  72.016  1.00  0.00    -0.092 A  
HETATM   23 CL   UNL     1      -6.288   5.288  72.680  1.00  0.00    -0.042 Cl 
HETATM   24  C   UNL     1      -7.759   7.547  72.786  1.00  0.00    -0.109 A  
HETATM   25  C   UNL     1      -8.716   7.250  70.183  1.00  0.00    -0.140 A  
HETATM   26  C   UNL     1      -8.657   8.480  72.258  1.00  0.00    -0.235 A  
HETATM   27  C   UNL     1      -7.831   6.307  70.716  1.00  0.00    -0.106 A  
ENDBRANCH  14  21
ENDBRANCH  11  14
ENDBRANCH   7   8
ENDBRANCH   6   7
ENDBRANCH   5   6
ENDBRANCH   3   5
TORSDOF 7
ENDMDL
MODEL       23
REMARK 921   NORMALIZED FREE ENERGY PREDICTED BY IDOCK:   -5.77 KCAL/MOL
REMARK 922        TOTAL FREE ENERGY PREDICTED BY IDOCK:   -8.81 KCAL/MOL
REMARK 923 INTER-LIGAND FREE ENERGY PREDICTED BY IDOCK:   -7.98 KCAL/MOL
REMARK 924 INTRA-LIGAND FREE ENERGY PREDICTED BY IDOCK:   -0.83 KCAL/MOL
REMARK 927      BINDING AFFINITY PREDICTED BY RF-SCORE:    0.00 PKD
ROOT
HETATM    1  O   UNL     1     -12.671  14.262  63.762  1.00  0.00    -0.779 OA 
HETATM    2  C   UNL     1     -12.267  12.970  63.678  1.00  0.00    -0.491 C  
HETATM    3  C   UNL     1     -10.864  12.763  64.226  1.00  0.00    -0.390 C  
HETATM    4  O   UNL     1     -12.961  12.079  63.211  1.00  0.00    -0.736 OA 
ENDROOT
BRANCH   3   5
HETATM    5  O   UNL     1     -10.280  14.018  64.608  1.00  0.00    -0.420 OA 
BRANCH   5   6
HETATM    6  C   UNL     1      -9.845  14.020  65.982  1.00  0.00    -0.297 C  
BRANCH   6   7
HETATM    7  C   UNL     1     -10.520  12.913  66.823  1.00  0.00    -0.254 C  
BRANCH   7   8
HETATM    8  N   UNL     1      -9.596  11.983  67.500  1.00  0.00    -0.175 NA 
HETATM    9  C   UNL     1     -10.090  11.542  68.824  1.00  0.00    -0.179 C  
HETATM   10  C   UNL     1     -11.249  10.512  68.776  1.00  0.00    -0.262 C  
HETATM   11  N   UNL     1     -10.958   9.287  67.989  1.00  0.00    -0.096 NA 
HETATM   12  C   UNL     1     -10.497   9.735  66.651  1.00  0.00    -0.163 C  
HETATM   13  C   UNL     1      -9.354  10.785  66.658  1.00  0.00    -0.166 C  
BRANCH  11  14
HETATM   14  C   UNL     1      -9.977   8.399  68.689  1.00  0.00    -0.184 C  
BRANCH  14  15
HETATM   15  C   UNL     1     -10.339   8.202  70.174  1.00  0.00    -0.215 A  
HETATM   16  C   UNL     1     -11.512   7.508  70.524  1.00  0.00    -0.259 A  
HETATM   17  C   UNL     1      -9.482   8.614  71.211  1.00  0.00    -0.289 A  
HETATM   18  C   UNL     1     -11.799   7.213  71.861  1.00  0.00    -0.336 A  
HETATM   19  C   UNL     1     -10.934   7.627  72.870  1.00  0.00    -0.456 A  
HETATM   20  C   UNL     1      -9.782   8.337  72.547  1.00  0.00    -0.368 A  
ENDBRANCH  14  15
BRANCH  14  21
HETATM   21  C   UNL     1      -9.737   7.062  67.966  1.00  0.00    -0.140 A  
HETATM   22  C   UNL     1      -9.432   4.549  66.731  1.00  0.00    -0.174 A  
HETATM   23 CL   UNL     1      -9.260   3.000  66.005  1.00  0.00    -0.145 Cl 
HETATM   24  C   UNL     1      -8.431   5.039  67.565  1.00  0.00    -0.105 A  
HETATM   25  C   UNL     1     -10.727   6.553  67.103  1.00  0.00    -0.438 A  
HETATM   26  C   UNL     1      -8.587   6.283  68.185  1.00  0.00    -0.116 A  
HETATM   27  C   UNL     1     -10.580   5.301  66.496  1.00  0.00    -0.348 A  
ENDBRANCH  14  21
ENDBRANCH  11  14
ENDBRANCH   7   8
ENDBRANCH   6   7
ENDBRANCH   5   6
ENDBRANCH   3   5
TORSDOF 7
ENDMDL
MODEL       24
REMARK 921   NORMALIZED FREE ENERGY PREDICTED BY IDOCK:   -5.72 KCAL/MOL
REMARK 922        TOTAL FREE ENERGY PREDICTED BY IDOCK:   -8.75 KCAL/MOL
REMARK 923 INTER-LIGAND FREE ENERGY PREDICTED BY IDOCK:   -7.83 KCAL/MOL
REMARK 924 INTRA-LIGAND FREE ENERGY PREDICTED BY IDOCK:   -0.92 KCAL/MOL
REMARK 927      BINDING AFFINITY PREDICTED BY RF-SCORE:    0.00 PKD
ROOT
HETATM    1  O   UNL     1     -13.074  12.596  64.884  1.00  0.00    -0.850 OA 
HETATM    2  C   UNL     1     -12.052  12.841  64.028  1.00  0.00    -0.457 C  
HETATM    3  C   UNL     1     -10.890  11.878  64.218  1.00  0.00    -0.344 C  
HETATM    4  O   UNL     1     -12.070  13.740  63.199  1.00  0.00    -0.434 OA 
ENDROOT
BRANCH   3   5
HETATM    5  O   UNL     1     -11.134  11.007  65.332  1.00  0.00    -0.092 OA 
BRANCH   5   6
HETATM    6  C   UNL     1      -9.936  10.739  66.087  1.00  0.00    -0.232 C  
BRANCH   6   7
HETATM    7  C   UNL     1      -8.894  11.875  65.974  1.00  0.00    -0.007 C  
BRANCH   7   8
HETATM    8  N   UNL     1      -8.646  12.629  67.218  1.00  0.00    -0.188 NA 
HETATM    9  C   UNL     1      -8.060  13.966  66.973  1.00  0.00     0.008 C  
HETATM   10  C   UNL     1      -9.053  15.020  66.416  1.00  0.00    -0.277 C  
HETATM   11  N   UNL     1     -10.271  15.221  67.240  1.00  0.00    -0.245 NA 
HETATM   12  C   UNL     1     -10.873  13.882  67.452  1.00  0.00    -0.285 C  
HETATM   13  C   UNL     1      -9.905  12.794  67.987  1.00  0.00    -0.226 C  
BRANCH  11  14
HETATM   14  C   UNL     1      -9.964  15.944  68.515  1.00  0.00    -0.216 C  
BRANCH  14  15
HETATM   15  C   UNL     1      -9.741  17.450  68.282  1.00  0.00    -0.299 A  
HETATM   16  C   UNL     1      -8.504  18.036  68.612  1.00  0.00    -0.277 A  
HETATM   17  C   UNL     1     -10.706  18.258  67.654  1.00  0.00    -0.373 A  
HETATM   18  C   UNL     1      -8.237  19.373  68.298  1.00  0.00    -0.372 A  
HETATM   19  C   UNL     1      -9.206  20.153  67.673  1.00  0.00    -0.461 A  
HETATM   20  C   UNL     1     -10.445  19.599  67.362  1.00  0.00    -0.596 A  
ENDBRANCH  14  15
BRANCH  14  21
HETATM   21  C   UNL     1     -10.984  15.672  69.634  1.00  0.00    -0.288 A  
HETATM   22  C   UNL     1     -12.785  15.014  71.697  1.00  0.00    -0.340 A  
HETATM   23 CL   UNL     1     -13.881  14.579  72.949  1.00  0.00    -0.356 Cl 
HETATM   24  C   UNL     1     -13.260  15.254  70.412  1.00  0.00    -0.171 A  
HETATM   25  C   UNL     1     -10.530  15.442  70.947  1.00  0.00     0.139 A  
HETATM   26  C   UNL     1     -12.364  15.572  69.386  1.00  0.00    -0.143 A  
HETATM   27  C   UNL     1     -11.422  15.107  71.970  1.00  0.00    -0.450 A  
ENDBRANCH  14  21
ENDBRANCH  11  14
ENDBRANCH   7   8
ENDBRANCH   6   7
ENDBRANCH   5   6
ENDBRANCH   3   5
TORSDOF 7
ENDMDL
MODEL       25
REMARK 921   NORMALIZED FREE ENERGY PREDICTED BY IDOCK:   -5.70 KCAL/MOL
REMARK 922        TOTAL FREE ENERGY PREDICTED BY IDOCK:   -8.72 KCAL/MOL
REMARK 923 INTER-LIGAND FREE ENERGY PREDICTED BY IDOCK:   -7.95 KCAL/MOL
REMARK 924 INTRA-LIGAND FREE ENERGY PREDICTED BY IDOCK:   -0.77 KCAL/MOL
REMARK 927      BINDING AFFINITY PREDICTED BY RF-SCORE:    0.00 PKD
ROOT
HETATM    1  O   UNL     1     -11.840  16.392  72.186  1.00  0.00    -0.525 OA 
HETATM    2  C   UNL     1     -12.654  15.892  73.148  1.00  0.00    -0.513 C  
HETATM    3  C   UNL     1     -13.517  14.745  72.643  1.00  0.00    -0.471 C  
HETATM    4  O   UNL     1     -12.686  16.323  74.292  1.00  0.00    -0.705 OA 
ENDROOT
BRANCH   3   5
HETATM    5  O   UNL     1     -13.317  14.545  71.236  1.00  0.00    -0.346 OA 
BRANCH   5   6
HETATM    6  C   UNL     1     -12.603  13.325  70.955  1.00  0.00    -0.306 C  
BRANCH   6   7
HETATM    7  C   UNL     1     -11.799  13.396  69.637  1.00  0.00    -0.331 C  
BRANCH   7   8
HETATM    8  N   UNL     1     -12.145  12.375  68.630  1.00  0.00    -0.198 NA 
HETATM    9  C   UNL     1     -11.465  12.589  67.333  1.00  0.00    -0.341 C  
HETATM   10  C   UNL     1      -9.956  12.230  67.322  1.00  0.00    -0.204 C  
HETATM   11  N   UNL     1      -9.646  10.843  67.753  1.00  0.00    -0.162 NA 
HETATM   12  C   UNL     1     -10.301  10.645  69.070  1.00  0.00    -0.218 C  
HETATM   13  C   UNL     1     -11.806  11.018  69.127  1.00  0.00    -0.337 C  
BRANCH  11  14
HETATM   14  C   UNL     1     -10.063   9.837  66.725  1.00  0.00    -0.231 C  
BRANCH  14  15
HETATM   15  C   UNL     1      -9.438  10.132  65.348  1.00  0.00    -0.296 A  
HETATM   16  C   UNL     1      -8.088   9.815  65.107  1.00  0.00    -0.132 A  
HETATM   17  C   UNL     1     -10.200  10.627  64.274  1.00  0.00    -0.391 A  
HETATM   18  C   UNL     1      -7.533   9.961  63.832  1.00  0.00    -0.134 A  
HETATM   19  C   UNL     1      -8.307  10.449  62.783  1.00  0.00    -0.180 A  
HETATM   20  C   UNL     1      -9.637  10.794  63.007  1.00  0.00    -0.381 A  
ENDBRANCH  14  15
BRANCH  14  21
HETATM   21  C   UNL     1      -9.837   8.381  67.168  1.00  0.00    -0.279 A  
HETATM   22  C   UNL     1      -9.545   5.740  68.102  1.00  0.00    -0.116 A  
HETATM   23 CL   UNL     1      -9.377   4.138  68.703  1.00  0.00    -0.204 Cl 
HETATM   24  C   UNL     1      -8.487   6.636  68.212  1.00  0.00    -0.120 A  
HETATM   25  C   UNL     1     -10.888   7.450  67.051  1.00  0.00    -0.307 A  
HETATM   26  C   UNL     1      -8.635   7.950  67.756  1.00  0.00    -0.128 A  
HETATM   27  C   UNL     1     -10.746   6.141  67.522  1.00  0.00    -0.393 A  
ENDBRANCH  14  21
ENDBRANCH  11  14
ENDBRANCH   7   8
ENDBRANCH   6   7
ENDBRANCH   5   6
ENDBRANCH   3   5
TORSDOF 7
ENDMDL
MODEL       26
REMARK 921   NORMALIZED FREE ENERGY PREDICTED BY IDOCK:   -5.68 KCAL/MOL
REMARK 922        TOTAL FREE ENERGY PREDICTED BY IDOCK:   -8.69 KCAL/MOL
REMARK 923 INTER-LIGAND FREE ENERGY PREDICTED BY IDOCK:   -8.38 KCAL/MOL
REMARK 924 INTRA-LIGAND FREE ENERGY PREDICTED BY IDOCK:   -0.31 KCAL/MOL
REMARK 927      BINDING AFFINITY PREDICTED BY RF-SCORE:    0.00 PKD
ROOT
HETATM    1  O   UNL     1      -9.116   8.960  65.311  1.00  0.00    -0.203 OA 
HETATM    2  C   UNL     1      -8.013   9.406  64.661  1.00  0.00    -0.124 C  
HETATM    3  C   UNL     1      -8.356  10.229  63.429  1.00  0.00    -0.169 C  
HETATM    4  O   UNL     1      -6.872   9.167  65.031  1.00  0.00    -0.078 OA 
ENDROOT
BRANCH   3   5
HETATM    5  O   UNL     1      -9.775  10.243  63.211  1.00  0.00    -0.301 OA 
BRANCH   5   6
HETATM    6  C   UNL     1     -10.296  11.582  63.102  1.00  0.00    -0.324 C  
BRANCH   6   7
HETATM    7  C   UNL     1     -11.302  11.922  64.225  1.00  0.00    -0.353 C  
BRANCH   7   8
HETATM    8  N   UNL     1     -10.705  12.195  65.547  1.00  0.00    -0.273 NA 
HETATM    9  C   UNL     1      -9.667  13.250  65.503  1.00  0.00    -0.042 C  
HETATM   10  C   UNL     1     -10.211  14.693  65.341  1.00  0.00    -0.387 C  
HETATM   11  N   UNL     1     -11.203  15.100  66.368  1.00  0.00    -0.317 NA 
HETATM   12  C   UNL     1     -12.259  14.058  66.383  1.00  0.00    -0.460 C  
HETATM   13  C   UNL     1     -11.752  12.598  66.518  1.00  0.00    -0.400 C  
BRANCH  11  14
HETATM   14  C   UNL     1     -10.562  15.315  67.704  1.00  0.00    -0.270 C  
BRANCH  14  15
HETATM   15  C   UNL     1     -10.058  16.761  67.873  1.00  0.00    -0.284 A  
HETATM   16  C   UNL     1      -8.843  17.008  68.538  1.00  0.00    -0.253 A  
HETATM   17  C   UNL     1     -10.728  17.856  67.297  1.00  0.00    -0.278 A  
HETATM   18  C   UNL     1      -8.306  18.298  68.598  1.00  0.00    -0.305 A  
HETATM   19  C   UNL     1      -8.984  19.366  68.017  1.00  0.00    -0.371 A  
HETATM   20  C   UNL     1     -10.201  19.147  67.377  1.00  0.00    -0.490 A  
ENDBRANCH  14  15
BRANCH  14  21
HETATM   21  C   UNL     1     -11.439  14.862  68.884  1.00  0.00    -0.320 A  
HETATM   22  C   UNL     1     -12.949  14.134  71.147  1.00  0.00    -0.349 A  
HETATM   23 CL   UNL     1     -13.844  13.698  72.549  1.00  0.00    -0.657 Cl 
HETATM   24  C   UNL     1     -12.170  13.182  70.498  1.00  0.00    -0.405 A  
HETATM   25  C   UNL     1     -12.249  15.803  69.548  1.00  0.00    -0.178 A  
HETATM   26  C   UNL     1     -11.413  13.546  69.379  1.00  0.00    -0.340 A  
HETATM   27  C   UNL     1     -12.993  15.444  70.677  1.00  0.00    -0.450 A  
ENDBRANCH  14  21
ENDBRANCH  11  14
ENDBRANCH   7   8
ENDBRANCH   6   7
ENDBRANCH   5   6
ENDBRANCH   3   5
TORSDOF 7
ENDMDL
MODEL       27
REMARK 921   NORMALIZED FREE ENERGY PREDICTED BY IDOCK:   -5.65 KCAL/MOL
REMARK 922        TOTAL FREE ENERGY PREDICTED BY IDOCK:   -8.65 KCAL/MOL
REMARK 923 INTER-LIGAND FREE ENERGY PREDICTED BY IDOCK:   -8.66 KCAL/MOL
REMARK 924 INTRA-LIGAND FREE ENERGY PREDICTED BY IDOCK:    0.01 KCAL/MOL
REMARK 927      BINDING AFFINITY PREDICTED BY RF-SCORE:    0.00 PKD
ROOT
HETATM    1  O   UNL     1      -9.749   3.713  67.100  1.00  0.00    -0.199 OA 
HETATM    2  C   UNL     1     -10.192   4.531  66.114  1.00  0.00    -0.254 C  
HETATM    3  C   UNL     1     -10.737   5.846  66.650  1.00  0.00    -0.252 C  
HETATM    4  O   UNL     1     -10.154   4.236  64.928  1.00  0.00    -0.197 OA 
ENDROOT
BRANCH   3   5
HETATM    5  O   UNL     1     -10.734   5.846  68.085  1.00  0.00    -0.248 OA 
BRANCH   5   6
HETATM    6  C   UNL     1      -9.877   6.869  68.628  1.00  0.00    -0.145 C  
BRANCH   6   7
HETATM    7  C   UNL     1     -10.633   7.852  69.551  1.00  0.00    -0.219 C  
BRANCH   7   8
HETATM    8  N   UNL     1     -10.041   9.199  69.658  1.00  0.00    -0.190 NA 
HETATM    9  C   UNL     1      -9.938   9.889  68.353  1.00  0.00    -0.158 C  
HETATM   10  C   UNL     1     -11.283  10.417  67.788  1.00  0.00    -0.237 C  
HETATM   11  N   UNL     1     -12.027  11.321  68.702  1.00  0.00    -0.537 NA 
HETATM   12  C   UNL     1     -12.157  10.610  69.998  1.00  0.00    -0.316 C  
HETATM   13  C   UNL     1     -10.836  10.045  70.583  1.00  0.00    -0.297 C  
BRANCH  11  14
HETATM   14  C   UNL     1     -11.363  12.658  68.822  1.00  0.00    -0.289 C  
BRANCH  14  15
HETATM   15  C   UNL     1     -11.341  13.410  67.477  1.00  0.00    -0.327 A  
HETATM   16  C   UNL     1     -10.118  13.856  66.942  1.00  0.00    -0.260 A  
HETATM   17  C   UNL     1     -12.503  13.589  66.705  1.00  0.00    -0.263 A  
HETATM   18  C   UNL     1     -10.059  14.433  65.670  1.00  0.00    -0.377 A  
HETATM   19  C   UNL     1     -11.221  14.596  64.921  1.00  0.00    -0.400 A  
HETATM   20  C   UNL     1     -12.444  14.186  65.442  1.00  0.00    -0.488 A  
ENDBRANCH  14  15
BRANCH  14  21
HETATM   21  C   UNL     1     -11.926  13.521  69.964  1.00  0.00    -0.410 A  
HETATM   22  C   UNL     1     -12.795  15.113  72.118  1.00  0.00    -0.344 A  
HETATM   23 CL   UNL     1     -13.299  16.074  73.452  1.00  0.00    -0.661 Cl 
HETATM   24  C   UNL     1     -13.218  13.791  72.017  1.00  0.00    -0.520 A  
HETATM   25  C   UNL     1     -11.526  14.866  70.079  1.00  0.00    -0.317 A  
HETATM   26  C   UNL     1     -12.779  12.999  70.952  1.00  0.00    -0.299 A  
HETATM   27  C   UNL     1     -11.951  15.655  71.153  1.00  0.00    -0.457 A  
ENDBRANCH  14  21
ENDBRANCH  11  14
ENDBRANCH   7   8
ENDBRANCH   6   7
ENDBRANCH   5   6
ENDBRANCH   3   5
TORSDOF 7
ENDMDL
MODEL       28
REMARK 921   NORMALIZED FREE ENERGY PREDICTED BY IDOCK:   -5.65 KCAL/MOL
REMARK 922        TOTAL FREE ENERGY PREDICTED BY IDOCK:   -8.65 KCAL/MOL
REMARK 923 INTER-LIGAND FREE ENERGY PREDICTED BY IDOCK:   -7.88 KCAL/MOL
REMARK 924 INTRA-LIGAND FREE ENERGY PREDICTED BY IDOCK:   -0.77 KCAL/MOL
REMARK 927      BINDING AFFINITY PREDICTED BY RF-SCORE:    0.00 PKD
ROOT
HETATM    1  O   UNL     1      -9.887   5.065  68.200  1.00  0.00    -0.145 OA 
HETATM    2  C   UNL     1     -10.768   6.074  68.413  1.00  0.00    -0.280 C  
HETATM    3  C   UNL     1     -10.713   7.133  67.322  1.00  0.00    -0.329 C  
HETATM    4  O   UNL     1     -11.516   6.121  69.378  1.00  0.00    -0.423 OA 
ENDROOT
BRANCH   3   5
HETATM    5  O   UNL     1      -9.665   6.840  66.386  1.00  0.00    -0.151 OA 
BRANCH   5   6
HETATM    6  C   UNL     1      -8.738   7.934  66.245  1.00  0.00    -0.154 C  
BRANCH   6   7
HETATM    7  C   UNL     1      -8.377   8.587  67.599  1.00  0.00    -0.129 C  
BRANCH   7   8
HETATM    8  N   UNL     1      -8.233  10.055  67.573  1.00  0.00    -0.114 NA 
HETATM    9  C   UNL     1      -9.101  10.702  66.563  1.00  0.00    -0.162 C  
HETATM   10  C   UNL     1     -10.605  10.757  66.937  1.00  0.00    -0.258 C  
HETATM   11  N   UNL     1     -10.896  11.405  68.241  1.00  0.00    -0.196 NA 
HETATM   12  C   UNL     1     -10.050  10.730  69.255  1.00  0.00    -0.177 C  
HETATM   13  C   UNL     1      -8.541  10.632  68.905  1.00  0.00    -0.158 C  
BRANCH  11  14
HETATM   14  C   UNL     1     -10.686  12.887  68.183  1.00  0.00    -0.241 C  
BRANCH  14  15
HETATM   15  C   UNL     1     -11.097  13.471  66.819  1.00  0.00    -0.311 A  
HETATM   16  C   UNL     1     -12.432  13.369  66.384  1.00  0.00    -0.297 A  
HETATM   17  C   UNL     1     -10.198  14.199  66.017  1.00  0.00    -0.318 A  
HETATM   18  C   UNL     1     -12.855  13.995  65.208  1.00  0.00    -0.418 A  
HETATM   19  C   UNL     1     -11.948  14.713  64.433  1.00  0.00    -0.454 A  
HETATM   20  C   UNL     1     -10.618  14.805  64.831  1.00  0.00    -0.431 A  
ENDBRANCH  14  15
BRANCH  14  21
HETATM   21  C   UNL     1     -11.329  13.642  69.359  1.00  0.00    -0.303 A  
HETATM   22  C   UNL     1     -12.351  15.025  71.590  1.00  0.00    -0.342 A  
HETATM   23 CL   UNL     1     -12.949  15.856  72.971  1.00  0.00    -0.584 Cl 
HETATM   24  C   UNL     1     -12.792  13.736  71.311  1.00  0.00    -0.434 A  
HETATM   25  C   UNL     1     -10.911  14.955  69.652  1.00  0.00    -0.294 A  
HETATM   26  C   UNL     1     -12.278  13.046  70.208  1.00  0.00    -0.368 A  
HETATM   27  C   UNL     1     -11.412  15.639  70.764  1.00  0.00    -0.409 A  
ENDBRANCH  14  21
ENDBRANCH  11  14
ENDBRANCH   7   8
ENDBRANCH   6   7
ENDBRANCH   5   6
ENDBRANCH   3   5
TORSDOF 7
ENDMDL
MODEL       29
REMARK 921   NORMALIZED FREE ENERGY PREDICTED BY IDOCK:   -5.65 KCAL/MOL
REMARK 922        TOTAL FREE ENERGY PREDICTED BY IDOCK:   -8.64 KCAL/MOL
REMARK 923 INTER-LIGAND FREE ENERGY PREDICTED BY IDOCK:   -7.82 KCAL/MOL
REMARK 924 INTRA-LIGAND FREE ENERGY PREDICTED BY IDOCK:   -0.82 KCAL/MOL
REMARK 927      BINDING AFFINITY PREDICTED BY RF-SCORE:    0.00 PKD
ROOT
HETATM    1  O   UNL     1     -13.737  14.093  72.940  1.00  0.00    -0.658 OA 
HETATM    2  C   UNL     1     -13.487  15.406  72.714  1.00  0.00    -0.538 C  
HETATM    3  C   UNL     1     -12.473  15.622  71.601  1.00  0.00    -0.438 C  
HETATM    4  O   UNL     1     -14.020  16.310  73.342  1.00  0.00    -0.500 OA 
ENDROOT
BRANCH   3   5
HETATM    5  O   UNL     1     -11.961  14.365  71.133  1.00  0.00    -0.334 OA 
BRANCH   5   6
HETATM    6  C   UNL     1     -12.242  14.148  69.736  1.00  0.00    -0.344 C  
BRANCH   6   7
HETATM    7  C   UNL     1     -11.401  13.002  69.131  1.00  0.00    -0.273 C  
BRANCH   7   8
HETATM    8  N   UNL     1     -12.075  11.691  69.068  1.00  0.00    -0.338 NA 
HETATM    9  C   UNL     1     -11.748  10.933  67.838  1.00  0.00    -0.068 C  
HETATM   10  C   UNL     1     -10.326  10.315  67.813  1.00  0.00    -0.204 C  
HETATM   11  N   UNL     1     -10.014   9.432  68.965  1.00  0.00    -0.171 NA 
HETATM   12  C   UNL     1     -10.309  10.207  70.195  1.00  0.00    -0.224 C  
HETATM   13  C   UNL     1     -11.714  10.863  70.246  1.00  0.00    -0.347 C  
BRANCH  11  14
HETATM   14  C   UNL     1     -10.759   8.135  68.887  1.00  0.00    -0.064 C  
BRANCH  14  15
HETATM   15  C   UNL     1     -10.251   7.250  67.733  1.00  0.00    -0.247 A  
HETATM   16  C   UNL     1      -8.956   7.445  67.216  1.00  0.00    -0.128 A  
HETATM   17  C   UNL     1     -11.005   6.174  67.230  1.00  0.00    -0.418 A  
HETATM   18  C   UNL     1      -8.430   6.579  66.253  1.00  0.00    -0.129 A  
HETATM   19  C   UNL     1      -9.193   5.519  65.772  1.00  0.00    -0.132 A  
HETATM   20  C   UNL     1     -10.485   5.323  66.252  1.00  0.00    -0.311 A  
ENDBRANCH  14  15
BRANCH  14  21
HETATM   21  C   UNL     1     -10.809   7.377  70.225  1.00  0.00    -0.260 A  
HETATM   22  C   UNL     1     -10.838   5.849  72.591  1.00  0.00    -0.251 A  
HETATM   23 CL   UNL     1     -10.858   4.888  74.016  1.00  0.00    -0.351 Cl 
HETATM   24  C   UNL     1     -12.034   6.291  72.036  1.00  0.00    -0.353 A  
HETATM   25  C   UNL     1      -9.610   6.933  70.816  1.00  0.00    -0.167 A  
HETATM   26  C   UNL     1     -12.020   7.042  70.856  1.00  0.00    -0.409 A  
HETATM   27  C   UNL     1      -9.624   6.167  71.987  1.00  0.00    -0.164 A  
ENDBRANCH  14  21
ENDBRANCH  11  14
ENDBRANCH   7   8
ENDBRANCH   6   7
ENDBRANCH   5   6
ENDBRANCH   3   5
TORSDOF 7
ENDMDL
MODEL       30
REMARK 921   NORMALIZED FREE ENERGY PREDICTED BY IDOCK:   -5.63 KCAL/MOL
REMARK 922        TOTAL FREE ENERGY PREDICTED BY IDOCK:   -8.62 KCAL/MOL
REMARK 923 INTER-LIGAND FREE ENERGY PREDICTED BY IDOCK:   -7.75 KCAL/MOL
REMARK 924 INTRA-LIGAND FREE ENERGY PREDICTED BY IDOCK:   -0.87 KCAL/MOL
REMARK 927      BINDING AFFINITY PREDICTED BY RF-SCORE:    0.00 PKD
ROOT
HETATM    1  O   UNL     1     -12.663  14.495  73.449  1.00  0.00    -0.472 OA 
HETATM    2  C   UNL     1     -13.670  14.483  72.540  1.00  0.00    -0.476 C  
HETATM    3  C   UNL     1     -13.901  13.102  71.947  1.00  0.00    -0.168 C  
HETATM    4  O   UNL     1     -14.313  15.478  72.236  1.00  0.00    -0.562 OA 
ENDROOT
BRANCH   3   5
HETATM    5  O   UNL     1     -12.922  12.173  72.433  1.00  0.00    -0.214 OA 
BRANCH   5   6
HETATM    6  C   UNL     1     -13.133  10.841  71.923  1.00  0.00    -0.451 C  
BRANCH   6   7
HETATM    7  C   UNL     1     -12.769  10.712  70.427  1.00  0.00    -0.265 C  
BRANCH   7   8
HETATM    8  N   UNL     1     -11.426  11.201  70.060  1.00  0.00    -0.298 NA 
HETATM    9  C   UNL     1     -10.678  10.248  69.209  1.00  0.00    -0.234 C  
HETATM   10  C   UNL     1     -11.160  10.172  67.737  1.00  0.00    -0.227 C  
HETATM   11  N   UNL     1     -11.178  11.473  67.022  1.00  0.00    -0.320 NA 
HETATM   12  C   UNL     1     -11.959  12.415  67.862  1.00  0.00    -0.196 C  
HETATM   13  C   UNL     1     -11.521  12.500  69.348  1.00  0.00    -0.263 C  
BRANCH  11  14
HETATM   14  C   UNL     1      -9.794  11.956  66.717  1.00  0.00    -0.197 C  
BRANCH  14  15
HETATM   15  C   UNL     1      -9.162  11.182  65.545  1.00  0.00    -0.236 A  
HETATM   16  C   UNL     1      -7.868  10.643  65.677  1.00  0.00    -0.123 A  
HETATM   17  C   UNL     1      -9.873  10.905  64.363  1.00  0.00    -0.365 A  
HETATM   18  C   UNL     1      -7.321   9.835  64.675  1.00  0.00    -0.134 A  
HETATM   19  C   UNL     1      -8.045   9.571  63.516  1.00  0.00    -0.151 A  
HETATM   20  C   UNL     1      -9.316  10.116  63.354  1.00  0.00    -0.334 A  
ENDBRANCH  14  15
BRANCH  14  21
HETATM   21  C   UNL     1      -9.707  13.480  66.523  1.00  0.00    -0.287 A  
HETATM   22  C   UNL     1      -9.629  16.288  66.321  1.00  0.00    -0.308 A  
HETATM   23 CL   UNL     1      -9.610  18.004  66.218  1.00  0.00    -0.278 Cl 
HETATM   24  C   UNL     1     -10.381  15.548  65.414  1.00  0.00    -0.422 A  
HETATM   25  C   UNL     1      -8.940  14.251  67.418  1.00  0.00    -0.205 A  
HETATM   26  C   UNL     1     -10.426  14.154  65.520  1.00  0.00    -0.352 A  
HETATM   27  C   UNL     1      -8.908  15.646  67.323  1.00  0.00    -0.215 A  
ENDBRANCH  14  21
ENDBRANCH  11  14
ENDBRANCH   7   8
ENDBRANCH   6   7
ENDBRANCH   5   6
ENDBRANCH   3   5
TORSDOF 7
ENDMDL
MODEL       31
REMARK 921   NORMALIZED FREE ENERGY PREDICTED BY IDOCK:   -5.63 KCAL/MOL
REMARK 922        TOTAL FREE ENERGY PREDICTED BY IDOCK:   -8.61 KCAL/MOL
REMARK 923 INTER-LIGAND FREE ENERGY PREDICTED BY IDOCK:   -7.86 KCAL/MOL
REMARK 924 INTRA-LIGAND FREE ENERGY PREDICTED BY IDOCK:   -0.76 KCAL/MOL
REMARK 927      BINDING AFFINITY PREDICTED BY RF-SCORE:    0.00 PKD
ROOT
HETATM    1  O   UNL     1     -13.010  12.627  64.956  1.00  0.00    -0.812 OA 
HETATM    2  C   UNL     1     -12.207  13.005  63.930  1.00  0.00    -0.437 C  
HETATM    3  C   UNL     1     -10.864  12.292  63.950  1.00  0.00    -0.412 C  
HETATM    4  O   UNL     1     -12.535  13.829  63.089  1.00  0.00    -0.786 OA 
ENDROOT
BRANCH   3   5
HETATM    5  O   UNL     1     -10.749  11.463  65.116  1.00  0.00    -0.289 OA 
BRANCH   5   6
HETATM    6  C   UNL     1      -9.721  11.925  66.014  1.00  0.00    -0.237 C  
BRANCH   6   7
HETATM    7  C   UNL     1      -8.794  10.785  66.494  1.00  0.00    -0.155 C  
BRANCH   7   8
HETATM    8  N   UNL     1      -8.723  10.604  67.957  1.00  0.00    -0.124 NA 
HETATM    9  C   UNL     1     -10.040  10.737  68.619  1.00  0.00    -0.183 C  
HETATM   10  C   UNL     1     -10.995   9.531  68.416  1.00  0.00    -0.069 C  
HETATM   11  N   UNL     1     -10.433   8.220  68.825  1.00  0.00    -0.204 NA 
HETATM   12  C   UNL     1      -9.129   8.076  68.131  1.00  0.00    -0.134 C  
HETATM   13  C   UNL     1      -8.155   9.273  68.290  1.00  0.00    -0.107 C  
BRANCH  11  14
HETATM   14  C   UNL     1     -10.330   8.100  70.314  1.00  0.00    -0.209 C  
BRANCH  14  15
HETATM   15  C   UNL     1     -11.703   8.246  70.997  1.00  0.00    -0.293 A  
HETATM   16  C   UNL     1     -12.068   9.472  71.585  1.00  0.00    -0.474 A  
HETATM   17  C   UNL     1     -12.661   7.216  70.975  1.00  0.00    -0.335 A  
HETATM   18  C   UNL     1     -13.352   9.666  72.103  1.00  0.00    -0.545 A  
HETATM   19  C   UNL     1     -14.285   8.633  72.066  1.00  0.00    -0.524 A  
HETATM   20  C   UNL     1     -13.936   7.405  71.513  1.00  0.00    -0.517 A  
ENDBRANCH  14  15
BRANCH  14  21
HETATM   21  C   UNL     1      -9.580   6.839  70.776  1.00  0.00    -0.173 A  
HETATM   22  C   UNL     1      -8.068   4.587  71.535  1.00  0.00    -0.100 A  
HETATM   23 CL   UNL     1      -7.125   3.217  71.970  1.00  0.00    -0.037 Cl 
HETATM   24  C   UNL     1      -9.175   4.432  70.706  1.00  0.00    -0.203 A  
HETATM   25  C   UNL     1      -8.466   6.967  71.628  1.00  0.00    -0.117 A  
HETATM   26  C   UNL     1      -9.920   5.552  70.323  1.00  0.00    -0.281 A  
HETATM   27  C   UNL     1      -7.710   5.850  71.999  1.00  0.00    -0.102 A  
ENDBRANCH  14  21
ENDBRANCH  11  14
ENDBRANCH   7   8
ENDBRANCH   6   7
ENDBRANCH   5   6
ENDBRANCH   3   5
TORSDOF 7
ENDMDL
MODEL       32
REMARK 921   NORMALIZED FREE ENERGY PREDICTED BY IDOCK:   -5.62 KCAL/MOL
REMARK 922        TOTAL FREE ENERGY PREDICTED BY IDOCK:   -8.60 KCAL/MOL
REMARK 923 INTER-LIGAND FREE ENERGY PREDICTED BY IDOCK:   -7.75 KCAL/MOL
REMARK 924 INTRA-LIGAND FREE ENERGY PREDICTED BY IDOCK:   -0.84 KCAL/MOL
REMARK 927      BINDING AFFINITY PREDICTED BY RF-SCORE:    0.00 PKD
ROOT
HETATM    1  O   UNL     1      -7.106  10.008  64.845  1.00  0.00    -0.127 OA 
HETATM    2  C   UNL     1      -7.371  10.025  63.516  1.00  0.00    -0.138 C  
HETATM    3  C   UNL     1      -8.862   9.969  63.219  1.00  0.00    -0.237 C  
HETATM    4  O   UNL     1      -6.502  10.078  62.658  1.00  0.00    -0.110 OA 
ENDROOT
BRANCH   3   5
HETATM    5  O   UNL     1      -9.612   9.813  64.432  1.00  0.00    -0.258 OA 
BRANCH   5   6
HETATM    6  C   UNL     1     -10.554  10.885  64.632  1.00  0.00    -0.262 C  
BRANCH   6   7
HETATM    7  C   UNL     1     -10.480  11.486  66.054  1.00  0.00    -0.252 C  
BRANCH   7   8
HETATM    8  N   UNL     1     -11.305  12.689  66.275  1.00  0.00    -0.311 NA 
HETATM    9  C   UNL     1     -11.905  12.736  67.627  1.00  0.00    -0.339 C  
HETATM   10  C   UNL     1     -10.914  13.086  68.768  1.00  0.00    -0.258 C  
HETATM   11  N   UNL     1     -10.172  14.358  68.575  1.00  0.00    -0.238 NA 
HETATM   12  C   UNL     1      -9.544  14.290  67.233  1.00  0.00    -0.232 C  
HETATM   13  C   UNL     1     -10.499  13.918  66.069  1.00  0.00    -0.298 C  
BRANCH  11  14
HETATM   14  C   UNL     1     -11.059  15.550  68.757  1.00  0.00    -0.291 C  
BRANCH  14  15
HETATM   15  C   UNL     1     -11.756  15.543  70.131  1.00  0.00    -0.367 A  
HETATM   16  C   UNL     1     -13.150  15.369  70.211  1.00  0.00    -0.111 A  
HETATM   17  C   UNL     1     -11.030  15.611  71.335  1.00  0.00    -0.150 A  
HETATM   18  C   UNL     1     -13.788  15.239  71.449  1.00  0.00    -0.603 A  
HETATM   19  C   UNL     1     -13.049  15.304  72.627  1.00  0.00    -0.526 A  
HETATM   20  C   UNL     1     -11.673  15.502  72.571  1.00  0.00    -0.569 A  
ENDBRANCH  14  15
BRANCH  14  21
HETATM   21  C   UNL     1     -10.355  16.887  68.467  1.00  0.00    -0.336 A  
HETATM   22  C   UNL     1      -9.072  19.294  67.766  1.00  0.00    -0.306 A  
HETATM   23 CL   UNL     1      -8.276  20.748  67.310  1.00  0.00    -0.319 Cl 
HETATM   24  C   UNL     1      -8.389  18.333  68.506  1.00  0.00    -0.327 A  
HETATM   25  C   UNL     1     -11.030  17.882  67.734  1.00  0.00    -0.097 A  
HETATM   26  C   UNL     1      -9.024  17.134  68.846  1.00  0.00    -0.189 A  
HETATM   27  C   UNL     1     -10.391  19.074  67.379  1.00  0.00    -0.504 A  
ENDBRANCH  14  21
ENDBRANCH  11  14
ENDBRANCH   7   8
ENDBRANCH   6   7
ENDBRANCH   5   6
ENDBRANCH   3   5
TORSDOF 7
ENDMDL
MODEL       33
REMARK 921   NORMALIZED FREE ENERGY PREDICTED BY IDOCK:   -5.55 KCAL/MOL
REMARK 922        TOTAL FREE ENERGY PREDICTED BY IDOCK:   -8.51 KCAL/MOL
REMARK 923 INTER-LIGAND FREE ENERGY PREDICTED BY IDOCK:   -7.44 KCAL/MOL
REMARK 924 INTRA-LIGAND FREE ENERGY PREDICTED BY IDOCK:   -1.07 KCAL/MOL
REMARK 927      BINDING AFFINITY PREDICTED BY RF-SCORE:    0.00 PKD
ROOT
HETATM    1  O   UNL     1     -14.206   7.235  71.246  1.00  0.00    -0.394 OA 
HETATM    2  C   UNL     1     -13.267   8.099  71.704  1.00  0.00    -0.332 C  
HETATM    3  C   UNL     1     -11.900   7.855  71.082  1.00  0.00    -0.287 C  
HETATM    4  O   UNL     1     -13.501   8.973  72.526  1.00  0.00    -0.454 OA 
ENDROOT
BRANCH   3   5
HETATM    5  O   UNL     1     -11.931   6.699  70.233  1.00  0.00    -0.387 OA 
BRANCH   5   6
HETATM    6  C   UNL     1     -10.809   6.656  69.329  1.00  0.00    -0.289 C  
BRANCH   6   7
HETATM    7  C   UNL     1      -9.650   7.576  69.775  1.00  0.00    -0.163 C  
BRANCH   7   8
HETATM    8  N   UNL     1      -9.020   8.363  68.698  1.00  0.00    -0.140 NA 
HETATM    9  C   UNL     1      -9.944   8.652  67.578  1.00  0.00    -0.199 C  
HETATM   10  C   UNL     1     -11.013   9.735  67.879  1.00  0.00    -0.188 C  
HETATM   11  N   UNL     1     -10.464  11.036  68.338  1.00  0.00    -0.171 NA 
HETATM   12  C   UNL     1      -9.566  10.745  69.483  1.00  0.00     0.054 C  
HETATM   13  C   UNL     1      -8.498   9.648  69.228  1.00  0.00    -0.150 C  
BRANCH  11  14
HETATM   14  C   UNL     1      -9.788  11.776  67.226  1.00  0.00    -0.185 C  
BRANCH  14  15
HETATM   15  C   UNL     1     -10.695  11.903  65.987  1.00  0.00    -0.326 A  
HETATM   16  C   UNL     1     -11.912  12.604  66.076  1.00  0.00    -0.478 A  
HETATM   17  C   UNL     1     -10.305  11.419  64.725  1.00  0.00    -0.349 A  
HETATM   18  C   UNL     1     -12.693  12.835  64.939  1.00  0.00    -0.479 A  
HETATM   19  C   UNL     1     -12.285  12.350  63.700  1.00  0.00    -0.653 A  
HETATM   20  C   UNL     1     -11.098  11.632  63.594  1.00  0.00    -0.506 A  
ENDBRANCH  14  15
BRANCH  14  21
HETATM   21  C   UNL     1      -9.201  13.131  67.660  1.00  0.00    -0.207 A  
HETATM   22  C   UNL     1      -8.019  15.524  68.559  1.00  0.00    -0.137 A  
HETATM   23 CL   UNL     1      -7.288  16.968  69.137  1.00  0.00    -0.225 Cl 
HETATM   24  C   UNL     1      -9.352  15.255  68.852  1.00  0.00    -0.213 A  
HETATM   25  C   UNL     1      -7.859  13.433  67.361  1.00  0.00    -0.154 A  
HETATM   26  C   UNL     1      -9.937  14.063  68.413  1.00  0.00    -0.236 A  
HETATM   27  C   UNL     1      -7.269  14.618  67.814  1.00  0.00    -0.191 A  
ENDBRANCH  14  21
ENDBRANCH  11  14
ENDBRANCH   7   8
ENDBRANCH   6   7
ENDBRANCH   5   6
ENDBRANCH   3   5
TORSDOF 7
ENDMDL
MODEL       34
REMARK 921   NORMALIZED FREE ENERGY PREDICTED BY IDOCK:   -5.55 KCAL/MOL
REMARK 922        TOTAL FREE ENERGY PREDICTED BY IDOCK:   -8.50 KCAL/MOL
REMARK 923 INTER-LIGAND FREE ENERGY PREDICTED BY IDOCK:   -7.78 KCAL/MOL
REMARK 924 INTRA-LIGAND FREE ENERGY PREDICTED BY IDOCK:   -0.72 KCAL/MOL
REMARK 927      BINDING AFFINITY PREDICTED BY RF-SCORE:    0.00 PKD
ROOT
HETATM    1  O   UNL     1     -11.635  15.427  64.475  1.00  0.00    -0.397 OA 
HETATM    2  C   UNL     1     -12.272  14.240  64.326  1.00  0.00    -0.423 C  
HETATM    3  C   UNL     1     -12.577  13.573  65.659  1.00  0.00    -0.459 C  
HETATM    4  O   UNL     1     -12.564  13.765  63.239  1.00  0.00    -0.830 OA 
ENDROOT
BRANCH   3   5
HETATM    5  O   UNL     1     -12.020  14.332  66.743  1.00  0.00    -0.414 OA 
BRANCH   5   6
HETATM    6  C   UNL     1     -11.002  13.602  67.454  1.00  0.00    -0.276 C  
BRANCH   6   7
HETATM    7  C   UNL     1     -11.565  12.818  68.662  1.00  0.00    -0.314 C  
BRANCH   7   8
HETATM    8  N   UNL     1     -11.948  11.421  68.384  1.00  0.00    -0.590 NA 
HETATM    9  C   UNL     1     -11.005  10.735  67.472  1.00  0.00    -0.312 C  
HETATM   10  C   UNL     1      -9.649  10.340  68.113  1.00  0.00    -0.140 C  
HETATM   11  N   UNL     1      -9.761   9.503  69.334  1.00  0.00    -0.173 NA 
HETATM   12  C   UNL     1     -10.679  10.211  70.259  1.00  0.00    -0.293 C  
HETATM   13  C   UNL     1     -12.037  10.645  69.646  1.00  0.00    -0.240 C  
BRANCH  11  14
HETATM   14  C   UNL     1     -10.203   8.109  69.010  1.00  0.00    -0.220 C  
BRANCH  14  15
HETATM   15  C   UNL     1      -9.237   7.414  68.031  1.00  0.00    -0.132 A  
HETATM   16  C   UNL     1      -9.742   6.774  66.884  1.00  0.00    -0.215 A  
HETATM   17  C   UNL     1      -7.841   7.476  68.190  1.00  0.00    -0.122 A  
HETATM   18  C   UNL     1      -8.879   6.242  65.920  1.00  0.00    -0.148 A  
HETATM   19  C   UNL     1      -7.500   6.318  66.097  1.00  0.00    -0.085 A  
HETATM   20  C   UNL     1      -6.981   6.924  67.237  1.00  0.00    -0.078 A  
ENDBRANCH  14  15
BRANCH  14  21
HETATM   21  C   UNL     1     -10.485   7.252  70.256  1.00  0.00    -0.231 A  
HETATM   22  C   UNL     1     -10.959   5.543  72.445  1.00  0.00    -0.255 A  
HETATM   23 CL   UNL     1     -11.255   4.474  73.758  1.00  0.00    -0.329 Cl 
HETATM   24  C   UNL     1     -12.015   6.243  71.869  1.00  0.00    -0.342 A  
HETATM   25  C   UNL     1      -9.431   6.546  70.868  1.00  0.00    -0.179 A  
HETATM   26  C   UNL     1     -11.781   7.085  70.777  1.00  0.00    -0.394 A  
HETATM   27  C   UNL     1      -9.667   5.691  71.949  1.00  0.00    -0.191 A  
ENDBRANCH  14  21
ENDBRANCH  11  14
ENDBRANCH   7   8
ENDBRANCH   6   7
ENDBRANCH   5   6
ENDBRANCH   3   5
TORSDOF 7
ENDMDL
MODEL       35
REMARK 921   NORMALIZED FREE ENERGY PREDICTED BY IDOCK:   -5.54 KCAL/MOL
REMARK 922        TOTAL FREE ENERGY PREDICTED BY IDOCK:   -8.49 KCAL/MOL
REMARK 923 INTER-LIGAND FREE ENERGY PREDICTED BY IDOCK:   -8.65 KCAL/MOL
REMARK 924 INTRA-LIGAND FREE ENERGY PREDICTED BY IDOCK:    0.16 KCAL/MOL
REMARK 927      BINDING AFFINITY PREDICTED BY RF-SCORE:    0.00 PKD
ROOT
HETATM    1  O   UNL     1      -9.877   4.230  72.345  1.00  0.00    -0.145 OA 
HETATM    2  C   UNL     1     -10.799   4.906  73.074  1.00  0.00    -0.265 C  
HETATM    3  C   UNL     1     -11.497   5.991  72.267  1.00  0.00    -0.312 C  
HETATM    4  O   UNL     1     -11.035   4.666  74.249  1.00  0.00    -0.314 OA 
ENDROOT
BRANCH   3   5
HETATM    5  O   UNL     1     -10.927   6.087  70.953  1.00  0.00    -0.273 OA 
BRANCH   5   6
HETATM    6  C   UNL     1     -11.386   7.256  70.244  1.00  0.00    -0.238 C  
BRANCH   6   7
HETATM    7  C   UNL     1     -10.428   7.677  69.107  1.00  0.00    -0.214 C  
BRANCH   7   8
HETATM    8  N   UNL     1      -9.813   9.010  69.262  1.00  0.00    -0.175 NA 
HETATM    9  C   UNL     1      -9.778   9.778  67.997  1.00  0.00    -0.145 C  
HETATM   10  C   UNL     1     -11.146  10.353  67.546  1.00  0.00    -0.267 C  
HETATM   11  N   UNL     1     -11.824  11.205  68.555  1.00  0.00    -0.525 NA 
HETATM   12  C   UNL     1     -11.888  10.417  69.810  1.00  0.00    -0.207 C  
HETATM   13  C   UNL     1     -10.543   9.805  70.281  1.00  0.00    -0.292 C  
BRANCH  11  14
HETATM   14  C   UNL     1     -11.136  12.526  68.716  1.00  0.00    -0.270 C  
BRANCH  14  15
HETATM   15  C   UNL     1     -10.990  13.264  67.373  1.00  0.00    -0.287 A  
HETATM   16  C   UNL     1     -12.126  13.508  66.578  1.00  0.00    -0.460 A  
HETATM   17  C   UNL     1      -9.760  13.798  66.945  1.00  0.00    -0.265 A  
HETATM   18  C   UNL     1     -12.037  14.280  65.415  1.00  0.00    -0.396 A  
HETATM   19  C   UNL     1     -10.810  14.801  65.013  1.00  0.00    -0.440 A  
HETATM   20  C   UNL     1      -9.670  14.550  65.771  1.00  0.00    -0.306 A  
ENDBRANCH  14  15
BRANCH  14  21
HETATM   21  C   UNL     1     -11.765  13.413  69.804  1.00  0.00    -0.355 A  
HETATM   22  C   UNL     1     -13.071  15.003  71.728  1.00  0.00    -0.356 A  
HETATM   23 CL   UNL     1     -13.895  15.978  72.880  1.00  0.00    -0.570 Cl 
HETATM   24  C   UNL     1     -12.217  15.595  70.803  1.00  0.00    -0.463 A  
HETATM   25  C   UNL     1     -12.620  12.836  70.763  1.00  0.00    -0.308 A  
HETATM   26  C   UNL     1     -11.575  14.806  69.842  1.00  0.00    -0.330 A  
HETATM   27  C   UNL     1     -13.276  13.626  71.713  1.00  0.00    -0.477 A  
ENDBRANCH  14  21
ENDBRANCH  11  14
ENDBRANCH   7   8
ENDBRANCH   6   7
ENDBRANCH   5   6
ENDBRANCH   3   5
TORSDOF 7
ENDMDL
MODEL       36
REMARK 921   NORMALIZED FREE ENERGY PREDICTED BY IDOCK:   -5.50 KCAL/MOL
REMARK 922        TOTAL FREE ENERGY PREDICTED BY IDOCK:   -8.44 KCAL/MOL
REMARK 923 INTER-LIGAND FREE ENERGY PREDICTED BY IDOCK:   -7.61 KCAL/MOL
REMARK 924 INTRA-LIGAND FREE ENERGY PREDICTED BY IDOCK:   -0.83 KCAL/MOL
REMARK 927      BINDING AFFINITY PREDICTED BY RF-SCORE:    0.00 PKD
ROOT
HETATM    1  O   UNL     1     -11.104  16.735  64.362  1.00  0.00    -1.072 OA 
HETATM    2  C   UNL     1     -11.752  15.547  64.446  1.00  0.00    -0.242 C  
HETATM    3  C   UNL     1     -11.057  14.570  65.382  1.00  0.00    -0.345 C  
HETATM    4  O   UNL     1     -12.780  15.298  63.833  1.00  0.00    -0.732 OA 
ENDROOT
BRANCH   3   5
HETATM    5  O   UNL     1      -9.827  15.125  65.869  1.00  0.00    -0.295 OA 
BRANCH   5   6
HETATM    6  C   UNL     1      -9.046  14.161  66.602  1.00  0.00    -0.216 C  
BRANCH   6   7
HETATM    7  C   UNL     1      -9.766  12.802  66.753  1.00  0.00    -0.243 C  
BRANCH   7   8
HETATM    8  N   UNL     1      -9.025  11.776  67.512  1.00  0.00    -0.163 NA 
HETATM    9  C   UNL     1      -9.633  11.483  68.829  1.00  0.00    -0.102 C  
HETATM   10  C   UNL     1     -10.936  10.642  68.772  1.00  0.00    -0.246 C  
HETATM   11  N   UNL     1     -10.808   9.349  68.053  1.00  0.00    -0.189 NA 
HETATM   12  C   UNL     1     -10.231   9.653  66.720  1.00  0.00    -0.239 C  
HETATM   13  C   UNL     1      -8.940  10.514  66.735  1.00  0.00    -0.137 C  
BRANCH  11  14
HETATM   14  C   UNL     1     -10.005   8.356  68.836  1.00  0.00    -0.187 C  
BRANCH  14  15
HETATM   15  C   UNL     1     -10.548   8.181  70.267  1.00  0.00    -0.228 A  
HETATM   16  C   UNL     1     -11.795   7.562  70.474  1.00  0.00    -0.144 A  
HETATM   17  C   UNL     1      -9.792   8.536  71.399  1.00  0.00    -0.296 A  
HETATM   18  C   UNL     1     -12.252   7.284  71.766  1.00  0.00    -0.368 A  
HETATM   19  C   UNL     1     -11.485   7.640  72.872  1.00  0.00    -0.342 A  
HETATM   20  C   UNL     1     -10.261   8.276  72.690  1.00  0.00    -0.368 A  
ENDBRANCH  14  15
BRANCH  14  21
HETATM   21  C   UNL     1      -9.823   7.011  68.112  1.00  0.00    -0.151 A  
HETATM   22  C   UNL     1      -9.354   4.618  66.703  1.00  0.00    -0.149 A  
HETATM   23 CL   UNL     1      -9.053   3.175  65.818  1.00  0.00    -0.147 Cl 
HETATM   24  C   UNL     1     -10.531   5.329  66.491  1.00  0.00    -0.354 A  
HETATM   25  C   UNL     1      -8.647   6.264  68.322  1.00  0.00    -0.117 A  
HETATM   26  C   UNL     1     -10.759   6.522  67.185  1.00  0.00    -0.438 A  
HETATM   27  C   UNL     1      -8.410   5.080  67.617  1.00  0.00    -0.105 A  
ENDBRANCH  14  21
ENDBRANCH  11  14
ENDBRANCH   7   8
ENDBRANCH   6   7
ENDBRANCH   5   6
ENDBRANCH   3   5
TORSDOF 7
ENDMDL
MODEL       37
REMARK 921   NORMALIZED FREE ENERGY PREDICTED BY IDOCK:   -5.50 KCAL/MOL
REMARK 922        TOTAL FREE ENERGY PREDICTED BY IDOCK:   -8.43 KCAL/MOL
REMARK 923 INTER-LIGAND FREE ENERGY PREDICTED BY IDOCK:   -7.49 KCAL/MOL
REMARK 924 INTRA-LIGAND FREE ENERGY PREDICTED BY IDOCK:   -0.94 KCAL/MOL
REMARK 927      BINDING AFFINITY PREDICTED BY RF-SCORE:    0.00 PKD
ROOT
HETATM    1  O   UNL     1      -9.829   8.306  72.452  1.00  0.00    -0.249 OA 
HETATM    2  C   UNL     1     -10.604   9.001  71.583  1.00  0.00    -0.364 C  
HETATM    3  C   UNL     1      -9.816   9.522  70.390  1.00  0.00    -0.271 C  
HETATM    4  O   UNL     1     -11.801   9.185  71.749  1.00  0.00    -0.340 OA 
ENDROOT
BRANCH   3   5
HETATM    5  O   UNL     1      -8.420   9.225  70.538  1.00  0.00    -0.182 OA 
BRANCH   5   6
HETATM    6  C   UNL     1      -7.661   9.574  69.364  1.00  0.00    -0.091 C  
BRANCH   6   7
HETATM    7  C   UNL     1      -7.150  11.032  69.397  1.00  0.00    -0.128 C  
BRANCH   7   8
HETATM    8  N   UNL     1      -7.128  11.723  68.093  1.00  0.00    -0.074 NA 
HETATM    9  C   UNL     1      -8.297  11.393  67.246  1.00  0.00    -0.149 C  
HETATM   10  C   UNL     1      -9.628  12.056  67.686  1.00  0.00    -0.188 C  
HETATM   11  N   UNL     1      -9.575  13.536  67.799  1.00  0.00    -0.212 NA 
HETATM   12  C   UNL     1      -8.424  13.860  68.677  1.00  0.00    -0.082 C  
HETATM   13  C   UNL     1      -7.079  13.194  68.283  1.00  0.00    -0.105 C  
BRANCH  11  14
HETATM   14  C   UNL     1      -9.501  14.192  66.455  1.00  0.00    -0.285 C  
BRANCH  14  15
HETATM   15  C   UNL     1     -10.571  13.646  65.491  1.00  0.00    -0.300 A  
HETATM   16  C   UNL     1     -10.181  12.958  64.326  1.00  0.00    -0.337 A  
HETATM   17  C   UNL     1     -11.946  13.727  65.779  1.00  0.00    -0.423 A  
HETATM   18  C   UNL     1     -11.132  12.351  63.500  1.00  0.00    -0.521 A  
HETATM   19  C   UNL     1     -12.486  12.440  63.807  1.00  0.00    -0.593 A  
HETATM   20  C   UNL     1     -12.894  13.138  64.940  1.00  0.00    -0.349 A  
ENDBRANCH  14  15
BRANCH  14  21
HETATM   21  C   UNL     1      -9.506  15.729  66.523  1.00  0.00    -0.298 A  
HETATM   22  C   UNL     1      -9.387  18.532  66.765  1.00  0.00    -0.297 A  
HETATM   23 CL   UNL     1      -9.301  20.240  66.944  1.00  0.00    -0.503 Cl 
HETATM   24  C   UNL     1     -10.523  17.847  67.186  1.00  0.00    -0.359 A  
HETATM   25  C   UNL     1      -8.375  16.447  66.088  1.00  0.00    -0.291 A  
HETATM   26  C   UNL     1     -10.578  16.454  67.074  1.00  0.00    -0.260 A  
HETATM   27  C   UNL     1      -8.312  17.838  66.216  1.00  0.00    -0.240 A  
ENDBRANCH  14  21
ENDBRANCH  11  14
ENDBRANCH   7   8
ENDBRANCH   6   7
ENDBRANCH   5   6
ENDBRANCH   3   5
TORSDOF 7
ENDMDL
MODEL       38
REMARK 921   NORMALIZED FREE ENERGY PREDICTED BY IDOCK:   -5.48 KCAL/MOL
REMARK 922        TOTAL FREE ENERGY PREDICTED BY IDOCK:   -8.41 KCAL/MOL
REMARK 923 INTER-LIGAND FREE ENERGY PREDICTED BY IDOCK:   -7.59 KCAL/MOL
REMARK 924 INTRA-LIGAND FREE ENERGY PREDICTED BY IDOCK:   -0.82 KCAL/MOL
REMARK 927      BINDING AFFINITY PREDICTED BY RF-SCORE:    0.00 PKD
ROOT
HETATM    1  O   UNL     1     -11.229   8.054  72.694  1.00  0.00    -0.358 OA 
HETATM    2  C   UNL     1     -12.020   7.547  71.717  1.00  0.00    -0.301 C  
HETATM    3  C   UNL     1     -13.270   8.385  71.488  1.00  0.00    -0.290 C  
HETATM    4  O   UNL     1     -11.753   6.529  71.096  1.00  0.00    -0.318 OA 
ENDROOT
BRANCH   3   5
HETATM    5  O   UNL     1     -13.341   9.456  72.441  1.00  0.00    -0.452 OA 
BRANCH   5   6
HETATM    6  C   UNL     1     -13.152  10.746  71.826  1.00  0.00    -0.468 C  
BRANCH   6   7
HETATM    7  C   UNL     1     -12.778  10.643  70.330  1.00  0.00    -0.209 C  
BRANCH   7   8
HETATM    8  N   UNL     1     -11.417  11.098  69.987  1.00  0.00    -0.298 NA 
HETATM    9  C   UNL     1     -10.686  10.136  69.133  1.00  0.00    -0.226 C  
HETATM   10  C   UNL     1     -11.151  10.093  67.654  1.00  0.00    -0.206 C  
HETATM   11  N   UNL     1     -11.121  11.404  66.957  1.00  0.00    -0.295 NA 
HETATM   12  C   UNL     1     -11.886  12.357  67.800  1.00  0.00    -0.298 C  
HETATM   13  C   UNL     1     -11.466  12.409  69.293  1.00  0.00    -0.288 C  
BRANCH  11  14
HETATM   14  C   UNL     1      -9.720  11.851  66.677  1.00  0.00    -0.205 C  
BRANCH  14  15
HETATM   15  C   UNL     1      -9.101  11.088  65.490  1.00  0.00    -0.225 A  
HETATM   16  C   UNL     1      -7.796  10.572  65.592  1.00  0.00    -0.150 A  
HETATM   17  C   UNL     1      -9.835  10.800  64.325  1.00  0.00    -0.384 A  
HETATM   18  C   UNL     1      -7.259   9.774  64.577  1.00  0.00    -0.128 A  
HETATM   19  C   UNL     1      -8.004   9.498  63.434  1.00  0.00    -0.141 A  
HETATM   20  C   UNL     1      -9.287  10.021  63.302  1.00  0.00    -0.296 A  
ENDBRANCH  14  15
BRANCH  14  21
HETATM   21  C   UNL     1      -9.583  13.376  66.524  1.00  0.00    -0.277 A  
HETATM   22  C   UNL     1      -9.411  16.185  66.399  1.00  0.00    -0.295 A  
HETATM   23 CL   UNL     1      -9.334  17.901  66.344  1.00  0.00    -0.287 Cl 
HETATM   24  C   UNL     1     -10.202  15.496  65.484  1.00  0.00    -0.415 A  
HETATM   25  C   UNL     1      -8.776  14.094  67.428  1.00  0.00    -0.217 A  
HETATM   26  C   UNL     1     -10.294  14.102  65.552  1.00  0.00    -0.368 A  
HETATM   27  C   UNL     1      -8.697  15.489  67.371  1.00  0.00    -0.194 A  
ENDBRANCH  14  21
ENDBRANCH  11  14
ENDBRANCH   7   8
ENDBRANCH   6   7
ENDBRANCH   5   6
ENDBRANCH   3   5
TORSDOF 7
ENDMDL
MODEL       39
REMARK 921   NORMALIZED FREE ENERGY PREDICTED BY IDOCK:   -5.46 KCAL/MOL
REMARK 922        TOTAL FREE ENERGY PREDICTED BY IDOCK:   -8.38 KCAL/MOL
REMARK 923 INTER-LIGAND FREE ENERGY PREDICTED BY IDOCK:   -7.84 KCAL/MOL
REMARK 924 INTRA-LIGAND FREE ENERGY PREDICTED BY IDOCK:   -0.54 KCAL/MOL
REMARK 927      BINDING AFFINITY PREDICTED BY RF-SCORE:    0.00 PKD
ROOT
HETATM    1  O   UNL     1     -11.695  16.505  63.890  1.00  0.00    -1.148 OA 
HETATM    2  C   UNL     1     -10.922  16.806  64.962  1.00  0.00    -0.108 C  
HETATM    3  C   UNL     1     -10.437  15.564  65.696  1.00  0.00    -0.374 C  
HETATM    4  O   UNL     1     -10.651  17.950  65.296  1.00  0.00    -0.637 OA 
ENDROOT
BRANCH   3   5
HETATM    5  O   UNL     1     -11.007  14.381  65.117  1.00  0.00    -0.331 OA 
BRANCH   5   6
HETATM    6  C   UNL     1     -12.146  13.905  65.861  1.00  0.00    -0.433 C  
BRANCH   6   7
HETATM    7  C   UNL     1     -11.748  13.216  67.185  1.00  0.00    -0.377 C  
BRANCH   7   8
HETATM    8  N   UNL     1     -12.003  11.764  67.243  1.00  0.00    -0.607 NA 
HETATM    9  C   UNL     1     -11.009  10.974  66.481  1.00  0.00    -0.166 C  
HETATM   10  C   UNL     1      -9.617  10.856  67.155  1.00  0.00    -0.165 C  
HETATM   11  N   UNL     1      -9.640  10.312  68.536  1.00  0.00    -0.156 NA 
HETATM   12  C   UNL     1     -10.612  11.130  69.304  1.00  0.00    -0.175 C  
HETATM   13  C   UNL     1     -12.009  11.291  68.650  1.00  0.00    -0.243 C  
BRANCH  11  14
HETATM   14  C   UNL     1      -9.954   8.848  68.550  1.00  0.00    -0.177 C  
BRANCH  14  15
HETATM   15  C   UNL     1      -8.954   8.039  67.702  1.00  0.00    -0.138 A  
HETATM   16  C   UNL     1      -7.572   8.169  67.934  1.00  0.00    -0.102 A  
HETATM   17  C   UNL     1      -9.377   7.089  66.754  1.00  0.00    -0.191 A  
HETATM   18  C   UNL     1      -6.652   7.358  67.261  1.00  0.00    -0.061 A  
HETATM   19  C   UNL     1      -7.094   6.421  66.330  1.00  0.00    -0.068 A  
HETATM   20  C   UNL     1      -8.454   6.295  66.068  1.00  0.00    -0.143 A  
ENDBRANCH  14  15
BRANCH  14  21
HETATM   21  C   UNL     1     -10.119   8.271  69.966  1.00  0.00    -0.196 A  
HETATM   22  C   UNL     1     -10.247   7.198  72.567  1.00  0.00    -0.194 A  
HETATM   23 CL   UNL     1     -10.296   6.527  74.150  1.00  0.00    -0.373 Cl 
HETATM   24  C   UNL     1     -10.789   6.492  71.498  1.00  0.00    -0.288 A  
HETATM   25  C   UNL     1      -9.594   8.974  71.068  1.00  0.00    -0.348 A  
HETATM   26  C   UNL     1     -10.717   7.021  70.205  1.00  0.00    -0.266 A  
HETATM   27  C   UNL     1      -9.650   8.438  72.358  1.00  0.00    -0.373 A  
ENDBRANCH  14  21
ENDBRANCH  11  14
ENDBRANCH   7   8
ENDBRANCH   6   7
ENDBRANCH   5   6
ENDBRANCH   3   5
TORSDOF 7
ENDMDL
MODEL       40
REMARK 921   NORMALIZED FREE ENERGY PREDICTED BY IDOCK:   -5.44 KCAL/MOL
REMARK 922        TOTAL FREE ENERGY PREDICTED BY IDOCK:   -8.35 KCAL/MOL
REMARK 923 INTER-LIGAND FREE ENERGY PREDICTED BY IDOCK:   -7.62 KCAL/MOL
REMARK 924 INTRA-LIGAND FREE ENERGY PREDICTED BY IDOCK:   -0.73 KCAL/MOL
REMARK 927      BINDING AFFINITY PREDICTED BY RF-SCORE:    0.00 PKD
ROOT
HETATM    1  O   UNL     1      -9.023  11.660  62.677  1.00  0.00    -0.307 OA 
HETATM    2  C   UNL     1     -10.200  11.503  63.332  1.00  0.00    -0.420 C  
HETATM    3  C   UNL     1     -10.146  10.388  64.365  1.00  0.00    -0.272 C  
HETATM    4  O   UNL     1     -11.189  12.185  63.108  1.00  0.00    -0.348 OA 
ENDROOT
BRANCH   3   5
HETATM    5  O   UNL     1      -8.879   9.715  64.316  1.00  0.00    -0.204 OA 
BRANCH   5   6
HETATM    6  C   UNL     1      -8.249   9.645  65.611  1.00  0.00    -0.120 C  
BRANCH   6   7
HETATM    7  C   UNL     1      -9.221   9.976  66.765  1.00  0.00    -0.148 C  
BRANCH   7   8
HETATM    8  N   UNL     1      -8.773  11.042  67.682  1.00  0.00    -0.127 NA 
HETATM    9  C   UNL     1      -8.446  12.304  66.982  1.00  0.00    -0.181 C  
HETATM   10  C   UNL     1      -9.675  13.111  66.488  1.00  0.00    -0.268 C  
HETATM   11  N   UNL     1     -10.665  13.442  67.543  1.00  0.00    -0.253 NA 
HETATM   12  C   UNL     1     -11.016  12.168  68.218  1.00  0.00    -0.234 C  
HETATM   13  C   UNL     1      -9.811  11.319  68.706  1.00  0.00    -0.184 C  
BRANCH  11  14
HETATM   14  C   UNL     1     -10.148  14.488  68.481  1.00  0.00    -0.242 C  
BRANCH  14  15
HETATM   15  C   UNL     1      -9.618  15.723  67.727  1.00  0.00    -0.214 A  
HETATM   16  C   UNL     1     -10.502  16.518  66.974  1.00  0.00    -0.289 A  
HETATM   17  C   UNL     1      -8.281  16.148  67.839  1.00  0.00    -0.159 A  
HETATM   18  C   UNL     1     -10.068  17.708  66.381  1.00  0.00    -0.356 A  
HETATM   19  C   UNL     1      -8.742  18.111  66.508  1.00  0.00    -0.286 A  
HETATM   20  C   UNL     1      -7.846  17.326  67.226  1.00  0.00    -0.211 A  
ENDBRANCH  14  15
BRANCH  14  21
HETATM   21  C   UNL     1     -11.147  14.866  69.588  1.00  0.00    -0.298 A  
HETATM   22  C   UNL     1     -12.862  15.497  71.731  1.00  0.00    -0.438 A  
HETATM   23 CL   UNL     1     -13.893  15.857  73.059  1.00  0.00    -0.610 Cl 
HETATM   24  C   UNL     1     -13.233  14.523  70.809  1.00  0.00    -0.313 A  
HETATM   25  C   UNL     1     -10.802  15.860  70.525  1.00  0.00    -0.283 A  
HETATM   26  C   UNL     1     -12.377  14.204  69.750  1.00  0.00    -0.350 A  
HETATM   27  C   UNL     1     -11.649  16.167  71.594  1.00  0.00    -0.503 A  
ENDBRANCH  14  21
ENDBRANCH  11  14
ENDBRANCH   7   8
ENDBRANCH   6   7
ENDBRANCH   5   6
ENDBRANCH   3   5
TORSDOF 7
ENDMDL
MODEL       41
REMARK 921   NORMALIZED FREE ENERGY PREDICTED BY IDOCK:   -5.42 KCAL/MOL
REMARK 922        TOTAL FREE ENERGY PREDICTED BY IDOCK:   -8.32 KCAL/MOL
REMARK 923 INTER-LIGAND FREE ENERGY PREDICTED BY IDOCK:   -7.43 KCAL/MOL
REMARK 924 INTRA-LIGAND FREE ENERGY PREDICTED BY IDOCK:   -0.89 KCAL/MOL
REMARK 927      BINDING AFFINITY PREDICTED BY RF-SCORE:    0.00 PKD
ROOT
HETATM    1  O   UNL     1     -10.970  18.275  65.071  1.00  0.00    -0.684 OA 
HETATM    2  C   UNL     1     -10.374  17.574  66.067  1.00  0.00    -0.306 C  
HETATM    3  C   UNL     1     -10.311  16.083  65.772  1.00  0.00    -0.378 C  
HETATM    4  O   UNL     1      -9.940  18.091  67.086  1.00  0.00    -0.300 OA 
ENDROOT
BRANCH   3   5
HETATM    5  O   UNL     1     -10.992  15.782  64.545  1.00  0.00    -0.450 OA 
BRANCH   5   6
HETATM    6  C   UNL     1     -11.914  14.684  64.689  1.00  0.00    -0.462 C  
BRANCH   6   7
HETATM    7  C   UNL     1     -12.076  14.231  66.157  1.00  0.00    -0.406 C  
BRANCH   7   8
HETATM    8  N   UNL     1     -12.146  12.771  66.363  1.00  0.00    -0.520 NA 
HETATM    9  C   UNL     1     -11.177  12.025  65.530  1.00  0.00    -0.321 C  
HETATM   10  C   UNL     1      -9.702  12.121  66.002  1.00  0.00    -0.244 C  
HETATM   11  N   UNL     1      -9.474  11.709  67.410  1.00  0.00    -0.166 NA 
HETATM   12  C   UNL     1     -10.424  12.486  68.245  1.00  0.00    -0.234 C  
HETATM   13  C   UNL     1     -11.906  12.435  67.789  1.00  0.00    -0.298 C  
BRANCH  11  14
HETATM   14  C   UNL     1      -9.606  10.228  67.583  1.00  0.00    -0.152 C  
BRANCH  14  15
HETATM   15  C   UNL     1      -8.548   9.459  66.768  1.00  0.00    -0.134 A  
HETATM   16  C   UNL     1      -8.853   8.190  66.242  1.00  0.00    -0.193 A  
HETATM   17  C   UNL     1      -7.301  10.024  66.444  1.00  0.00    -0.104 A  
HETATM   18  C   UNL     1      -7.954   7.527  65.400  1.00  0.00    -0.124 A  
HETATM   19  C   UNL     1      -6.728   8.107  65.090  1.00  0.00    -0.052 A  
HETATM   20  C   UNL     1      -6.396   9.350  65.621  1.00  0.00    -0.068 A  
ENDBRANCH  14  15
BRANCH  14  21
HETATM   21  C   UNL     1      -9.644   9.784  69.055  1.00  0.00    -0.177 A  
HETATM   22  C   UNL     1      -9.640   8.822  71.702  1.00  0.00    -0.293 A  
HETATM   23 CL   UNL     1      -9.637   8.202  73.306  1.00  0.00    -0.316 Cl 
HETATM   24  C   UNL     1     -10.847   9.046  71.047  1.00  0.00    -0.345 A  
HETATM   25  C   UNL     1      -8.436   9.566  69.746  1.00  0.00    -0.185 A  
HETATM   26  C   UNL     1     -10.848   9.515  69.730  1.00  0.00    -0.264 A  
HETATM   27  C   UNL     1      -8.433   9.081  71.057  1.00  0.00    -0.254 A  
ENDBRANCH  14  21
ENDBRANCH  11  14
ENDBRANCH   7   8
ENDBRANCH   6   7
ENDBRANCH   5   6
ENDBRANCH   3   5
TORSDOF 7
ENDMDL
MODEL       42
REMARK 921   NORMALIZED FREE ENERGY PREDICTED BY IDOCK:   -5.41 KCAL/MOL
REMARK 922        TOTAL FREE ENERGY PREDICTED BY IDOCK:   -8.30 KCAL/MOL
REMARK 923 INTER-LIGAND FREE ENERGY PREDICTED BY IDOCK:   -7.79 KCAL/MOL
REMARK 924 INTRA-LIGAND FREE ENERGY PREDICTED BY IDOCK:   -0.52 KCAL/MOL
REMARK 927      BINDING AFFINITY PREDICTED BY RF-SCORE:    0.00 PKD
ROOT
HETATM    1  O   UNL     1     -13.810   9.077  71.380  1.00  0.00    -0.361 OA 
HETATM    2  C   UNL     1     -12.946  10.111  71.527  1.00  0.00    -0.444 C  
HETATM    3  C   UNL     1     -11.574   9.811  70.942  1.00  0.00    -0.361 C  
HETATM    4  O   UNL     1     -13.244  11.164  72.073  1.00  0.00    -0.493 OA 
ENDROOT
BRANCH   3   5
HETATM    5  O   UNL     1     -11.514   8.459  70.464  1.00  0.00    -0.259 OA 
BRANCH   5   6
HETATM    6  C   UNL     1     -10.500   8.283  69.455  1.00  0.00    -0.227 C  
BRANCH   6   7
HETATM    7  C   UNL     1      -9.341   9.296  69.592  1.00  0.00    -0.179 C  
BRANCH   7   8
HETATM    8  N   UNL     1      -8.963   9.994  68.348  1.00  0.00    -0.119 NA 
HETATM    9  C   UNL     1     -10.096  10.152  67.409  1.00  0.00    -0.205 C  
HETATM   10  C   UNL     1     -11.133  11.232  67.816  1.00  0.00    -0.271 C  
HETATM   11  N   UNL     1     -10.563  12.584  68.044  1.00  0.00    -0.217 NA 
HETATM   12  C   UNL     1      -9.450  12.424  69.012  1.00  0.00     0.394 C  
HETATM   13  C   UNL     1      -8.405  11.335  68.652  1.00  0.00    -0.146 C  
BRANCH  11  14
HETATM   14  C   UNL     1     -10.145  13.233  66.760  1.00  0.00    -0.258 C  
BRANCH  14  15
HETATM   15  C   UNL     1     -10.924  12.673  65.554  1.00  0.00    -0.313 A  
HETATM   16  C   UNL     1     -12.315  12.867  65.467  1.00  0.00    -0.517 A  
HETATM   17  C   UNL     1     -10.277  12.048  64.473  1.00  0.00    -0.318 A  
HETATM   18  C   UNL     1     -13.024  12.475  64.327  1.00  0.00    -0.253 A  
HETATM   19  C   UNL     1     -12.362  11.862  63.267  1.00  0.00    -0.508 A  
HETATM   20  C   UNL     1     -10.991  11.638  63.345  1.00  0.00    -0.442 A  
ENDBRANCH  14  15
BRANCH  14  21
HETATM   21  C   UNL     1     -10.176  14.770  66.813  1.00  0.00    -0.266 A  
HETATM   22  C   UNL     1     -10.408  17.575  66.903  1.00  0.00    -0.315 A  
HETATM   23 CL   UNL     1     -10.580  19.285  66.942  1.00  0.00    -0.533 Cl 
HETATM   24  C   UNL     1      -9.816  16.963  65.803  1.00  0.00    -0.166 A  
HETATM   25  C   UNL     1     -10.755  15.414  67.923  1.00  0.00    -0.286 A  
HETATM   26  C   UNL     1      -9.710  15.569  65.754  1.00  0.00    -0.383 A  
HETATM   27  C   UNL     1     -10.878  16.807  67.965  1.00  0.00    -0.341 A  
ENDBRANCH  14  21
ENDBRANCH  11  14
ENDBRANCH   7   8
ENDBRANCH   6   7
ENDBRANCH   5   6
ENDBRANCH   3   5
TORSDOF 7
ENDMDL
MODEL       43
REMARK 921   NORMALIZED FREE ENERGY PREDICTED BY IDOCK:   -5.41 KCAL/MOL
REMARK 922        TOTAL FREE ENERGY PREDICTED BY IDOCK:   -8.30 KCAL/MOL
REMARK 923 INTER-LIGAND FREE ENERGY PREDICTED BY IDOCK:   -7.66 KCAL/MOL
REMARK 924 INTRA-LIGAND FREE ENERGY PREDICTED BY IDOCK:   -0.64 KCAL/MOL
REMARK 927      BINDING AFFINITY PREDICTED BY RF-SCORE:    0.00 PKD
ROOT
HETATM    1  O   UNL     1      -8.526  19.090  67.938  1.00  0.00    -0.283 OA 
HETATM    2  C   UNL     1      -9.826  19.469  67.988  1.00  0.00    -0.398 C  
HETATM    3  C   UNL     1     -10.628  18.955  66.802  1.00  0.00    -0.405 C  
HETATM    4  O   UNL     1     -10.294  20.151  68.889  1.00  0.00    -0.382 OA 
ENDROOT
BRANCH   3   5
HETATM    5  O   UNL     1      -9.773  18.273  65.873  1.00  0.00    -0.516 OA 
BRANCH   5   6
HETATM    6  C   UNL     1     -10.199  16.916  65.635  1.00  0.00    -0.206 C  
BRANCH   6   7
HETATM    7  C   UNL     1     -10.822  16.259  66.888  1.00  0.00    -0.151 C  
BRANCH   7   8
HETATM    8  N   UNL     1     -11.353  14.897  66.688  1.00  0.00    -0.347 NA 
HETATM    9  C   UNL     1     -10.418  14.016  65.953  1.00  0.00    -0.309 C  
HETATM   10  C   UNL     1      -9.200  13.527  66.779  1.00  0.00    -0.240 C  
HETATM   11  N   UNL     1      -9.547  12.834  68.045  1.00  0.00    -0.211 NA 
HETATM   12  C   UNL     1     -10.457  13.736  68.794  1.00  0.00    -0.214 C  
HETATM   13  C   UNL     1     -11.675  14.267  67.993  1.00  0.00    -0.351 C  
BRANCH  11  14
HETATM   14  C   UNL     1     -10.131  11.478  67.793  1.00  0.00    -0.182 C  
BRANCH  14  15
HETATM   15  C   UNL     1      -9.183  10.591  66.964  1.00  0.00    -0.167 A  
HETATM   16  C   UNL     1      -7.799  10.611  67.220  1.00  0.00    -0.112 A  
HETATM   17  C   UNL     1      -9.662   9.676  66.009  1.00  0.00    -0.331 A  
HETATM   18  C   UNL     1      -6.934   9.729  66.565  1.00  0.00    -0.085 A  
HETATM   19  C   UNL     1      -7.432   8.829  65.627  1.00  0.00    -0.085 A  
HETATM   20  C   UNL     1      -8.793   8.810  65.340  1.00  0.00    -0.221 A  
ENDBRANCH  14  15
BRANCH  14  21
HETATM   21  C   UNL     1     -10.619  10.775  69.071  1.00  0.00    -0.250 A  
HETATM   22  C   UNL     1     -11.489   9.335  71.330  1.00  0.00    -0.369 A  
HETATM   23 CL   UNL     1     -12.029   8.430  72.688  1.00  0.00    -0.426 Cl 
HETATM   24  C   UNL     1     -12.379  10.156  70.646  1.00  0.00    -0.382 A  
HETATM   25  C   UNL     1      -9.733   9.951  69.792  1.00  0.00    -0.266 A  
HETATM   26  C   UNL     1     -11.949  10.864  69.519  1.00  0.00    -0.401 A  
HETATM   27  C   UNL     1     -10.166   9.229  70.908  1.00  0.00    -0.371 A  
ENDBRANCH  14  21
ENDBRANCH  11  14
ENDBRANCH   7   8
ENDBRANCH   6   7
ENDBRANCH   5   6
ENDBRANCH   3   5
TORSDOF 7
ENDMDL
MODEL       44
REMARK 921   NORMALIZED FREE ENERGY PREDICTED BY IDOCK:   -5.35 KCAL/MOL
REMARK 922        TOTAL FREE ENERGY PREDICTED BY IDOCK:   -8.23 KCAL/MOL
REMARK 923 INTER-LIGAND FREE ENERGY PREDICTED BY IDOCK:   -7.62 KCAL/MOL
REMARK 924 INTRA-LIGAND FREE ENERGY PREDICTED BY IDOCK:   -0.61 KCAL/MOL
REMARK 927      BINDING AFFINITY PREDICTED BY RF-SCORE:    0.00 PKD
ROOT
HETATM    1  O   UNL     1     -12.685  14.600  63.953  1.00  0.00    -0.788 OA 
HETATM    2  C   UNL     1     -11.665  15.431  64.284  1.00  0.00    -0.206 C  
HETATM    3  C   UNL     1     -10.622  14.752  65.158  1.00  0.00    -0.417 C  
HETATM    4  O   UNL     1     -11.601  16.595  63.916  1.00  0.00    -1.204 OA 
ENDROOT
BRANCH   3   5
HETATM    5  O   UNL     1     -11.035  13.419  65.495  1.00  0.00    -0.280 OA 
BRANCH   5   6
HETATM    6  C   UNL     1      -9.914  12.544  65.727  1.00  0.00    -0.259 C  
BRANCH   6   7
HETATM    7  C   UNL     1      -9.689  12.249  67.227  1.00  0.00    -0.195 C  
BRANCH   7   8
HETATM    8  N   UNL     1      -8.924  11.022  67.521  1.00  0.00    -0.137 NA 
HETATM    9  C   UNL     1      -8.973  10.641  68.951  1.00  0.00    -0.168 C  
HETATM   10  C   UNL     1     -10.321  10.032  69.417  1.00  0.00    -0.227 C  
HETATM   11  N   UNL     1     -10.771   8.852  68.636  1.00  0.00    -0.136 NA 
HETATM   12  C   UNL     1     -10.753   9.249  67.206  1.00  0.00    -0.174 C  
HETATM   13  C   UNL     1      -9.429   9.887  66.709  1.00  0.00    -0.169 C  
BRANCH  11  14
HETATM   14  C   UNL     1      -9.934   7.644  68.926  1.00  0.00    -0.176 C  
BRANCH  14  15
HETATM   15  C   UNL     1     -10.452   6.870  70.154  1.00  0.00    -0.233 A  
HETATM   16  C   UNL     1      -9.599   5.980  70.834  1.00  0.00    -0.196 A  
HETATM   17  C   UNL     1     -11.735   7.090  70.688  1.00  0.00    -0.384 A  
HETATM   18  C   UNL     1     -10.007   5.359  72.018  1.00  0.00    -0.232 A  
HETATM   19  C   UNL     1     -11.279   5.595  72.531  1.00  0.00    -0.346 A  
HETATM   20  C   UNL     1     -12.147   6.451  71.860  1.00  0.00    -0.362 A  
ENDBRANCH  14  15
BRANCH  14  21
HETATM   21  C   UNL     1      -9.732   6.731  67.704  1.00  0.00    -0.146 A  
HETATM   22  C   UNL     1      -9.404   4.926  65.568  1.00  0.00    -0.157 A  
HETATM   23 CL   UNL     1      -9.198   3.798  64.286  1.00  0.00    -0.133 Cl 
HETATM   24  C   UNL     1      -8.304   5.614  66.069  1.00  0.00    -0.124 A  
HETATM   25  C   UNL     1     -10.832   6.036  67.168  1.00  0.00    -0.414 A  
HETATM   26  C   UNL     1      -8.466   6.504  67.136  1.00  0.00    -0.112 A  
HETATM   27  C   UNL     1     -10.669   5.133  66.112  1.00  0.00    -0.247 A  
ENDBRANCH  14  21
ENDBRANCH  11  14
ENDBRANCH   7   8
ENDBRANCH   6   7
ENDBRANCH   5   6
ENDBRANCH   3   5
TORSDOF 7
ENDMDL
MODEL       45
REMARK 921   NORMALIZED FREE ENERGY PREDICTED BY IDOCK:   -5.31 KCAL/MOL
REMARK 922        TOTAL FREE ENERGY PREDICTED BY IDOCK:   -8.17 KCAL/MOL
REMARK 923 INTER-LIGAND FREE ENERGY PREDICTED BY IDOCK:   -7.33 KCAL/MOL
REMARK 924 INTRA-LIGAND FREE ENERGY PREDICTED BY IDOCK:   -0.83 KCAL/MOL
REMARK 927      BINDING AFFINITY PREDICTED BY RF-SCORE:    0.00 PKD
ROOT
HETATM    1  O   UNL     1     -13.287  12.229  64.460  1.00  0.00    -0.769 OA 
HETATM    2  C   UNL     1     -12.507  13.329  64.608  1.00  0.00    -0.349 C  
HETATM    3  C   UNL     1     -11.738  13.324  65.921  1.00  0.00    -0.365 C  
HETATM    4  O   UNL     1     -12.437  14.220  63.775  1.00  0.00    -0.810 OA 
ENDROOT
BRANCH   3   5
HETATM    5  O   UNL     1     -12.112  12.192  66.720  1.00  0.00    -0.609 OA 
BRANCH   5   6
HETATM    6  C   UNL     1     -11.572  12.265  68.055  1.00  0.00    -0.349 C  
BRANCH   6   7
HETATM    7  C   UNL     1     -11.812  10.972  68.866  1.00  0.00    -0.308 C  
BRANCH   7   8
HETATM    8  N   UNL     1     -10.625  10.431  69.556  1.00  0.00    -0.232 NA 
HETATM    9  C   UNL     1     -10.950   9.808  70.859  1.00  0.00    -0.341 C  
HETATM   10  C   UNL     1     -11.646   8.425  70.763  1.00  0.00    -0.232 C  
HETATM   11  N   UNL     1     -10.908   7.413  69.967  1.00  0.00    -0.250 NA 
HETATM   12  C   UNL     1     -10.615   8.030  68.650  1.00  0.00    -0.109 C  
HETATM   13  C   UNL     1      -9.940   9.426  68.705  1.00  0.00    -0.173 C  
BRANCH  11  14
HETATM   14  C   UNL     1      -9.683   6.931  70.682  1.00  0.00    -0.175 C  
BRANCH  14  15
HETATM   15  C   UNL     1     -10.020   6.352  72.070  1.00  0.00    -0.183 A  
HETATM   16  C   UNL     1     -10.879   5.243  72.178  1.00  0.00    -0.252 A  
HETATM   17  C   UNL     1      -9.419   6.838  73.246  1.00  0.00    -0.172 A  
HETATM   18  C   UNL     1     -11.104   4.627  73.413  1.00  0.00    -0.418 A  
HETATM   19  C   UNL     1     -10.495   5.121  74.563  1.00  0.00    -0.254 A  
HETATM   20  C   UNL     1      -9.663   6.234  74.482  1.00  0.00    -0.309 A  
ENDBRANCH  14  15
BRANCH  14  21
HETATM   21  C   UNL     1      -8.823   5.971  69.843  1.00  0.00    -0.138 A  
HETATM   22  C   UNL     1      -7.273   4.091  68.430  1.00  0.00    -0.055 A  
HETATM   23 CL   UNL     1      -6.319   2.928  67.597  1.00  0.00    -0.032 Cl 
HETATM   24  C   UNL     1      -6.674   5.236  68.947  1.00  0.00    -0.053 A  
HETATM   25  C   UNL     1      -9.408   4.813  69.295  1.00  0.00    -0.196 A  
HETATM   26  C   UNL     1      -7.443   6.165  69.656  1.00  0.00    -0.081 A  
HETATM   27  C   UNL     1      -8.637   3.875  68.600  1.00  0.00    -0.119 A  
ENDBRANCH  14  21
ENDBRANCH  11  14
ENDBRANCH   7   8
ENDBRANCH   6   7
ENDBRANCH   5   6
ENDBRANCH   3   5
TORSDOF 7
ENDMDL
MODEL       46
REMARK 921   NORMALIZED FREE ENERGY PREDICTED BY IDOCK:   -5.28 KCAL/MOL
REMARK 922        TOTAL FREE ENERGY PREDICTED BY IDOCK:   -8.13 KCAL/MOL
REMARK 923 INTER-LIGAND FREE ENERGY PREDICTED BY IDOCK:   -7.63 KCAL/MOL
REMARK 924 INTRA-LIGAND FREE ENERGY PREDICTED BY IDOCK:   -0.49 KCAL/MOL
REMARK 927      BINDING AFFINITY PREDICTED BY RF-SCORE:    0.00 PKD
ROOT
HETATM    1  O   UNL     1      -9.196  20.852  67.056  1.00  0.00    -0.249 OA 
HETATM    2  C   UNL     1      -8.030  20.172  67.187  1.00  0.00    -0.326 C  
HETATM    3  C   UNL     1      -8.048  19.209  68.364  1.00  0.00    -0.343 C  
HETATM    4  O   UNL     1      -7.076  20.325  66.439  1.00  0.00    -0.251 OA 
ENDROOT
BRANCH   3   5
HETATM    5  O   UNL     1      -9.273  19.336  69.102  1.00  0.00    -0.307 OA 
BRANCH   5   6
HETATM    6  C   UNL     1     -10.151  18.211  68.899  1.00  0.00    -0.338 C  
BRANCH   6   7
HETATM    7  C   UNL     1     -10.004  17.587  67.493  1.00  0.00    -0.315 C  
BRANCH   7   8
HETATM    8  N   UNL     1     -10.914  16.463  67.203  1.00  0.00    -0.161 NA 
HETATM    9  C   UNL     1     -10.596  15.776  65.931  1.00  0.00    -0.339 C  
HETATM   10  C   UNL     1      -9.336  14.872  65.978  1.00  0.00    -0.241 C  
HETATM   11  N   UNL     1      -9.355  13.835  67.040  1.00  0.00    -0.239 NA 
HETATM   12  C   UNL     1      -9.640  14.534  68.318  1.00  0.00    -0.212 C  
HETATM   13  C   UNL     1     -10.879  15.467  68.304  1.00  0.00    -0.292 C  
BRANCH  11  14
HETATM   14  C   UNL     1     -10.330  12.742  66.730  1.00  0.00    -0.240 C  
BRANCH  14  15
HETATM   15  C   UNL     1      -9.936  11.964  65.460  1.00  0.00    -0.266 A  
HETATM   16  C   UNL     1      -8.831  11.092  65.486  1.00  0.00    -0.179 A  
HETATM   17  C   UNL     1     -10.703  12.021  64.283  1.00  0.00    -0.382 A  
HETATM   18  C   UNL     1      -8.527  10.286  64.384  1.00  0.00    -0.182 A  
HETATM   19  C   UNL     1      -9.304  10.355  63.231  1.00  0.00    -0.335 A  
HETATM   20  C   UNL     1     -10.384  11.231  63.176  1.00  0.00    -0.338 A  
ENDBRANCH  14  15
BRANCH  14  21
HETATM   21  C   UNL     1     -10.604  11.810  67.923  1.00  0.00    -0.231 A  
HETATM   22  C   UNL     1     -11.146  10.244  70.201  1.00  0.00    -0.319 A  
HETATM   23 CL   UNL     1     -11.471   9.316  71.611  1.00  0.00    -0.449 Cl 
HETATM   24  C   UNL     1      -9.850  10.316  69.701  1.00  0.00    -0.230 A  
HETATM   25  C   UNL     1     -11.911  11.707  68.438  1.00  0.00    -0.346 A  
HETATM   26  C   UNL     1      -9.579  11.101  68.575  1.00  0.00    -0.193 A  
HETATM   27  C   UNL     1     -12.179  10.936  69.574  1.00  0.00    -0.331 A  
ENDBRANCH  14  21
ENDBRANCH  11  14
ENDBRANCH   7   8
ENDBRANCH   6   7
ENDBRANCH   5   6
ENDBRANCH   3   5
TORSDOF 7
ENDMDL
MODEL       47
REMARK 921   NORMALIZED FREE ENERGY PREDICTED BY IDOCK:   -5.27 KCAL/MOL
REMARK 922        TOTAL FREE ENERGY PREDICTED BY IDOCK:   -8.12 KCAL/MOL
REMARK 923 INTER-LIGAND FREE ENERGY PREDICTED BY IDOCK:   -7.26 KCAL/MOL
REMARK 924 INTRA-LIGAND FREE ENERGY PREDICTED BY IDOCK:   -0.86 KCAL/MOL
REMARK 927      BINDING AFFINITY PREDICTED BY RF-SCORE:    0.00 PKD
ROOT
HETATM    1  O   UNL     1     -10.415  19.189  65.590  1.00  0.00    -0.534 OA 
HETATM    2  C   UNL     1     -10.403  18.401  66.694  1.00  0.00    -0.396 C  
HETATM    3  C   UNL     1     -10.440  16.920  66.351  1.00  0.00    -0.252 C  
HETATM    4  O   UNL     1     -10.368  18.842  67.834  1.00  0.00    -0.374 OA 
ENDROOT
BRANCH   3   5
HETATM    5  O   UNL     1     -10.577  16.732  64.935  1.00  0.00    -0.702 OA 
BRANCH   5   6
HETATM    6  C   UNL     1     -11.193  15.471  64.609  1.00  0.00    -0.371 C  
BRANCH   6   7
HETATM    7  C   UNL     1     -11.415  14.578  65.851  1.00  0.00    -0.345 C  
BRANCH   7   8
HETATM    8  N   UNL     1     -10.897  13.201  65.739  1.00  0.00    -0.272 NA 
HETATM    9  C   UNL     1      -9.506  13.066  66.225  1.00  0.00    -0.192 C  
HETATM   10  C   UNL     1      -9.349  13.104  67.768  1.00  0.00    -0.206 C  
HETATM   11  N   UNL     1     -10.165  12.103  68.499  1.00  0.00    -0.219 NA 
HETATM   12  C   UNL     1     -11.565  12.265  68.034  1.00  0.00    -0.349 C  
HETATM   13  C   UNL     1     -11.759  12.257  66.494  1.00  0.00    -0.352 C  
BRANCH  11  14
HETATM   14  C   UNL     1      -9.635  10.714  68.314  1.00  0.00    -0.162 C  
BRANCH  14  15
HETATM   15  C   UNL     1      -8.095  10.681  68.336  1.00  0.00    -0.123 A  
HETATM   16  C   UNL     1      -7.402  11.051  69.504  1.00  0.00    -0.064 A  
HETATM   17  C   UNL     1      -7.344  10.198  67.249  1.00  0.00    -0.090 A  
HETATM   18  C   UNL     1      -6.012  10.914  69.588  1.00  0.00    -0.066 A  
HETATM   19  C   UNL     1      -5.290  10.430  68.501  1.00  0.00    -0.037 A  
HETATM   20  C   UNL     1      -5.953  10.083  67.328  1.00  0.00    -0.051 A  
ENDBRANCH  14  15
BRANCH  14  21
HETATM   21  C   UNL     1     -10.254   9.689  69.279  1.00  0.00    -0.215 A  
HETATM   22  C   UNL     1     -11.511   7.781  70.927  1.00  0.00    -0.279 A  
HETATM   23 CL   UNL     1     -12.308   6.623  71.916  1.00  0.00    -0.385 Cl 
HETATM   24  C   UNL     1     -11.481   9.118  71.312  1.00  0.00    -0.405 A  
HETATM   25  C   UNL     1     -10.283   8.327  68.921  1.00  0.00    -0.222 A  
HETATM   26  C   UNL     1     -10.864  10.066  70.489  1.00  0.00    -0.380 A  
HETATM   27  C   UNL     1     -10.914   7.381  69.734  1.00  0.00    -0.215 A  
ENDBRANCH  14  21
ENDBRANCH  11  14
ENDBRANCH   7   8
ENDBRANCH   6   7
ENDBRANCH   5   6
ENDBRANCH   3   5
TORSDOF 7
ENDMDL
MODEL       48
REMARK 921   NORMALIZED FREE ENERGY PREDICTED BY IDOCK:   -5.27 KCAL/MOL
REMARK 922        TOTAL FREE ENERGY PREDICTED BY IDOCK:   -8.10 KCAL/MOL
REMARK 923 INTER-LIGAND FREE ENERGY PREDICTED BY IDOCK:   -7.34 KCAL/MOL
REMARK 924 INTRA-LIGAND FREE ENERGY PREDICTED BY IDOCK:   -0.77 KCAL/MOL
REMARK 927      BINDING AFFINITY PREDICTED BY RF-SCORE:    0.00 PKD
ROOT
HETATM    1  O   UNL     1     -13.025  13.720  64.376  1.00  0.00    -0.528 OA 
HETATM    2  C   UNL     1     -12.219  14.781  64.626  1.00  0.00    -0.393 C  
HETATM    3  C   UNL     1     -11.373  14.586  65.875  1.00  0.00    -0.341 C  
HETATM    4  O   UNL     1     -12.183  15.779  63.921  1.00  0.00    -0.690 OA 
ENDROOT
BRANCH   3   5
HETATM    5  O   UNL     1     -11.718  13.358  66.532  1.00  0.00    -0.337 OA 
BRANCH   5   6
HETATM    6  C   UNL     1     -11.726  13.491  67.968  1.00  0.00    -0.359 C  
BRANCH   6   7
HETATM    7  C   UNL     1     -10.940  12.363  68.674  1.00  0.00    -0.247 C  
BRANCH   7   8
HETATM    8  N   UNL     1     -11.610  11.049  68.703  1.00  0.00    -0.314 NA 
HETATM    9  C   UNL     1     -11.203  10.170  67.584  1.00  0.00    -0.095 C  
HETATM   10  C   UNL     1      -9.783   9.560  67.718  1.00  0.00    -0.147 C  
HETATM   11  N   UNL     1      -9.550   8.803  68.974  1.00  0.00    -0.160 NA 
HETATM   12  C   UNL     1      -9.926   9.700  70.093  1.00  0.00    -0.261 C  
HETATM   13  C   UNL     1     -11.331  10.350  69.983  1.00  0.00    -0.313 C  
BRANCH  11  14
HETATM   14  C   UNL     1     -10.291   7.501  68.981  1.00  0.00    -0.212 C  
BRANCH  14  15
HETATM   15  C   UNL     1      -9.801   6.556  67.867  1.00  0.00    -0.134 A  
HETATM   16  C   UNL     1     -10.707   5.677  67.245  1.00  0.00    -0.299 A  
HETATM   17  C   UNL     1      -8.485   6.604  67.373  1.00  0.00    -0.120 A  
HETATM   18  C   UNL     1     -10.314   4.898  66.152  1.00  0.00    -0.329 A  
HETATM   19  C   UNL     1      -9.007   4.965  65.677  1.00  0.00    -0.146 A  
HETATM   20  C   UNL     1      -8.090   5.809  66.295  1.00  0.00    -0.107 A  
ENDBRANCH  14  15
BRANCH  14  21
HETATM   21  C   UNL     1     -10.311   6.817  70.359  1.00  0.00    -0.223 A  
HETATM   22  C   UNL     1     -10.421   5.708  72.945  1.00  0.00    -0.214 A  
HETATM   23 CL   UNL     1     -10.487   5.063  74.538  1.00  0.00    -0.312 Cl 
HETATM   24  C   UNL     1      -9.188   5.970  72.355  1.00  0.00    -0.143 A  
HETATM   25  C   UNL     1     -11.545   6.525  70.971  1.00  0.00    -0.405 A  
HETATM   26  C   UNL     1      -9.135   6.529  71.074  1.00  0.00    -0.150 A  
HETATM   27  C   UNL     1     -11.600   5.983  72.259  1.00  0.00    -0.359 A  
ENDBRANCH  14  21
ENDBRANCH  11  14
ENDBRANCH   7   8
ENDBRANCH   6   7
ENDBRANCH   5   6
ENDBRANCH   3   5
TORSDOF 7
ENDMDL
MODEL       49
REMARK 921   NORMALIZED FREE ENERGY PREDICTED BY IDOCK:   -5.23 KCAL/MOL
REMARK 922        TOTAL FREE ENERGY PREDICTED BY IDOCK:   -8.06 KCAL/MOL
REMARK 923 INTER-LIGAND FREE ENERGY PREDICTED BY IDOCK:   -7.37 KCAL/MOL
REMARK 924 INTRA-LIGAND FREE ENERGY PREDICTED BY IDOCK:   -0.68 KCAL/MOL
REMARK 927      BINDING AFFINITY PREDICTED BY RF-SCORE:    0.00 PKD
ROOT
HETATM    1  O   UNL     1     -10.944  18.466  64.910  1.00  0.00    -0.598 OA 
HETATM    2  C   UNL     1     -10.511  18.075  66.134  1.00  0.00    -0.331 C  
HETATM    3  C   UNL     1     -10.212  16.585  66.197  1.00  0.00    -0.346 C  
HETATM    4  O   UNL     1     -10.379  18.842  67.077  1.00  0.00    -0.358 OA 
ENDROOT
BRANCH   3   5
HETATM    5  O   UNL     1     -10.561  15.948  64.959  1.00  0.00    -0.497 OA 
BRANCH   5   6
HETATM    6  C   UNL     1     -10.356  14.522  65.004  1.00  0.00    -0.413 C  
BRANCH   6   7
HETATM    7  C   UNL     1     -10.825  13.894  66.336  1.00  0.00    -0.291 C  
BRANCH   7   8
HETATM    8  N   UNL     1      -9.809  13.097  67.050  1.00  0.00    -0.238 NA 
HETATM    9  C   UNL     1     -10.204  12.771  68.439  1.00  0.00    -0.236 C  
HETATM   10  C   UNL     1     -11.295  11.676  68.566  1.00  0.00    -0.274 C  
HETATM   11  N   UNL     1     -10.968  10.394  67.894  1.00  0.00    -0.280 NA 
HETATM   12  C   UNL     1     -10.607  10.722  66.493  1.00  0.00    -0.218 C  
HETATM   13  C   UNL     1      -9.535  11.832  66.324  1.00  0.00    -0.224 C  
BRANCH  11  14
HETATM   14  C   UNL     1      -9.896   9.644  68.623  1.00  0.00    -0.161 C  
BRANCH  14  15
HETATM   15  C   UNL     1     -10.344   9.236  70.040  1.00  0.00    -0.245 A  
HETATM   16  C   UNL     1     -11.710   9.260  70.378  1.00  0.00    -0.157 A  
HETATM   17  C   UNL     1      -9.437   8.743  70.996  1.00  0.00    -0.287 A  
HETATM   18  C   UNL     1     -12.152   8.780  71.615  1.00  0.00    -0.401 A  
HETATM   19  C   UNL     1     -11.237   8.293  72.544  1.00  0.00    -0.446 A  
HETATM   20  C   UNL     1      -9.879   8.285  72.240  1.00  0.00    -0.364 A  
ENDBRANCH  14  15
BRANCH  14  21
HETATM   21  C   UNL     1      -9.330   8.456  67.827  1.00  0.00    -0.150 A  
HETATM   22  C   UNL     1      -8.274   6.388  66.232  1.00  0.00    -0.118 A  
HETATM   23 CL   UNL     1      -7.641   5.143  65.230  1.00  0.00    -0.080 Cl 
HETATM   24  C   UNL     1      -9.594   6.323  66.668  1.00  0.00    -0.190 A  
HETATM   25  C   UNL     1      -7.992   8.490  67.387  1.00  0.00    -0.102 A  
HETATM   26  C   UNL     1     -10.120   7.354  67.453  1.00  0.00    -0.274 A  
HETATM   27  C   UNL     1      -7.470   7.468  66.588  1.00  0.00    -0.092 A  
ENDBRANCH  14  21
ENDBRANCH  11  14
ENDBRANCH   7   8
ENDBRANCH   6   7
ENDBRANCH   5   6
ENDBRANCH   3   5
TORSDOF 7
ENDMDL
MODEL       50
REMARK 921   NORMALIZED FREE ENERGY PREDICTED BY IDOCK:   -5.19 KCAL/MOL
REMARK 922        TOTAL FREE ENERGY PREDICTED BY IDOCK:   -7.99 KCAL/MOL
REMARK 923 INTER-LIGAND FREE ENERGY PREDICTED BY IDOCK:   -7.06 KCAL/MOL
REMARK 924 INTRA-LIGAND FREE ENERGY PREDICTED BY IDOCK:   -0.93 KCAL/MOL
REMARK 927      BINDING AFFINITY PREDICTED BY RF-SCORE:    0.00 PKD
ROOT
HETATM    1  O   UNL     1      -8.702   8.599  73.114  1.00  0.00    -0.371 OA 
HETATM    2  C   UNL     1      -9.169   7.391  73.514  1.00  0.00    -0.227 C  
HETATM    3  C   UNL     1     -10.665   7.239  73.282  1.00  0.00    -0.383 C  
HETATM    4  O   UNL     1      -8.460   6.526  74.008  1.00  0.00    -0.117 OA 
ENDROOT
BRANCH   3   5
HETATM    5  O   UNL     1     -11.224   8.463  72.781  1.00  0.00    -0.339 OA 
BRANCH   5   6
HETATM    6  C   UNL     1     -12.036   8.251  71.609  1.00  0.00    -0.306 C  
BRANCH   6   7
HETATM    7  C   UNL     1     -11.208   7.803  70.384  1.00  0.00    -0.237 C  
BRANCH   7   8
HETATM    8  N   UNL     1     -10.154   8.743  69.956  1.00  0.00    -0.185 NA 
HETATM    9  C   UNL     1      -9.644   8.457  68.597  1.00  0.00    -0.149 C  
HETATM   10  C   UNL     1     -10.603   8.854  67.444  1.00  0.00    -0.235 C  
HETATM   11  N   UNL     1     -11.035  10.274  67.458  1.00  0.00    -0.301 NA 
HETATM   12  C   UNL     1     -11.578  10.546  68.811  1.00  0.00    -0.182 C  
HETATM   13  C   UNL     1     -10.657  10.139  69.992  1.00  0.00    -0.287 C  
BRANCH  11  14
HETATM   14  C   UNL     1      -9.921  11.196  67.068  1.00  0.00    -0.192 C  
BRANCH  14  15
HETATM   15  C   UNL     1      -9.492  10.990  65.603  1.00  0.00    -0.250 A  
HETATM   16  C   UNL     1      -8.221  10.459  65.312  1.00  0.00    -0.162 A  
HETATM   17  C   UNL     1     -10.369  11.227  64.529  1.00  0.00    -0.381 A  
HETATM   18  C   UNL     1      -7.856  10.151  63.997  1.00  0.00    -0.149 A  
HETATM   19  C   UNL     1      -8.742  10.390  62.951  1.00  0.00    -0.214 A  
HETATM   20  C   UNL     1      -9.993  10.939  63.214  1.00  0.00    -0.399 A  
ENDBRANCH  14  15
BRANCH  14  21
HETATM   21  C   UNL     1     -10.207  12.672  67.390  1.00  0.00    -0.219 A  
HETATM   22  C   UNL     1     -10.712  15.411  67.810  1.00  0.00    -0.289 A  
HETATM   23 CL   UNL     1     -11.001  17.091  68.038  1.00  0.00    -0.324 Cl 
HETATM   24  C   UNL     1      -9.578  14.822  68.362  1.00  0.00    -0.213 A  
HETATM   25  C   UNL     1     -11.357  13.288  66.858  1.00  0.00    -0.351 A  
HETATM   26  C   UNL     1      -9.324  13.464  68.146  1.00  0.00    -0.217 A  
HETATM   27  C   UNL     1     -11.603  14.650  67.059  1.00  0.00    -0.385 A  
ENDBRANCH  14  21
ENDBRANCH  11  14
ENDBRANCH   7   8
ENDBRANCH   6   7
ENDBRANCH   5   6
ENDBRANCH   3   5
TORSDOF 7
ENDMDL
MODEL       51
REMARK 921   NORMALIZED FREE ENERGY PREDICTED BY IDOCK:   -5.16 KCAL/MOL
REMARK 922        TOTAL FREE ENERGY PREDICTED BY IDOCK:   -7.95 KCAL/MOL
REMARK 923 INTER-LIGAND FREE ENERGY PREDICTED BY IDOCK:   -7.62 KCAL/MOL
REMARK 924 INTRA-LIGAND FREE ENERGY PREDICTED BY IDOCK:   -0.33 KCAL/MOL
REMARK 927      BINDING AFFINITY PREDICTED BY RF-SCORE:    0.00 PKD
ROOT
HETATM    1  O   UNL     1     -10.201   8.037  69.969  1.00  0.00    -0.197 OA 
HETATM    2  C   UNL     1     -10.935   7.006  69.481  1.00  0.00    -0.220 C  
HETATM    3  C   UNL     1     -10.567   6.658  68.047  1.00  0.00    -0.245 C  
HETATM    4  O   UNL     1     -11.796   6.428  70.129  1.00  0.00    -0.409 OA 
ENDROOT
BRANCH   3   5
HETATM    5  O   UNL     1      -9.593   7.581  67.537  1.00  0.00    -0.135 OA 
BRANCH   5   6
HETATM    6  C   UNL     1     -10.103   8.357  66.435  1.00  0.00    -0.172 C  
BRANCH   6   7
HETATM    7  C   UNL     1      -9.421   9.739  66.314  1.00  0.00    -0.195 C  
BRANCH   7   8
HETATM    8  N   UNL     1     -10.338  10.893  66.253  1.00  0.00    -0.246 NA 
HETATM    9  C   UNL     1     -11.321  10.906  67.359  1.00  0.00    -0.195 C  
HETATM   10  C   UNL     1     -10.743  11.313  68.740  1.00  0.00    -0.203 C  
HETATM   11  N   UNL     1     -10.048  12.625  68.758  1.00  0.00    -0.113 NA 
HETATM   12  C   UNL     1      -9.039  12.593  67.670  1.00  0.00    -0.192 C  
HETATM   13  C   UNL     1      -9.575  12.166  66.278  1.00  0.00    -0.237 C  
BRANCH  11  14
HETATM   14  C   UNL     1     -11.012  13.765  68.642  1.00  0.00    -0.266 C  
BRANCH  14  15
HETATM   15  C   UNL     1     -11.927  13.870  69.876  1.00  0.00    -0.405 A  
HETATM   16  C   UNL     1     -12.436  15.123  70.268  1.00  0.00    -0.388 A  
HETATM   17  C   UNL     1     -12.359  12.733  70.584  1.00  0.00    -0.381 A  
HETATM   18  C   UNL     1     -13.363  15.227  71.310  1.00  0.00    -0.586 A  
HETATM   19  C   UNL     1     -13.779  14.088  71.993  1.00  0.00    -0.569 A  
HETATM   20  C   UNL     1     -13.268  12.843  71.639  1.00  0.00    -0.416 A  
ENDBRANCH  14  15
BRANCH  14  21
HETATM   21  C   UNL     1     -10.337  15.104  68.300  1.00  0.00    -0.231 A  
HETATM   22  C   UNL     1      -9.036  17.481  67.532  1.00  0.00    -0.230 A  
HETATM   23 CL   UNL     1      -8.218  18.913  67.046  1.00  0.00    -0.272 Cl 
HETATM   24  C   UNL     1      -8.649  16.823  68.695  1.00  0.00    -0.263 A  
HETATM   25  C   UNL     1     -10.722  15.798  67.137  1.00  0.00    -0.312 A  
HETATM   26  C   UNL     1      -9.290  15.638  69.071  1.00  0.00    -0.243 A  
HETATM   27  C   UNL     1     -10.071  16.974  66.750  1.00  0.00    -0.300 A  
ENDBRANCH  14  21
ENDBRANCH  11  14
ENDBRANCH   7   8
ENDBRANCH   6   7
ENDBRANCH   5   6
ENDBRANCH   3   5
TORSDOF 7
ENDMDL
MODEL       52
REMARK 921   NORMALIZED FREE ENERGY PREDICTED BY IDOCK:   -5.15 KCAL/MOL
REMARK 922        TOTAL FREE ENERGY PREDICTED BY IDOCK:   -7.95 KCAL/MOL
REMARK 923 INTER-LIGAND FREE ENERGY PREDICTED BY IDOCK:   -7.71 KCAL/MOL
REMARK 924 INTRA-LIGAND FREE ENERGY PREDICTED BY IDOCK:   -0.24 KCAL/MOL
REMARK 927      BINDING AFFINITY PREDICTED BY RF-SCORE:    0.00 PKD
ROOT
HETATM    1  O   UNL     1     -12.168  16.044  63.825  1.00  0.00    -0.895 OA 
HETATM    2  C   UNL     1     -11.079  15.980  64.631  1.00  0.00    -0.332 C  
HETATM    3  C   UNL     1     -10.737  14.554  65.035  1.00  0.00    -0.427 C  
HETATM    4  O   UNL     1     -10.450  16.965  64.990  1.00  0.00    -0.675 OA 
ENDROOT
BRANCH   3   5
HETATM    5  O   UNL     1     -11.721  13.637  64.533  1.00  0.00    -0.367 OA 
BRANCH   5   6
HETATM    6  C   UNL     1     -11.996  12.570  65.463  1.00  0.00    -0.442 C  
BRANCH   6   7
HETATM    7  C   UNL     1     -12.027  13.053  66.931  1.00  0.00    -0.352 C  
BRANCH   7   8
HETATM    8  N   UNL     1     -10.841  12.702  67.735  1.00  0.00    -0.216 NA 
HETATM    9  C   UNL     1     -11.159  12.474  69.163  1.00  0.00    -0.196 C  
HETATM   10  C   UNL     1     -11.882  11.135  69.463  1.00  0.00    -0.353 C  
HETATM   11  N   UNL     1     -11.172   9.925  68.977  1.00  0.00    -0.142 NA 
HETATM   12  C   UNL     1     -10.886  10.143  67.537  1.00  0.00    -0.290 C  
HETATM   13  C   UNL     1     -10.186  11.485  67.194  1.00  0.00    -0.204 C  
BRANCH  11  14
HETATM   14  C   UNL     1      -9.947   9.637  69.789  1.00  0.00    -0.227 C  
BRANCH  14  15
HETATM   15  C   UNL     1     -10.261   8.743  71.003  1.00  0.00    -0.301 A  
HETATM   16  C   UNL     1      -9.345   8.659  72.068  1.00  0.00    -0.362 A  
HETATM   17  C   UNL     1     -11.489   8.070  71.136  1.00  0.00    -0.302 A  
HETATM   18  C   UNL     1      -9.661   7.951  73.233  1.00  0.00    -0.351 A  
HETATM   19  C   UNL     1     -10.884   7.296  73.344  1.00  0.00    -0.370 A  
HETATM   20  C   UNL     1     -11.793   7.345  72.291  1.00  0.00    -0.307 A  
ENDBRANCH  14  15
BRANCH  14  21
HETATM   21  C   UNL     1      -8.773   9.096  68.954  1.00  0.00    -0.132 A  
HETATM   22  C   UNL     1      -6.663   8.224  67.305  1.00  0.00    -0.063 A  
HETATM   23 CL   UNL     1      -5.392   7.703  66.271  1.00  0.00    -0.024 Cl 
HETATM   24  C   UNL     1      -7.734   7.376  67.568  1.00  0.00    -0.111 A  
HETATM   25  C   UNL     1      -7.670   9.929  68.687  1.00  0.00    -0.081 A  
HETATM   26  C   UNL     1      -8.786   7.812  68.380  1.00  0.00    -0.127 A  
HETATM   27  C   UNL     1      -6.626   9.500  67.861  1.00  0.00    -0.062 A  
ENDBRANCH  14  21
ENDBRANCH  11  14
ENDBRANCH   7   8
ENDBRANCH   6   7
ENDBRANCH   5   6
ENDBRANCH   3   5
TORSDOF 7
ENDMDL
MODEL       53
REMARK 921   NORMALIZED FREE ENERGY PREDICTED BY IDOCK:   -5.11 KCAL/MOL
REMARK 922        TOTAL FREE ENERGY PREDICTED BY IDOCK:   -7.89 KCAL/MOL
REMARK 923 INTER-LIGAND FREE ENERGY PREDICTED BY IDOCK:   -6.99 KCAL/MOL
REMARK 924 INTRA-LIGAND FREE ENERGY PREDICTED BY IDOCK:   -0.90 KCAL/MOL
REMARK 927      BINDING AFFINITY PREDICTED BY RF-SCORE:    0.00 PKD
ROOT
HETATM    1  O   UNL     1     -11.919  15.877  69.306  1.00  0.00    -0.356 OA 
HETATM    2  C   UNL     1     -10.923  16.515  68.643  1.00  0.00    -0.344 C  
HETATM    3  C   UNL     1     -10.608  15.868  67.303  1.00  0.00    -0.314 C  
HETATM    4  O   UNL     1     -10.345  17.498  69.083  1.00  0.00    -0.349 OA 
ENDROOT
BRANCH   3   5
HETATM    5  O   UNL     1     -11.389  14.677  67.121  1.00  0.00    -0.332 OA 
BRANCH   5   6
HETATM    6  C   UNL     1     -10.576  13.487  67.126  1.00  0.00    -0.264 C  
BRANCH   6   7
HETATM    7  C   UNL     1     -10.655  12.717  68.464  1.00  0.00    -0.243 C  
BRANCH   7   8
HETATM    8  N   UNL     1     -11.429  11.462  68.425  1.00  0.00    -0.272 NA 
HETATM    9  C   UNL     1     -11.022  10.567  67.318  1.00  0.00    -0.260 C  
HETATM   10  C   UNL     1      -9.668   9.840  67.534  1.00  0.00    -0.157 C  
HETATM   11  N   UNL     1      -9.582   9.050  68.788  1.00  0.00    -0.151 NA 
HETATM   12  C   UNL     1      -9.957   9.961  69.897  1.00  0.00    -0.252 C  
HETATM   13  C   UNL     1     -11.294  10.726  69.707  1.00  0.00    -0.300 C  
BRANCH  11  14
HETATM   14  C   UNL     1     -10.424   7.814  68.724  1.00  0.00    -0.181 C  
BRANCH  14  15
HETATM   15  C   UNL     1      -9.948   6.852  67.618  1.00  0.00    -0.180 A  
HETATM   16  C   UNL     1      -8.599   6.857  67.217  1.00  0.00    -0.120 A  
HETATM   17  C   UNL     1     -10.801   5.888  67.050  1.00  0.00    -0.379 A  
HETATM   18  C   UNL     1      -8.118   5.914  66.303  1.00  0.00    -0.104 A  
HETATM   19  C   UNL     1      -8.979   4.966  65.757  1.00  0.00    -0.142 A  
HETATM   20  C   UNL     1     -10.322   4.960  66.121  1.00  0.00    -0.329 A  
ENDBRANCH  14  15
BRANCH  14  21
HETATM   21  C   UNL     1     -10.580   7.109  70.082  1.00  0.00    -0.247 A  
HETATM   22  C   UNL     1     -10.837   5.667  72.488  1.00  0.00    -0.251 A  
HETATM   23 CL   UNL     1     -11.002   4.759  73.939  1.00  0.00    -0.363 Cl 
HETATM   24  C   UNL     1     -11.937   6.334  71.958  1.00  0.00    -0.353 A  
HETATM   25  C   UNL     1      -9.477   6.440  70.648  1.00  0.00    -0.176 A  
HETATM   26  C   UNL     1     -11.811   7.042  70.759  1.00  0.00    -0.401 A  
HETATM   27  C   UNL     1      -9.606   5.717  71.839  1.00  0.00    -0.172 A  
ENDBRANCH  14  21
ENDBRANCH  11  14
ENDBRANCH   7   8
ENDBRANCH   6   7
ENDBRANCH   5   6
ENDBRANCH   3   5
TORSDOF 7
ENDMDL
MODEL       54
REMARK 921   NORMALIZED FREE ENERGY PREDICTED BY IDOCK:   -5.09 KCAL/MOL
REMARK 922        TOTAL FREE ENERGY PREDICTED BY IDOCK:   -7.85 KCAL/MOL
REMARK 923 INTER-LIGAND FREE ENERGY PREDICTED BY IDOCK:   -7.46 KCAL/MOL
REMARK 924 INTRA-LIGAND FREE ENERGY PREDICTED BY IDOCK:   -0.39 KCAL/MOL
REMARK 927      BINDING AFFINITY PREDICTED BY RF-SCORE:    0.00 PKD
ROOT
HETATM    1  O   UNL     1      -9.774  20.802  67.035  1.00  0.00    -0.422 OA 
HETATM    2  C   UNL     1     -10.650  19.886  66.554  1.00  0.00    -0.415 C  
HETATM    3  C   UNL     1     -10.968  18.797  67.568  1.00  0.00    -0.207 C  
HETATM    4  O   UNL     1     -11.125  19.936  65.429  1.00  0.00    -0.338 OA 
ENDROOT
BRANCH   3   5
HETATM    5  O   UNL     1     -10.177  18.965  68.753  1.00  0.00    -0.377 OA 
BRANCH   5   6
HETATM    6  C   UNL     1      -9.061  18.053  68.798  1.00  0.00    -0.214 C  
BRANCH   6   7
HETATM    7  C   UNL     1      -8.977  17.153  67.544  1.00  0.00    -0.221 C  
BRANCH   7   8
HETATM    8  N   UNL     1      -8.372  15.825  67.760  1.00  0.00    -0.152 NA 
HETATM    9  C   UNL     1      -8.793  15.200  69.034  1.00  0.00    -0.219 C  
HETATM   10  C   UNL     1     -10.243  14.650  69.041  1.00  0.00    -0.220 C  
HETATM   11  N   UNL     1     -10.543  13.679  67.959  1.00  0.00    -0.244 NA 
HETATM   12  C   UNL     1     -10.152  14.324  66.681  1.00  0.00    -0.273 C  
HETATM   13  C   UNL     1      -8.716  14.909  66.644  1.00  0.00    -0.227 C  
BRANCH  11  14
HETATM   14  C   UNL     1      -9.867  12.363  68.192  1.00  0.00    -0.213 C  
BRANCH  14  15
HETATM   15  C   UNL     1     -10.658  11.477  69.174  1.00  0.00    -0.174 A  
HETATM   16  C   UNL     1     -10.141  10.229  69.565  1.00  0.00    -0.260 A  
HETATM   17  C   UNL     1     -11.851  11.915  69.777  1.00  0.00    -0.411 A  
HETATM   18  C   UNL     1     -10.780   9.462  70.545  1.00  0.00    -0.335 A  
HETATM   19  C   UNL     1     -11.957   9.917  71.132  1.00  0.00    -0.473 A  
HETATM   20  C   UNL     1     -12.499  11.137  70.740  1.00  0.00    -0.479 A  
ENDBRANCH  14  15
BRANCH  14  21
HETATM   21  C   UNL     1      -9.511  11.619  66.893  1.00  0.00    -0.195 A  
HETATM   22  C   UNL     1      -8.945  10.120  64.577  1.00  0.00    -0.221 A  
HETATM   23 CL   UNL     1      -8.603   9.175  63.182  1.00  0.00    -0.203 Cl 
HETATM   24  C   UNL     1      -7.910  10.515  65.418  1.00  0.00    -0.119 A  
HETATM   25  C   UNL     1     -10.540  11.223  66.016  1.00  0.00    -0.314 A  
HETATM   26  C   UNL     1      -8.193  11.252  66.573  1.00  0.00    -0.165 A  
HETATM   27  C   UNL     1     -10.260  10.471  64.871  1.00  0.00    -0.371 A  
ENDBRANCH  14  21
ENDBRANCH  11  14
ENDBRANCH   7   8
ENDBRANCH   6   7
ENDBRANCH   5   6
ENDBRANCH   3   5
TORSDOF 7
ENDMDL
MODEL       55
REMARK 921   NORMALIZED FREE ENERGY PREDICTED BY IDOCK:   -5.07 KCAL/MOL
REMARK 922        TOTAL FREE ENERGY PREDICTED BY IDOCK:   -7.83 KCAL/MOL
REMARK 923 INTER-LIGAND FREE ENERGY PREDICTED BY IDOCK:   -6.85 KCAL/MOL
REMARK 924 INTRA-LIGAND FREE ENERGY PREDICTED BY IDOCK:   -0.98 KCAL/MOL
REMARK 927      BINDING AFFINITY PREDICTED BY RF-SCORE:    0.00 PKD
ROOT
HETATM    1  O   UNL     1     -10.823  19.063  67.519  1.00  0.00    -0.463 OA 
HETATM    2  C   UNL     1     -10.356  19.529  66.334  1.00  0.00    -0.496 C  
HETATM    3  C   UNL     1      -8.861  19.809  66.368  1.00  0.00    -0.377 C  
HETATM    4  O   UNL     1     -11.065  19.704  65.354  1.00  0.00    -0.412 OA 
ENDROOT
BRANCH   3   5
HETATM    5  O   UNL     1      -8.338  19.597  67.688  1.00  0.00    -0.292 OA 
BRANCH   5   6
HETATM    6  C   UNL     1      -7.194  18.720  67.687  1.00  0.00    -0.216 C  
BRANCH   6   7
HETATM    7  C   UNL     1      -7.429  17.435  68.513  1.00  0.00    -0.251 C  
BRANCH   7   8
HETATM    8  N   UNL     1      -7.235  16.169  67.780  1.00  0.00    -0.129 NA 
HETATM    9  C   UNL     1      -7.180  14.989  68.672  1.00  0.00    -0.115 C  
HETATM   10  C   UNL     1      -8.548  14.554  69.261  1.00  0.00     0.109 C  
HETATM   11  N   UNL     1      -9.601  14.287  68.249  1.00  0.00    -0.215 NA 
HETATM   12  C   UNL     1      -9.676  15.487  67.379  1.00  0.00    -0.218 C  
HETATM   13  C   UNL     1      -8.324  15.968  66.791  1.00  0.00    -0.270 C  
BRANCH  11  14
HETATM   14  C   UNL     1      -9.337  13.021  67.494  1.00  0.00    -0.200 C  
BRANCH  14  15
HETATM   15  C   UNL     1      -9.294  11.795  68.426  1.00  0.00    -0.185 A  
HETATM   16  C   UNL     1      -8.070  11.147  68.677  1.00  0.00    -0.150 A  
HETATM   17  C   UNL     1     -10.431  11.348  69.123  1.00  0.00    -0.159 A  
HETATM   18  C   UNL     1      -7.986  10.109  69.611  1.00  0.00    -0.181 A  
HETATM   19  C   UNL     1      -9.124   9.686  70.292  1.00  0.00    -0.272 A  
HETATM   20  C   UNL     1     -10.348  10.297  70.040  1.00  0.00    -0.255 A  
ENDBRANCH  14  15
BRANCH  14  21
HETATM   21  C   UNL     1     -10.283  12.812  66.299  1.00  0.00    -0.264 A  
HETATM   22  C   UNL     1     -12.115  12.332  64.215  1.00  0.00    -0.412 A  
HETATM   23 CL   UNL     1     -13.243  12.009  62.958  1.00  0.00     0.153 Cl 
HETATM   24  C   UNL     1     -10.817  11.838  64.125  1.00  0.00    -0.418 A  
HETATM   25  C   UNL     1     -11.597  13.316  66.358  1.00  0.00    -0.387 A  
HETATM   26  C   UNL     1      -9.910  12.070  65.164  1.00  0.00    -0.223 A  
HETATM   27  C   UNL     1     -12.509  13.071  65.327  1.00  0.00    -0.555 A  
ENDBRANCH  14  21
ENDBRANCH  11  14
ENDBRANCH   7   8
ENDBRANCH   6   7
ENDBRANCH   5   6
ENDBRANCH   3   5
TORSDOF 7
ENDMDL
MODEL       56
REMARK 921   NORMALIZED FREE ENERGY PREDICTED BY IDOCK:   -4.92 KCAL/MOL
REMARK 922        TOTAL FREE ENERGY PREDICTED BY IDOCK:   -7.62 KCAL/MOL
REMARK 923 INTER-LIGAND FREE ENERGY PREDICTED BY IDOCK:   -6.76 KCAL/MOL
REMARK 924 INTRA-LIGAND FREE ENERGY PREDICTED BY IDOCK:   -0.87 KCAL/MOL
REMARK 927      BINDING AFFINITY PREDICTED BY RF-SCORE:    0.00 PKD
ROOT
HETATM    1  O   UNL     1      -9.853  17.326  67.440  1.00  0.00    -0.259 OA 
HETATM    2  C   UNL     1      -9.226  16.735  66.393  1.00  0.00    -0.279 C  
HETATM    3  C   UNL     1      -9.897  15.438  65.970  1.00  0.00    -0.326 C  
HETATM    4  O   UNL     1      -8.230  17.200  65.856  1.00  0.00    -0.526 OA 
ENDROOT
BRANCH   3   5
HETATM    5  O   UNL     1     -10.978  15.116  66.857  1.00  0.00    -0.317 OA 
BRANCH   5   6
HETATM    6  C   UNL     1     -10.736  13.902  67.594  1.00  0.00    -0.249 C  
BRANCH   6   7
HETATM    7  C   UNL     1     -10.211  12.756  66.698  1.00  0.00    -0.238 C  
BRANCH   7   8
HETATM    8  N   UNL     1      -9.349  11.770  67.376  1.00  0.00    -0.171 NA 
HETATM    9  C   UNL     1      -9.862  11.373  68.707  1.00  0.00    -0.164 C  
HETATM   10  C   UNL     1     -11.090  10.426  68.675  1.00  0.00    -0.262 C  
HETATM   11  N   UNL     1     -10.890   9.178  67.896  1.00  0.00    -0.150 NA 
HETATM   12  C   UNL     1     -10.410   9.583  66.552  1.00  0.00    -0.193 C  
HETATM   13  C   UNL     1      -9.197  10.551  66.542  1.00  0.00    -0.161 C  
BRANCH  11  14
HETATM   14  C   UNL     1      -9.968   8.229  68.596  1.00  0.00    -0.190 C  
BRANCH  14  15
HETATM   15  C   UNL     1     -10.401   7.977  70.053  1.00  0.00    -0.218 A  
HETATM   16  C   UNL     1      -9.569   8.382  71.113  1.00  0.00    -0.226 A  
HETATM   17  C   UNL     1     -11.659   7.433  70.373  1.00  0.00    -0.210 A  
HETATM   18  C   UNL     1      -9.994   8.274  72.441  1.00  0.00    -0.379 A  
HETATM   19  C   UNL     1     -11.245   7.737  72.734  1.00  0.00    -0.456 A  
HETATM   20  C   UNL     1     -12.072   7.306  71.701  1.00  0.00    -0.359 A  
ENDBRANCH  14  15
BRANCH  14  21
HETATM   21  C   UNL     1      -9.734   6.920  67.822  1.00  0.00    -0.148 A  
HETATM   22  C   UNL     1      -9.410   4.444  66.520  1.00  0.00    -0.159 A  
HETATM   23 CL   UNL     1      -9.219   2.916  65.756  1.00  0.00    -0.141 Cl 
HETATM   24  C   UNL     1      -8.320   5.052  67.135  1.00  0.00    -0.106 A  
HETATM   25  C   UNL     1     -10.817   6.292  67.177  1.00  0.00    -0.460 A  
HETATM   26  C   UNL     1      -8.484   6.277  67.789  1.00  0.00    -0.116 A  
HETATM   27  C   UNL     1     -10.659   5.059  66.538  1.00  0.00    -0.289 A  
ENDBRANCH  14  21
ENDBRANCH  11  14
ENDBRANCH   7   8
ENDBRANCH   6   7
ENDBRANCH   5   6
ENDBRANCH   3   5
TORSDOF 7
ENDMDL
MODEL       57
REMARK 921   NORMALIZED FREE ENERGY PREDICTED BY IDOCK:   -4.89 KCAL/MOL
REMARK 922        TOTAL FREE ENERGY PREDICTED BY IDOCK:   -7.58 KCAL/MOL
REMARK 923 INTER-LIGAND FREE ENERGY PREDICTED BY IDOCK:   -6.96 KCAL/MOL
REMARK 924 INTRA-LIGAND FREE ENERGY PREDICTED BY IDOCK:   -0.62 KCAL/MOL
REMARK 927      BINDING AFFINITY PREDICTED BY RF-SCORE:    0.00 PKD
ROOT
HETATM    1  O   UNL     1     -10.930   7.489  70.919  1.00  0.00    -0.244 OA 
HETATM    2  C   UNL     1     -11.883   7.244  71.853  1.00  0.00    -0.297 C  
HETATM    3  C   UNL     1     -12.640   8.501  72.254  1.00  0.00    -0.381 C  
HETATM    4  O   UNL     1     -12.101   6.134  72.316  1.00  0.00    -0.311 OA 
ENDROOT
BRANCH   3   5
HETATM    5  O   UNL     1     -12.082   9.655  71.606  1.00  0.00    -0.367 OA 
BRANCH   5   6
HETATM    6  C   UNL     1     -13.008  10.759  71.568  1.00  0.00    -0.456 C  
BRANCH   6   7
HETATM    7  C   UNL     1     -12.320  12.102  71.235  1.00  0.00    -0.070 C  
BRANCH   7   8
HETATM    8  N   UNL     1     -12.639  12.663  69.909  1.00  0.00     0.109 NA 
HETATM    9  C   UNL     1     -12.117  14.036  69.722  1.00  0.00    -0.348 C  
HETATM   10  C   UNL     1     -10.585  14.125  69.501  1.00  0.00     0.043 C  
HETATM   11  N   UNL     1     -10.073  13.307  68.372  1.00  0.00    -0.242 NA 
HETATM   12  C   UNL     1     -10.570  11.925  68.582  1.00  0.00    -0.234 C  
HETATM   13  C   UNL     1     -12.096  11.797  68.833  1.00  0.00    -0.178 C  
BRANCH  11  14
HETATM   14  C   UNL     1     -10.465  13.884  67.047  1.00  0.00    -0.278 C  
BRANCH  14  15
HETATM   15  C   UNL     1      -9.923  15.314  66.861  1.00  0.00    -0.243 A  
HETATM   16  C   UNL     1      -8.554  15.518  66.602  1.00  0.00    -0.325 A  
HETATM   17  C   UNL     1     -10.770  16.437  66.846  1.00  0.00    -0.202 A  
HETATM   18  C   UNL     1      -8.061  16.794  66.312  1.00  0.00    -0.365 A  
HETATM   19  C   UNL     1      -8.919  17.890  66.298  1.00  0.00    -0.192 A  
HETATM   20  C   UNL     1     -10.271  17.714  66.577  1.00  0.00    -0.355 A  
ENDBRANCH  14  15
BRANCH  14  21
HETATM   21  C   UNL     1     -10.123  12.972  65.857  1.00  0.00    -0.291 A  
HETATM   22  C   UNL     1      -9.661  11.246  63.679  1.00  0.00    -0.274 A  
HETATM   23 CL   UNL     1      -9.405  10.173  62.361  1.00  0.00    -0.311 Cl 
HETATM   24  C   UNL     1      -9.025  11.014  64.895  1.00  0.00    -0.115 A  
HETATM   25  C   UNL     1     -10.740  13.195  64.611  1.00  0.00    -0.398 A  
HETATM   26  C   UNL     1      -9.262  11.867  65.979  1.00  0.00    -0.176 A  
HETATM   27  C   UNL     1     -10.518  12.334  63.532  1.00  0.00    -0.459 A  
ENDBRANCH  14  21
ENDBRANCH  11  14
ENDBRANCH   7   8
ENDBRANCH   6   7
ENDBRANCH   5   6
ENDBRANCH   3   5
TORSDOF 7
ENDMDL
MODEL       58
REMARK 921   NORMALIZED FREE ENERGY PREDICTED BY IDOCK:   -4.87 KCAL/MOL
REMARK 922        TOTAL FREE ENERGY PREDICTED BY IDOCK:   -7.55 KCAL/MOL
REMARK 923 INTER-LIGAND FREE ENERGY PREDICTED BY IDOCK:   -6.83 KCAL/MOL
REMARK 924 INTRA-LIGAND FREE ENERGY PREDICTED BY IDOCK:   -0.72 KCAL/MOL
REMARK 927      BINDING AFFINITY PREDICTED BY RF-SCORE:    0.00 PKD
ROOT
HETATM    1  O   UNL     1     -10.844   5.623  67.734  1.00  0.00    -0.217 OA 
HETATM    2  C   UNL     1      -9.816   5.001  68.363  1.00  0.00    -0.147 C  
HETATM    3  C   UNL     1      -9.953   5.039  69.878  1.00  0.00    -0.251 C  
HETATM    4  O   UNL     1      -8.887   4.472  67.771  1.00  0.00    -0.103 OA 
ENDROOT
BRANCH   3   5
HETATM    5  O   UNL     1     -11.098   5.816  70.262  1.00  0.00    -0.311 OA 
BRANCH   5   6
HETATM    6  C   UNL     1     -10.749   6.900  71.146  1.00  0.00    -0.225 C  
BRANCH   6   7
HETATM    7  C   UNL     1     -11.229   8.272  70.623  1.00  0.00    -0.256 C  
BRANCH   7   8
HETATM    8  N   UNL     1     -10.189   9.106  69.991  1.00  0.00    -0.193 NA 
HETATM    9  C   UNL     1      -9.894   8.701  68.598  1.00  0.00    -0.169 C  
HETATM   10  C   UNL     1     -10.979   9.094  67.562  1.00  0.00     0.060 C  
HETATM   11  N   UNL     1     -11.314  10.541  67.533  1.00  0.00    -0.409 NA 
HETATM   12  C   UNL     1     -11.643  10.933  68.926  1.00  0.00    -0.309 C  
HETATM   13  C   UNL     1     -10.592  10.535  69.996  1.00  0.00    -0.169 C  
BRANCH  11  14
HETATM   14  C   UNL     1     -10.210  11.354  66.932  1.00  0.00    -0.219 C  
BRANCH  14  15
HETATM   15  C   UNL     1      -9.977  10.998  65.451  1.00  0.00    -0.313 A  
HETATM   16  C   UNL     1     -10.595  11.758  64.441  1.00  0.00    -0.368 A  
HETATM   17  C   UNL     1      -9.081   9.986  65.059  1.00  0.00    -0.255 A  
HETATM   18  C   UNL     1     -10.304  11.531  63.092  1.00  0.00    -0.376 A  
HETATM   19  C   UNL     1      -9.412  10.527  62.728  1.00  0.00    -0.353 A  
HETATM   20  C   UNL     1      -8.809   9.747  63.710  1.00  0.00    -0.259 A  
ENDBRANCH  14  15
BRANCH  14  21
HETATM   21  C   UNL     1     -10.376  12.867  67.149  1.00  0.00    -0.239 A  
HETATM   22  C   UNL     1     -10.650  15.613  67.715  1.00  0.00    -0.281 A  
HETATM   23 CL   UNL     1     -10.825  17.281  68.093  1.00  0.00    -0.353 Cl 
HETATM   24  C   UNL     1     -11.749  14.883  67.275  1.00  0.00    -0.308 A  
HETATM   25  C   UNL     1      -9.275  13.633  67.579  1.00  0.00    -0.218 A  
HETATM   26  C   UNL     1     -11.615  13.517  67.002  1.00  0.00    -0.394 A  
HETATM   27  C   UNL     1      -9.412  14.994  67.868  1.00  0.00    -0.195 A  
ENDBRANCH  14  21
ENDBRANCH  11  14
ENDBRANCH   7   8
ENDBRANCH   6   7
ENDBRANCH   5   6
ENDBRANCH   3   5
TORSDOF 7
ENDMDL
MODEL       59
REMARK 921   NORMALIZED FREE ENERGY PREDICTED BY IDOCK:   -4.86 KCAL/MOL
REMARK 922        TOTAL FREE ENERGY PREDICTED BY IDOCK:   -7.53 KCAL/MOL
REMARK 923 INTER-LIGAND FREE ENERGY PREDICTED BY IDOCK:   -7.50 KCAL/MOL
REMARK 924 INTRA-LIGAND FREE ENERGY PREDICTED BY IDOCK:   -0.03 KCAL/MOL
REMARK 927      BINDING AFFINITY PREDICTED BY RF-SCORE:    0.00 PKD
ROOT
HETATM    1  O   UNL     1      -6.721   9.790  70.987  1.00  0.00    -0.267 OA 
HETATM    2  C   UNL     1      -6.290  10.852  70.262  1.00  0.00    -0.135 C  
HETATM    3  C   UNL     1      -6.060  10.503  68.800  1.00  0.00    -0.040 C  
HETATM    4  O   UNL     1      -6.108  11.962  70.741  1.00  0.00    -0.323 OA 
ENDROOT
BRANCH   3   5
HETATM    5  O   UNL     1      -6.267   9.101  68.576  1.00  0.00    -0.048 OA 
BRANCH   5   6
HETATM    6  C   UNL     1      -7.172   8.851  67.483  1.00  0.00    -0.080 C  
BRANCH   6   7
HETATM    7  C   UNL     1      -8.338   7.915  67.876  1.00  0.00    -0.126 C  
BRANCH   7   8
HETATM    8  N   UNL     1      -9.689   8.468  67.666  1.00  0.00    -0.153 NA 
HETATM    9  C   UNL     1     -10.405   8.739  68.933  1.00  0.00    -0.212 C  
HETATM   10  C   UNL     1      -9.907   9.988  69.707  1.00  0.00    -0.235 C  
HETATM   11  N   UNL     1      -9.917  11.248  68.923  1.00  0.00    -0.188 NA 
HETATM   12  C   UNL     1      -9.169  10.981  67.670  1.00  0.00    -0.149 C  
HETATM   13  C   UNL     1      -9.621   9.725  66.879  1.00  0.00    -0.180 C  
BRANCH  11  14
HETATM   14  C   UNL     1     -11.311  11.744  68.688  1.00  0.00    -0.270 C  
BRANCH  14  15
HETATM   15  C   UNL     1     -12.026  12.091  70.008  1.00  0.00    -0.400 A  
HETATM   16  C   UNL     1     -12.210  13.437  70.374  1.00  0.00    -0.415 A  
HETATM   17  C   UNL     1     -12.595  11.101  70.830  1.00  0.00    -0.483 A  
HETATM   18  C   UNL     1     -12.959  13.778  71.504  1.00  0.00    -0.444 A  
HETATM   19  C   UNL     1     -13.517  12.782  72.301  1.00  0.00    -0.591 A  
HETATM   20  C   UNL     1     -13.325  11.444  71.971  1.00  0.00    -0.388 A  
ENDBRANCH  14  15
BRANCH  14  21
HETATM   21  C   UNL     1     -11.388  12.889  67.664  1.00  0.00    -0.349 A  
HETATM   22  C   UNL     1     -11.450  14.883  65.676  1.00  0.00    -0.290 A  
HETATM   23 CL   UNL     1     -11.460  16.086  64.447  1.00  0.00    -0.372 Cl 
HETATM   24  C   UNL     1     -10.695  15.076  66.828  1.00  0.00    -0.308 A  
HETATM   25  C   UNL     1     -12.159  12.726  66.497  1.00  0.00    -0.338 A  
HETATM   26  C   UNL     1     -10.658  14.082  67.812  1.00  0.00    -0.244 A  
HETATM   27  C   UNL     1     -12.183  13.712  65.506  1.00  0.00    -0.476 A  
ENDBRANCH  14  21
ENDBRANCH  11  14
ENDBRANCH   7   8
ENDBRANCH   6   7
ENDBRANCH   5   6
ENDBRANCH   3   5
TORSDOF 7
ENDMDL
MODEL       60
REMARK 921   NORMALIZED FREE ENERGY PREDICTED BY IDOCK:   -4.85 KCAL/MOL
REMARK 922        TOTAL FREE ENERGY PREDICTED BY IDOCK:   -7.52 KCAL/MOL
REMARK 923 INTER-LIGAND FREE ENERGY PREDICTED BY IDOCK:   -6.96 KCAL/MOL
REMARK 924 INTRA-LIGAND FREE ENERGY PREDICTED BY IDOCK:   -0.56 KCAL/MOL
REMARK 927      BINDING AFFINITY PREDICTED BY RF-SCORE:    0.00 PKD
ROOT
HETATM    1  O   UNL     1      -7.789   9.747  71.024  1.00  0.00    -0.267 OA 
HETATM    2  C   UNL     1      -6.526   9.282  71.190  1.00  0.00    -0.083 C  
HETATM    3  C   UNL     1      -5.481  10.381  71.070  1.00  0.00    -0.087 C  
HETATM    4  O   UNL     1      -6.265   8.108  71.409  1.00  0.00    -0.034 OA 
ENDROOT
BRANCH   3   5
HETATM    5  O   UNL     1      -6.097  11.627  70.712  1.00  0.00    -0.342 OA 
BRANCH   5   6
HETATM    6  C   UNL     1      -5.127  12.642  70.390  1.00  0.00    -0.105 C  
BRANCH   6   7
HETATM    7  C   UNL     1      -5.688  13.721  69.436  1.00  0.00    -0.090 C  
BRANCH   7   8
HETATM    8  N   UNL     1      -7.127  14.012  69.589  1.00  0.00     0.024 NA 
HETATM    9  C   UNL     1      -7.415  15.461  69.682  1.00  0.00    -0.170 C  
HETATM   10  C   UNL     1      -7.300  16.235  68.342  1.00  0.00    -0.158 C  
HETATM   11  N   UNL     1      -8.135  15.693  67.240  1.00  0.00    -0.177 NA 
HETATM   12  C   UNL     1      -7.817  14.249  67.129  1.00  0.00    -0.056 C  
HETATM   13  C   UNL     1      -7.896  13.445  68.454  1.00  0.00    -0.138 C  
BRANCH  11  14
HETATM   14  C   UNL     1      -9.591  15.966  67.463  1.00  0.00    -0.221 C  
BRANCH  14  15
HETATM   15  C   UNL     1      -9.915  17.468  67.364  1.00  0.00    -0.315 A  
HETATM   16  C   UNL     1     -10.026  18.242  68.534  1.00  0.00    -0.413 A  
HETATM   17  C   UNL     1     -10.014  18.129  66.126  1.00  0.00    -0.301 A  
HETATM   18  C   UNL     1     -10.200  19.628  68.465  1.00  0.00    -0.529 A  
HETATM   19  C   UNL     1     -10.291  20.261  67.229  1.00  0.00    -0.420 A  
HETATM   20  C   UNL     1     -10.210  19.511  66.060  1.00  0.00    -0.567 A  
ENDBRANCH  14  15
BRANCH  14  21
HETATM   21  C   UNL     1     -10.516  15.110  66.581  1.00  0.00    -0.287 A  
HETATM   22  C   UNL     1     -12.130  13.401  65.029  1.00  0.00    -0.401 A  
HETATM   23 CL   UNL     1     -13.091  12.334  64.083  1.00  0.00    -0.312 Cl 
HETATM   24  C   UNL     1     -11.231  14.261  64.406  1.00  0.00    -0.262 A  
HETATM   25  C   UNL     1     -11.446  14.243  67.187  1.00  0.00    -0.377 A  
HETATM   26  C   UNL     1     -10.424  15.103  65.178  1.00  0.00    -0.437 A  
HETATM   27  C   UNL     1     -12.242  13.388  66.417  1.00  0.00    -0.435 A  
ENDBRANCH  14  21
ENDBRANCH  11  14
ENDBRANCH   7   8
ENDBRANCH   6   7
ENDBRANCH   5   6
ENDBRANCH   3   5
TORSDOF 7
ENDMDL
MODEL       61
REMARK 921   NORMALIZED FREE ENERGY PREDICTED BY IDOCK:   -4.84 KCAL/MOL
REMARK 922        TOTAL FREE ENERGY PREDICTED BY IDOCK:   -7.50 KCAL/MOL
REMARK 923 INTER-LIGAND FREE ENERGY PREDICTED BY IDOCK:   -7.32 KCAL/MOL
REMARK 924 INTRA-LIGAND FREE ENERGY PREDICTED BY IDOCK:   -0.18 KCAL/MOL
REMARK 927      BINDING AFFINITY PREDICTED BY RF-SCORE:    0.00 PKD
ROOT
HETATM    1  O   UNL     1      -9.103   4.077  64.851  1.00  0.00    -0.127 OA 
HETATM    2  C   UNL     1      -8.477   5.252  64.593  1.00  0.00    -0.142 C  
HETATM    3  C   UNL     1      -8.017   5.957  65.861  1.00  0.00    -0.109 C  
HETATM    4  O   UNL     1      -8.308   5.690  63.465  1.00  0.00    -0.117 OA 
ENDROOT
BRANCH   3   5
HETATM    5  O   UNL     1      -8.452   5.238  67.024  1.00  0.00    -0.108 OA 
BRANCH   5   6
HETATM    6  C   UNL     1      -8.458   6.064  68.205  1.00  0.00    -0.112 C  
BRANCH   6   7
HETATM    7  C   UNL     1      -8.430   7.574  67.876  1.00  0.00    -0.122 C  
BRANCH   7   8
HETATM    8  N   UNL     1      -9.748   8.191  67.632  1.00  0.00    -0.152 NA 
HETATM    9  C   UNL     1     -10.461   8.540  68.881  1.00  0.00    -0.188 C  
HETATM   10  C   UNL     1      -9.906   9.784  69.622  1.00  0.00    -0.221 C  
HETATM   11  N   UNL     1      -9.840  11.018  68.798  1.00  0.00    -0.197 NA 
HETATM   12  C   UNL     1      -9.094  10.671  67.563  1.00  0.00    -0.139 C  
HETATM   13  C   UNL     1      -9.604   9.417  66.807  1.00  0.00    -0.179 C  
BRANCH  11  14
HETATM   14  C   UNL     1     -11.202  11.580  68.531  1.00  0.00    -0.258 C  
BRANCH  14  15
HETATM   15  C   UNL     1     -11.885  12.067  69.823  1.00  0.00    -0.401 A  
HETATM   16  C   UNL     1     -12.011  13.447  70.073  1.00  0.00    -0.407 A  
HETATM   17  C   UNL     1     -12.481  11.176  70.734  1.00  0.00    -0.479 A  
HETATM   18  C   UNL     1     -12.731  13.914  71.177  1.00  0.00    -0.441 A  
HETATM   19  C   UNL     1     -13.316  13.013  72.062  1.00  0.00    -0.588 A  
HETATM   20  C   UNL     1     -13.182  11.645  71.848  1.00  0.00    -0.475 A  
ENDBRANCH  14  15
BRANCH  14  21
HETATM   21  C   UNL     1     -11.217  12.648  67.424  1.00  0.00    -0.337 A  
HETATM   22  C   UNL     1     -11.302  14.718  65.517  1.00  0.00    -0.343 A  
HETATM   23 CL   UNL     1     -11.377  15.998  64.371  1.00  0.00    -0.388 Cl 
HETATM   24  C   UNL     1     -12.156  13.627  65.394  1.00  0.00    -0.429 A  
HETATM   25  C   UNL     1     -10.351  13.755  67.516  1.00  0.00    -0.241 A  
HETATM   26  C   UNL     1     -12.120  12.603  66.347  1.00  0.00    -0.330 A  
HETATM   27  C   UNL     1     -10.398  14.787  66.574  1.00  0.00    -0.287 A  
ENDBRANCH  14  21
ENDBRANCH  11  14
ENDBRANCH   7   8
ENDBRANCH   6   7
ENDBRANCH   5   6
ENDBRANCH   3   5
TORSDOF 7
ENDMDL
MODEL       62
REMARK 921   NORMALIZED FREE ENERGY PREDICTED BY IDOCK:   -4.82 KCAL/MOL
REMARK 922        TOTAL FREE ENERGY PREDICTED BY IDOCK:   -7.48 KCAL/MOL
REMARK 923 INTER-LIGAND FREE ENERGY PREDICTED BY IDOCK:   -6.62 KCAL/MOL
REMARK 924 INTRA-LIGAND FREE ENERGY PREDICTED BY IDOCK:   -0.86 KCAL/MOL
REMARK 927      BINDING AFFINITY PREDICTED BY RF-SCORE:    0.00 PKD
ROOT
HETATM    1  O   UNL     1      -7.113   8.765  65.760  1.00  0.00    -0.078 OA 
HETATM    2  C   UNL     1      -7.988   7.837  66.220  1.00  0.00    -0.100 C  
HETATM    3  C   UNL     1      -8.123   7.866  67.735  1.00  0.00    -0.128 C  
HETATM    4  O   UNL     1      -8.595   7.065  65.492  1.00  0.00    -0.146 OA 
ENDROOT
BRANCH   3   5
HETATM    5  O   UNL     1      -7.208   8.813  68.306  1.00  0.00    -0.079 OA 
BRANCH   5   6
HETATM    6  C   UNL     1      -7.853   9.697  69.244  1.00  0.00    -0.098 C  
BRANCH   6   7
HETATM    7  C   UNL     1      -7.187  11.090  69.304  1.00  0.00    -0.124 C  
BRANCH   7   8
HETATM    8  N   UNL     1      -7.202  11.852  68.040  1.00  0.00    -0.083 NA 
HETATM    9  C   UNL     1      -8.410  11.591  67.225  1.00  0.00    -0.154 C  
HETATM   10  C   UNL     1      -9.709  12.252  67.755  1.00  0.00    -0.199 C  
HETATM   11  N   UNL     1      -9.622  13.722  67.947  1.00  0.00    -0.215 NA 
HETATM   12  C   UNL     1      -8.431  13.975  68.794  1.00  0.00    -0.038 C  
HETATM   13  C   UNL     1      -7.116  13.309  68.310  1.00  0.00    -0.109 C  
BRANCH  11  14
HETATM   14  C   UNL     1      -9.588  14.451  66.639  1.00  0.00    -0.281 C  
BRANCH  14  15
HETATM   15  C   UNL     1     -10.612  13.882  65.638  1.00  0.00    -0.306 A  
HETATM   16  C   UNL     1     -10.167  13.235  64.471  1.00  0.00    -0.332 A  
HETATM   17  C   UNL     1     -11.995  13.902  65.895  1.00  0.00    -0.429 A  
HETATM   18  C   UNL     1     -11.071  12.606  63.609  1.00  0.00    -0.496 A  
HETATM   19  C   UNL     1     -12.436  12.634  63.885  1.00  0.00    -0.498 A  
HETATM   20  C   UNL     1     -12.898  13.292  65.021  1.00  0.00    -0.356 A  
ENDBRANCH  14  15
BRANCH  14  21
HETATM   21  C   UNL     1      -9.702  15.978  66.787  1.00  0.00    -0.253 A  
HETATM   22  C   UNL     1      -9.755  18.773  67.131  1.00  0.00    -0.301 A  
HETATM   23 CL   UNL     1      -9.765  20.476  67.368  1.00  0.00    -0.595 Cl 
HETATM   24  C   UNL     1     -10.657  17.971  67.823  1.00  0.00    -0.409 A  
HETATM   25  C   UNL     1      -8.811  16.812  66.084  1.00  0.00    -0.298 A  
HETATM   26  C   UNL     1     -10.625  16.583  67.659  1.00  0.00    -0.321 A  
HETATM   27  C   UNL     1      -8.832  18.199  66.261  1.00  0.00    -0.196 A  
ENDBRANCH  14  21
ENDBRANCH  11  14
ENDBRANCH   7   8
ENDBRANCH   6   7
ENDBRANCH   5   6
ENDBRANCH   3   5
TORSDOF 7
ENDMDL
MODEL       63
REMARK 921   NORMALIZED FREE ENERGY PREDICTED BY IDOCK:   -4.82 KCAL/MOL
REMARK 922        TOTAL FREE ENERGY PREDICTED BY IDOCK:   -7.48 KCAL/MOL
REMARK 923 INTER-LIGAND FREE ENERGY PREDICTED BY IDOCK:   -6.45 KCAL/MOL
REMARK 924 INTRA-LIGAND FREE ENERGY PREDICTED BY IDOCK:   -1.03 KCAL/MOL
REMARK 927      BINDING AFFINITY PREDICTED BY RF-SCORE:    0.00 PKD
ROOT
HETATM    1  O   UNL     1      -8.146   6.093  66.635  1.00  0.00    -0.107 OA 
HETATM    2  C   UNL     1      -9.218   5.433  66.131  1.00  0.00    -0.156 C  
HETATM    3  C   UNL     1     -10.315   5.230  67.165  1.00  0.00    -0.216 C  
HETATM    4  O   UNL     1      -9.286   5.047  64.973  1.00  0.00    -0.146 OA 
ENDROOT
BRANCH   3   5
HETATM    5  O   UNL     1      -9.892   5.707  68.451  1.00  0.00    -0.125 OA 
BRANCH   5   6
HETATM    6  C   UNL     1     -10.923   6.461  69.118  1.00  0.00    -0.355 C  
BRANCH   6   7
HETATM    7  C   UNL     1     -10.454   7.875  69.532  1.00  0.00    -0.226 C  
BRANCH   7   8
HETATM    8  N   UNL     1      -9.681   8.607  68.511  1.00  0.00    -0.159 NA 
HETATM    9  C   UNL     1     -10.524   9.119  67.407  1.00  0.00    -0.271 C  
HETATM   10  C   UNL     1     -11.396  10.349  67.770  1.00  0.00    -0.128 C  
HETATM   11  N   UNL     1     -10.641  11.506  68.315  1.00  0.00    -0.191 NA 
HETATM   12  C   UNL     1      -9.825  10.994  69.443  1.00  0.00     0.051 C  
HETATM   13  C   UNL     1      -8.957   9.748  69.125  1.00  0.00    -0.161 C  
BRANCH  11  14
HETATM   14  C   UNL     1      -9.830  12.186  67.256  1.00  0.00    -0.196 C  
BRANCH  14  15
HETATM   15  C   UNL     1     -10.573  12.234  65.907  1.00  0.00    -0.290 A  
HETATM   16  C   UNL     1     -11.775  12.956  65.793  1.00  0.00    -0.437 A  
HETATM   17  C   UNL     1     -10.040  11.654  64.741  1.00  0.00    -0.304 A  
HETATM   18  C   UNL     1     -12.403  13.114  64.553  1.00  0.00    -0.447 A  
HETATM   19  C   UNL     1     -11.856  12.534  63.412  1.00  0.00    -0.587 A  
HETATM   20  C   UNL     1     -10.681  11.795  63.508  1.00  0.00    -0.501 A  
ENDBRANCH  14  15
BRANCH  14  21
HETATM   21  C   UNL     1      -9.304  13.568  67.681  1.00  0.00    -0.216 A  
HETATM   22  C   UNL     1      -8.466  16.169  68.361  1.00  0.00    -0.184 A  
HETATM   23 CL   UNL     1      -7.967  17.769  68.747  1.00  0.00    -0.271 Cl 
HETATM   24  C   UNL     1      -7.626  15.340  67.623  1.00  0.00    -0.193 A  
HETATM   25  C   UNL     1     -10.128  14.420  68.442  1.00  0.00    -0.244 A  
HETATM   26  C   UNL     1      -8.047  14.052  67.278  1.00  0.00    -0.174 A  
HETATM   27  C   UNL     1      -9.716  15.714  68.773  1.00  0.00    -0.212 A  
ENDBRANCH  14  21
ENDBRANCH  11  14
ENDBRANCH   7   8
ENDBRANCH   6   7
ENDBRANCH   5   6
ENDBRANCH   3   5
TORSDOF 7
ENDMDL
MODEL       64
REMARK 921   NORMALIZED FREE ENERGY PREDICTED BY IDOCK:   -4.81 KCAL/MOL
REMARK 922        TOTAL FREE ENERGY PREDICTED BY IDOCK:   -7.46 KCAL/MOL
REMARK 923 INTER-LIGAND FREE ENERGY PREDICTED BY IDOCK:   -6.57 KCAL/MOL
REMARK 924 INTRA-LIGAND FREE ENERGY PREDICTED BY IDOCK:   -0.89 KCAL/MOL
REMARK 927      BINDING AFFINITY PREDICTED BY RF-SCORE:    0.00 PKD
ROOT
HETATM    1  O   UNL     1     -10.419   5.507  74.282  1.00  0.00    -0.276 OA 
HETATM    2  C   UNL     1     -11.281   5.110  73.314  1.00  0.00    -0.321 C  
HETATM    3  C   UNL     1     -11.394   6.123  72.184  1.00  0.00    -0.299 C  
HETATM    4  O   UNL     1     -11.897   4.055  73.354  1.00  0.00    -0.096 OA 
ENDROOT
BRANCH   3   5
HETATM    5  O   UNL     1     -10.624   7.297  72.480  1.00  0.00    -0.218 OA 
BRANCH   5   6
HETATM    6  C   UNL     1     -11.414   8.500  72.405  1.00  0.00    -0.349 C  
BRANCH   6   7
HETATM    7  C   UNL     1     -11.592   9.005  70.955  1.00  0.00    -0.290 C  
BRANCH   7   8
HETATM    8  N   UNL     1     -10.477   9.814  70.426  1.00  0.00    -0.281 NA 
HETATM    9  C   UNL     1      -9.670   9.093  69.416  1.00  0.00    -0.170 C  
HETATM   10  C   UNL     1     -10.348   8.942  68.029  1.00  0.00    -0.219 C  
HETATM   11  N   UNL     1     -10.783  10.219  67.409  1.00  0.00    -0.275 NA 
HETATM   12  C   UNL     1     -11.620  10.921  68.413  1.00  0.00    -0.276 C  
HETATM   13  C   UNL     1     -10.985  11.070  69.821  1.00  0.00    -0.193 C  
BRANCH  11  14
HETATM   14  C   UNL     1      -9.617  11.030  66.935  1.00  0.00    -0.182 C  
BRANCH  14  15
HETATM   15  C   UNL     1      -8.616  10.180  66.130  1.00  0.00    -0.147 A  
HETATM   16  C   UNL     1      -9.006   9.612  64.902  1.00  0.00    -0.260 A  
HETATM   17  C   UNL     1      -7.278  10.022  66.532  1.00  0.00    -0.101 A  
HETATM   18  C   UNL     1      -8.082   8.939  64.097  1.00  0.00    -0.160 A  
HETATM   19  C   UNL     1      -6.761   8.799  64.513  1.00  0.00    -0.070 A  
HETATM   20  C   UNL     1      -6.362   9.330  65.736  1.00  0.00    -0.067 A  
ENDBRANCH  14  15
BRANCH  14  21
HETATM   21  C   UNL     1     -10.026  12.312  66.189  1.00  0.00    -0.260 A  
HETATM   22  C   UNL     1     -10.833  14.721  64.975  1.00  0.00    -0.425 A  
HETATM   23 CL   UNL     1     -11.348  16.197  64.259  1.00  0.00    -0.306 Cl 
HETATM   24  C   UNL     1     -11.465  13.529  64.637  1.00  0.00    -0.381 A  
HETATM   25  C   UNL     1      -9.390  13.529  66.500  1.00  0.00    -0.227 A  
HETATM   26  C   UNL     1     -11.070  12.334  65.247  1.00  0.00    -0.359 A  
HETATM   27  C   UNL     1      -9.796  14.727  65.904  1.00  0.00    -0.363 A  
ENDBRANCH  14  21
ENDBRANCH  11  14
ENDBRANCH   7   8
ENDBRANCH   6   7
ENDBRANCH   5   6
ENDBRANCH   3   5
TORSDOF 7
ENDMDL
MODEL       65
REMARK 921   NORMALIZED FREE ENERGY PREDICTED BY IDOCK:   -4.80 KCAL/MOL
REMARK 922        TOTAL FREE ENERGY PREDICTED BY IDOCK:   -7.45 KCAL/MOL
REMARK 923 INTER-LIGAND FREE ENERGY PREDICTED BY IDOCK:   -6.64 KCAL/MOL
REMARK 924 INTRA-LIGAND FREE ENERGY PREDICTED BY IDOCK:   -0.81 KCAL/MOL
REMARK 927      BINDING AFFINITY PREDICTED BY RF-SCORE:    0.00 PKD
ROOT
HETATM    1  O   UNL     1     -13.240  12.352  64.493  1.00  0.00    -0.834 OA 
HETATM    2  C   UNL     1     -12.502  13.476  64.666  1.00  0.00    -0.323 C  
HETATM    3  C   UNL     1     -11.743  13.477  65.984  1.00  0.00    -0.359 C  
HETATM    4  O   UNL     1     -12.458  14.384  63.848  1.00  0.00    -0.798 OA 
ENDROOT
BRANCH   3   5
HETATM    5  O   UNL     1     -12.081  12.319  66.762  1.00  0.00    -0.593 OA 
BRANCH   5   6
HETATM    6  C   UNL     1     -11.581  12.404  68.111  1.00  0.00    -0.341 C  
BRANCH   6   7
HETATM    7  C   UNL     1     -11.525  11.029  68.813  1.00  0.00    -0.305 C  
BRANCH   7   8
HETATM    8  N   UNL     1     -10.194  10.391  68.847  1.00  0.00    -0.193 NA 
HETATM    9  C   UNL     1     -10.050   9.417  69.952  1.00  0.00    -0.218 C  
HETATM   10  C   UNL     1     -10.796   8.074  69.737  1.00  0.00    -0.194 C  
HETATM   11  N   UNL     1     -10.447   7.364  68.481  1.00  0.00    -0.197 NA 
HETATM   12  C   UNL     1     -10.627   8.335  67.374  1.00  0.00    -0.253 C  
HETATM   13  C   UNL     1      -9.915   9.701  67.563  1.00  0.00    -0.183 C  
BRANCH  11  14
HETATM   14  C   UNL     1      -9.069   6.779  68.540  1.00  0.00    -0.129 C  
BRANCH  14  15
HETATM   15  C   UNL     1      -8.822   6.027  69.861  1.00  0.00    -0.138 A  
HETATM   16  C   UNL     1      -7.772   6.424  70.709  1.00  0.00    -0.102 A  
HETATM   17  C   UNL     1      -9.676   5.001  70.306  1.00  0.00    -0.285 A  
HETATM   18  C   UNL     1      -7.603   5.836  71.967  1.00  0.00    -0.101 A  
HETATM   19  C   UNL     1      -8.463   4.826  72.388  1.00  0.00    -0.116 A  
HETATM   20  C   UNL     1      -9.492   4.400  71.554  1.00  0.00    -0.215 A  
ENDBRANCH  14  15
BRANCH  14  21
HETATM   21  C   UNL     1      -8.713   5.929  67.309  1.00  0.00    -0.108 A  
HETATM   22  C   UNL     1      -8.066   4.231  65.156  1.00  0.00    -0.101 A  
HETATM   23 CL   UNL     1      -7.658   3.172  63.865  1.00  0.00    -0.067 Cl 
HETATM   24  C   UNL     1      -7.137   5.163  65.608  1.00  0.00    -0.067 A  
HETATM   25  C   UNL     1      -9.642   4.989  66.821  1.00  0.00    -0.164 A  
HETATM   26  C   UNL     1      -7.456   6.000  66.683  1.00  0.00    -0.090 A  
HETATM   27  C   UNL     1      -9.318   4.141  65.758  1.00  0.00    -0.162 A  
ENDBRANCH  14  21
ENDBRANCH  11  14
ENDBRANCH   7   8
ENDBRANCH   6   7
ENDBRANCH   5   6
ENDBRANCH   3   5
TORSDOF 7
ENDMDL
MODEL       66
REMARK 921   NORMALIZED FREE ENERGY PREDICTED BY IDOCK:   -4.78 KCAL/MOL
REMARK 922        TOTAL FREE ENERGY PREDICTED BY IDOCK:   -7.43 KCAL/MOL
REMARK 923 INTER-LIGAND FREE ENERGY PREDICTED BY IDOCK:   -7.13 KCAL/MOL
REMARK 924 INTRA-LIGAND FREE ENERGY PREDICTED BY IDOCK:   -0.30 KCAL/MOL
REMARK 927      BINDING AFFINITY PREDICTED BY RF-SCORE:    0.00 PKD
ROOT
HETATM    1  O   UNL     1      -7.787  10.665  65.202  1.00  0.00    -0.119 OA 
HETATM    2  C   UNL     1      -8.735  10.533  64.241  1.00  0.00    -0.176 C  
HETATM    3  C   UNL     1      -8.741   9.145  63.618  1.00  0.00    -0.125 C  
HETATM    4  O   UNL     1      -9.494  11.434  63.917  1.00  0.00    -0.211 OA 
ENDROOT
BRANCH   3   5
HETATM    5  O   UNL     1      -7.667   8.351  64.143  1.00  0.00    -0.121 OA 
BRANCH   5   6
HETATM    6  C   UNL     1      -8.145   7.211  64.885  1.00  0.00    -0.107 C  
BRANCH   6   7
HETATM    7  C   UNL     1      -8.120   7.442  66.413  1.00  0.00    -0.118 C  
BRANCH   7   8
HETATM    8  N   UNL     1      -9.404   7.222  67.106  1.00  0.00    -0.136 NA 
HETATM    9  C   UNL     1      -9.235   6.848  68.528  1.00  0.00    -0.129 C  
HETATM   10  C   UNL     1      -8.817   8.013  69.463  1.00  0.00    -0.144 C  
HETATM   11  N   UNL     1      -9.720   9.191  69.427  1.00  0.00    -0.166 NA 
HETATM   12  C   UNL     1      -9.858   9.584  68.002  1.00  0.00    -0.155 C  
HETATM   13  C   UNL     1     -10.251   8.439  67.031  1.00  0.00    -0.307 C  
BRANCH  11  14
HETATM   14  C   UNL     1     -11.030   8.906  70.094  1.00  0.00    -0.227 C  
BRANCH  14  15
HETATM   15  C   UNL     1     -10.879   7.894  71.245  1.00  0.00    -0.263 A  
HETATM   16  C   UNL     1     -10.172   8.254  72.408  1.00  0.00    -0.397 A  
HETATM   17  C   UNL     1     -11.509   6.636  71.220  1.00  0.00    -0.360 A  
HETATM   18  C   UNL     1     -10.125   7.398  73.513  1.00  0.00    -0.390 A  
HETATM   19  C   UNL     1     -10.759   6.160  73.467  1.00  0.00    -0.263 A  
HETATM   20  C   UNL     1     -11.441   5.774  72.317  1.00  0.00    -0.320 A  
ENDBRANCH  14  15
BRANCH  14  21
HETATM   21  C   UNL     1     -11.784  10.175  70.528  1.00  0.00    -0.407 A  
HETATM   22  C   UNL     1     -13.011  12.567  71.368  1.00  0.00    -0.251 A  
HETATM   23 CL   UNL     1     -13.734  14.032  71.903  1.00  0.00    -0.496 Cl 
HETATM   24  C   UNL     1     -13.272  11.379  72.044  1.00  0.00    -0.432 A  
HETATM   25  C   UNL     1     -11.550  11.387  69.850  1.00  0.00    -0.402 A  
HETATM   26  C   UNL     1     -12.655  10.193  71.631  1.00  0.00    -0.533 A  
HETATM   27  C   UNL     1     -12.153  12.577  70.272  1.00  0.00    -0.373 A  
ENDBRANCH  14  21
ENDBRANCH  11  14
ENDBRANCH   7   8
ENDBRANCH   6   7
ENDBRANCH   5   6
ENDBRANCH   3   5
TORSDOF 7
ENDMDL
MODEL       67
REMARK 921   NORMALIZED FREE ENERGY PREDICTED BY IDOCK:   -4.78 KCAL/MOL
REMARK 922        TOTAL FREE ENERGY PREDICTED BY IDOCK:   -7.42 KCAL/MOL
REMARK 923 INTER-LIGAND FREE ENERGY PREDICTED BY IDOCK:   -6.93 KCAL/MOL
REMARK 924 INTRA-LIGAND FREE ENERGY PREDICTED BY IDOCK:   -0.50 KCAL/MOL
REMARK 927      BINDING AFFINITY PREDICTED BY RF-SCORE:    0.00 PKD
ROOT
HETATM    1  O   UNL     1     -11.015  18.724  67.398  1.00  0.00    -0.422 OA 
HETATM    2  C   UNL     1      -9.844  18.944  66.750  1.00  0.00    -0.348 C  
HETATM    3  C   UNL     1      -9.370  17.723  65.976  1.00  0.00    -0.036 C  
HETATM    4  O   UNL     1      -9.242  20.007  66.792  1.00  0.00    -0.347 OA 
ENDROOT
BRANCH   3   5
HETATM    5  O   UNL     1     -10.242  16.608  66.208  1.00  0.00    -0.308 OA 
BRANCH   5   6
HETATM    6  C   UNL     1     -10.740  16.040  64.981  1.00  0.00    -0.378 C  
BRANCH   6   7
HETATM    7  C   UNL     1     -11.876  15.018  65.215  1.00  0.00    -0.148 C  
BRANCH   7   8
HETATM    8  N   UNL     1     -11.631  13.668  64.672  1.00  0.00    -0.356 NA 
HETATM    9  C   UNL     1     -10.199  13.292  64.685  1.00  0.00    -0.313 C  
HETATM   10  C   UNL     1      -9.632  12.939  66.085  1.00  0.00    -0.210 C  
HETATM   11  N   UNL     1     -10.370  11.869  66.801  1.00  0.00    -0.206 NA 
HETATM   12  C   UNL     1     -11.799  12.268  66.816  1.00  0.00    -0.277 C  
HETATM   13  C   UNL     1     -12.397  12.652  65.437  1.00  0.00    -0.436 C  
BRANCH  11  14
HETATM   14  C   UNL     1     -10.135  10.525  66.185  1.00  0.00    -0.246 C  
BRANCH  14  15
HETATM   15  C   UNL     1      -8.759  10.442  65.498  1.00  0.00    -0.190 A  
HETATM   16  C   UNL     1      -7.586  10.652  66.248  1.00  0.00    -0.137 A  
HETATM   17  C   UNL     1      -8.620  10.066  64.149  1.00  0.00    -0.195 A  
HETATM   18  C   UNL     1      -6.324  10.464  65.674  1.00  0.00    -0.126 A  
HETATM   19  C   UNL     1      -6.211  10.088  64.339  1.00  0.00    -0.131 A  
HETATM   20  C   UNL     1      -7.357   9.901  63.573  1.00  0.00    -0.132 A  
ENDBRANCH  14  15
BRANCH  14  21
HETATM   21  C   UNL     1     -10.373   9.356  67.156  1.00  0.00    -0.326 A  
HETATM   22  C   UNL     1     -10.647   7.241  68.996  1.00  0.00    -0.201 A  
HETATM   23 CL   UNL     1     -10.780   5.945  70.118  1.00  0.00    -0.360 Cl 
HETATM   24  C   UNL     1     -10.655   6.978  67.629  1.00  0.00    -0.327 A  
HETATM   25  C   UNL     1     -10.386   9.598  68.544  1.00  0.00    -0.231 A  
HETATM   26  C   UNL     1     -10.510   8.027  66.717  1.00  0.00    -0.319 A  
HETATM   27  C   UNL     1     -10.514   8.547  69.458  1.00  0.00    -0.222 A  
ENDBRANCH  14  21
ENDBRANCH  11  14
ENDBRANCH   7   8
ENDBRANCH   6   7
ENDBRANCH   5   6
ENDBRANCH   3   5
TORSDOF 7
ENDMDL
MODEL       68
REMARK 921   NORMALIZED FREE ENERGY PREDICTED BY IDOCK:   -4.77 KCAL/MOL
REMARK 922        TOTAL FREE ENERGY PREDICTED BY IDOCK:   -7.40 KCAL/MOL
REMARK 923 INTER-LIGAND FREE ENERGY PREDICTED BY IDOCK:   -7.11 KCAL/MOL
REMARK 924 INTRA-LIGAND FREE ENERGY PREDICTED BY IDOCK:   -0.29 KCAL/MOL
REMARK 927      BINDING AFFINITY PREDICTED BY RF-SCORE:    0.00 PKD
ROOT
HETATM    1  O   UNL     1      -8.516   4.939  64.705  1.00  0.00    -0.132 OA 
HETATM    2  C   UNL     1      -8.169   5.830  63.744  1.00  0.00    -0.074 C  
HETATM    3  C   UNL     1      -8.149   7.261  64.257  1.00  0.00    -0.049 C  
HETATM    4  O   UNL     1      -7.905   5.509  62.594  1.00  0.00    -0.074 OA 
ENDROOT
BRANCH   3   5
HETATM    5  O   UNL     1      -8.601   7.316  65.618  1.00  0.00    -0.148 OA 
BRANCH   5   6
HETATM    6  C   UNL     1      -7.806   8.212  66.421  1.00  0.00    -0.093 C  
BRANCH   6   7
HETATM    7  C   UNL     1      -8.620   8.875  67.555  1.00  0.00    -0.120 C  
BRANCH   7   8
HETATM    8  N   UNL     1      -8.458  10.337  67.676  1.00  0.00    -0.118 NA 
HETATM    9  C   UNL     1      -9.188  11.086  66.629  1.00  0.00    -0.167 C  
HETATM   10  C   UNL     1     -10.726  11.142  66.820  1.00  0.00    -0.276 C  
HETATM   11  N   UNL     1     -11.169  11.681  68.131  1.00  0.00    -0.240 NA 
HETATM   12  C   UNL     1     -10.461  10.903  69.177  1.00  0.00    -0.221 C  
HETATM   13  C   UNL     1      -8.922  10.804  69.006  1.00  0.00    -0.132 C  
BRANCH  11  14
HETATM   14  C   UNL     1     -10.937  13.158  68.229  1.00  0.00    -0.253 C  
BRANCH  14  15
HETATM   15  C   UNL     1     -11.220  13.873  66.894  1.00  0.00    -0.324 A  
HETATM   16  C   UNL     1     -10.195  14.591  66.251  1.00  0.00    -0.306 A  
HETATM   17  C   UNL     1     -12.456  13.756  66.233  1.00  0.00    -0.441 A  
HETATM   18  C   UNL     1     -10.393  15.146  64.983  1.00  0.00    -0.377 A  
HETATM   19  C   UNL     1     -11.623  15.015  64.346  1.00  0.00    -0.281 A  
HETATM   20  C   UNL     1     -12.659  14.330  64.975  1.00  0.00    -0.360 A  
ENDBRANCH  14  15
BRANCH  14  21
HETATM   21  C   UNL     1     -11.672  13.815  69.410  1.00  0.00    -0.379 A  
HETATM   22  C   UNL     1     -12.864  15.079  71.626  1.00  0.00    -0.345 A  
HETATM   23 CL   UNL     1     -13.562  15.849  72.996  1.00  0.00    -0.665 Cl 
HETATM   24  C   UNL     1     -12.872  13.691  71.532  1.00  0.00    -0.445 A  
HETATM   25  C   UNL     1     -11.693  15.219  69.519  1.00  0.00    -0.359 A  
HETATM   26  C   UNL     1     -12.272  13.063  70.435  1.00  0.00    -0.386 A  
HETATM   27  C   UNL     1     -12.278  15.847  70.624  1.00  0.00    -0.345 A  
ENDBRANCH  14  21
ENDBRANCH  11  14
ENDBRANCH   7   8
ENDBRANCH   6   7
ENDBRANCH   5   6
ENDBRANCH   3   5
TORSDOF 7
ENDMDL
MODEL       69
REMARK 921   NORMALIZED FREE ENERGY PREDICTED BY IDOCK:   -4.76 KCAL/MOL
REMARK 922        TOTAL FREE ENERGY PREDICTED BY IDOCK:   -7.40 KCAL/MOL
REMARK 923 INTER-LIGAND FREE ENERGY PREDICTED BY IDOCK:   -6.56 KCAL/MOL
REMARK 924 INTRA-LIGAND FREE ENERGY PREDICTED BY IDOCK:   -0.83 KCAL/MOL
REMARK 927      BINDING AFFINITY PREDICTED BY RF-SCORE:    0.00 PKD
ROOT
HETATM    1  O   UNL     1     -10.628  12.552  63.827  1.00  0.00    -0.414 OA 
HETATM    2  C   UNL     1     -11.376  12.548  64.958  1.00  0.00    -0.313 C  
HETATM    3  C   UNL     1     -11.015  11.400  65.889  1.00  0.00    -0.207 C  
HETATM    4  O   UNL     1     -12.242  13.377  65.194  1.00  0.00    -0.385 OA 
ENDROOT
BRANCH   3   5
HETATM    5  O   UNL     1     -10.031  10.549  65.284  1.00  0.00    -0.259 OA 
BRANCH   5   6
HETATM    6  C   UNL     1      -8.763  10.610  65.966  1.00  0.00    -0.177 C  
BRANCH   6   7
HETATM    7  C   UNL     1      -8.462   9.332  66.781  1.00  0.00    -0.127 C  
BRANCH   7   8
HETATM    8  N   UNL     1      -8.571   9.477  68.245  1.00  0.00    -0.120 NA 
HETATM    9  C   UNL     1      -9.964   9.674  68.703  1.00  0.00    -0.165 C  
HETATM   10  C   UNL     1     -10.848   8.400  68.664  1.00  0.00     0.073 C  
HETATM   11  N   UNL     1     -10.301   7.243  69.417  1.00  0.00    -0.202 NA 
HETATM   12  C   UNL     1      -8.916   7.028  68.930  1.00  0.00    -0.129 C  
HETATM   13  C   UNL     1      -8.008   8.286  68.930  1.00  0.00    -0.113 C  
BRANCH  11  14
HETATM   14  C   UNL     1     -10.384   7.456  70.897  1.00  0.00    -0.200 C  
BRANCH  14  15
HETATM   15  C   UNL     1     -11.768   7.980  71.325  1.00  0.00    -0.311 A  
HETATM   16  C   UNL     1     -12.880   7.118  71.313  1.00  0.00    -0.399 A  
HETATM   17  C   UNL     1     -11.950   9.283  71.825  1.00  0.00    -0.455 A  
HETATM   18  C   UNL     1     -14.118   7.536  71.810  1.00  0.00    -0.509 A  
HETATM   19  C   UNL     1     -14.274   8.828  72.304  1.00  0.00    -0.498 A  
HETATM   20  C   UNL     1     -13.194   9.705  72.301  1.00  0.00    -0.492 A  
ENDBRANCH  14  15
BRANCH  14  21
HETATM   21  C   UNL     1      -9.946   6.230  71.717  1.00  0.00    -0.193 A  
HETATM   22  C   UNL     1      -9.310   3.934  73.220  1.00  0.00    -0.108 A  
HETATM   23 CL   UNL     1      -8.954   2.532  74.149  1.00  0.00    -0.077 Cl 
HETATM   24  C   UNL     1      -9.150   5.197  73.781  1.00  0.00    -0.122 A  
HETATM   25  C   UNL     1     -10.082   4.941  71.165  1.00  0.00    -0.277 A  
HETATM   26  C   UNL     1      -9.474   6.337  73.038  1.00  0.00    -0.145 A  
HETATM   27  C   UNL     1      -9.774   3.801  71.914  1.00  0.00    -0.237 A  
ENDBRANCH  14  21
ENDBRANCH  11  14
ENDBRANCH   7   8
ENDBRANCH   6   7
ENDBRANCH   5   6
ENDBRANCH   3   5
TORSDOF 7
ENDMDL
MODEL       70
REMARK 921   NORMALIZED FREE ENERGY PREDICTED BY IDOCK:   -4.75 KCAL/MOL
REMARK 922        TOTAL FREE ENERGY PREDICTED BY IDOCK:   -7.37 KCAL/MOL
REMARK 923 INTER-LIGAND FREE ENERGY PREDICTED BY IDOCK:   -6.67 KCAL/MOL
REMARK 924 INTRA-LIGAND FREE ENERGY PREDICTED BY IDOCK:   -0.70 KCAL/MOL
REMARK 927      BINDING AFFINITY PREDICTED BY RF-SCORE:    0.00 PKD
ROOT
HETATM    1  O   UNL     1      -9.404   9.719  65.949  1.00  0.00    -0.173 OA 
HETATM    2  C   UNL     1      -8.622  10.262  64.983  1.00  0.00    -0.180 C  
HETATM    3  C   UNL     1      -7.178  10.432  65.432  1.00  0.00    -0.121 C  
HETATM    4  O   UNL     1      -9.039  10.577  63.878  1.00  0.00    -0.198 OA 
ENDROOT
BRANCH   3   5
HETATM    5  O   UNL     1      -7.031  10.061  66.811  1.00  0.00    -0.086 OA 
BRANCH   5   6
HETATM    6  C   UNL     1      -6.097  10.910  67.507  1.00  0.00    -0.049 C  
BRANCH   6   7
HETATM    7  C   UNL     1      -6.221  12.395  67.096  1.00  0.00    -0.082 C  
BRANCH   7   8
HETATM    8  N   UNL     1      -6.552  13.327  68.191  1.00  0.00    -0.099 NA 
HETATM    9  C   UNL     1      -6.628  14.736  67.744  1.00  0.00    -0.170 C  
HETATM   10  C   UNL     1      -7.896  15.093  66.925  1.00  0.00    -0.075 C  
HETATM   11  N   UNL     1      -9.179  14.780  67.603  1.00  0.00    -0.188 NA 
HETATM   12  C   UNL     1      -9.112  13.357  68.017  1.00  0.00    -0.205 C  
HETATM   13  C   UNL     1      -7.845  12.956  68.817  1.00  0.00     0.040 C  
BRANCH  11  14
HETATM   14  C   UNL     1      -9.448  15.718  68.739  1.00  0.00    -0.219 C  
BRANCH  14  15
HETATM   15  C   UNL     1      -9.486  17.186  68.275  1.00  0.00    -0.276 A  
HETATM   16  C   UNL     1     -10.568  17.652  67.505  1.00  0.00    -0.345 A  
HETATM   17  C   UNL     1      -8.512  18.120  68.675  1.00  0.00    -0.285 A  
HETATM   18  C   UNL     1     -10.684  19.006  67.174  1.00  0.00    -0.541 A  
HETATM   19  C   UNL     1      -9.711  19.913  67.585  1.00  0.00    -0.511 A  
HETATM   20  C   UNL     1      -8.619  19.468  68.325  1.00  0.00    -0.380 A  
ENDBRANCH  14  15
BRANCH  14  21
HETATM   21  C   UNL     1     -10.688  15.336  69.566  1.00  0.00    -0.270 A  
HETATM   22  C   UNL     1     -12.850  14.585  71.208  1.00  0.00    -0.332 A  
HETATM   23 CL   UNL     1     -14.149  14.103  72.225  1.00  0.00    -0.619 Cl 
HETATM   24  C   UNL     1     -12.620  13.912  70.012  1.00  0.00    -0.226 A  
HETATM   25  C   UNL     1     -10.953  16.013  70.773  1.00  0.00    -0.232 A  
HETATM   26  C   UNL     1     -11.541  14.280  69.201  1.00  0.00    -0.346 A  
HETATM   27  C   UNL     1     -12.021  15.635  71.592  1.00  0.00    -0.503 A  
ENDBRANCH  14  21
ENDBRANCH  11  14
ENDBRANCH   7   8
ENDBRANCH   6   7
ENDBRANCH   5   6
ENDBRANCH   3   5
TORSDOF 7
ENDMDL
MODEL       71
REMARK 921   NORMALIZED FREE ENERGY PREDICTED BY IDOCK:   -4.74 KCAL/MOL
REMARK 922        TOTAL FREE ENERGY PREDICTED BY IDOCK:   -7.36 KCAL/MOL
REMARK 923 INTER-LIGAND FREE ENERGY PREDICTED BY IDOCK:   -6.53 KCAL/MOL
REMARK 924 INTRA-LIGAND FREE ENERGY PREDICTED BY IDOCK:   -0.83 KCAL/MOL
REMARK 927      BINDING AFFINITY PREDICTED BY RF-SCORE:    0.00 PKD
ROOT
HETATM    1  O   UNL     1     -10.327   4.717  66.325  1.00  0.00    -0.268 OA 
HETATM    2  C   UNL     1     -10.309   4.425  65.001  1.00  0.00    -0.142 C  
HETATM    3  C   UNL     1      -8.970   4.744  64.353  1.00  0.00    -0.117 C  
HETATM    4  O   UNL     1     -11.268   3.960  64.402  1.00  0.00    -0.328 OA 
ENDROOT
BRANCH   3   5
HETATM    5  O   UNL     1      -8.089   5.369  65.298  1.00  0.00    -0.110 OA 
BRANCH   5   6
HETATM    6  C   UNL     1      -7.332   6.445  64.708  1.00  0.00    -0.076 C  
BRANCH   6   7
HETATM    7  C   UNL     1      -8.111   7.780  64.689  1.00  0.00    -0.123 C  
BRANCH   7   8
HETATM    8  N   UNL     1      -7.880   8.662  65.849  1.00  0.00    -0.100 NA 
HETATM    9  C   UNL     1      -8.099  10.092  65.539  1.00  0.00    -0.147 C  
HETATM   10  C   UNL     1      -9.587  10.507  65.394  1.00  0.00    -0.237 C  
HETATM   11  N   UNL     1     -10.438  10.180  66.566  1.00  0.00    -0.199 NA 
HETATM   12  C   UNL     1     -10.241   8.737  66.851  1.00  0.00    -0.287 C  
HETATM   13  C   UNL     1      -8.764   8.279  66.978  1.00  0.00    -0.127 C  
BRANCH  11  14
HETATM   14  C   UNL     1     -10.134  11.064  67.736  1.00  0.00    -0.177 C  
BRANCH  14  15
HETATM   15  C   UNL     1     -10.456  12.541  67.438  1.00  0.00    -0.231 A  
HETATM   16  C   UNL     1     -11.561  12.869  66.631  1.00  0.00    -0.428 A  
HETATM   17  C   UNL     1      -9.733  13.595  68.026  1.00  0.00    -0.226 A  
HETATM   18  C   UNL     1     -11.944  14.201  66.446  1.00  0.00    -0.457 A  
HETATM   19  C   UNL     1     -11.217  15.228  67.041  1.00  0.00    -0.275 A  
HETATM   20  C   UNL     1     -10.105  14.926  67.821  1.00  0.00    -0.234 A  
ENDBRANCH  14  15
BRANCH  14  21
HETATM   21  C   UNL     1     -10.772  10.581  69.050  1.00  0.00    -0.259 A  
HETATM   22  C   UNL     1     -11.923   9.535  71.398  1.00  0.00    -0.386 A  
HETATM   23 CL   UNL     1     -12.635   8.868  72.813  1.00  0.00    -0.276 Cl 
HETATM   24  C   UNL     1     -12.691  10.310  70.534  1.00  0.00    -0.325 A  
HETATM   25  C   UNL     1     -10.011   9.809  69.948  1.00  0.00    -0.282 A  
HETATM   26  C   UNL     1     -12.121  10.822  69.364  1.00  0.00    -0.315 A  
HETATM   27  C   UNL     1     -10.584   9.282  71.110  1.00  0.00    -0.402 A  
ENDBRANCH  14  21
ENDBRANCH  11  14
ENDBRANCH   7   8
ENDBRANCH   6   7
ENDBRANCH   5   6
ENDBRANCH   3   5
TORSDOF 7
ENDMDL
MODEL       72
REMARK 921   NORMALIZED FREE ENERGY PREDICTED BY IDOCK:   -4.73 KCAL/MOL
REMARK 922        TOTAL FREE ENERGY PREDICTED BY IDOCK:   -7.34 KCAL/MOL
REMARK 923 INTER-LIGAND FREE ENERGY PREDICTED BY IDOCK:   -6.85 KCAL/MOL
REMARK 924 INTRA-LIGAND FREE ENERGY PREDICTED BY IDOCK:   -0.49 KCAL/MOL
REMARK 927      BINDING AFFINITY PREDICTED BY RF-SCORE:    0.00 PKD
ROOT
HETATM    1  O   UNL     1      -5.635  12.392  68.925  1.00  0.00    -0.061 OA 
HETATM    2  C   UNL     1      -5.307  12.759  67.662  1.00  0.00    -0.112 C  
HETATM    3  C   UNL     1      -5.171  11.566  66.727  1.00  0.00    -0.122 C  
HETATM    4  O   UNL     1      -5.140  13.921  67.321  1.00  0.00    -0.306 OA 
ENDROOT
BRANCH   3   5
HETATM    5  O   UNL     1      -5.331  10.337  67.450  1.00  0.00    -0.041 OA 
BRANCH   5   6
HETATM    6  C   UNL     1      -6.177   9.401  66.754  1.00  0.00    -0.065 C  
BRANCH   6   7
HETATM    7  C   UNL     1      -7.162   8.673  67.696  1.00  0.00    -0.084 C  
BRANCH   7   8
HETATM    8  N   UNL     1      -8.592   8.875  67.393  1.00  0.00    -0.119 NA 
HETATM    9  C   UNL     1      -9.446   8.863  68.602  1.00  0.00    -0.151 C  
HETATM   10  C   UNL     1      -9.350  10.139  69.479  1.00  0.00    -0.210 C  
HETATM   11  N   UNL     1      -9.630  11.408  68.760  1.00  0.00    -0.169 NA 
HETATM   12  C   UNL     1      -8.747  11.431  67.568  1.00  0.00    -0.140 C  
HETATM   13  C   UNL     1      -8.796  10.161  66.679  1.00  0.00    -0.132 C  
BRANCH  11  14
HETATM   14  C   UNL     1     -11.084  11.546  68.426  1.00  0.00    -0.235 C  
BRANCH  14  15
HETATM   15  C   UNL     1     -11.934  11.844  69.675  1.00  0.00    -0.365 A  
HETATM   16  C   UNL     1     -12.473  10.784  70.427  1.00  0.00    -0.430 A  
HETATM   17  C   UNL     1     -12.117  13.153  70.157  1.00  0.00    -0.392 A  
HETATM   18  C   UNL     1     -13.145  11.026  71.630  1.00  0.00    -0.543 A  
HETATM   19  C   UNL     1     -13.311  12.329  72.089  1.00  0.00    -0.473 A  
HETATM   20  C   UNL     1     -12.808  13.393  71.348  1.00  0.00    -0.420 A  
ENDBRANCH  14  15
BRANCH  14  21
HETATM   21  C   UNL     1     -11.357  12.539  67.284  1.00  0.00    -0.373 A  
HETATM   22  C   UNL     1     -11.978  14.432  65.293  1.00  0.00    -0.382 A  
HETATM   23 CL   UNL     1     -12.390  15.591  64.091  1.00  0.00    -0.172 Cl 
HETATM   24  C   UNL     1     -12.234  13.083  65.071  1.00  0.00    -0.501 A  
HETATM   25  C   UNL     1     -11.092  13.909  67.477  1.00  0.00    -0.302 A  
HETATM   26  C   UNL     1     -11.933  12.144  66.063  1.00  0.00    -0.236 A  
HETATM   27  C   UNL     1     -11.408  14.850  66.492  1.00  0.00    -0.319 A  
ENDBRANCH  14  21
ENDBRANCH  11  14
ENDBRANCH   7   8
ENDBRANCH   6   7
ENDBRANCH   5   6
ENDBRANCH   3   5
TORSDOF 7
ENDMDL
MODEL       73
REMARK 921   NORMALIZED FREE ENERGY PREDICTED BY IDOCK:   -4.71 KCAL/MOL
REMARK 922        TOTAL FREE ENERGY PREDICTED BY IDOCK:   -7.33 KCAL/MOL
REMARK 923 INTER-LIGAND FREE ENERGY PREDICTED BY IDOCK:   -6.33 KCAL/MOL
REMARK 924 INTRA-LIGAND FREE ENERGY PREDICTED BY IDOCK:   -1.00 KCAL/MOL
REMARK 927      BINDING AFFINITY PREDICTED BY RF-SCORE:    0.00 PKD
ROOT
HETATM    1  O   UNL     1      -9.022   8.847  72.279  1.00  0.00    -0.388 OA 
HETATM    2  C   UNL     1      -8.347   7.727  72.639  1.00  0.00    -0.132 C  
HETATM    3  C   UNL     1      -6.860   7.981  72.833  1.00  0.00    -0.091 C  
HETATM    4  O   UNL     1      -8.883   6.639  72.787  1.00  0.00    -0.124 OA 
ENDROOT
BRANCH   3   5
HETATM    5  O   UNL     1      -6.529   9.335  72.488  1.00  0.00    -0.307 OA 
BRANCH   5   6
HETATM    6  C   UNL     1      -5.590   9.405  71.397  1.00  0.00    -0.067 C  
BRANCH   6   7
HETATM    7  C   UNL     1      -5.900  10.560  70.418  1.00  0.00    -0.101 C  
BRANCH   7   8
HETATM    8  N   UNL     1      -5.997  10.174  68.997  1.00  0.00    -0.037 NA 
HETATM    9  C   UNL     1      -6.676   8.875  68.798  1.00  0.00    -0.054 C  
HETATM   10  C   UNL     1      -8.215   8.907  68.996  1.00  0.00    -0.116 C  
HETATM   11  N   UNL     1      -8.927   9.905  68.158  1.00  0.00    -0.119 NA 
HETATM   12  C   UNL     1      -8.264  11.212  68.388  1.00  0.00    -0.144 C  
HETATM   13  C   UNL     1      -6.721  11.214  68.223  1.00  0.00    -0.059 C  
BRANCH  11  14
HETATM   14  C   UNL     1      -8.955   9.498  66.717  1.00  0.00    -0.138 C  
BRANCH  14  15
HETATM   15  C   UNL     1      -9.434   8.045  66.540  1.00  0.00    -0.278 A  
HETATM   16  C   UNL     1      -8.596   7.099  65.921  1.00  0.00    -0.157 A  
HETATM   17  C   UNL     1     -10.659   7.595  67.065  1.00  0.00    -0.406 A  
HETATM   18  C   UNL     1      -8.959   5.750  65.857  1.00  0.00    -0.158 A  
HETATM   19  C   UNL     1     -10.174   5.327  66.388  1.00  0.00    -0.289 A  
HETATM   20  C   UNL     1     -11.030   6.250  66.981  1.00  0.00    -0.442 A  
ENDBRANCH  14  15
BRANCH  14  21
HETATM   21  C   UNL     1      -9.727  10.480  65.819  1.00  0.00    -0.277 A  
HETATM   22  C   UNL     1     -11.284  12.186  64.208  1.00  0.00    -0.347 A  
HETATM   23 CL   UNL     1     -12.258  13.202  63.219  1.00  0.00    -0.575 Cl 
HETATM   24  C   UNL     1     -10.287  11.407  63.631  1.00  0.00    -0.463 A  
HETATM   25  C   UNL     1     -10.731  11.292  66.382  1.00  0.00    -0.320 A  
HETATM   26  C   UNL     1      -9.520  10.553  64.430  1.00  0.00    -0.333 A  
HETATM   27  C   UNL     1     -11.510  12.134  65.581  1.00  0.00    -0.408 A  
ENDBRANCH  14  21
ENDBRANCH  11  14
ENDBRANCH   7   8
ENDBRANCH   6   7
ENDBRANCH   5   6
ENDBRANCH   3   5
TORSDOF 7
ENDMDL
MODEL       74
REMARK 921   NORMALIZED FREE ENERGY PREDICTED BY IDOCK:   -4.70 KCAL/MOL
REMARK 922        TOTAL FREE ENERGY PREDICTED BY IDOCK:   -7.31 KCAL/MOL
REMARK 923 INTER-LIGAND FREE ENERGY PREDICTED BY IDOCK:   -7.93 KCAL/MOL
REMARK 924 INTRA-LIGAND FREE ENERGY PREDICTED BY IDOCK:    0.62 KCAL/MOL
REMARK 927      BINDING AFFINITY PREDICTED BY RF-SCORE:    0.00 PKD
ROOT
HETATM    1  O   UNL     1     -13.298  14.045  65.210  1.00  0.00    -0.741 OA 
HETATM    2  C   UNL     1     -12.535  14.460  64.168  1.00  0.00    -0.199 C  
HETATM    3  C   UNL     1     -12.003  13.300  63.340  1.00  0.00    -0.427 C  
HETATM    4  O   UNL     1     -12.304  15.636  63.931  1.00  0.00    -0.673 OA 
ENDROOT
BRANCH   3   5
HETATM    5  O   UNL     1     -12.368  12.046  63.934  1.00  0.00    -0.451 OA 
BRANCH   5   6
HETATM    6  C   UNL     1     -11.218  11.240  64.257  1.00  0.00    -0.141 C  
BRANCH   6   7
HETATM    7  C   UNL     1      -9.952  12.087  64.521  1.00  0.00    -0.213 C  
BRANCH   7   8
HETATM    8  N   UNL     1      -9.419  12.012  65.895  1.00  0.00    -0.225 NA 
HETATM    9  C   UNL     1     -10.095  12.941  66.828  1.00  0.00    -0.238 C  
HETATM   10  C   UNL     1     -11.523  12.510  67.254  1.00  0.00    -0.353 C  
HETATM   11  N   UNL     1     -11.610  11.154  67.850  1.00  0.00    -0.540 NA 
HETATM   12  C   UNL     1     -10.962  10.222  66.895  1.00  0.00    -0.070 C  
HETATM   13  C   UNL     1      -9.540  10.631  66.426  1.00  0.00    -0.190 C  
BRANCH  11  14
HETATM   14  C   UNL     1     -11.010  11.112  69.221  1.00  0.00    -0.247 C  
BRANCH  14  15
HETATM   15  C   UNL     1     -11.908  11.808  70.262  1.00  0.00    -0.382 A  
HETATM   16  C   UNL     1     -12.001  13.212  70.282  1.00  0.00    -0.366 A  
HETATM   17  C   UNL     1     -12.724  11.081  71.147  1.00  0.00    -0.521 A  
HETATM   18  C   UNL     1     -12.900  13.860  71.135  1.00  0.00    -0.423 A  
HETATM   19  C   UNL     1     -13.701  13.120  72.000  1.00  0.00    -0.486 A  
HETATM   20  C   UNL     1     -13.605  11.732  72.015  1.00  0.00    -0.167 A  
ENDBRANCH  14  15
BRANCH  14  21
HETATM   21  C   UNL     1     -10.592   9.699  69.664  1.00  0.00    -0.252 A  
HETATM   22  C   UNL     1      -9.714   7.110  70.340  1.00  0.00    -0.176 A  
HETATM   23 CL   UNL     1      -9.168   5.524  70.721  1.00  0.00    -0.170 Cl 
HETATM   24  C   UNL     1     -11.022   7.308  69.909  1.00  0.00    -0.262 A  
HETATM   25  C   UNL     1      -9.278   9.475  70.119  1.00  0.00    -0.281 A  
HETATM   26  C   UNL     1     -11.454   8.593  69.565  1.00  0.00     0.399 A  
HETATM   27  C   UNL     1      -8.839   8.188  70.447  1.00  0.00    -0.141 A  
ENDBRANCH  14  21
ENDBRANCH  11  14
ENDBRANCH   7   8
ENDBRANCH   6   7
ENDBRANCH   5   6
ENDBRANCH   3   5
TORSDOF 7
ENDMDL
MODEL       75
REMARK 921   NORMALIZED FREE ENERGY PREDICTED BY IDOCK:   -4.69 KCAL/MOL
REMARK 922        TOTAL FREE ENERGY PREDICTED BY IDOCK:   -7.30 KCAL/MOL
REMARK 923 INTER-LIGAND FREE ENERGY PREDICTED BY IDOCK:   -6.67 KCAL/MOL
REMARK 924 INTRA-LIGAND FREE ENERGY PREDICTED BY IDOCK:   -0.63 KCAL/MOL
REMARK 927      BINDING AFFINITY PREDICTED BY RF-SCORE:    0.00 PKD
ROOT
HETATM    1  O   UNL     1      -9.519   7.102  71.781  1.00  0.00    -0.152 OA 
HETATM    2  C   UNL     1     -10.684   6.491  71.454  1.00  0.00    -0.238 C  
HETATM    3  C   UNL     1     -11.895   7.380  71.694  1.00  0.00    -0.291 C  
HETATM    4  O   UNL     1     -10.746   5.351  71.016  1.00  0.00    -0.233 OA 
ENDROOT
BRANCH   3   5
HETATM    5  O   UNL     1     -11.499   8.617  72.305  1.00  0.00    -0.365 OA 
BRANCH   5   6
HETATM    6  C   UNL     1     -12.357   9.711  71.925  1.00  0.00    -0.357 C  
BRANCH   6   7
HETATM    7  C   UNL     1     -11.669  10.701  70.958  1.00  0.00    -0.233 C  
BRANCH   7   8
HETATM    8  N   UNL     1     -12.115  10.623  69.553  1.00  0.00    -0.257 NA 
HETATM    9  C   UNL     1     -12.123  11.941  68.878  1.00  0.00    -0.155 C  
HETATM   10  C   UNL     1     -10.721  12.490  68.506  1.00  0.00    -0.239 C  
HETATM   11  N   UNL     1      -9.899  11.577  67.672  1.00  0.00    -0.179 NA 
HETATM   12  C   UNL     1      -9.865  10.269  68.371  1.00  0.00    -0.156 C  
HETATM   13  C   UNL     1     -11.248   9.698  68.782  1.00  0.00     0.038 C  
BRANCH  11  14
HETATM   14  C   UNL     1     -10.418  11.488  66.270  1.00  0.00    -0.251 C  
BRANCH  14  15
HETATM   15  C   UNL     1     -10.882  12.859  65.743  1.00  0.00    -0.292 A  
HETATM   16  C   UNL     1      -9.978  13.937  65.698  1.00  0.00    -0.298 A  
HETATM   17  C   UNL     1     -12.169  13.056  65.208  1.00  0.00    -0.513 A  
HETATM   18  C   UNL     1     -10.341  15.154  65.113  1.00  0.00    -0.416 A  
HETATM   19  C   UNL     1     -11.618  15.325  64.586  1.00  0.00    -0.333 A  
HETATM   20  C   UNL     1     -12.535  14.281  64.644  1.00  0.00    -0.371 A  
ENDBRANCH  14  15
BRANCH  14  21
HETATM   21  C   UNL     1      -9.449  10.789  65.302  1.00  0.00    -0.263 A  
HETATM   22  C   UNL     1      -7.567   9.643  63.547  1.00  0.00    -0.123 A  
HETATM   23 CL   UNL     1      -6.406   8.975  62.469  1.00  0.00    -0.095 Cl 
HETATM   24  C   UNL     1      -8.813  10.034  63.069  1.00  0.00    -0.237 A  
HETATM   25  C   UNL     1      -8.187  10.368  65.765  1.00  0.00    -0.156 A  
HETATM   26  C   UNL     1      -9.744  10.611  63.938  1.00  0.00    -0.378 A  
HETATM   27  C   UNL     1      -7.249   9.807  64.893  1.00  0.00    -0.129 A  
ENDBRANCH  14  21
ENDBRANCH  11  14
ENDBRANCH   7   8
ENDBRANCH   6   7
ENDBRANCH   5   6
ENDBRANCH   3   5
TORSDOF 7
ENDMDL
MODEL       76
REMARK 921   NORMALIZED FREE ENERGY PREDICTED BY IDOCK:   -4.65 KCAL/MOL
REMARK 922        TOTAL FREE ENERGY PREDICTED BY IDOCK:   -7.23 KCAL/MOL
REMARK 923 INTER-LIGAND FREE ENERGY PREDICTED BY IDOCK:   -7.44 KCAL/MOL
REMARK 924 INTRA-LIGAND FREE ENERGY PREDICTED BY IDOCK:    0.21 KCAL/MOL
REMARK 927      BINDING AFFINITY PREDICTED BY RF-SCORE:    0.00 PKD
ROOT
HETATM    1  O   UNL     1      -7.021  20.460  69.854  1.00  0.00    -0.042 OA 
HETATM    2  C   UNL     1      -6.158  19.928  70.755  1.00  0.00    -0.245 C  
HETATM    3  C   UNL     1      -5.424  18.713  70.210  1.00  0.00    -0.233 C  
HETATM    4  O   UNL     1      -5.997  20.381  71.879  1.00  0.00    -0.616 OA 
ENDROOT
BRANCH   3   5
HETATM    5  O   UNL     1      -5.906  18.376  68.901  1.00  0.00    -0.200 OA 
BRANCH   5   6
HETATM    6  C   UNL     1      -7.163  17.673  68.948  1.00  0.00    -0.256 C  
BRANCH   6   7
HETATM    7  C   UNL     1      -7.674  17.271  67.545  1.00  0.00    -0.176 C  
BRANCH   7   8
HETATM    8  N   UNL     1      -7.817  15.820  67.317  1.00  0.00    -0.175 NA 
HETATM    9  C   UNL     1      -7.897  15.044  68.575  1.00  0.00    -0.137 C  
HETATM   10  C   UNL     1      -9.249  15.160  69.326  1.00  0.00    -0.205 C  
HETATM   11  N   UNL     1     -10.441  14.802  68.516  1.00  0.00    -0.243 NA 
HETATM   12  C   UNL     1     -10.374  15.608  67.273  1.00  0.00    -0.277 C  
HETATM   13  C   UNL     1      -9.027  15.538  66.506  1.00  0.00    -0.312 C  
BRANCH  11  14
HETATM   14  C   UNL     1     -10.517  13.327  68.265  1.00  0.00    -0.250 C  
BRANCH  14  15
HETATM   15  C   UNL     1     -11.281  12.594  69.385  1.00  0.00    -0.205 A  
HETATM   16  C   UNL     1     -12.274  13.271  70.117  1.00  0.00    -0.376 A  
HETATM   17  C   UNL     1     -11.088  11.225  69.645  1.00  0.00    -0.273 A  
HETATM   18  C   UNL     1     -13.062  12.594  71.054  1.00  0.00    -0.041 A  
HETATM   19  C   UNL     1     -12.856  11.238  71.292  1.00  0.00    -0.491 A  
HETATM   20  C   UNL     1     -11.862  10.556  70.597  1.00  0.00    -0.458 A  
ENDBRANCH  14  15
BRANCH  14  21
HETATM   21  C   UNL     1     -11.050  12.972  66.867  1.00  0.00    -0.306 A  
HETATM   22  C   UNL     1     -12.164  12.252  64.382  1.00  0.00    -0.402 A  
HETATM   23 CL   UNL     1     -12.862  11.787  62.881  1.00  0.00    -0.060 Cl 
HETATM   24  C   UNL     1     -10.985  11.652  64.813  1.00  0.00    -0.351 A  
HETATM   25  C   UNL     1     -12.233  13.577  66.400  1.00  0.00    -0.454 A  
HETATM   26  C   UNL     1     -10.437  12.004  66.051  1.00  0.00    -0.284 A  
HETATM   27  C   UNL     1     -12.791  13.213  65.170  1.00  0.00    -0.367 A  
ENDBRANCH  14  21
ENDBRANCH  11  14
ENDBRANCH   7   8
ENDBRANCH   6   7
ENDBRANCH   5   6
ENDBRANCH   3   5
TORSDOF 7
ENDMDL
MODEL       77
REMARK 921   NORMALIZED FREE ENERGY PREDICTED BY IDOCK:   -4.55 KCAL/MOL
REMARK 922        TOTAL FREE ENERGY PREDICTED BY IDOCK:   -7.10 KCAL/MOL
REMARK 923 INTER-LIGAND FREE ENERGY PREDICTED BY IDOCK:   -6.55 KCAL/MOL
REMARK 924 INTRA-LIGAND FREE ENERGY PREDICTED BY IDOCK:   -0.55 KCAL/MOL
REMARK 927      BINDING AFFINITY PREDICTED BY RF-SCORE:    0.00 PKD
ROOT
HETATM    1  O   UNL     1     -10.580  14.604  64.637  1.00  0.00    -0.392 OA 
HETATM    2  C   UNL     1     -11.913  14.363  64.575  1.00  0.00    -0.472 C  
HETATM    3  C   UNL     1     -12.304  13.073  65.281  1.00  0.00    -0.486 C  
HETATM    4  O   UNL     1     -12.705  15.104  64.011  1.00  0.00    -0.746 OA 
ENDROOT
BRANCH   3   5
HETATM    5  O   UNL     1     -11.138  12.383  65.754  1.00  0.00    -0.293 OA 
BRANCH   5   6
HETATM    6  C   UNL     1     -10.802  11.251  64.928  1.00  0.00    -0.229 C  
BRANCH   6   7
HETATM    7  C   UNL     1      -9.545  10.502  65.426  1.00  0.00    -0.237 C  
BRANCH   7   8
HETATM    8  N   UNL     1      -9.801   9.207  66.085  1.00  0.00    -0.287 NA 
HETATM    9  C   UNL     1      -8.559   8.508  66.484  1.00  0.00    -0.121 C  
HETATM   10  C   UNL     1      -7.842   9.108  67.721  1.00  0.00    -0.100 C  
HETATM   11  N   UNL     1      -8.689   9.218  68.936  1.00  0.00    -0.130 NA 
HETATM   12  C   UNL     1      -9.916   9.951  68.539  1.00  0.00    -0.159 C  
HETATM   13  C   UNL     1     -10.649   9.395  67.289  1.00  0.00    -0.244 C  
BRANCH  11  14
HETATM   14  C   UNL     1      -8.967   7.876  69.541  1.00  0.00    -0.142 C  
BRANCH  14  15
HETATM   15  C   UNL     1      -7.787   7.378  70.398  1.00  0.00    -0.098 A  
HETATM   16  C   UNL     1      -7.318   8.162  71.468  1.00  0.00    -0.082 A  
HETATM   17  C   UNL     1      -7.213   6.108  70.209  1.00  0.00    -0.083 A  
HETATM   18  C   UNL     1      -6.330   7.678  72.333  1.00  0.00    -0.051 A  
HETATM   19  C   UNL     1      -5.779   6.416  72.130  1.00  0.00    -0.037 A  
HETATM   20  C   UNL     1      -6.211   5.636  71.062  1.00  0.00    -0.034 A  
ENDBRANCH  14  15
BRANCH  14  21
HETATM   21  C   UNL     1     -10.305   7.812  70.297  1.00  0.00    -0.215 A  
HETATM   22  C   UNL     1     -12.836   7.727  71.530  1.00  0.00    -0.329 A  
HETATM   23 CL   UNL     1     -14.393   7.695  72.258  1.00  0.00    -0.289 Cl 
HETATM   24  C   UNL     1     -11.932   8.728  71.870  1.00  0.00    -0.435 A  
HETATM   25  C   UNL     1     -11.231   6.798  69.982  1.00  0.00    -0.380 A  
HETATM   26  C   UNL     1     -10.678   8.774  71.251  1.00  0.00    -0.339 A  
HETATM   27  C   UNL     1     -12.491   6.760  70.588  1.00  0.00    -0.142 A  
ENDBRANCH  14  21
ENDBRANCH  11  14
ENDBRANCH   7   8
ENDBRANCH   6   7
ENDBRANCH   5   6
ENDBRANCH   3   5
TORSDOF 7
ENDMDL
MODEL       78
REMARK 921   NORMALIZED FREE ENERGY PREDICTED BY IDOCK:   -4.54 KCAL/MOL
REMARK 922        TOTAL FREE ENERGY PREDICTED BY IDOCK:   -7.09 KCAL/MOL
REMARK 923 INTER-LIGAND FREE ENERGY PREDICTED BY IDOCK:   -6.24 KCAL/MOL
REMARK 924 INTRA-LIGAND FREE ENERGY PREDICTED BY IDOCK:   -0.85 KCAL/MOL
REMARK 927      BINDING AFFINITY PREDICTED BY RF-SCORE:    0.00 PKD
ROOT
HETATM    1  O   UNL     1      -9.025  19.889  65.449  1.00  0.00    -0.110 OA 
HETATM    2  C   UNL     1     -10.359  19.943  65.688  1.00  0.00    -0.326 C  
HETATM    3  C   UNL     1     -10.713  19.527  67.107  1.00  0.00    -0.482 C  
HETATM    4  O   UNL     1     -11.178  20.286  64.848  1.00  0.00    -0.052 OA 
ENDROOT
BRANCH   3   5
HETATM    5  O   UNL     1      -9.542  19.087  67.811  1.00  0.00    -0.297 OA 
BRANCH   5   6
HETATM    6  C   UNL     1      -9.869  18.369  69.018  1.00  0.00    -0.260 C  
BRANCH   6   7
HETATM    7  C   UNL     1      -9.041  17.076  69.185  1.00  0.00    -0.058 C  
BRANCH   7   8
HETATM    8  N   UNL     1      -9.821  15.823  69.193  1.00  0.00    -0.230 NA 
HETATM    9  C   UNL     1     -10.674  15.668  67.993  1.00  0.00    -0.287 C  
HETATM   10  C   UNL     1      -9.911  15.300  66.694  1.00  0.00    -0.250 C  
HETATM   11  N   UNL     1      -9.071  14.079  66.793  1.00  0.00    -0.250 NA 
HETATM   12  C   UNL     1      -8.194  14.255  67.976  1.00  0.00    -0.153 C  
HETATM   13  C   UNL     1      -8.919  14.648  69.290  1.00  0.00     0.048 C  
BRANCH  11  14
HETATM   14  C   UNL     1      -9.905  12.837  66.851  1.00  0.00    -0.236 C  
BRANCH  14  15
HETATM   15  C   UNL     1     -10.727  12.637  65.564  1.00  0.00    -0.303 A  
HETATM   16  C   UNL     1     -10.090  12.212  64.383  1.00  0.00    -0.300 A  
HETATM   17  C   UNL     1     -12.128  12.773  65.544  1.00  0.00    -0.517 A  
HETATM   18  C   UNL     1     -10.831  11.909  63.236  1.00  0.00    -0.408 A  
HETATM   19  C   UNL     1     -12.216  12.047  63.241  1.00  0.00    -0.531 A  
HETATM   20  C   UNL     1     -12.864  12.490  64.391  1.00  0.00    -0.366 A  
ENDBRANCH  14  15
BRANCH  14  21
HETATM   21  C   UNL     1      -9.105  11.580  67.233  1.00  0.00    -0.164 A  
HETATM   22  C   UNL     1      -7.695   9.205  67.785  1.00  0.00    -0.093 A  
HETATM   23 CL   UNL     1      -6.858   7.737  68.103  1.00  0.00    -0.066 Cl 
HETATM   24  C   UNL     1      -8.745   9.597  68.610  1.00  0.00    -0.124 A  
HETATM   25  C   UNL     1      -8.027  11.171  66.423  1.00  0.00    -0.147 A  
HETATM   26  C   UNL     1      -9.450  10.772  68.331  1.00  0.00    -0.174 A  
HETATM   27  C   UNL     1      -7.333   9.987  66.692  1.00  0.00    -0.103 A  
ENDBRANCH  14  21
ENDBRANCH  11  14
ENDBRANCH   7   8
ENDBRANCH   6   7
ENDBRANCH   5   6
ENDBRANCH   3   5
TORSDOF 7
ENDMDL
MODEL       79
REMARK 921   NORMALIZED FREE ENERGY PREDICTED BY IDOCK:   -4.52 KCAL/MOL
REMARK 922        TOTAL FREE ENERGY PREDICTED BY IDOCK:   -7.06 KCAL/MOL
REMARK 923 INTER-LIGAND FREE ENERGY PREDICTED BY IDOCK:   -7.04 KCAL/MOL
REMARK 924 INTRA-LIGAND FREE ENERGY PREDICTED BY IDOCK:   -0.02 KCAL/MOL
REMARK 927      BINDING AFFINITY PREDICTED BY RF-SCORE:    0.00 PKD
ROOT
HETATM    1  O   UNL     1     -11.876  16.248  72.567  1.00  0.00    -0.516 OA 
HETATM    2  C   UNL     1     -13.101  15.785  72.214  1.00  0.00    -0.447 C  
HETATM    3  C   UNL     1     -13.100  15.125  70.843  1.00  0.00    -0.441 C  
HETATM    4  O   UNL     1     -14.090  15.891  72.924  1.00  0.00    -0.561 OA 
ENDROOT
BRANCH   3   5
HETATM    5  O   UNL     1     -11.811  15.249  70.224  1.00  0.00    -0.270 OA 
BRANCH   5   6
HETATM    6  C   UNL     1     -11.876  15.948  68.965  1.00  0.00    -0.318 C  
BRANCH   6   7
HETATM    7  C   UNL     1     -11.346  15.101  67.786  1.00  0.00    -0.328 C  
BRANCH   7   8
HETATM    8  N   UNL     1     -11.711  13.671  67.822  1.00  0.00    -0.341 NA 
HETATM    9  C   UNL     1     -11.635  13.024  66.493  1.00  0.00    -0.356 C  
HETATM   10  C   UNL     1     -10.196  12.745  65.985  1.00  0.00    -0.278 C  
HETATM   11  N   UNL     1      -9.357  11.942  66.910  1.00  0.00    -0.191 NA 
HETATM   12  C   UNL     1      -9.408  12.615  68.232  1.00  0.00    -0.195 C  
HETATM   13  C   UNL     1     -10.831  12.933  68.762  1.00  0.00    -0.242 C  
BRANCH  11  14
HETATM   14  C   UNL     1      -9.795  10.511  66.955  1.00  0.00    -0.193 C  
BRANCH  14  15
HETATM   15  C   UNL     1      -9.032   9.645  65.935  1.00  0.00    -0.203 A  
HETATM   16  C   UNL     1      -8.086  10.239  65.078  1.00  0.00    -0.146 A  
HETATM   17  C   UNL     1      -9.176   8.246  65.888  1.00  0.00    -0.185 A  
HETATM   18  C   UNL     1      -7.296   9.458  64.229  1.00  0.00    -0.109 A  
HETATM   19  C   UNL     1      -7.452   8.075  64.203  1.00  0.00    -0.107 A  
HETATM   20  C   UNL     1      -8.400   7.470  65.023  1.00  0.00    -0.068 A  
ENDBRANCH  14  15
BRANCH  14  21
HETATM   21  C   UNL     1      -9.768   9.906  68.369  1.00  0.00    -0.161 A  
HETATM   22  C   UNL     1      -9.816   8.933  71.012  1.00  0.00    -0.253 A  
HETATM   23 CL   UNL     1      -9.850   8.371  72.636  1.00  0.00    -0.351 Cl 
HETATM   24  C   UNL     1      -8.616   9.360  70.451  1.00  0.00    -0.266 A  
HETATM   25  C   UNL     1     -10.966   9.451  68.953  1.00  0.00    -0.081 A  
HETATM   26  C   UNL     1      -8.595   9.852  69.142  1.00  0.00    -0.157 A  
HETATM   27  C   UNL     1     -10.992   8.976  70.268  1.00  0.00    -0.274 A  
ENDBRANCH  14  21
ENDBRANCH  11  14
ENDBRANCH   7   8
ENDBRANCH   6   7
ENDBRANCH   5   6
ENDBRANCH   3   5
TORSDOF 7
ENDMDL
MODEL       80
REMARK 921   NORMALIZED FREE ENERGY PREDICTED BY IDOCK:   -4.52 KCAL/MOL
REMARK 922        TOTAL FREE ENERGY PREDICTED BY IDOCK:   -7.06 KCAL/MOL
REMARK 923 INTER-LIGAND FREE ENERGY PREDICTED BY IDOCK:   -7.05 KCAL/MOL
REMARK 924 INTRA-LIGAND FREE ENERGY PREDICTED BY IDOCK:   -0.01 KCAL/MOL
REMARK 927      BINDING AFFINITY PREDICTED BY RF-SCORE:    0.00 PKD
ROOT
HETATM    1  O   UNL     1      -7.047   7.826  71.692  1.00  0.00    -0.060 OA 
HETATM    2  C   UNL     1      -6.666   6.537  71.512  1.00  0.00    -0.058 C  
HETATM    3  C   UNL     1      -7.246   5.931  70.243  1.00  0.00    -0.075 C  
HETATM    4  O   UNL     1      -5.939   5.937  72.290  1.00  0.00    -0.034 OA 
ENDROOT
BRANCH   3   5
HETATM    5  O   UNL     1      -8.136   6.857  69.602  1.00  0.00    -0.122 OA 
BRANCH   5   6
HETATM    6  C   UNL     1      -8.793   6.277  68.457  1.00  0.00    -0.114 C  
BRANCH   6   7
HETATM    7  C   UNL     1      -8.887   7.257  67.266  1.00  0.00    -0.124 C  
BRANCH   7   8
HETATM    8  N   UNL     1     -10.169   7.977  67.139  1.00  0.00    -0.262 NA 
HETATM    9  C   UNL     1     -10.784   8.292  68.448  1.00  0.00    -0.019 C  
HETATM   10  C   UNL     1     -10.100   9.446  69.228  1.00  0.00    -0.196 C  
HETATM   11  N   UNL     1      -9.992  10.722  68.477  1.00  0.00    -0.170 NA 
HETATM   12  C   UNL     1      -9.343  10.406  67.181  1.00  0.00    -0.157 C  
HETATM   13  C   UNL     1      -9.984   9.240  66.383  1.00  0.00    -0.286 C  
BRANCH  11  14
HETATM   14  C   UNL     1     -11.323  11.391  68.328  1.00  0.00    -0.286 C  
BRANCH  14  15
HETATM   15  C   UNL     1     -11.912  11.809  69.689  1.00  0.00    -0.378 A  
HETATM   16  C   UNL     1     -11.917  13.165  70.065  1.00  0.00    -0.391 A  
HETATM   17  C   UNL     1     -12.539  10.886  70.545  1.00  0.00    -0.409 A  
HETATM   18  C   UNL     1     -12.552  13.582  71.239  1.00  0.00    -0.427 A  
HETATM   19  C   UNL     1     -13.171  12.651  72.069  1.00  0.00    -0.531 A  
HETATM   20  C   UNL     1     -13.154  11.302  71.728  1.00  0.00    -0.527 A  
ENDBRANCH  14  15
BRANCH  14  21
HETATM   21  C   UNL     1     -11.315  12.550  67.316  1.00  0.00    -0.373 A  
HETATM   22  C   UNL     1     -11.367  14.773  65.588  1.00  0.00    -0.343 A  
HETATM   23 CL   UNL     1     -11.425  16.144  64.551  1.00  0.00    -0.358 Cl 
HETATM   24  C   UNL     1     -12.176  13.672  65.326  1.00  0.00    -0.466 A  
HETATM   25  C   UNL     1     -10.493  13.670  67.549  1.00  0.00    -0.241 A  
HETATM   26  C   UNL     1     -12.156  12.572  66.189  1.00  0.00    -0.357 A  
HETATM   27  C   UNL     1     -10.525  14.777  66.696  1.00  0.00    -0.286 A  
ENDBRANCH  14  21
ENDBRANCH  11  14
ENDBRANCH   7   8
ENDBRANCH   6   7
ENDBRANCH   5   6
ENDBRANCH   3   5
TORSDOF 7
ENDMDL
MODEL       81
REMARK 921   NORMALIZED FREE ENERGY PREDICTED BY IDOCK:   -4.50 KCAL/MOL
REMARK 922        TOTAL FREE ENERGY PREDICTED BY IDOCK:   -7.02 KCAL/MOL
REMARK 923 INTER-LIGAND FREE ENERGY PREDICTED BY IDOCK:   -6.50 KCAL/MOL
REMARK 924 INTRA-LIGAND FREE ENERGY PREDICTED BY IDOCK:   -0.52 KCAL/MOL
REMARK 927      BINDING AFFINITY PREDICTED BY RF-SCORE:    0.00 PKD
ROOT
HETATM    1  O   UNL     1     -11.406  16.457  70.429  1.00  0.00    -0.349 OA 
HETATM    2  C   UNL     1     -12.306  15.559  70.899  1.00  0.00    -0.422 C  
HETATM    3  C   UNL     1     -12.383  14.308  70.037  1.00  0.00    -0.346 C  
HETATM    4  O   UNL     1     -12.977  15.743  71.904  1.00  0.00    -0.444 OA 
ENDROOT
BRANCH   3   5
HETATM    5  O   UNL     1     -11.546  14.440  68.880  1.00  0.00    -0.271 OA 
BRANCH   5   6
HETATM    6  C   UNL     1     -11.950  13.560  67.811  1.00  0.00    -0.334 C  
BRANCH   6   7
HETATM    7  C   UNL     1     -10.749  12.982  67.029  1.00  0.00    -0.258 C  
BRANCH   7   8
HETATM    8  N   UNL     1      -9.813  12.163  67.824  1.00  0.00    -0.194 NA 
HETATM    9  C   UNL     1     -10.473  11.463  68.949  1.00  0.00    -0.193 C  
HETATM   10  C   UNL     1     -11.345  10.248  68.539  1.00  0.00    -0.168 C  
HETATM   11  N   UNL     1     -10.634   9.217  67.741  1.00  0.00    -0.247 NA 
HETATM   12  C   UNL     1     -10.004   9.918  66.596  1.00  0.00    -0.217 C  
HETATM   13  C   UNL     1      -9.144  11.155  66.964  1.00  0.00    -0.153 C  
BRANCH  11  14
HETATM   14  C   UNL     1      -9.658   8.446  68.576  1.00  0.00    -0.149 C  
BRANCH  14  15
HETATM   15  C   UNL     1     -10.254   8.057  69.942  1.00  0.00    -0.204 A  
HETATM   16  C   UNL     1      -9.801   8.694  71.112  1.00  0.00    -0.285 A  
HETATM   17  C   UNL     1     -11.316   7.142  70.060  1.00  0.00    -0.242 A  
HETATM   18  C   UNL     1     -10.409   8.445  72.347  1.00  0.00    -0.399 A  
HETATM   19  C   UNL     1     -11.461   7.540  72.439  1.00  0.00    -0.362 A  
HETATM   20  C   UNL     1     -11.908   6.879  71.298  1.00  0.00    -0.385 A  
ENDBRANCH  14  15
BRANCH  14  21
HETATM   21  C   UNL     1      -9.045   7.240  67.842  1.00  0.00    -0.132 A  
HETATM   22  C   UNL     1      -8.043   4.933  66.575  1.00  0.00    -0.107 A  
HETATM   23 CL   UNL     1      -7.444   3.505  65.828  1.00  0.00    -0.076 Cl 
HETATM   24  C   UNL     1      -7.263   5.604  67.512  1.00  0.00    -0.076 A  
HETATM   25  C   UNL     1      -9.808   6.553  66.878  1.00  0.00    -0.211 A  
HETATM   26  C   UNL     1      -7.765   6.745  68.147  1.00  0.00    -0.109 A  
HETATM   27  C   UNL     1      -9.314   5.403  66.255  1.00  0.00    -0.163 A  
ENDBRANCH  14  21
ENDBRANCH  11  14
ENDBRANCH   7   8
ENDBRANCH   6   7
ENDBRANCH   5   6
ENDBRANCH   3   5
TORSDOF 7
ENDMDL
MODEL       82
REMARK 921   NORMALIZED FREE ENERGY PREDICTED BY IDOCK:   -4.50 KCAL/MOL
REMARK 922        TOTAL FREE ENERGY PREDICTED BY IDOCK:   -7.02 KCAL/MOL
REMARK 923 INTER-LIGAND FREE ENERGY PREDICTED BY IDOCK:   -5.91 KCAL/MOL
REMARK 924 INTRA-LIGAND FREE ENERGY PREDICTED BY IDOCK:   -1.11 KCAL/MOL
REMARK 927      BINDING AFFINITY PREDICTED BY RF-SCORE:    0.00 PKD
ROOT
HETATM    1  O   UNL     1     -10.994   5.400  69.815  1.00  0.00    -0.246 OA 
HETATM    2  C   UNL     1      -9.839   5.585  70.501  1.00  0.00    -0.193 C  
HETATM    3  C   UNL     1     -10.049   6.347  71.800  1.00  0.00    -0.185 C  
HETATM    4  O   UNL     1      -8.753   5.182  70.110  1.00  0.00    -0.107 OA 
ENDROOT
BRANCH   3   5
HETATM    5  O   UNL     1     -11.417   6.765  71.925  1.00  0.00    -0.256 OA 
BRANCH   5   6
HETATM    6  C   UNL     1     -11.540   8.195  72.060  1.00  0.00    -0.330 C  
BRANCH   6   7
HETATM    7  C   UNL     1     -11.712   8.909  70.701  1.00  0.00    -0.179 C  
BRANCH   7   8
HETATM    8  N   UNL     1     -10.887  10.118  70.514  1.00  0.00    -0.303 NA 
HETATM    9  C   UNL     1      -9.534   9.817  69.994  1.00  0.00    -0.238 C  
HETATM   10  C   UNL     1      -9.484   9.431  68.493  1.00  0.00    -0.145 C  
HETATM   11  N   UNL     1     -10.092  10.428  67.576  1.00  0.00    -0.183 NA 
HETATM   12  C   UNL     1     -11.460  10.700  68.081  1.00  0.00    -0.228 C  
HETATM   13  C   UNL     1     -11.554  11.065  69.586  1.00  0.00    -0.318 C  
BRANCH  11  14
HETATM   14  C   UNL     1      -9.247  11.659  67.457  1.00  0.00    -0.172 C  
BRANCH  14  15
HETATM   15  C   UNL     1      -7.847  11.342  66.899  1.00  0.00    -0.158 A  
HETATM   16  C   UNL     1      -6.701  11.709  67.629  1.00  0.00    -0.087 A  
HETATM   17  C   UNL     1      -7.665  10.606  65.714  1.00  0.00    -0.130 A  
HETATM   18  C   UNL     1      -5.425  11.326  67.203  1.00  0.00    -0.073 A  
HETATM   19  C   UNL     1      -5.270  10.593  66.029  1.00  0.00    -0.091 A  
HETATM   20  C   UNL     1      -6.388  10.243  65.279  1.00  0.00    -0.125 A  
ENDBRANCH  14  15
BRANCH  14  21
HETATM   21  C   UNL     1      -9.936  12.802  66.691  1.00  0.00    -0.246 A  
HETATM   22  C   UNL     1     -11.057  14.901  65.184  1.00  0.00    -0.393 A  
HETATM   23 CL   UNL     1     -11.709  16.192  64.255  1.00  0.00    -0.239 Cl 
HETATM   24  C   UNL     1     -10.720  15.107  66.518  1.00  0.00    -0.310 A  
HETATM   25  C   UNL     1     -10.302  12.613  65.344  1.00  0.00    -0.311 A  
HETATM   26  C   UNL     1     -10.155  14.067  67.263  1.00  0.00    -0.249 A  
HETATM   27  C   UNL     1     -10.850  13.657  64.593  1.00  0.00    -0.416 A  
ENDBRANCH  14  21
ENDBRANCH  11  14
ENDBRANCH   7   8
ENDBRANCH   6   7
ENDBRANCH   5   6
ENDBRANCH   3   5
TORSDOF 7
ENDMDL
MODEL       83
REMARK 921   NORMALIZED FREE ENERGY PREDICTED BY IDOCK:   -4.48 KCAL/MOL
REMARK 922        TOTAL FREE ENERGY PREDICTED BY IDOCK:   -7.00 KCAL/MOL
REMARK 923 INTER-LIGAND FREE ENERGY PREDICTED BY IDOCK:   -6.33 KCAL/MOL
REMARK 924 INTRA-LIGAND FREE ENERGY PREDICTED BY IDOCK:   -0.66 KCAL/MOL
REMARK 927      BINDING AFFINITY PREDICTED BY RF-SCORE:    0.00 PKD
ROOT
HETATM    1  O   UNL     1      -8.567  15.525  69.187  1.00  0.00    -0.210 OA 
HETATM    2  C   UNL     1      -7.923  16.118  68.152  1.00  0.00    -0.148 C  
HETATM    3  C   UNL     1      -6.452  15.736  68.086  1.00  0.00    -0.130 C  
HETATM    4  O   UNL     1      -8.471  16.877  67.365  1.00  0.00    -0.186 OA 
ENDROOT
BRANCH   3   5
HETATM    5  O   UNL     1      -6.094  14.911  69.205  1.00  0.00    -0.098 OA 
BRANCH   5   6
HETATM    6  C   UNL     1      -5.134  13.897  68.849  1.00  0.00    -0.073 C  
BRANCH   6   7
HETATM    7  C   UNL     1      -5.590  12.477  69.252  1.00  0.00    -0.075 C  
BRANCH   7   8
HETATM    8  N   UNL     1      -6.122  11.649  68.152  1.00  0.00    -0.045 NA 
HETATM    9  C   UNL     1      -6.486  10.281  68.584  1.00  0.00    -0.052 C  
HETATM   10  C   UNL     1      -7.790  10.186  69.418  1.00  0.00    -0.150 C  
HETATM   11  N   UNL     1      -8.988  10.769  68.763  1.00  0.00    -0.165 NA 
HETATM   12  C   UNL     1      -8.630  12.153  68.364  1.00  0.00    -0.141 C  
HETATM   13  C   UNL     1      -7.317  12.291  67.549  1.00  0.00    -0.137 C  
BRANCH  11  14
HETATM   14  C   UNL     1      -9.462   9.925  67.620  1.00  0.00    -0.147 C  
BRANCH  14  15
HETATM   15  C   UNL     1     -10.175   8.649  68.107  1.00  0.00    -0.250 A  
HETATM   16  C   UNL     1     -10.434   7.602  67.203  1.00  0.00    -0.412 A  
HETATM   17  C   UNL     1     -10.499   8.446  69.461  1.00  0.00    -0.225 A  
HETATM   18  C   UNL     1     -10.970   6.388  67.646  1.00  0.00    -0.441 A  
HETATM   19  C   UNL     1     -11.279   6.208  68.991  1.00  0.00    -0.375 A  
HETATM   20  C   UNL     1     -11.055   7.241  69.897  1.00  0.00    -0.233 A  
ENDBRANCH  14  15
BRANCH  14  21
HETATM   21  C   UNL     1     -10.298  10.703  66.590  1.00  0.00    -0.297 A  
HETATM   22  C   UNL     1     -11.684  12.215  64.660  1.00  0.00    -0.332 A  
HETATM   23 CL   UNL     1     -12.507  13.163  63.485  1.00  0.00    -0.439 Cl 
HETATM   24  C   UNL     1     -11.996  12.358  66.008  1.00  0.00    -0.419 A  
HETATM   25  C   UNL     1     -10.013  10.564  65.217  1.00  0.00    -0.364 A  
HETATM   26  C   UNL     1     -11.301  11.613  66.967  1.00  0.00    -0.373 A  
HETATM   27  C   UNL     1     -10.695  11.320  64.259  1.00  0.00    -0.416 A  
ENDBRANCH  14  21
ENDBRANCH  11  14
ENDBRANCH   7   8
ENDBRANCH   6   7
ENDBRANCH   5   6
ENDBRANCH   3   5
TORSDOF 7
ENDMDL
MODEL       84
REMARK 921   NORMALIZED FREE ENERGY PREDICTED BY IDOCK:   -4.48 KCAL/MOL
REMARK 922        TOTAL FREE ENERGY PREDICTED BY IDOCK:   -6.99 KCAL/MOL
REMARK 923 INTER-LIGAND FREE ENERGY PREDICTED BY IDOCK:   -6.65 KCAL/MOL
REMARK 924 INTRA-LIGAND FREE ENERGY PREDICTED BY IDOCK:   -0.34 KCAL/MOL
REMARK 927      BINDING AFFINITY PREDICTED BY RF-SCORE:    0.00 PKD
ROOT
HETATM    1  O   UNL     1      -7.397   6.969  68.939  1.00  0.00    -0.088 OA 
HETATM    2  C   UNL     1      -6.522   7.233  67.937  1.00  0.00    -0.049 C  
HETATM    3  C   UNL     1      -7.161   8.012  66.798  1.00  0.00    -0.081 C  
HETATM    4  O   UNL     1      -5.353   6.878  67.955  1.00  0.00    -0.014 OA 
ENDROOT
BRANCH   3   5
HETATM    5  O   UNL     1      -8.566   8.189  67.032  1.00  0.00    -0.120 OA 
BRANCH   5   6
HETATM    6  C   UNL     1      -9.265   8.623  65.849  1.00  0.00    -0.202 C  
BRANCH   6   7
HETATM    7  C   UNL     1      -9.987   9.975  66.046  1.00  0.00    -0.267 C  
BRANCH   7   8
HETATM    8  N   UNL     1      -9.358  10.891  67.016  1.00  0.00    -0.163 NA 
HETATM    9  C   UNL     1      -8.955  12.182  66.413  1.00  0.00    -0.138 C  
HETATM   10  C   UNL     1     -10.127  13.151  66.109  1.00  0.00    -0.291 C  
HETATM   11  N   UNL     1     -10.991  13.465  67.275  1.00  0.00    -0.269 NA 
HETATM   12  C   UNL     1     -11.420  12.168  67.854  1.00  0.00    -0.328 C  
HETATM   13  C   UNL     1     -10.277  11.161  68.150  1.00  0.00    -0.181 C  
BRANCH  11  14
HETATM   14  C   UNL     1     -10.293  14.354  68.258  1.00  0.00    -0.239 C  
BRANCH  14  15
HETATM   15  C   UNL     1      -9.733  15.623  67.588  1.00  0.00    -0.225 A  
HETATM   16  C   UNL     1     -10.601  16.498  66.908  1.00  0.00    -0.238 A  
HETATM   17  C   UNL     1      -8.383  15.997  67.711  1.00  0.00    -0.159 A  
HETATM   18  C   UNL     1     -10.137  17.714  66.396  1.00  0.00    -0.356 A  
HETATM   19  C   UNL     1      -8.797  18.066  66.533  1.00  0.00    -0.276 A  
HETATM   20  C   UNL     1      -7.918  17.203  67.179  1.00  0.00    -0.216 A  
ENDBRANCH  14  15
BRANCH  14  21
HETATM   21  C   UNL     1     -11.141  14.676  69.501  1.00  0.00    -0.294 A  
HETATM   22  C   UNL     1     -12.814  15.336  71.669  1.00  0.00    -0.395 A  
HETATM   23 CL   UNL     1     -13.848  15.764  72.974  1.00  0.00    -0.597 Cl 
HETATM   24  C   UNL     1     -11.574  15.954  71.535  1.00  0.00    -0.537 A  
HETATM   25  C   UNL     1     -12.393  14.051  69.668  1.00  0.00    -0.309 A  
HETATM   26  C   UNL     1     -10.748  15.632  70.453  1.00  0.00    -0.336 A  
HETATM   27  C   UNL     1     -13.227  14.384  70.740  1.00  0.00    -0.288 A  
ENDBRANCH  14  21
ENDBRANCH  11  14
ENDBRANCH   7   8
ENDBRANCH   6   7
ENDBRANCH   5   6
ENDBRANCH   3   5
TORSDOF 7
ENDMDL
MODEL       85
REMARK 921   NORMALIZED FREE ENERGY PREDICTED BY IDOCK:   -4.43 KCAL/MOL
REMARK 922        TOTAL FREE ENERGY PREDICTED BY IDOCK:   -6.92 KCAL/MOL
REMARK 923 INTER-LIGAND FREE ENERGY PREDICTED BY IDOCK:   -5.85 KCAL/MOL
REMARK 924 INTRA-LIGAND FREE ENERGY PREDICTED BY IDOCK:   -1.07 KCAL/MOL
REMARK 927      BINDING AFFINITY PREDICTED BY RF-SCORE:    0.00 PKD
ROOT
HETATM    1  O   UNL     1     -12.079  11.080  68.231  1.00  0.00    -0.604 OA 
HETATM    2  C   UNL     1     -11.631  12.143  68.944  1.00  0.00    -0.324 C  
HETATM    3  C   UNL     1     -12.190  12.172  70.358  1.00  0.00    -0.294 C  
HETATM    4  O   UNL     1     -10.864  12.980  68.491  1.00  0.00    -0.243 OA 
ENDROOT
BRANCH   3   5
HETATM    5  O   UNL     1     -13.136  11.110  70.550  1.00  0.00    -0.122 OA 
BRANCH   5   6
HETATM    6  C   UNL     1     -13.150  10.631  71.909  1.00  0.00    -0.458 C  
BRANCH   6   7
HETATM    7  C   UNL     1     -12.641   9.177  72.034  1.00  0.00    -0.390 C  
BRANCH   7   8
HETATM    8  N   UNL     1     -11.248   8.957  71.600  1.00  0.00    -0.319 NA 
HETATM    9  C   UNL     1     -10.454   8.181  72.580  1.00  0.00    -0.339 C  
HETATM   10  C   UNL     1     -10.783   6.666  72.630  1.00  0.00    -0.235 C  
HETATM   11  N   UNL     1     -10.672   5.964  71.326  1.00  0.00    -0.255 NA 
HETATM   12  C   UNL     1     -11.497   6.726  70.356  1.00  0.00    -0.365 C  
HETATM   13  C   UNL     1     -11.215   8.250  70.295  1.00  0.00    -0.176 C  
BRANCH  11  14
HETATM   14  C   UNL     1      -9.245   5.809  70.900  1.00  0.00    -0.156 C  
BRANCH  14  15
HETATM   15  C   UNL     1      -8.477   4.833  71.810  1.00  0.00    -0.120 A  
HETATM   16  C   UNL     1      -9.067   3.612  72.187  1.00  0.00    -0.151 A  
HETATM   17  C   UNL     1      -7.150   5.074  72.211  1.00  0.00    -0.083 A  
HETATM   18  C   UNL     1      -8.345   2.659  72.912  1.00  0.00    -0.070 A  
HETATM   19  C   UNL     1      -7.032   2.917  73.294  1.00  0.00    -0.038 A  
HETATM   20  C   UNL     1      -6.438   4.128  72.954  1.00  0.00    -0.032 A  
ENDBRANCH  14  15
BRANCH  14  21
HETATM   21  C   UNL     1      -9.086   5.464  69.409  1.00  0.00    -0.135 A  
HETATM   22  C   UNL     1      -8.896   4.969  66.643  1.00  0.00    -0.111 A  
HETATM   23 CL   UNL     1      -8.811   4.682  64.950  1.00  0.00    -0.147 Cl 
HETATM   24  C   UNL     1      -9.534   4.050  67.470  1.00  0.00    -0.231 A  
HETATM   25  C   UNL     1      -8.429   6.370  68.553  1.00  0.00    -0.119 A  
HETATM   26  C   UNL     1      -9.636   4.301  68.843  1.00  0.00    -0.227 A  
HETATM   27  C   UNL     1      -8.342   6.128  67.178  1.00  0.00    -0.105 A  
ENDBRANCH  14  21
ENDBRANCH  11  14
ENDBRANCH   7   8
ENDBRANCH   6   7
ENDBRANCH   5   6
ENDBRANCH   3   5
TORSDOF 7
ENDMDL
MODEL       86
REMARK 921   NORMALIZED FREE ENERGY PREDICTED BY IDOCK:   -4.42 KCAL/MOL
REMARK 922        TOTAL FREE ENERGY PREDICTED BY IDOCK:   -6.91 KCAL/MOL
REMARK 923 INTER-LIGAND FREE ENERGY PREDICTED BY IDOCK:   -7.21 KCAL/MOL
REMARK 924 INTRA-LIGAND FREE ENERGY PREDICTED BY IDOCK:    0.29 KCAL/MOL
REMARK 927      BINDING AFFINITY PREDICTED BY RF-SCORE:    0.00 PKD
ROOT
HETATM    1  O   UNL     1      -6.791   8.996  71.298  1.00  0.00    -0.088 OA 
HETATM    2  C   UNL     1      -6.628   8.176  72.365  1.00  0.00    -0.081 C  
HETATM    3  C   UNL     1      -7.934   7.908  73.097  1.00  0.00    -0.150 C  
HETATM    4  O   UNL     1      -5.548   7.709  72.696  1.00  0.00    -0.037 OA 
ENDROOT
BRANCH   3   5
HETATM    5  O   UNL     1      -9.001   8.677  72.523  1.00  0.00    -0.337 OA 
BRANCH   5   6
HETATM    6  C   UNL     1     -10.022   7.843  71.939  1.00  0.00    -0.179 C  
BRANCH   6   7
HETATM    7  C   UNL     1     -10.302   8.192  70.460  1.00  0.00    -0.202 C  
BRANCH   7   8
HETATM    8  N   UNL     1      -9.747   9.479  69.999  1.00  0.00    -0.220 NA 
HETATM    9  C   UNL     1      -9.456   9.495  68.548  1.00  0.00    -0.141 C  
HETATM   10  C   UNL     1     -10.705   9.594  67.634  1.00  0.00    -0.262 C  
HETATM   11  N   UNL     1     -11.588  10.754  67.914  1.00  0.00    -0.532 NA 
HETATM   12  C   UNL     1     -11.905  10.714  69.363  1.00  0.00    -0.253 C  
HETATM   13  C   UNL     1     -10.682  10.590  70.309  1.00  0.00    -0.100 C  
BRANCH  11  14
HETATM   14  C   UNL     1     -10.963  12.044  67.479  1.00  0.00    -0.253 C  
BRANCH  14  15
HETATM   15  C   UNL     1     -11.415  12.451  66.064  1.00  0.00    -0.431 A  
HETATM   16  C   UNL     1     -11.990  13.717  65.848  1.00  0.00    -0.438 A  
HETATM   17  C   UNL     1     -11.186  11.631  64.943  1.00  0.00    -0.287 A  
HETATM   18  C   UNL     1     -12.297  14.155  64.555  1.00  0.00    -0.419 A  
HETATM   19  C   UNL     1     -12.058  13.329  63.461  1.00  0.00    -0.550 A  
HETATM   20  C   UNL     1     -11.514  12.063  63.655  1.00  0.00    -0.556 A  
ENDBRANCH  14  15
BRANCH  14  21
HETATM   21  C   UNL     1     -11.138  13.183  68.497  1.00  0.00    -0.296 A  
HETATM   22  C   UNL     1     -11.347  15.186  70.466  1.00  0.00    -0.298 A  
HETATM   23 CL   UNL     1     -11.465  16.386  71.692  1.00  0.00    -0.363 Cl 
HETATM   24  C   UNL     1     -12.451  14.399  70.158  1.00  0.00    -0.395 A  
HETATM   25  C   UNL     1     -10.040  14.005  68.815  1.00  0.00    -0.183 A  
HETATM   26  C   UNL     1     -12.345  13.398  69.186  1.00  0.00    -0.050 A  
HETATM   27  C   UNL     1     -10.140  14.995  69.798  1.00  0.00    -0.104 A  
ENDBRANCH  14  21
ENDBRANCH  11  14
ENDBRANCH   7   8
ENDBRANCH   6   7
ENDBRANCH   5   6
ENDBRANCH   3   5
TORSDOF 7
ENDMDL
MODEL       87
REMARK 921   NORMALIZED FREE ENERGY PREDICTED BY IDOCK:   -4.42 KCAL/MOL
REMARK 922        TOTAL FREE ENERGY PREDICTED BY IDOCK:   -6.91 KCAL/MOL
REMARK 923 INTER-LIGAND FREE ENERGY PREDICTED BY IDOCK:   -6.34 KCAL/MOL
REMARK 924 INTRA-LIGAND FREE ENERGY PREDICTED BY IDOCK:   -0.57 KCAL/MOL
REMARK 927      BINDING AFFINITY PREDICTED BY RF-SCORE:    0.00 PKD
ROOT
HETATM    1  O   UNL     1      -8.537   3.361  72.620  1.00  0.00    -0.083 OA 
HETATM    2  C   UNL     1      -9.036   3.419  71.361  1.00  0.00    -0.111 C  
HETATM    3  C   UNL     1      -9.418   4.834  70.951  1.00  0.00    -0.165 C  
HETATM    4  O   UNL     1      -9.164   2.438  70.642  1.00  0.00    -0.107 OA 
ENDROOT
BRANCH   3   5
HETATM    5  O   UNL     1      -9.241   5.742  72.048  1.00  0.00    -0.147 OA 
BRANCH   5   6
HETATM    6  C   UNL     1     -10.016   6.947  71.888  1.00  0.00    -0.171 C  
BRANCH   6   7
HETATM    7  C   UNL     1     -10.350   7.249  70.410  1.00  0.00    -0.208 C  
BRANCH   7   8
HETATM    8  N   UNL     1      -9.461   8.224  69.749  1.00  0.00    -0.162 NA 
HETATM    9  C   UNL     1      -9.554   8.179  68.272  1.00  0.00    -0.144 C  
HETATM   10  C   UNL     1     -10.843   8.806  67.681  1.00  0.00    -0.022 C  
HETATM   11  N   UNL     1     -11.095  10.210  68.092  1.00  0.00    -0.258 NA 
HETATM   12  C   UNL     1     -11.036  10.243  69.574  1.00  0.00    -0.262 C  
HETATM   13  C   UNL     1      -9.771   9.602  70.204  1.00  0.00    -0.254 C  
BRANCH  11  14
HETATM   14  C   UNL     1     -10.137  11.158  67.438  1.00  0.00    -0.185 C  
BRANCH  14  15
HETATM   15  C   UNL     1     -10.212  11.081  65.901  1.00  0.00    -0.309 A  
HETATM   16  C   UNL     1     -11.105  11.913  65.200  1.00  0.00    -0.360 A  
HETATM   17  C   UNL     1      -9.344  10.267  65.152  1.00  0.00    -0.279 A  
HETATM   18  C   UNL     1     -11.106  11.947  63.802  1.00  0.00    -0.510 A  
HETATM   19  C   UNL     1     -10.235  11.136  63.081  1.00  0.00    -0.347 A  
HETATM   20  C   UNL     1      -9.362  10.287  63.755  1.00  0.00    -0.339 A  
ENDBRANCH  14  15
BRANCH  14  21
HETATM   21  C   UNL     1     -10.256  12.602  67.956  1.00  0.00    -0.230 A  
HETATM   22  C   UNL     1     -10.561  15.284  68.760  1.00  0.00    -0.240 A  
HETATM   23 CL   UNL     1     -10.751  16.930  69.217  1.00  0.00    -0.325 Cl 
HETATM   24  C   UNL     1      -9.294  14.784  68.478  1.00  0.00    -0.199 A  
HETATM   25  C   UNL     1     -11.526  13.126  68.264  1.00  0.00    -0.349 A  
HETATM   26  C   UNL     1      -9.144  13.455  68.071  1.00  0.00    -0.205 A  
HETATM   27  C   UNL     1     -11.679  14.460  68.655  1.00  0.00    -0.367 A  
ENDBRANCH  14  21
ENDBRANCH  11  14
ENDBRANCH   7   8
ENDBRANCH   6   7
ENDBRANCH   5   6
ENDBRANCH   3   5
TORSDOF 7
ENDMDL
MODEL       88
REMARK 921   NORMALIZED FREE ENERGY PREDICTED BY IDOCK:   -4.40 KCAL/MOL
REMARK 922        TOTAL FREE ENERGY PREDICTED BY IDOCK:   -6.88 KCAL/MOL
REMARK 923 INTER-LIGAND FREE ENERGY PREDICTED BY IDOCK:   -6.36 KCAL/MOL
REMARK 924 INTRA-LIGAND FREE ENERGY PREDICTED BY IDOCK:   -0.52 KCAL/MOL
REMARK 927      BINDING AFFINITY PREDICTED BY RF-SCORE:    0.00 PKD
ROOT
HETATM    1  O   UNL     1      -8.419   7.618  66.809  1.00  0.00    -0.120 OA 
HETATM    2  C   UNL     1      -9.152   6.479  66.759  1.00  0.00    -0.144 C  
HETATM    3  C   UNL     1      -9.915   6.221  68.050  1.00  0.00    -0.137 C  
HETATM    4  O   UNL     1      -9.189   5.745  65.782  1.00  0.00    -0.148 OA 
ENDROOT
BRANCH   3   5
HETATM    5  O   UNL     1      -9.585   7.209  69.037  1.00  0.00    -0.146 OA 
BRANCH   5   6
HETATM    6  C   UNL     1     -10.757   7.774  69.656  1.00  0.00    -0.223 C  
BRANCH   6   7
HETATM    7  C   UNL     1     -10.720   9.318  69.705  1.00  0.00    -0.231 C  
BRANCH   7   8
HETATM    8  N   UNL     1     -10.017   9.968  68.583  1.00  0.00    -0.159 NA 
HETATM    9  C   UNL     1     -10.906  10.257  67.436  1.00  0.00    -0.277 C  
HETATM   10  C   UNL     1     -11.876  11.449  67.648  1.00  0.00    -0.078 C  
HETATM   11  N   UNL     1     -11.216  12.726  68.021  1.00  0.00    -0.253 NA 
HETATM   12  C   UNL     1     -10.353  12.438  69.193  1.00  0.00     0.166 C  
HETATM   13  C   UNL     1      -9.386  11.236  69.028  1.00  0.00     0.000 C  
BRANCH  11  14
HETATM   14  C   UNL     1     -10.471  13.323  66.867  1.00  0.00    -0.261 C  
BRANCH  14  15
HETATM   15  C   UNL     1     -11.057  12.878  65.514  1.00  0.00    -0.306 A  
HETATM   16  C   UNL     1     -10.266  12.137  64.616  1.00  0.00    -0.312 A  
HETATM   17  C   UNL     1     -12.403  13.104  65.173  1.00  0.00    -0.525 A  
HETATM   18  C   UNL     1     -10.812  11.619  63.437  1.00  0.00    -0.453 A  
HETATM   19  C   UNL     1     -12.147  11.852  63.123  1.00  0.00    -0.321 A  
HETATM   20  C   UNL     1     -12.940  12.604  63.984  1.00  0.00    -0.136 A  
ENDBRANCH  14  15
BRANCH  14  21
HETATM   21  C   UNL     1     -10.319  14.851  66.962  1.00  0.00    -0.264 A  
HETATM   22  C   UNL     1      -9.875  17.623  67.187  1.00  0.00    -0.306 A  
HETATM   23 CL   UNL     1      -9.580  19.309  67.347  1.00  0.00    -0.368 Cl 
HETATM   24  C   UNL     1     -10.783  16.995  68.034  1.00  0.00    -0.365 A  
HETATM   25  C   UNL     1      -9.419  15.513  66.105  1.00  0.00    -0.376 A  
HETATM   26  C   UNL     1     -10.996  15.617  67.927  1.00  0.00    -0.319 A  
HETATM   27  C   UNL     1      -9.192  16.888  66.222  1.00  0.00    -0.299 A  
ENDBRANCH  14  21
ENDBRANCH  11  14
ENDBRANCH   7   8
ENDBRANCH   6   7
ENDBRANCH   5   6
ENDBRANCH   3   5
TORSDOF 7
ENDMDL
MODEL       89
REMARK 921   NORMALIZED FREE ENERGY PREDICTED BY IDOCK:   -4.36 KCAL/MOL
REMARK 922        TOTAL FREE ENERGY PREDICTED BY IDOCK:   -6.83 KCAL/MOL
REMARK 923 INTER-LIGAND FREE ENERGY PREDICTED BY IDOCK:   -6.62 KCAL/MOL
REMARK 924 INTRA-LIGAND FREE ENERGY PREDICTED BY IDOCK:   -0.21 KCAL/MOL
REMARK 927      BINDING AFFINITY PREDICTED BY RF-SCORE:    0.00 PKD
ROOT
HETATM    1  O   UNL     1      -7.167   9.619  65.691  1.00  0.00    -0.091 OA 
HETATM    2  C   UNL     1      -6.950   9.018  64.495  1.00  0.00    -0.089 C  
HETATM    3  C   UNL     1      -7.299   7.538  64.516  1.00  0.00    -0.087 C  
HETATM    4  O   UNL     1      -6.519   9.608  63.515  1.00  0.00    -0.100 OA 
ENDROOT
BRANCH   3   5
HETATM    5  O   UNL     1      -7.683   7.128  65.837  1.00  0.00    -0.092 OA 
BRANCH   5   6
HETATM    6  C   UNL     1      -8.974   6.489  65.856  1.00  0.00    -0.085 C  
BRANCH   6   7
HETATM    7  C   UNL     1      -9.037   5.303  66.845  1.00  0.00    -0.113 C  
BRANCH   7   8
HETATM    8  N   UNL     1     -10.181   5.318  67.777  1.00  0.00    -0.173 NA 
HETATM    9  C   UNL     1      -9.784   5.064  69.180  1.00  0.00    -0.173 C  
HETATM   10  C   UNL     1      -9.071   6.250  69.880  1.00  0.00    -0.144 C  
HETATM   11  N   UNL     1      -9.830   7.526  69.866  1.00  0.00    -0.185 NA 
HETATM   12  C   UNL     1     -10.195   7.794  68.453  1.00  0.00    -0.200 C  
HETATM   13  C   UNL     1     -10.889   6.621  67.711  1.00  0.00    -0.294 C  
BRANCH  11  14
HETATM   14  C   UNL     1     -11.011   7.478  70.786  1.00  0.00    -0.252 C  
BRANCH  14  15
HETATM   15  C   UNL     1     -10.702   6.694  72.075  1.00  0.00    -0.247 A  
HETATM   16  C   UNL     1      -9.831   7.239  73.037  1.00  0.00    -0.254 A  
HETATM   17  C   UNL     1     -11.340   5.477  72.378  1.00  0.00    -0.294 A  
HETATM   18  C   UNL     1      -9.630   6.602  74.266  1.00  0.00    -0.296 A  
HETATM   19  C   UNL     1     -10.275   5.401  74.546  1.00  0.00    -0.293 A  
HETATM   20  C   UNL     1     -11.120   4.832  73.598  1.00  0.00    -0.380 A  
ENDBRANCH  14  15
BRANCH  14  21
HETATM   21  C   UNL     1     -11.616   8.862  71.076  1.00  0.00    -0.347 A  
HETATM   22  C   UNL     1     -12.873  11.341  71.534  1.00  0.00    -0.414 A  
HETATM   23 CL   UNL     1     -13.661  12.848  71.787  1.00  0.00    -0.357 Cl 
HETATM   24  C   UNL     1     -11.791  11.262  70.662  1.00  0.00    -0.368 A  
HETATM   25  C   UNL     1     -12.702   8.972  71.967  1.00  0.00    -0.467 A  
HETATM   26  C   UNL     1     -11.173  10.029  70.429  1.00  0.00    -0.393 A  
HETATM   27  C   UNL     1     -13.331  10.201  72.188  1.00  0.00    -0.431 A  
ENDBRANCH  14  21
ENDBRANCH  11  14
ENDBRANCH   7   8
ENDBRANCH   6   7
ENDBRANCH   5   6
ENDBRANCH   3   5
TORSDOF 7
ENDMDL
MODEL       90
REMARK 921   NORMALIZED FREE ENERGY PREDICTED BY IDOCK:   -4.35 KCAL/MOL
REMARK 922        TOTAL FREE ENERGY PREDICTED BY IDOCK:   -6.82 KCAL/MOL
REMARK 923 INTER-LIGAND FREE ENERGY PREDICTED BY IDOCK:   -6.30 KCAL/MOL
REMARK 924 INTRA-LIGAND FREE ENERGY PREDICTED BY IDOCK:   -0.52 KCAL/MOL
REMARK 927      BINDING AFFINITY PREDICTED BY RF-SCORE:    0.00 PKD
ROOT
HETATM    1  O   UNL     1      -8.232   4.691  71.622  1.00  0.00    -0.099 OA 
HETATM    2  C   UNL     1      -8.939   4.612  70.467  1.00  0.00    -0.109 C  
HETATM    3  C   UNL     1      -8.446   5.594  69.415  1.00  0.00    -0.106 C  
HETATM    4  O   UNL     1      -9.869   3.836  70.300  1.00  0.00    -0.190 OA 
ENDROOT
BRANCH   3   5
HETATM    5  O   UNL     1      -7.410   6.430  69.951  1.00  0.00    -0.078 OA 
BRANCH   5   6
HETATM    6  C   UNL     1      -7.650   7.828  69.693  1.00  0.00    -0.092 C  
BRANCH   6   7
HETATM    7  C   UNL     1      -8.735   8.058  68.618  1.00  0.00    -0.131 C  
BRANCH   7   8
HETATM    8  N   UNL     1      -8.397   9.052  67.581  1.00  0.00    -0.116 NA 
HETATM    9  C   UNL     1      -9.549   9.402  66.721  1.00  0.00    -0.179 C  
HETATM   10  C   UNL     1     -10.608  10.316  67.391  1.00  0.00    -0.270 C  
HETATM   11  N   UNL     1     -10.072  11.587  67.941  1.00  0.00    -0.184 NA 
HETATM   12  C   UNL     1      -8.940  11.227  68.830  1.00  0.00    -0.111 C  
HETATM   13  C   UNL     1      -7.872  10.293  68.203  1.00  0.00    -0.104 C  
BRANCH  11  14
HETATM   14  C   UNL     1      -9.693  12.545  66.854  1.00  0.00    -0.232 C  
BRANCH  14  15
HETATM   15  C   UNL     1     -10.603  12.401  65.619  1.00  0.00    -0.297 A  
HETATM   16  C   UNL     1     -11.951  12.802  65.691  1.00  0.00    -0.503 A  
HETATM   17  C   UNL     1     -10.111  11.966  64.376  1.00  0.00    -0.310 A  
HETATM   18  C   UNL     1     -12.763  12.795  64.552  1.00  0.00    -0.405 A  
HETATM   19  C   UNL     1     -12.253  12.364  63.331  1.00  0.00    -0.623 A  
HETATM   20  C   UNL     1     -10.931  11.938  63.245  1.00  0.00    -0.399 A  
ENDBRANCH  14  15
BRANCH  14  21
HETATM   21  C   UNL     1      -9.585  14.002  67.333  1.00  0.00    -0.227 A  
HETATM   22  C   UNL     1      -9.216  16.661  68.187  1.00  0.00    -0.220 A  
HETATM   23 CL   UNL     1      -8.959  18.276  68.718  1.00  0.00    -0.283 Cl 
HETATM   24  C   UNL     1      -9.682  15.703  69.082  1.00  0.00    -0.249 A  
HETATM   25  C   UNL     1      -9.132  14.994  66.442  1.00  0.00    -0.312 A  
HETATM   26  C   UNL     1      -9.857  14.381  68.660  1.00  0.00    -0.231 A  
HETATM   27  C   UNL     1      -8.941  16.313  66.867  1.00  0.00    -0.242 A  
ENDBRANCH  14  21
ENDBRANCH  11  14
ENDBRANCH   7   8
ENDBRANCH   6   7
ENDBRANCH   5   6
ENDBRANCH   3   5
TORSDOF 7
ENDMDL
MODEL       91
REMARK 921   NORMALIZED FREE ENERGY PREDICTED BY IDOCK:   -4.35 KCAL/MOL
REMARK 922        TOTAL FREE ENERGY PREDICTED BY IDOCK:   -6.81 KCAL/MOL
REMARK 923 INTER-LIGAND FREE ENERGY PREDICTED BY IDOCK:   -5.99 KCAL/MOL
REMARK 924 INTRA-LIGAND FREE ENERGY PREDICTED BY IDOCK:   -0.82 KCAL/MOL
REMARK 927      BINDING AFFINITY PREDICTED BY RF-SCORE:    0.00 PKD
ROOT
HETATM    1  O   UNL     1     -10.411  19.621  67.535  1.00  0.00    -0.422 OA 
HETATM    2  C   UNL     1      -9.153  19.119  67.473  1.00  0.00    -0.294 C  
HETATM    3  C   UNL     1      -9.136  17.625  67.188  1.00  0.00    -0.244 C  
HETATM    4  O   UNL     1      -8.150  19.799  67.632  1.00  0.00    -0.281 OA 
ENDROOT
BRANCH   3   5
HETATM    5  O   UNL     1     -10.472  17.103  67.152  1.00  0.00    -0.319 OA 
BRANCH   5   6
HETATM    6  C   UNL     1     -10.727  16.340  65.957  1.00  0.00    -0.214 C  
BRANCH   6   7
HETATM    7  C   UNL     1     -10.991  14.845  66.249  1.00  0.00    -0.338 C  
BRANCH   7   8
HETATM    8  N   UNL     1      -9.873  13.934  65.936  1.00  0.00    -0.291 NA 
HETATM    9  C   UNL     1      -9.008  13.660  67.105  1.00  0.00    -0.231 C  
HETATM   10  C   UNL     1      -9.622  12.703  68.159  1.00  0.00    -0.219 C  
HETATM   11  N   UNL     1     -10.060  11.389  67.623  1.00  0.00    -0.178 NA 
HETATM   12  C   UNL     1     -10.954  11.670  66.474  1.00  0.00    -0.299 C  
HETATM   13  C   UNL     1     -10.384  12.644  65.409  1.00  0.00    -0.291 C  
BRANCH  11  14
HETATM   14  C   UNL     1      -8.894  10.518  67.270  1.00  0.00    -0.136 C  
BRANCH  14  15
HETATM   15  C   UNL     1      -7.784  10.586  68.336  1.00  0.00    -0.104 A  
HETATM   16  C   UNL     1      -7.996  10.021  69.608  1.00  0.00    -0.176 A  
HETATM   17  C   UNL     1      -6.511  11.115  68.055  1.00  0.00    -0.057 A  
HETATM   18  C   UNL     1      -6.964   9.963  70.549  1.00  0.00    -0.118 A  
HETATM   19  C   UNL     1      -5.711  10.489  70.248  1.00  0.00    -0.079 A  
HETATM   20  C   UNL     1      -5.488  11.076  69.006  1.00  0.00    -0.040 A  
ENDBRANCH  14  15
BRANCH  14  21
HETATM   21  C   UNL     1      -9.291   9.071  66.933  1.00  0.00    -0.203 A  
HETATM   22  C   UNL     1     -10.009   6.385  66.485  1.00  0.00    -0.103 A  
HETATM   23 CL   UNL     1     -10.431   4.736  66.240  1.00  0.00    -0.333 Cl 
HETATM   24  C   UNL     1      -8.803   6.872  65.991  1.00  0.00    -0.154 A  
HETATM   25  C   UNL     1     -10.514   8.558  67.407  1.00  0.00    -0.351 A  
HETATM   26  C   UNL     1      -8.443   8.204  66.221  1.00  0.00    -0.136 A  
HETATM   27  C   UNL     1     -10.867   7.222  67.192  1.00  0.00    -0.378 A  
ENDBRANCH  14  21
ENDBRANCH  11  14
ENDBRANCH   7   8
ENDBRANCH   6   7
ENDBRANCH   5   6
ENDBRANCH   3   5
TORSDOF 7
ENDMDL
MODEL       92
REMARK 921   NORMALIZED FREE ENERGY PREDICTED BY IDOCK:   -4.34 KCAL/MOL
REMARK 922        TOTAL FREE ENERGY PREDICTED BY IDOCK:   -6.80 KCAL/MOL
REMARK 923 INTER-LIGAND FREE ENERGY PREDICTED BY IDOCK:   -6.08 KCAL/MOL
REMARK 924 INTRA-LIGAND FREE ENERGY PREDICTED BY IDOCK:   -0.72 KCAL/MOL
REMARK 927      BINDING AFFINITY PREDICTED BY RF-SCORE:    0.00 PKD
ROOT
HETATM    1  O   UNL     1     -11.382   7.745  72.840  1.00  0.00    -0.387 OA 
HETATM    2  C   UNL     1     -11.265   6.402  72.690  1.00  0.00    -0.255 C  
HETATM    3  C   UNL     1      -9.924   5.877  73.180  1.00  0.00    -0.177 C  
HETATM    4  O   UNL     1     -12.144   5.700  72.213  1.00  0.00    -0.165 OA 
ENDROOT
BRANCH   3   5
HETATM    5  O   UNL     1      -9.077   6.961  73.591  1.00  0.00    -0.136 OA 
BRANCH   5   6
HETATM    6  C   UNL     1      -7.896   7.070  72.772  1.00  0.00    -0.098 C  
BRANCH   6   7
HETATM    7  C   UNL     1      -7.709   8.485  72.180  1.00  0.00    -0.078 C  
BRANCH   7   8
HETATM    8  N   UNL     1      -7.355   8.530  70.749  1.00  0.00    -0.059 NA 
HETATM    9  C   UNL     1      -7.904   7.388  69.983  1.00  0.00    -0.104 C  
HETATM   10  C   UNL     1      -9.429   7.462  69.709  1.00  0.00    -0.159 C  
HETATM   11  N   UNL     1      -9.877   8.702  69.025  1.00  0.00    -0.177 NA 
HETATM   12  C   UNL     1      -9.353   9.842  69.816  1.00  0.00    -0.221 C  
HETATM   13  C   UNL     1      -7.835   9.792  70.132  1.00  0.00    -0.183 C  
BRANCH  11  14
HETATM   14  C   UNL     1      -9.450   8.728  67.590  1.00  0.00    -0.141 C  
BRANCH  14  15
HETATM   15  C   UNL     1      -9.622   7.354  66.915  1.00  0.00    -0.240 A  
HETATM   16  C   UNL     1      -8.499   6.677  66.403  1.00  0.00    -0.125 A  
HETATM   17  C   UNL     1     -10.864   6.694  66.873  1.00  0.00    -0.415 A  
HETATM   18  C   UNL     1      -8.613   5.379  65.896  1.00  0.00    -0.131 A  
HETATM   19  C   UNL     1      -9.852   4.744  65.868  1.00  0.00    -0.225 A  
HETATM   20  C   UNL     1     -10.979   5.406  66.345  1.00  0.00    -0.082 A  
ENDBRANCH  14  15
BRANCH  14  21
HETATM   21  C   UNL     1     -10.100   9.862  66.779  1.00  0.00    -0.292 A  
HETATM   22  C   UNL     1     -11.133  12.008  65.276  1.00  0.00    -0.317 A  
HETATM   23 CL   UNL     1     -11.736  13.338  64.369  1.00  0.00    -0.407 Cl 
HETATM   24  C   UNL     1     -11.490  11.862  66.613  1.00  0.00    -0.382 A  
HETATM   25  C   UNL     1      -9.768  10.021  65.419  1.00  0.00    -0.368 A  
HETATM   26  C   UNL     1     -10.970  10.801  67.361  1.00  0.00    -0.361 A  
HETATM   27  C   UNL     1     -10.274  11.092  64.675  1.00  0.00    -0.392 A  
ENDBRANCH  14  21
ENDBRANCH  11  14
ENDBRANCH   7   8
ENDBRANCH   6   7
ENDBRANCH   5   6
ENDBRANCH   3   5
TORSDOF 7
ENDMDL
MODEL       93
REMARK 921   NORMALIZED FREE ENERGY PREDICTED BY IDOCK:   -4.34 KCAL/MOL
REMARK 922        TOTAL FREE ENERGY PREDICTED BY IDOCK:   -6.79 KCAL/MOL
REMARK 923 INTER-LIGAND FREE ENERGY PREDICTED BY IDOCK:   -9.54 KCAL/MOL
REMARK 924 INTRA-LIGAND FREE ENERGY PREDICTED BY IDOCK:    2.75 KCAL/MOL
REMARK 927      BINDING AFFINITY PREDICTED BY RF-SCORE:    0.00 PKD
ROOT
HETATM    1  O   UNL     1     -11.800  16.480  72.402  1.00  0.00    -0.532 OA 
HETATM    2  C   UNL     1     -12.754  16.154  73.309  1.00  0.00    -0.504 C  
HETATM    3  C   UNL     1     -13.869  15.315  72.705  1.00  0.00    -0.487 C  
HETATM    4  O   UNL     1     -12.714  16.503  74.480  1.00  0.00    -0.724 OA 
ENDROOT
BRANCH   3   5
HETATM    5  O   UNL     1     -13.675  15.161  71.291  1.00  0.00    -0.444 OA 
BRANCH   5   6
HETATM    6  C   UNL     1     -13.555  13.777  70.905  1.00  0.00     0.169 C  
BRANCH   6   7
HETATM    7  C   UNL     1     -12.257  13.489  70.118  1.00  0.00    -0.330 C  
BRANCH   7   8
HETATM    8  N   UNL     1     -12.153  14.157  68.806  1.00  0.00    -0.327 NA 
HETATM    9  C   UNL     1     -11.174  15.267  68.801  1.00  0.00    -0.287 C  
HETATM   10  C   UNL     1      -9.688  14.824  68.804  1.00  0.00    -0.222 C  
HETATM   11  N   UNL     1      -9.312  13.907  67.699  1.00  0.00    -0.198 NA 
HETATM   12  C   UNL     1     -10.275  12.778  67.731  1.00  0.00    -0.223 C  
HETATM   13  C   UNL     1     -11.773  13.182  67.754  1.00  0.00    -0.358 C  
BRANCH  11  14
HETATM   14  C   UNL     1      -9.271  14.615  66.380  1.00  0.00    -0.249 C  
BRANCH  14  15
HETATM   15  C   UNL     1     -10.306  14.047  65.391  1.00  0.00    -0.377 A  
HETATM   16  C   UNL     1     -11.492  14.760  65.131  1.00  0.00    -0.371 A  
HETATM   17  C   UNL     1     -10.068  12.873  64.654  1.00  0.00    -0.254 A  
HETATM   18  C   UNL     1     -12.389  14.326  64.149  1.00  0.00    -0.361 A  
HETATM   19  C   UNL     1     -12.131  13.163  63.430  1.00  0.00    -0.558 A  
HETATM   20  C   UNL     1     -10.977  12.430  63.690  1.00  0.00    -0.525 A  
ENDBRANCH  14  15
BRANCH  14  21
HETATM   21  C   UNL     1      -9.361  16.146  66.504  1.00  0.00    -0.296 A  
HETATM   22  C   UNL     1      -9.562  18.927  66.902  1.00  0.00    -0.314 A  
HETATM   23 CL   UNL     1      -9.706  20.619  67.171  1.00  0.00    -0.587 Cl 
HETATM   24  C   UNL     1     -10.484  18.273  66.090  1.00  0.00    -0.403 A  
HETATM   25  C   UNL     1      -8.430  16.833  67.307  1.00  0.00    -0.202 A  
HETATM   26  C   UNL     1     -10.389  16.891  65.900  1.00  0.00    -0.327 A  
HETATM   27  C   UNL     1      -8.534  18.213  67.511  1.00  0.00    -0.248 A  
ENDBRANCH  14  21
ENDBRANCH  11  14
ENDBRANCH   7   8
ENDBRANCH   6   7
ENDBRANCH   5   6
ENDBRANCH   3   5
TORSDOF 7
ENDMDL
MODEL       94
REMARK 921   NORMALIZED FREE ENERGY PREDICTED BY IDOCK:   -4.28 KCAL/MOL
REMARK 922        TOTAL FREE ENERGY PREDICTED BY IDOCK:   -6.71 KCAL/MOL
REMARK 923 INTER-LIGAND FREE ENERGY PREDICTED BY IDOCK:   -5.72 KCAL/MOL
REMARK 924 INTRA-LIGAND FREE ENERGY PREDICTED BY IDOCK:   -0.99 KCAL/MOL
REMARK 927      BINDING AFFINITY PREDICTED BY RF-SCORE:    0.00 PKD
ROOT
HETATM    1  O   UNL     1      -8.968   7.742  72.284  1.00  0.00    -0.127 OA 
HETATM    2  C   UNL     1      -9.482   6.576  72.748  1.00  0.00    -0.142 C  
HETATM    3  C   UNL     1     -10.763   6.179  72.030  1.00  0.00    -0.233 C  
HETATM    4  O   UNL     1      -8.968   5.925  73.646  1.00  0.00    -0.128 OA 
ENDROOT
BRANCH   3   5
HETATM    5  O   UNL     1     -11.157   7.199  71.100  1.00  0.00    -0.245 OA 
BRANCH   5   6
HETATM    6  C   UNL     1     -11.296   6.690  69.759  1.00  0.00    -0.354 C  
BRANCH   6   7
HETATM    7  C   UNL     1      -9.953   6.654  68.994  1.00  0.00    -0.153 C  
BRANCH   7   8
HETATM    8  N   UNL     1      -9.267   7.953  68.863  1.00  0.00    -0.144 NA 
HETATM    9  C   UNL     1      -8.185   7.935  67.853  1.00  0.00    -0.129 C  
HETATM   10  C   UNL     1      -8.669   7.931  66.380  1.00  0.00    -0.153 C  
HETATM   11  N   UNL     1      -9.579   9.050  66.024  1.00  0.00    -0.267 NA 
HETATM   12  C   UNL     1     -10.680   9.042  67.019  1.00  0.00    -0.114 C  
HETATM   13  C   UNL     1     -10.234   9.020  68.505  1.00  0.00    -0.200 C  
BRANCH  11  14
HETATM   14  C   UNL     1      -8.850  10.356  65.955  1.00  0.00    -0.163 C  
BRANCH  14  15
HETATM   15  C   UNL     1      -7.545  10.242  65.144  1.00  0.00    -0.133 A  
HETATM   16  C   UNL     1      -7.585   9.809  63.805  1.00  0.00    -0.131 A  
HETATM   17  C   UNL     1      -6.304  10.650  65.667  1.00  0.00    -0.103 A  
HETATM   18  C   UNL     1      -6.432   9.813  63.014  1.00  0.00    -0.113 A  
HETATM   19  C   UNL     1      -5.216  10.225  63.552  1.00  0.00    -0.127 A  
HETATM   20  C   UNL     1      -5.149  10.632  64.880  1.00  0.00    -0.150 A  
ENDBRANCH  14  15
BRANCH  14  21
HETATM   21  C   UNL     1      -9.731  11.524  65.480  1.00  0.00    -0.259 A  
HETATM   22  C   UNL     1     -11.432  13.651  64.762  1.00  0.00    -0.352 A  
HETATM   23 CL   UNL     1     -12.494  14.937  64.344  1.00  0.00    -0.383 Cl 
HETATM   24  C   UNL     1     -11.470  12.460  64.044  1.00  0.00    -0.479 A  
HETATM   25  C   UNL     1      -9.699  12.747  66.179  1.00  0.00    -0.246 A  
HETATM   26  C   UNL     1     -10.631  11.401  64.407  1.00  0.00    -0.403 A  
HETATM   27  C   UNL     1     -10.549  13.800  65.828  1.00  0.00    -0.294 A  
ENDBRANCH  14  21
ENDBRANCH  11  14
ENDBRANCH   7   8
ENDBRANCH   6   7
ENDBRANCH   5   6
ENDBRANCH   3   5
TORSDOF 7
ENDMDL
MODEL       95
REMARK 921   NORMALIZED FREE ENERGY PREDICTED BY IDOCK:   -4.26 KCAL/MOL
REMARK 922        TOTAL FREE ENERGY PREDICTED BY IDOCK:   -6.69 KCAL/MOL
REMARK 923 INTER-LIGAND FREE ENERGY PREDICTED BY IDOCK:   -5.88 KCAL/MOL
REMARK 924 INTRA-LIGAND FREE ENERGY PREDICTED BY IDOCK:   -0.81 KCAL/MOL
REMARK 927      BINDING AFFINITY PREDICTED BY RF-SCORE:    0.00 PKD
ROOT
HETATM    1  O   UNL     1      -6.966   9.339  71.522  1.00  0.00    -0.283 OA 
HETATM    2  C   UNL     1      -7.116   8.198  72.240  1.00  0.00    -0.091 C  
HETATM    3  C   UNL     1      -8.565   7.936  72.620  1.00  0.00    -0.153 C  
HETATM    4  O   UNL     1      -6.183   7.469  72.544  1.00  0.00    -0.046 OA 
ENDROOT
BRANCH   3   5
HETATM    5  O   UNL     1      -9.402   9.025  72.201  1.00  0.00    -0.356 OA 
BRANCH   5   6
HETATM    6  C   UNL     1     -10.693   8.575  71.746  1.00  0.00    -0.303 C  
BRANCH   6   7
HETATM    7  C   UNL     1     -10.945   8.898  70.255  1.00  0.00    -0.241 C  
BRANCH   7   8
HETATM    8  N   UNL     1      -9.791   9.459  69.528  1.00  0.00    -0.174 NA 
HETATM    9  C   UNL     1      -9.739   9.032  68.111  1.00  0.00    -0.152 C  
HETATM   10  C   UNL     1     -10.780   9.715  67.187  1.00  0.00    -0.188 C  
HETATM   11  N   UNL     1     -10.738  11.199  67.196  1.00  0.00    -0.245 NA 
HETATM   12  C   UNL     1     -10.826  11.623  68.615  1.00  0.00    -0.213 C  
HETATM   13  C   UNL     1      -9.816  10.943  69.577  1.00  0.00     0.068 C  
BRANCH  11  14
HETATM   14  C   UNL     1      -9.525  11.724  66.493  1.00  0.00    -0.214 C  
BRANCH  14  15
HETATM   15  C   UNL     1      -9.329  11.063  65.116  1.00  0.00    -0.249 A  
HETATM   16  C   UNL     1     -10.341  11.155  64.143  1.00  0.00    -0.423 A  
HETATM   17  C   UNL     1      -8.120  10.441  64.752  1.00  0.00    -0.124 A  
HETATM   18  C   UNL     1     -10.138  10.668  62.847  1.00  0.00    -0.062 A  
HETATM   19  C   UNL     1      -8.933  10.060  62.509  1.00  0.00    -0.285 A  
HETATM   20  C   UNL     1      -7.929   9.936  63.464  1.00  0.00    -0.155 A  
ENDBRANCH  14  15
BRANCH  14  21
HETATM   21  C   UNL     1      -9.479  13.260  66.415  1.00  0.00    -0.225 A  
HETATM   22  C   UNL     1      -9.450  16.076  66.436  1.00  0.00    -0.293 A  
HETATM   23 CL   UNL     1      -9.456  17.795  66.474  1.00  0.00    -0.292 Cl 
HETATM   24  C   UNL     1     -10.347  15.398  65.617  1.00  0.00    -0.395 A  
HETATM   25  C   UNL     1      -8.570  13.970  67.222  1.00  0.00    -0.228 A  
HETATM   26  C   UNL     1     -10.367  13.999  65.613  1.00  0.00    -0.342 A  
HETATM   27  C   UNL     1      -8.560  15.368  67.240  1.00  0.00    -0.216 A  
ENDBRANCH  14  21
ENDBRANCH  11  14
ENDBRANCH   7   8
ENDBRANCH   6   7
ENDBRANCH   5   6
ENDBRANCH   3   5
TORSDOF 7
ENDMDL
MODEL       96
REMARK 921   NORMALIZED FREE ENERGY PREDICTED BY IDOCK:   -4.25 KCAL/MOL
REMARK 922        TOTAL FREE ENERGY PREDICTED BY IDOCK:   -6.68 KCAL/MOL
REMARK 923 INTER-LIGAND FREE ENERGY PREDICTED BY IDOCK:   -6.83 KCAL/MOL
REMARK 924 INTRA-LIGAND FREE ENERGY PREDICTED BY IDOCK:    0.16 KCAL/MOL
REMARK 927      BINDING AFFINITY PREDICTED BY RF-SCORE:    0.00 PKD
ROOT
HETATM    1  O   UNL     1     -13.992  15.727  72.773  1.00  0.00    -0.590 OA 
HETATM    2  C   UNL     1     -13.699  14.462  72.382  1.00  0.00    -0.490 C  
HETATM    3  C   UNL     1     -12.437  14.393  71.535  1.00  0.00    -0.355 C  
HETATM    4  O   UNL     1     -14.380  13.492  72.681  1.00  0.00    -0.716 OA 
ENDROOT
BRANCH   3   5
HETATM    5  O   UNL     1     -11.927  15.710  71.281  1.00  0.00    -0.338 OA 
BRANCH   5   6
HETATM    6  C   UNL     1     -12.036  16.079  69.892  1.00  0.00    -0.173 C  
BRANCH   6   7
HETATM    7  C   UNL     1     -10.737  16.708  69.339  1.00  0.00    -0.331 C  
BRANCH   7   8
HETATM    8  N   UNL     1     -10.258  16.147  68.061  1.00  0.00    -0.246 NA 
HETATM    9  C   UNL     1      -8.793  15.937  68.037  1.00  0.00    -0.178 C  
HETATM   10  C   UNL     1      -8.295  14.726  68.869  1.00  0.00    -0.163 C  
HETATM   11  N   UNL     1      -8.927  13.430  68.517  1.00  0.00    -0.125 NA 
HETATM   12  C   UNL     1     -10.395  13.637  68.577  1.00  0.00    -0.243 C  
HETATM   13  C   UNL     1     -10.929  14.854  67.777  1.00  0.00    -0.293 C  
BRANCH  11  14
HETATM   14  C   UNL     1      -8.452  12.924  67.190  1.00  0.00    -0.179 C  
BRANCH  14  15
HETATM   15  C   UNL     1      -7.531  11.698  67.339  1.00  0.00    -0.135 A  
HETATM   16  C   UNL     1      -7.466  11.015  68.568  1.00  0.00    -0.106 A  
HETATM   17  C   UNL     1      -6.813  11.168  66.252  1.00  0.00    -0.055 A  
HETATM   18  C   UNL     1      -6.732   9.831  68.694  1.00  0.00    -0.051 A  
HETATM   19  C   UNL     1      -6.032   9.323  67.603  1.00  0.00    -0.053 A  
HETATM   20  C   UNL     1      -6.063   9.996  66.386  1.00  0.00    -0.067 A  
ENDBRANCH  14  15
BRANCH  14  21
HETATM   21  C   UNL     1      -9.591  12.679  66.185  1.00  0.00    -0.222 A  
HETATM   22  C   UNL     1     -11.580  12.104  64.276  1.00  0.00    -0.370 A  
HETATM   23 CL   UNL     1     -12.770  11.740  63.090  1.00  0.00    -0.466 Cl 
HETATM   24  C   UNL     1     -10.924  13.330  64.246  1.00  0.00    -0.418 A  
HETATM   25  C   UNL     1     -10.282  11.452  66.205  1.00  0.00    -0.274 A  
HETATM   26  C   UNL     1      -9.930  13.612  65.189  1.00  0.00    -0.218 A  
HETATM   27  C   UNL     1     -11.264  11.163  65.252  1.00  0.00     0.019 A  
ENDBRANCH  14  21
ENDBRANCH  11  14
ENDBRANCH   7   8
ENDBRANCH   6   7
ENDBRANCH   5   6
ENDBRANCH   3   5
TORSDOF 7
ENDMDL
MODEL       97
REMARK 921   NORMALIZED FREE ENERGY PREDICTED BY IDOCK:   -4.25 KCAL/MOL
REMARK 922        TOTAL FREE ENERGY PREDICTED BY IDOCK:   -6.67 KCAL/MOL
REMARK 923 INTER-LIGAND FREE ENERGY PREDICTED BY IDOCK:   -6.73 KCAL/MOL
REMARK 924 INTRA-LIGAND FREE ENERGY PREDICTED BY IDOCK:    0.05 KCAL/MOL
REMARK 927      BINDING AFFINITY PREDICTED BY RF-SCORE:    0.00 PKD
ROOT
HETATM    1  O   UNL     1      -8.371   3.155  67.556  1.00  0.00    -0.080 OA 
HETATM    2  C   UNL     1      -8.913   3.222  68.798  1.00  0.00    -0.131 C  
HETATM    3  C   UNL     1      -8.780   4.605  69.416  1.00  0.00    -0.082 C  
HETATM    4  O   UNL     1      -9.446   2.271  69.351  1.00  0.00    -0.117 OA 
ENDROOT
BRANCH   3   5
HETATM    5  O   UNL     1      -8.021   5.471  68.559  1.00  0.00    -0.088 OA 
BRANCH   5   6
HETATM    6  C   UNL     1      -8.793   6.600  68.103  1.00  0.00    -0.119 C  
BRANCH   6   7
HETATM    7  C   UNL     1      -8.014   7.491  67.109  1.00  0.00    -0.117 C  
BRANCH   7   8
HETATM    8  N   UNL     1      -7.981   8.928  67.442  1.00  0.00    -0.101 NA 
HETATM    9  C   UNL     1      -8.466   9.787  66.339  1.00  0.00    -0.124 C  
HETATM   10  C   UNL     1     -10.003   9.770  66.129  1.00  0.00    -0.268 C  
HETATM   11  N   UNL     1     -10.797  10.118  67.334  1.00  0.00    -0.280 NA 
HETATM   12  C   UNL     1     -10.331   9.230  68.427  1.00  0.00    -0.209 C  
HETATM   13  C   UNL     1      -8.796   9.201  68.652  1.00  0.00    -0.133 C  
BRANCH  11  14
HETATM   14  C   UNL     1     -10.692  11.575  67.665  1.00  0.00    -0.211 C  
BRANCH  14  15
HETATM   15  C   UNL     1     -10.992  12.464  66.444  1.00  0.00    -0.315 A  
HETATM   16  C   UNL     1      -9.983  13.288  65.910  1.00  0.00    -0.280 A  
HETATM   17  C   UNL     1     -12.226  12.415  65.770  1.00  0.00    -0.277 A  
HETATM   18  C   UNL     1     -10.194  14.011  64.732  1.00  0.00    -0.332 A  
HETATM   19  C   UNL     1     -11.422  13.944  64.081  1.00  0.00    -0.270 A  
HETATM   20  C   UNL     1     -12.442  13.156  64.606  1.00  0.00    -0.433 A  
ENDBRANCH  14  15
BRANCH  14  21
HETATM   21  C   UNL     1     -11.515  11.983  68.899  1.00  0.00    -0.356 A  
HETATM   22  C   UNL     1     -12.875  12.783  71.232  1.00  0.00    -0.262 A  
HETATM   23 CL   UNL     1     -13.675  13.268  72.675  1.00  0.00    -0.591 Cl 
HETATM   24  C   UNL     1     -12.822  11.436  70.888  1.00  0.00    -0.323 A  
HETATM   25  C   UNL     1     -11.598  13.341  69.260  1.00  0.00    -0.370 A  
HETATM   26  C   UNL     1     -12.139  11.038  69.734  1.00  0.00    -0.424 A  
HETATM   27  C   UNL     1     -12.266  13.739  70.423  1.00  0.00    -0.433 A  
ENDBRANCH  14  21
ENDBRANCH  11  14
ENDBRANCH   7   8
ENDBRANCH   6   7
ENDBRANCH   5   6
ENDBRANCH   3   5
TORSDOF 7
ENDMDL
MODEL       98
REMARK 921   NORMALIZED FREE ENERGY PREDICTED BY IDOCK:   -4.24 KCAL/MOL
REMARK 922        TOTAL FREE ENERGY PREDICTED BY IDOCK:   -6.66 KCAL/MOL
REMARK 923 INTER-LIGAND FREE ENERGY PREDICTED BY IDOCK:   -6.00 KCAL/MOL
REMARK 924 INTRA-LIGAND FREE ENERGY PREDICTED BY IDOCK:   -0.66 KCAL/MOL
REMARK 927      BINDING AFFINITY PREDICTED BY RF-SCORE:    0.00 PKD
ROOT
HETATM    1  O   UNL     1     -11.407   6.117  69.470  1.00  0.00    -0.418 OA 
HETATM    2  C   UNL     1     -10.760   5.387  70.413  1.00  0.00    -0.206 C  
HETATM    3  C   UNL     1     -11.082   5.847  71.826  1.00  0.00    -0.265 C  
HETATM    4  O   UNL     1     -10.004   4.465  70.146  1.00  0.00    -0.221 OA 
ENDROOT
BRANCH   3   5
HETATM    5  O   UNL     1     -11.921   7.011  71.800  1.00  0.00    -0.294 OA 
BRANCH   5   6
HETATM    6  C   UNL     1     -11.266   8.168  72.357  1.00  0.00    -0.386 C  
BRANCH   6   7
HETATM    7  C   UNL     1      -9.737   8.153  72.132  1.00  0.00    -0.244 C  
BRANCH   7   8
HETATM    8  N   UNL     1      -9.199   9.300  71.376  1.00  0.00    -0.296 NA 
HETATM    9  C   UNL     1      -8.022   8.945  70.551  1.00  0.00    -0.126 C  
HETATM   10  C   UNL     1      -8.346   8.128  69.273  1.00  0.00    -0.130 C  
HETATM   11  N   UNL     1      -9.338   8.760  68.368  1.00  0.00    -0.137 NA 
HETATM   12  C   UNL     1     -10.529   9.082  69.192  1.00  0.00    -0.225 C  
HETATM   13  C   UNL     1     -10.243   9.878  70.493  1.00  0.00    -0.191 C  
BRANCH  11  14
HETATM   14  C   UNL     1      -8.766   9.951  67.662  1.00  0.00    -0.121 C  
BRANCH  14  15
HETATM   15  C   UNL     1      -7.800   9.539  66.534  1.00  0.00    -0.101 A  
HETATM   16  C   UNL     1      -8.080   8.404  65.750  1.00  0.00    -0.117 A  
HETATM   17  C   UNL     1      -6.680  10.317  66.190  1.00  0.00    -0.110 A  
HETATM   18  C   UNL     1      -7.284   8.080  64.646  1.00  0.00    -0.079 A  
HETATM   19  C   UNL     1      -6.183   8.868  64.322  1.00  0.00    -0.071 A  
HETATM   20  C   UNL     1      -5.873   9.979  65.101  1.00  0.00    -0.101 A  
ENDBRANCH  14  15
BRANCH  14  21
HETATM   21  C   UNL     1      -9.833  10.948  67.180  1.00  0.00    -0.213 A  
HETATM   22  C   UNL     1     -11.680  12.817  66.167  1.00  0.00    -0.403 A  
HETATM   23 CL   UNL     1     -12.782  13.976  65.534  1.00  0.00    -0.554 Cl 
HETATM   24  C   UNL     1     -11.094  13.026  67.411  1.00  0.00    -0.302 A  
HETATM   25  C   UNL     1     -10.453  10.751  65.931  1.00  0.00    -0.270 A  
HETATM   26  C   UNL     1     -10.170  12.101  67.910  1.00  0.00    -0.203 A  
HETATM   27  C   UNL     1     -11.364  11.683  65.423  1.00  0.00    -0.218 A  
ENDBRANCH  14  21
ENDBRANCH  11  14
ENDBRANCH   7   8
ENDBRANCH   6   7
ENDBRANCH   5   6
ENDBRANCH   3   5
TORSDOF 7
ENDMDL
MODEL       99
REMARK 921   NORMALIZED FREE ENERGY PREDICTED BY IDOCK:   -4.23 KCAL/MOL
REMARK 922        TOTAL FREE ENERGY PREDICTED BY IDOCK:   -6.64 KCAL/MOL
REMARK 923 INTER-LIGAND FREE ENERGY PREDICTED BY IDOCK:   -6.75 KCAL/MOL
REMARK 924 INTRA-LIGAND FREE ENERGY PREDICTED BY IDOCK:    0.11 KCAL/MOL
REMARK 927      BINDING AFFINITY PREDICTED BY RF-SCORE:    0.00 PKD
ROOT
HETATM    1  O   UNL     1      -8.869  20.726  67.048  1.00  0.00    -0.233 OA 
HETATM    2  C   UNL     1      -9.865  19.923  66.597  1.00  0.00    -0.435 C  
HETATM    3  C   UNL     1      -9.992  18.643  67.409  1.00  0.00    -0.332 C  
HETATM    4  O   UNL     1     -10.575  20.204  65.643  1.00  0.00    -0.404 OA 
ENDROOT
BRANCH   3   5
HETATM    5  O   UNL     1      -8.953  18.565  68.395  1.00  0.00    -0.307 OA 
BRANCH   5   6
HETATM    6  C   UNL     1      -7.754  17.955  67.877  1.00  0.00    -0.224 C  
BRANCH   6   7
HETATM    7  C   UNL     1      -8.024  16.594  67.197  1.00  0.00    -0.182 C  
BRANCH   7   8
HETATM    8  N   UNL     1      -7.949  15.419  68.086  1.00  0.00    -0.129 NA 
HETATM    9  C   UNL     1      -8.786  15.558  69.299  1.00  0.00    -0.256 C  
HETATM   10  C   UNL     1     -10.311  15.402  69.058  1.00  0.00    -0.243 C  
HETATM   11  N   UNL     1     -10.708  14.133  68.398  1.00  0.00    -0.249 NA 
HETATM   12  C   UNL     1      -9.890  14.015  67.166  1.00  0.00    -0.240 C  
HETATM   13  C   UNL     1      -8.361  14.190  67.362  1.00  0.00    -0.197 C  
BRANCH  11  14
HETATM   14  C   UNL     1     -10.565  12.961  69.320  1.00  0.00     0.161 C  
BRANCH  14  15
HETATM   15  C   UNL     1     -11.688  12.921  70.374  1.00  0.00    -0.109 A  
HETATM   16  C   UNL     1     -12.326  14.113  70.766  1.00  0.00    -0.439 A  
HETATM   17  C   UNL     1     -12.174  11.710  70.901  1.00  0.00    -0.401 A  
HETATM   18  C   UNL     1     -13.426  14.088  71.629  1.00  0.00    -0.438 A  
HETATM   19  C   UNL     1     -13.892  12.878  72.135  1.00  0.00    -0.390 A  
HETATM   20  C   UNL     1     -13.259  11.690  71.780  1.00  0.00    -0.438 A  
ENDBRANCH  14  15
BRANCH  14  21
HETATM   21  C   UNL     1     -10.408  11.619  68.584  1.00  0.00    -0.229 A  
HETATM   22  C   UNL     1      -9.973   9.224  67.168  1.00  0.00    -0.216 A  
HETATM   23 CL   UNL     1      -9.689   7.779  66.280  1.00  0.00    -0.206 Cl 
HETATM   24  C   UNL     1     -11.064  10.028  66.853  1.00  0.00     0.048 A  
HETATM   25  C   UNL     1      -9.321  10.780  68.896  1.00  0.00    -0.183 A  
HETATM   26  C   UNL     1     -11.275  11.221  67.551  1.00  0.00    -0.357 A  
HETATM   27  C   UNL     1      -9.100   9.595  68.187  1.00  0.00    -0.123 A  
ENDBRANCH  14  21
ENDBRANCH  11  14
ENDBRANCH   7   8
ENDBRANCH   6   7
ENDBRANCH   5   6
ENDBRANCH   3   5
TORSDOF 7
ENDMDL
MODEL      100
REMARK 921   NORMALIZED FREE ENERGY PREDICTED BY IDOCK:   -4.21 KCAL/MOL
REMARK 922        TOTAL FREE ENERGY PREDICTED BY IDOCK:   -6.62 KCAL/MOL
REMARK 923 INTER-LIGAND FREE ENERGY PREDICTED BY IDOCK:   -6.20 KCAL/MOL
REMARK 924 INTRA-LIGAND FREE ENERGY PREDICTED BY IDOCK:   -0.42 KCAL/MOL
REMARK 927      BINDING AFFINITY PREDICTED BY RF-SCORE:    0.00 PKD
ROOT
HETATM    1  O   UNL     1      -6.497  19.071  67.588  1.00  0.00    -0.200 OA 
HETATM    2  C   UNL     1      -6.803  18.319  66.501  1.00  0.00    -0.215 C  
HETATM    3  C   UNL     1      -6.568  16.835  66.737  1.00  0.00    -0.212 C  
HETATM    4  O   UNL     1      -7.219  18.791  65.453  1.00  0.00    -0.508 OA 
ENDROOT
BRANCH   3   5
HETATM    5  O   UNL     1      -5.984  16.615  68.030  1.00  0.00    -0.115 OA 
BRANCH   5   6
HETATM    6  C   UNL     1      -6.726  15.654  68.806  1.00  0.00    -0.116 C  
BRANCH   6   7
HETATM    7  C   UNL     1      -6.051  14.264  68.837  1.00  0.00    -0.087 C  
BRANCH   7   8
HETATM    8  N   UNL     1      -6.408  13.364  67.724  1.00  0.00    -0.151 NA 
HETATM    9  C   UNL     1      -6.185  11.936  68.043  1.00  0.00    -0.055 C  
HETATM   10  C   UNL     1      -7.227  11.314  69.009  1.00  0.00    -0.119 C  
HETATM   11  N   UNL     1      -8.638  11.448  68.568  1.00  0.00    -0.155 NA 
HETATM   12  C   UNL     1      -8.866  12.886  68.283  1.00  0.00    -0.168 C  
HETATM   13  C   UNL     1      -7.829  13.550  67.339  1.00  0.00    -0.147 C  
BRANCH  11  14
HETATM   14  C   UNL     1      -8.942  10.556  67.403  1.00  0.00    -0.135 C  
BRANCH  14  15
HETATM   15  C   UNL     1      -9.530   9.205  67.853  1.00  0.00    -0.158 A  
HETATM   16  C   UNL     1      -9.910   9.017  69.196  1.00  0.00    -0.175 A  
HETATM   17  C   UNL     1      -9.796   8.167  66.942  1.00  0.00    -0.316 A  
HETATM   18  C   UNL     1     -10.556   7.845  69.601  1.00  0.00    -0.234 A  
HETATM   19  C   UNL     1     -10.812   6.833  68.681  1.00  0.00    -0.277 A  
HETATM   20  C   UNL     1     -10.422   6.988  67.355  1.00  0.00    -0.343 A  
ENDBRANCH  14  15
BRANCH  14  21
HETATM   21  C   UNL     1      -9.798  11.234  66.321  1.00  0.00    -0.248 A  
HETATM   22  C   UNL     1     -11.483  12.346  64.356  1.00  0.00    -0.347 A  
HETATM   23 CL   UNL     1     -12.524  12.994  63.151  1.00  0.00    -0.342 Cl 
HETATM   24  C   UNL     1     -10.225  11.870  64.002  1.00  0.00    -0.394 A  
HETATM   25  C   UNL     1     -11.069  11.739  66.657  1.00  0.00    -0.364 A  
HETATM   26  C   UNL     1      -9.392  11.309  64.977  1.00  0.00    -0.200 A  
HETATM   27  C   UNL     1     -11.909  12.284  65.680  1.00  0.00    -0.423 A  
ENDBRANCH  14  21
ENDBRANCH  11  14
ENDBRANCH   7   8
ENDBRANCH   6   7
ENDBRANCH   5   6
ENDBRANCH   3   5
TORSDOF 7
ENDMDL
MODEL      101
REMARK 921   NORMALIZED FREE ENERGY PREDICTED BY IDOCK:   -4.18 KCAL/MOL
REMARK 922        TOTAL FREE ENERGY PREDICTED BY IDOCK:   -6.58 KCAL/MOL
REMARK 923 INTER-LIGAND FREE ENERGY PREDICTED BY IDOCK:   -6.08 KCAL/MOL
REMARK 924 INTRA-LIGAND FREE ENERGY PREDICTED BY IDOCK:   -0.50 KCAL/MOL
REMARK 927      BINDING AFFINITY PREDICTED BY RF-SCORE:    0.00 PKD
ROOT
HETATM    1  O   UNL     1     -13.557  13.429  72.490  1.00  0.00    -0.575 OA 
HETATM    2  C   UNL     1     -13.280  14.746  72.320  1.00  0.00    -0.374 C  
HETATM    3  C   UNL     1     -12.382  15.000  71.119  1.00  0.00    -0.327 C  
HETATM    4  O   UNL     1     -13.707  15.623  73.056  1.00  0.00    -0.541 OA 
ENDROOT
BRANCH   3   5
HETATM    5  O   UNL     1     -11.974  13.760  70.522  1.00  0.00    -0.323 OA 
BRANCH   5   6
HETATM    6  C   UNL     1     -12.145  13.762  69.091  1.00  0.00    -0.333 C  
BRANCH   6   7
HETATM    7  C   UNL     1     -10.927  13.172  68.345  1.00  0.00    -0.262 C  
BRANCH   7   8
HETATM    8  N   UNL     1     -11.162  11.877  67.678  1.00  0.00    -0.256 NA 
HETATM    9  C   UNL     1     -10.012  11.433  66.858  1.00  0.00    -0.206 C  
HETATM   10  C   UNL     1      -8.799  10.907  67.669  1.00  0.00    -0.133 C  
HETATM   11  N   UNL     1      -9.114   9.804  68.611  1.00  0.00    -0.128 NA 
HETATM   12  C   UNL     1     -10.244  10.267  69.454  1.00  0.00    -0.235 C  
HETATM   13  C   UNL     1     -11.467  10.824  68.679  1.00  0.00    -0.295 C  
BRANCH  11  14
HETATM   14  C   UNL     1      -9.397   8.523  67.889  1.00  0.00    -0.135 C  
BRANCH  14  15
HETATM   15  C   UNL     1      -8.369   8.253  66.775  1.00  0.00    -0.107 A  
HETATM   16  C   UNL     1      -6.992   8.342  67.053  1.00  0.00    -0.074 A  
HETATM   17  C   UNL     1      -8.755   7.823  65.492  1.00  0.00    -0.102 A  
HETATM   18  C   UNL     1      -6.041   7.986  66.092  1.00  0.00    -0.045 A  
HETATM   19  C   UNL     1      -6.446   7.558  64.831  1.00  0.00    -0.037 A  
HETATM   20  C   UNL     1      -7.802   7.488  64.527  1.00  0.00    -0.130 A  
ENDBRANCH  14  15
BRANCH  14  21
HETATM   21  C   UNL     1      -9.569   7.316  68.828  1.00  0.00    -0.142 A  
HETATM   22  C   UNL     1      -9.934   5.219  70.672  1.00  0.00    -0.218 A  
HETATM   23 CL   UNL     1     -10.151   3.960  71.823  1.00  0.00    -0.227 Cl 
HETATM   24  C   UNL     1      -8.659   5.512  70.198  1.00  0.00    -0.122 A  
HETATM   25  C   UNL     1     -10.851   6.988  69.310  1.00  0.00    -0.241 A  
HETATM   26  C   UNL     1      -8.477   6.559  69.289  1.00  0.00    -0.127 A  
HETATM   27  C   UNL     1     -11.032   5.952  70.231  1.00  0.00    -0.390 A  
ENDBRANCH  14  21
ENDBRANCH  11  14
ENDBRANCH   7   8
ENDBRANCH   6   7
ENDBRANCH   5   6
ENDBRANCH   3   5
TORSDOF 7
ENDMDL
MODEL      102
REMARK 921   NORMALIZED FREE ENERGY PREDICTED BY IDOCK:   -4.18 KCAL/MOL
REMARK 922        TOTAL FREE ENERGY PREDICTED BY IDOCK:   -6.57 KCAL/MOL
REMARK 923 INTER-LIGAND FREE ENERGY PREDICTED BY IDOCK:   -5.65 KCAL/MOL
REMARK 924 INTRA-LIGAND FREE ENERGY PREDICTED BY IDOCK:   -0.92 KCAL/MOL
REMARK 927      BINDING AFFINITY PREDICTED BY RF-SCORE:    0.00 PKD
ROOT
HETATM    1  O   UNL     1     -11.596  15.390  68.402  1.00  0.00    -0.341 OA 
HETATM    2  C   UNL     1     -10.857  15.608  67.286  1.00  0.00    -0.298 C  
HETATM    3  C   UNL     1     -11.124  14.577  66.200  1.00  0.00    -0.334 C  
HETATM    4  O   UNL     1     -10.065  16.532  67.175  1.00  0.00    -0.261 OA 
ENDROOT
BRANCH   3   5
HETATM    5  O   UNL     1     -12.029  13.569  66.673  1.00  0.00    -0.376 OA 
BRANCH   5   6
HETATM    6  C   UNL     1     -11.412  12.268  66.735  1.00  0.00    -0.361 C  
BRANCH   6   7
HETATM    7  C   UNL     1     -10.935  11.902  68.159  1.00  0.00    -0.227 C  
BRANCH   7   8
HETATM    8  N   UNL     1      -9.771  10.997  68.222  1.00  0.00    -0.170 NA 
HETATM    9  C   UNL     1      -9.713  10.220  69.480  1.00  0.00    -0.211 C  
HETATM   10  C   UNL     1     -10.742   9.063  69.579  1.00  0.00    -0.206 C  
HETATM   11  N   UNL     1     -10.688   8.088  68.461  1.00  0.00    -0.087 NA 
HETATM   12  C   UNL     1     -10.782   8.870  67.203  1.00  0.00    -0.133 C  
HETATM   13  C   UNL     1      -9.784  10.052  67.078  1.00  0.00    -0.181 C  
BRANCH  11  14
HETATM   14  C   UNL     1      -9.465   7.227  68.535  1.00  0.00    -0.140 C  
BRANCH  14  15
HETATM   15  C   UNL     1      -9.346   6.516  69.896  1.00  0.00    -0.155 A  
HETATM   16  C   UNL     1     -10.358   5.633  70.318  1.00  0.00    -0.336 A  
HETATM   17  C   UNL     1      -8.203   6.642  70.707  1.00  0.00    -0.121 A  
HETATM   18  C   UNL     1     -10.215   4.885  71.491  1.00  0.00    -0.264 A  
HETATM   19  C   UNL     1      -9.074   5.024  72.275  1.00  0.00    -0.145 A  
HETATM   20  C   UNL     1      -8.073   5.910  71.890  1.00  0.00    -0.112 A  
ENDBRANCH  14  15
BRANCH  14  21
HETATM   21  C   UNL     1      -9.331   6.251  67.353  1.00  0.00    -0.117 A  
HETATM   22  C   UNL     1      -9.077   4.602  65.084  1.00  0.00    -0.155 A  
HETATM   23 CL   UNL     1      -8.935   3.621  63.680  1.00  0.00    -0.096 Cl 
HETATM   24  C   UNL     1     -10.256   4.590  65.823  1.00  0.00    -0.289 A  
HETATM   25  C   UNL     1      -8.141   6.232  66.600  1.00  0.00    -0.110 A  
HETATM   26  C   UNL     1     -10.385   5.415  66.944  1.00  0.00    -0.310 A  
HETATM   27  C   UNL     1      -8.018   5.420  65.468  1.00  0.00    -0.109 A  
ENDBRANCH  14  21
ENDBRANCH  11  14
ENDBRANCH   7   8
ENDBRANCH   6   7
ENDBRANCH   5   6
ENDBRANCH   3   5
TORSDOF 7
ENDMDL
MODEL      103
REMARK 921   NORMALIZED FREE ENERGY PREDICTED BY IDOCK:   -4.16 KCAL/MOL
REMARK 922        TOTAL FREE ENERGY PREDICTED BY IDOCK:   -6.54 KCAL/MOL
REMARK 923 INTER-LIGAND FREE ENERGY PREDICTED BY IDOCK:   -5.89 KCAL/MOL
REMARK 924 INTRA-LIGAND FREE ENERGY PREDICTED BY IDOCK:   -0.66 KCAL/MOL
REMARK 927      BINDING AFFINITY PREDICTED BY RF-SCORE:    0.00 PKD
ROOT
HETATM    1  O   UNL     1     -10.628  10.599  64.441  1.00  0.00    -0.308 OA 
HETATM    2  C   UNL     1      -9.356  10.130  64.424  1.00  0.00    -0.293 C  
HETATM    3  C   UNL     1      -9.119   9.054  65.473  1.00  0.00    -0.214 C  
HETATM    4  O   UNL     1      -8.501  10.534  63.649  1.00  0.00    -0.171 OA 
ENDROOT
BRANCH   3   5
HETATM    5  O   UNL     1     -10.287   8.875  66.287  1.00  0.00    -0.240 OA 
BRANCH   5   6
HETATM    6  C   UNL     1     -10.097   9.365  67.629  1.00  0.00    -0.211 C  
BRANCH   6   7
HETATM    7  C   UNL     1     -11.251  10.279  68.099  1.00  0.00    -0.229 C  
BRANCH   7   8
HETATM    8  N   UNL     1     -10.844  11.449  68.900  1.00  0.00    -0.205 NA 
HETATM    9  C   UNL     1      -9.435  11.843  68.669  1.00  0.00    -0.080 C  
HETATM   10  C   UNL     1      -9.171  12.553  67.316  1.00  0.00    -0.190 C  
HETATM   11  N   UNL     1     -10.006  13.757  67.074  1.00  0.00    -0.246 NA 
HETATM   12  C   UNL     1     -11.418  13.348  67.272  1.00  0.00    -0.340 C  
HETATM   13  C   UNL     1     -11.718  12.612  68.605  1.00  0.00    -0.325 C  
BRANCH  11  14
HETATM   14  C   UNL     1      -9.591  14.903  67.945  1.00  0.00    -0.205 C  
BRANCH  14  15
HETATM   15  C   UNL     1      -8.107  14.810  68.346  1.00  0.00    -0.144 A  
HETATM   16  C   UNL     1      -7.105  14.963  67.369  1.00  0.00    -0.194 A  
HETATM   17  C   UNL     1      -7.704  14.672  69.687  1.00  0.00     0.062 A  
HETATM   18  C   UNL     1      -5.754  15.003  67.727  1.00  0.00    -0.108 A  
HETATM   19  C   UNL     1      -5.378  14.868  69.061  1.00  0.00    -0.094 A  
HETATM   20  C   UNL     1      -6.352  14.690  70.039  1.00  0.00    -0.165 A  
ENDBRANCH  14  15
BRANCH  14  21
HETATM   21  C   UNL     1      -9.952  16.279  67.359  1.00  0.00    -0.249 A  
HETATM   22  C   UNL     1     -10.468  18.789  66.190  1.00  0.00    -0.446 A  
HETATM   23 CL   UNL     1     -10.749  20.325  65.471  1.00  0.00    -0.275 Cl 
HETATM   24  C   UNL     1     -10.203  18.699  67.553  1.00  0.00    -0.425 A  
HETATM   25  C   UNL     1     -10.241  16.394  65.985  1.00  0.00    -0.373 A  
HETATM   26  C   UNL     1      -9.938  17.453  68.131  1.00  0.00    -0.308 A  
HETATM   27  C   UNL     1     -10.489  17.641  65.403  1.00  0.00     0.086 A  
ENDBRANCH  14  21
ENDBRANCH  11  14
ENDBRANCH   7   8
ENDBRANCH   6   7
ENDBRANCH   5   6
ENDBRANCH   3   5
TORSDOF 7
ENDMDL
MODEL      104
REMARK 921   NORMALIZED FREE ENERGY PREDICTED BY IDOCK:   -4.15 KCAL/MOL
REMARK 922        TOTAL FREE ENERGY PREDICTED BY IDOCK:   -6.53 KCAL/MOL
REMARK 923 INTER-LIGAND FREE ENERGY PREDICTED BY IDOCK:   -5.79 KCAL/MOL
REMARK 924 INTRA-LIGAND FREE ENERGY PREDICTED BY IDOCK:   -0.74 KCAL/MOL
REMARK 927      BINDING AFFINITY PREDICTED BY RF-SCORE:    0.00 PKD
ROOT
HETATM    1  O   UNL     1      -7.423   7.863  69.909  1.00  0.00    -0.076 OA 
HETATM    2  C   UNL     1      -6.185   8.330  69.613  1.00  0.00    -0.032 C  
HETATM    3  C   UNL     1      -6.227   9.602  68.779  1.00  0.00    -0.042 C  
HETATM    4  O   UNL     1      -5.155   7.782  69.978  1.00  0.00    -0.022 OA 
ENDROOT
BRANCH   3   5
HETATM    5  O   UNL     1      -7.579   9.934  68.433  1.00  0.00    -0.082 OA 
BRANCH   5   6
HETATM    6  C   UNL     1      -7.739  10.167  67.020  1.00  0.00    -0.096 C  
BRANCH   6   7
HETATM    7  C   UNL     1      -8.262  11.587  66.705  1.00  0.00    -0.164 C  
BRANCH   7   8
HETATM    8  N   UNL     1      -8.154  12.558  67.810  1.00  0.00    -0.151 NA 
HETATM    9  C   UNL     1      -7.682  13.889  67.364  1.00  0.00    -0.148 C  
HETATM   10  C   UNL     1      -8.735  14.729  66.597  1.00  0.00    -0.194 C  
HETATM   11  N   UNL     1     -10.011  14.941  67.327  1.00  0.00    -0.229 NA 
HETATM   12  C   UNL     1     -10.497  13.602  67.741  1.00  0.00    -0.240 C  
HETATM   13  C   UNL     1      -9.463  12.721  68.490  1.00  0.00    -0.092 C  
BRANCH  11  14
HETATM   14  C   UNL     1      -9.843  15.893  68.471  1.00  0.00    -0.210 C  
BRANCH  14  15
HETATM   15  C   UNL     1      -9.689  17.348  67.990  1.00  0.00    -0.281 A  
HETATM   16  C   UNL     1     -10.495  17.829  66.941  1.00  0.00    -0.308 A  
HETATM   17  C   UNL     1      -8.827  18.258  68.628  1.00  0.00    -0.294 A  
HETATM   18  C   UNL     1     -10.458  19.176  66.568  1.00  0.00    -0.534 A  
HETATM   19  C   UNL     1      -9.600  20.060  67.217  1.00  0.00    -0.527 A  
HETATM   20  C   UNL     1      -8.776  19.598  68.239  1.00  0.00    -0.361 A  
ENDBRANCH  14  15
BRANCH  14  21
HETATM   21  C   UNL     1     -10.928  15.748  69.552  1.00  0.00    -0.295 A  
HETATM   22  C   UNL     1     -12.854  15.323  71.562  1.00  0.00    -0.398 A  
HETATM   23 CL   UNL     1     -14.027  15.030  72.785  1.00  0.00    -0.469 Cl 
HETATM   24  C   UNL     1     -13.254  15.466  70.238  1.00  0.00    -0.010 A  
HETATM   25  C   UNL     1     -10.550  15.618  70.902  1.00  0.00     0.040 A  
HETATM   26  C   UNL     1     -12.297  15.668  69.238  1.00  0.00    -0.063 A  
HETATM   27  C   UNL     1     -11.505  15.399  71.900  1.00  0.00    -0.513 A  
ENDBRANCH  14  21
ENDBRANCH  11  14
ENDBRANCH   7   8
ENDBRANCH   6   7
ENDBRANCH   5   6
ENDBRANCH   3   5
TORSDOF 7
ENDMDL
MODEL      105
REMARK 921   NORMALIZED FREE ENERGY PREDICTED BY IDOCK:   -4.13 KCAL/MOL
REMARK 922        TOTAL FREE ENERGY PREDICTED BY IDOCK:   -6.50 KCAL/MOL
REMARK 923 INTER-LIGAND FREE ENERGY PREDICTED BY IDOCK:   -5.67 KCAL/MOL
REMARK 924 INTRA-LIGAND FREE ENERGY PREDICTED BY IDOCK:   -0.83 KCAL/MOL
REMARK 927      BINDING AFFINITY PREDICTED BY RF-SCORE:    0.00 PKD
ROOT
HETATM    1  O   UNL     1     -11.392  15.553  68.051  1.00  0.00    -0.331 OA 
HETATM    2  C   UNL     1     -10.614  15.579  66.940  1.00  0.00    -0.307 C  
HETATM    3  C   UNL     1     -11.033  14.538  65.913  1.00  0.00    -0.320 C  
HETATM    4  O   UNL     1      -9.681  16.354  66.791  1.00  0.00    -0.234 OA 
ENDROOT
BRANCH   3   5
HETATM    5  O   UNL     1     -12.095  13.720  66.426  1.00  0.00    -0.406 OA 
BRANCH   5   6
HETATM    6  C   UNL     1     -11.740  12.324  66.460  1.00  0.00    -0.352 C  
BRANCH   6   7
HETATM    7  C   UNL     1     -11.750  11.741  67.892  1.00  0.00    -0.276 C  
BRANCH   7   8
HETATM    8  N   UNL     1     -10.468  11.174  68.352  1.00  0.00    -0.180 NA 
HETATM    9  C   UNL     1     -10.482  10.805  69.785  1.00  0.00    -0.083 C  
HETATM   10  C   UNL     1     -11.283   9.519  70.118  1.00  0.00    -0.234 C  
HETATM   11  N   UNL     1     -10.862   8.313  69.361  1.00  0.00    -0.147 NA 
HETATM   12  C   UNL     1     -10.884   8.678  67.923  1.00  0.00     0.007 C  
HETATM   13  C   UNL     1     -10.114   9.974  67.554  1.00  0.00    -0.198 C  
BRANCH  11  14
HETATM   14  C   UNL     1      -9.533   7.804  69.825  1.00  0.00    -0.160 C  
BRANCH  14  15
HETATM   15  C   UNL     1      -9.454   7.723  71.362  1.00  0.00    -0.173 A  
HETATM   16  C   UNL     1     -10.489   7.105  72.086  1.00  0.00    -0.231 A  
HETATM   17  C   UNL     1      -8.325   8.167  72.074  1.00  0.00    -0.199 A  
HETATM   18  C   UNL     1     -10.384   6.913  73.468  1.00  0.00    -0.368 A  
HETATM   19  C   UNL     1      -9.255   7.356  74.152  1.00  0.00    -0.250 A  
HETATM   20  C   UNL     1      -8.232   7.993  73.458  1.00  0.00    -0.271 A  
ENDBRANCH  14  15
BRANCH  14  21
HETATM   21  C   UNL     1      -9.112   6.487  69.150  1.00  0.00    -0.136 A  
HETATM   22  C   UNL     1      -8.337   4.003  68.072  1.00  0.00    -0.093 A  
HETATM   23 CL   UNL     1      -7.849   2.479  67.443  1.00  0.00    -0.068 Cl 
HETATM   24  C   UNL     1      -7.487   5.100  67.969  1.00  0.00    -0.076 A  
HETATM   25  C   UNL     1      -9.962   5.366  69.225  1.00  0.00    -0.277 A  
HETATM   26  C   UNL     1      -7.869   6.331  68.512  1.00  0.00    -0.105 A  
HETATM   27  C   UNL     1      -9.574   4.131  68.697  1.00  0.00    -0.199 A  
ENDBRANCH  14  21
ENDBRANCH  11  14
ENDBRANCH   7   8
ENDBRANCH   6   7
ENDBRANCH   5   6
ENDBRANCH   3   5
TORSDOF 7
ENDMDL
MODEL      106
REMARK 921   NORMALIZED FREE ENERGY PREDICTED BY IDOCK:   -4.11 KCAL/MOL
REMARK 922        TOTAL FREE ENERGY PREDICTED BY IDOCK:   -6.48 KCAL/MOL
REMARK 923 INTER-LIGAND FREE ENERGY PREDICTED BY IDOCK:   -5.60 KCAL/MOL
REMARK 924 INTRA-LIGAND FREE ENERGY PREDICTED BY IDOCK:   -0.88 KCAL/MOL
REMARK 927      BINDING AFFINITY PREDICTED BY RF-SCORE:    0.00 PKD
ROOT
HETATM    1  O   UNL     1      -8.567   8.718  64.926  1.00  0.00    -0.173 OA 
HETATM    2  C   UNL     1      -8.129   8.168  63.766  1.00  0.00    -0.112 C  
HETATM    3  C   UNL     1      -7.861   6.676  63.895  1.00  0.00    -0.109 C  
HETATM    4  O   UNL     1      -7.967   8.808  62.738  1.00  0.00    -0.135 OA 
ENDROOT
BRANCH   3   5
HETATM    5  O   UNL     1      -8.051   6.244  65.251  1.00  0.00    -0.120 OA 
BRANCH   5   6
HETATM    6  C   UNL     1      -8.963   5.132  65.346  1.00  0.00    -0.156 C  
BRANCH   6   7
HETATM    7  C   UNL     1      -8.701   4.252  66.589  1.00  0.00    -0.113 C  
BRANCH   7   8
HETATM    8  N   UNL     1      -9.817   4.173  67.552  1.00  0.00    -0.135 NA 
HETATM    9  C   UNL     1      -9.396   3.680  68.883  1.00  0.00    -0.167 C  
HETATM   10  C   UNL     1      -8.603   4.705  69.735  1.00  0.00    -0.073 C  
HETATM   11  N   UNL     1      -9.295   6.001  69.949  1.00  0.00    -0.147 NA 
HETATM   12  C   UNL     1      -9.684   6.507  68.609  1.00  0.00    -0.127 C  
HETATM   13  C   UNL     1     -10.458   5.501  67.717  1.00  0.00    -0.180 C  
BRANCH  11  14
HETATM   14  C   UNL     1     -10.452   5.863  70.890  1.00  0.00    -0.244 C  
BRANCH  14  15
HETATM   15  C   UNL     1     -10.030   5.221  72.226  1.00  0.00    -0.222 A  
HETATM   16  C   UNL     1     -10.502   3.940  72.569  1.00  0.00    -0.176 A  
HETATM   17  C   UNL     1      -9.103   5.834  73.088  1.00  0.00    -0.127 A  
HETATM   18  C   UNL     1     -10.039   3.288  73.716  1.00  0.00    -0.188 A  
HETATM   19  C   UNL     1      -9.118   3.912  74.553  1.00  0.00    -0.108 A  
HETATM   20  C   UNL     1      -8.659   5.189  74.245  1.00  0.00    -0.113 A  
ENDBRANCH  14  15
BRANCH  14  21
HETATM   21  C   UNL     1     -11.235   7.172  71.094  1.00  0.00    -0.291 A  
HETATM   22  C   UNL     1     -12.581   9.590  71.615  1.00  0.00    -0.388 A  
HETATM   23 CL   UNL     1     -13.397  11.062  71.966  1.00  0.00    -0.508 Cl 
HETATM   24  C   UNL     1     -13.287   8.391  71.603  1.00  0.00    -0.361 A  
HETATM   25  C   UNL     1     -10.546   8.400  71.093  1.00  0.00    -0.266 A  
HETATM   26  C   UNL     1     -12.617   7.190  71.353  1.00  0.00    -0.432 A  
HETATM   27  C   UNL     1     -11.212   9.600  71.360  1.00  0.00    -0.426 A  
ENDBRANCH  14  21
ENDBRANCH  11  14
ENDBRANCH   7   8
ENDBRANCH   6   7
ENDBRANCH   5   6
ENDBRANCH   3   5
TORSDOF 7
ENDMDL
MODEL      107
REMARK 921   NORMALIZED FREE ENERGY PREDICTED BY IDOCK:   -4.06 KCAL/MOL
REMARK 922        TOTAL FREE ENERGY PREDICTED BY IDOCK:   -6.40 KCAL/MOL
REMARK 923 INTER-LIGAND FREE ENERGY PREDICTED BY IDOCK:   -6.05 KCAL/MOL
REMARK 924 INTRA-LIGAND FREE ENERGY PREDICTED BY IDOCK:   -0.35 KCAL/MOL
REMARK 927      BINDING AFFINITY PREDICTED BY RF-SCORE:    0.00 PKD
ROOT
HETATM    1  O   UNL     1      -6.131   8.021  64.298  1.00  0.00    -0.055 OA 
HETATM    2  C   UNL     1      -6.946   7.448  65.218  1.00  0.00    -0.059 C  
HETATM    3  C   UNL     1      -8.116   8.343  65.597  1.00  0.00    -0.125 C  
HETATM    4  O   UNL     1      -6.752   6.336  65.687  1.00  0.00    -0.046 OA 
ENDROOT
BRANCH   3   5
HETATM    5  O   UNL     1      -8.006   9.619  64.949  1.00  0.00    -0.113 OA 
BRANCH   5   6
HETATM    6  C   UNL     1      -7.710  10.679  65.879  1.00  0.00    -0.146 C  
BRANCH   6   7
HETATM    7  C   UNL     1      -8.972  11.219  66.589  1.00  0.00    -0.176 C  
BRANCH   7   8
HETATM    8  N   UNL     1      -8.722  12.200  67.662  1.00  0.00    -0.163 NA 
HETATM    9  C   UNL     1      -8.155  13.472  67.159  1.00  0.00    -0.082 C  
HETATM   10  C   UNL     1      -9.165  14.388  66.421  1.00  0.00    -0.213 C  
HETATM   11  N   UNL     1     -10.378  14.732  67.205  1.00  0.00    -0.253 NA 
HETATM   12  C   UNL     1     -10.962  13.452  67.676  1.00  0.00    -0.259 C  
HETATM   13  C   UNL     1      -9.976  12.497  68.399  1.00  0.00    -0.212 C  
BRANCH  11  14
HETATM   14  C   UNL     1     -10.068  15.689  68.315  1.00  0.00    -0.218 C  
BRANCH  14  15
HETATM   15  C   UNL     1      -9.931  17.135  67.803  1.00  0.00    -0.290 A  
HETATM   16  C   UNL     1      -9.159  18.065  68.526  1.00  0.00    -0.293 A  
HETATM   17  C   UNL     1     -10.477  17.547  66.574  1.00  0.00    -0.270 A  
HETATM   18  C   UNL     1      -8.921  19.347  68.020  1.00  0.00    -0.371 A  
HETATM   19  C   UNL     1      -9.468  19.731  66.799  1.00  0.00    -0.489 A  
HETATM   20  C   UNL     1     -10.255  18.835  66.082  1.00  0.00    -0.462 A  
ENDBRANCH  14  15
BRANCH  14  21
HETATM   21  C   UNL     1     -11.038  15.580  69.504  1.00  0.00    -0.286 A  
HETATM   22  C   UNL     1     -12.741  15.228  71.719  1.00  0.00    -0.371 A  
HETATM   23 CL   UNL     1     -13.777  14.979  73.068  1.00  0.00    -0.453 Cl 
HETATM   24  C   UNL     1     -13.272  15.258  70.434  1.00  0.00    -0.171 A  
HETATM   25  C   UNL     1     -10.527  15.564  70.817  1.00  0.00     0.048 A  
HETATM   26  C   UNL     1     -12.425  15.425  69.333  1.00  0.00    -0.059 A  
HETATM   27  C   UNL     1     -11.371  15.381  71.916  1.00  0.00    -0.466 A  
ENDBRANCH  14  21
ENDBRANCH  11  14
ENDBRANCH   7   8
ENDBRANCH   6   7
ENDBRANCH   5   6
ENDBRANCH   3   5
TORSDOF 7
ENDMDL
MODEL      108
REMARK 921   NORMALIZED FREE ENERGY PREDICTED BY IDOCK:   -4.05 KCAL/MOL
REMARK 922        TOTAL FREE ENERGY PREDICTED BY IDOCK:   -6.40 KCAL/MOL
REMARK 923 INTER-LIGAND FREE ENERGY PREDICTED BY IDOCK:   -5.14 KCAL/MOL
REMARK 924 INTRA-LIGAND FREE ENERGY PREDICTED BY IDOCK:   -1.26 KCAL/MOL
REMARK 927      BINDING AFFINITY PREDICTED BY RF-SCORE:    0.00 PKD
ROOT
HETATM    1  O   UNL     1     -10.426   4.263  65.416  1.00  0.00    -0.244 OA 
HETATM    2  C   UNL     1      -9.126   3.942  65.202  1.00  0.00    -0.142 C  
HETATM    3  C   UNL     1      -8.442   3.417  66.455  1.00  0.00    -0.109 C  
HETATM    4  O   UNL     1      -8.572   4.066  64.119  1.00  0.00    -0.099 OA 
ENDROOT
BRANCH   3   5
HETATM    5  O   UNL     1      -9.330   3.486  67.581  1.00  0.00    -0.180 OA 
BRANCH   5   6
HETATM    6  C   UNL     1      -8.761   4.227  68.679  1.00  0.00    -0.096 C  
BRANCH   6   7
HETATM    7  C   UNL     1      -9.503   5.555  68.949  1.00  0.00    -0.129 C  
BRANCH   7   8
HETATM    8  N   UNL     1      -8.691   6.776  68.785  1.00  0.00    -0.125 NA 
HETATM    9  C   UNL     1      -8.202   6.962  67.401  1.00  0.00    -0.119 C  
HETATM   10  C   UNL     1      -9.279   7.423  66.385  1.00  0.00    -0.159 C  
HETATM   11  N   UNL     1      -9.996   8.667  66.764  1.00  0.00    -0.248 NA 
HETATM   12  C   UNL     1     -10.515   8.463  68.139  1.00  0.00    -0.174 C  
HETATM   13  C   UNL     1      -9.471   7.977  69.179  1.00  0.00    -0.155 C  
BRANCH  11  14
HETATM   14  C   UNL     1      -9.119   9.874  66.633  1.00  0.00    -0.147 C  
BRANCH  14  15
HETATM   15  C   UNL     1      -8.477   9.967  65.236  1.00  0.00    -0.161 A  
HETATM   16  C   UNL     1      -9.285   9.899  64.086  1.00  0.00    -0.312 A  
HETATM   17  C   UNL     1      -7.103  10.217  65.062  1.00  0.00    -0.135 A  
HETATM   18  C   UNL     1      -8.742  10.101  62.814  1.00  0.00    -0.213 A  
HETATM   19  C   UNL     1      -7.380  10.351  62.665  1.00  0.00    -0.142 A  
HETATM   20  C   UNL     1      -6.559  10.397  63.787  1.00  0.00    -0.016 A  
ENDBRANCH  14  15
BRANCH  14  21
HETATM   21  C   UNL     1      -9.814  11.183  67.044  1.00  0.00    -0.212 A  
HETATM   22  C   UNL     1     -11.048  13.644  67.639  1.00  0.00    -0.273 A  
HETATM   23 CL   UNL     1     -11.781  15.162  67.980  1.00  0.00    -0.349 Cl 
HETATM   24  C   UNL     1      -9.912  13.250  68.339  1.00  0.00    -0.226 A  
HETATM   25  C   UNL     1     -10.975  11.596  66.363  1.00  0.00    -0.345 A  
HETATM   26  C   UNL     1      -9.294  12.032  68.037  1.00  0.00    -0.196 A  
HETATM   27  C   UNL     1     -11.584  12.821  66.652  1.00  0.00    -0.430 A  
ENDBRANCH  14  21
ENDBRANCH  11  14
ENDBRANCH   7   8
ENDBRANCH   6   7
ENDBRANCH   5   6
ENDBRANCH   3   5
TORSDOF 7
ENDMDL
MODEL      109
REMARK 921   NORMALIZED FREE ENERGY PREDICTED BY IDOCK:   -4.05 KCAL/MOL
REMARK 922        TOTAL FREE ENERGY PREDICTED BY IDOCK:   -6.39 KCAL/MOL
REMARK 923 INTER-LIGAND FREE ENERGY PREDICTED BY IDOCK:   -5.82 KCAL/MOL
REMARK 924 INTRA-LIGAND FREE ENERGY PREDICTED BY IDOCK:   -0.57 KCAL/MOL
REMARK 927      BINDING AFFINITY PREDICTED BY RF-SCORE:    0.00 PKD
ROOT
HETATM    1  O   UNL     1      -7.455   2.499  67.208  1.00  0.00    -0.060 OA 
HETATM    2  C   UNL     1      -6.621   2.631  66.147  1.00  0.00    -0.032 C  
HETATM    3  C   UNL     1      -6.583   4.054  65.611  1.00  0.00    -0.044 C  
HETATM    4  O   UNL     1      -5.977   1.704  65.679  1.00  0.00    -0.019 OA 
ENDROOT
BRANCH   3   5
HETATM    5  O   UNL     1      -7.523   4.883  66.311  1.00  0.00    -0.084 OA 
BRANCH   5   6
HETATM    6  C   UNL     1      -8.454   5.526  65.418  1.00  0.00    -0.146 C  
BRANCH   6   7
HETATM    7  C   UNL     1      -7.953   6.903  64.926  1.00  0.00    -0.124 C  
BRANCH   7   8
HETATM    8  N   UNL     1      -7.694   7.896  65.987  1.00  0.00    -0.089 NA 
HETATM    9  C   UNL     1      -7.563   9.275  65.465  1.00  0.00    -0.091 C  
HETATM   10  C   UNL     1      -8.899   9.937  65.035  1.00  0.00    -0.190 C  
HETATM   11  N   UNL     1      -9.944   9.966  66.089  1.00  0.00    -0.253 NA 
HETATM   12  C   UNL     1     -10.095   8.575  66.583  1.00  0.00    -0.294 C  
HETATM   13  C   UNL     1      -8.778   7.870  67.000  1.00  0.00    -0.129 C  
BRANCH  11  14
HETATM   14  C   UNL     1      -9.614  10.948  67.170  1.00  0.00    -0.165 C  
BRANCH  14  15
HETATM   15  C   UNL     1      -9.751  12.404  66.684  1.00  0.00    -0.229 A  
HETATM   16  C   UNL     1      -8.919  13.404  67.221  1.00  0.00    -0.221 A  
HETATM   17  C   UNL     1     -10.623  12.763  65.640  1.00  0.00    -0.297 A  
HETATM   18  C   UNL     1      -8.941  14.706  66.711  1.00  0.00    -0.283 A  
HETATM   19  C   UNL     1      -9.810  15.038  65.675  1.00  0.00    -0.380 A  
HETATM   20  C   UNL     1     -10.659  14.069  65.148  1.00  0.00    -0.400 A  
ENDBRANCH  14  15
BRANCH  14  21
HETATM   21  C   UNL     1     -10.380  10.697  68.480  1.00  0.00    -0.202 A  
HETATM   22  C   UNL     1     -11.779  10.066  70.842  1.00  0.00    -0.374 A  
HETATM   23 CL   UNL     1     -12.645   9.652  72.268  1.00  0.00    -0.367 Cl 
HETATM   24  C   UNL     1     -12.402  10.808  69.843  1.00  0.00    -0.340 A  
HETATM   25  C   UNL     1      -9.765   9.962  69.513  1.00  0.00    -0.238 A  
HETATM   26  C   UNL     1     -11.709  11.114  68.667  1.00  0.00    -0.389 A  
HETATM   27  C   UNL     1     -10.462   9.641  70.682  1.00  0.00    -0.379 A  
ENDBRANCH  14  21
ENDBRANCH  11  14
ENDBRANCH   7   8
ENDBRANCH   6   7
ENDBRANCH   5   6
ENDBRANCH   3   5
TORSDOF 7
ENDMDL
MODEL      110
REMARK 921   NORMALIZED FREE ENERGY PREDICTED BY IDOCK:   -4.04 KCAL/MOL
REMARK 922        TOTAL FREE ENERGY PREDICTED BY IDOCK:   -6.38 KCAL/MOL
REMARK 923 INTER-LIGAND FREE ENERGY PREDICTED BY IDOCK:   -5.84 KCAL/MOL
REMARK 924 INTRA-LIGAND FREE ENERGY PREDICTED BY IDOCK:   -0.54 KCAL/MOL
REMARK 927      BINDING AFFINITY PREDICTED BY RF-SCORE:    0.00 PKD
ROOT
HETATM    1  O   UNL     1     -10.263   3.507  64.539  1.00  0.00    -0.180 OA 
HETATM    2  C   UNL     1      -8.930   3.559  64.299  1.00  0.00    -0.118 C  
HETATM    3  C   UNL     1      -8.131   2.691  65.260  1.00  0.00    -0.083 C  
HETATM    4  O   UNL     1      -8.433   4.233  63.409  1.00  0.00    -0.094 OA 
ENDROOT
BRANCH   3   5
HETATM    5  O   UNL     1      -8.994   2.107  66.247  1.00  0.00    -0.128 OA 
BRANCH   5   6
HETATM    6  C   UNL     1      -8.564   2.405  67.591  1.00  0.00    -0.101 C  
BRANCH   6   7
HETATM    7  C   UNL     1      -9.469   3.447  68.288  1.00  0.00    -0.148 C  
BRANCH   7   8
HETATM    8  N   UNL     1      -8.808   4.716  68.648  1.00  0.00    -0.098 NA 
HETATM    9  C   UNL     1      -8.669   5.639  67.500  1.00  0.00    -0.107 C  
HETATM   10  C   UNL     1      -9.983   6.335  67.060  1.00  0.00    -0.159 C  
HETATM   11  N   UNL     1     -10.681   7.081  68.137  1.00  0.00    -0.205 NA 
HETATM   12  C   UNL     1     -10.850   6.141  69.272  1.00  0.00    -0.351 C  
HETATM   13  C   UNL     1      -9.560   5.406  69.726  1.00  0.00    -0.168 C  
BRANCH  11  14
HETATM   14  C   UNL     1      -9.948   8.334  68.507  1.00  0.00    -0.190 C  
BRANCH  14  15
HETATM   15  C   UNL     1      -9.371   9.047  67.270  1.00  0.00    -0.172 A  
HETATM   16  C   UNL     1      -8.009   9.400  67.234  1.00  0.00    -0.106 A  
HETATM   17  C   UNL     1     -10.142   9.280  66.116  1.00  0.00    -0.304 A  
HETATM   18  C   UNL     1      -7.437   9.939  66.078  1.00  0.00    -0.106 A  
HETATM   19  C   UNL     1      -8.218  10.156  64.946  1.00  0.00    -0.157 A  
HETATM   20  C   UNL     1      -9.572   9.838  64.969  1.00  0.00    -0.333 A  
ENDBRANCH  14  15
BRANCH  14  21
HETATM   21  C   UNL     1     -10.769   9.282  69.397  1.00  0.00    -0.222 A  
HETATM   22  C   UNL     1     -12.390  10.892  71.044  1.00  0.00    -0.393 A  
HETATM   23 CL   UNL     1     -13.407  11.857  72.040  1.00  0.00    -0.545 Cl 
HETATM   24  C   UNL     1     -12.189  11.243  69.713  1.00  0.00    -0.343 A  
HETATM   25  C   UNL     1     -10.973   8.959  70.753  1.00  0.00    -0.305 A  
HETATM   26  C   UNL     1     -11.391  10.438  68.893  1.00  0.00    -0.278 A  
HETATM   27  C   UNL     1     -11.785   9.753  71.569  1.00  0.00    -0.450 A  
ENDBRANCH  14  21
ENDBRANCH  11  14
ENDBRANCH   7   8
ENDBRANCH   6   7
ENDBRANCH   5   6
ENDBRANCH   3   5
TORSDOF 7
ENDMDL
MODEL      111
REMARK 921   NORMALIZED FREE ENERGY PREDICTED BY IDOCK:   -4.02 KCAL/MOL
REMARK 922        TOTAL FREE ENERGY PREDICTED BY IDOCK:   -6.35 KCAL/MOL
REMARK 923 INTER-LIGAND FREE ENERGY PREDICTED BY IDOCK:   -5.42 KCAL/MOL
REMARK 924 INTRA-LIGAND FREE ENERGY PREDICTED BY IDOCK:   -0.93 KCAL/MOL
REMARK 927      BINDING AFFINITY PREDICTED BY RF-SCORE:    0.00 PKD
ROOT
HETATM    1  O   UNL     1     -11.141  16.198  66.948  1.00  0.00    -0.164 OA 
HETATM    2  C   UNL     1     -10.366  16.231  65.836  1.00  0.00    -0.365 C  
HETATM    3  C   UNL     1     -10.920  15.364  64.715  1.00  0.00    -0.393 C  
HETATM    4  O   UNL     1      -9.337  16.886  65.753  1.00  0.00    -0.521 OA 
ENDROOT
BRANCH   3   5
HETATM    5  O   UNL     1     -12.082  14.648  65.158  1.00  0.00    -0.363 OA 
BRANCH   5   6
HETATM    6  C   UNL     1     -11.858  13.226  65.214  1.00  0.00    -0.357 C  
BRANCH   6   7
HETATM    7  C   UNL     1     -11.718  12.702  66.662  1.00  0.00    -0.398 C  
BRANCH   7   8
HETATM    8  N   UNL     1     -10.373  12.220  67.031  1.00  0.00    -0.218 NA 
HETATM    9  C   UNL     1     -10.390  11.294  68.186  1.00  0.00    -0.186 C  
HETATM   10  C   UNL     1     -10.921   9.871  67.872  1.00  0.00    -0.223 C  
HETATM   11  N   UNL     1     -10.216   9.176  66.766  1.00  0.00    -0.262 NA 
HETATM   12  C   UNL     1     -10.233  10.094  65.600  1.00  0.00    -0.218 C  
HETATM   13  C   UNL     1      -9.731  11.535  65.881  1.00  0.00    -0.232 C  
BRANCH  11  14
HETATM   14  C   UNL     1      -8.837   8.752  67.168  1.00  0.00    -0.127 C  
BRANCH  14  15
HETATM   15  C   UNL     1      -8.868   7.632  68.226  1.00  0.00    -0.125 A  
HETATM   16  C   UNL     1     -10.023   6.843  68.380  1.00  0.00    -0.150 A  
HETATM   17  C   UNL     1      -7.736   7.299  68.992  1.00  0.00    -0.112 A  
HETATM   18  C   UNL     1     -10.032   5.746  69.247  1.00  0.00    -0.238 A  
HETATM   19  C   UNL     1      -8.899   5.433  69.992  1.00  0.00    -0.141 A  
HETATM   20  C   UNL     1      -7.755   6.216  69.874  1.00  0.00    -0.100 A  
ENDBRANCH  14  15
BRANCH  14  21
HETATM   21  C   UNL     1      -7.932   8.402  65.974  1.00  0.00    -0.101 A  
HETATM   22  C   UNL     1      -6.234   7.613  63.870  1.00  0.00    -0.053 A  
HETATM   23 CL   UNL     1      -5.179   7.112  62.608  1.00  0.00    -0.033 Cl 
HETATM   24  C   UNL     1      -5.923   8.737  64.629  1.00  0.00    -0.065 A  
HETATM   25  C   UNL     1      -8.234   7.278  65.180  1.00  0.00    -0.112 A  
HETATM   26  C   UNL     1      -6.762   9.123  65.679  1.00  0.00    -0.072 A  
HETATM   27  C   UNL     1      -7.387   6.881  64.141  1.00  0.00    -0.086 A  
ENDBRANCH  14  21
ENDBRANCH  11  14
ENDBRANCH   7   8
ENDBRANCH   6   7
ENDBRANCH   5   6
ENDBRANCH   3   5
TORSDOF 7
ENDMDL
MODEL      112
REMARK 921   NORMALIZED FREE ENERGY PREDICTED BY IDOCK:   -4.02 KCAL/MOL
REMARK 922        TOTAL FREE ENERGY PREDICTED BY IDOCK:   -6.34 KCAL/MOL
REMARK 923 INTER-LIGAND FREE ENERGY PREDICTED BY IDOCK:   -5.97 KCAL/MOL
REMARK 924 INTRA-LIGAND FREE ENERGY PREDICTED BY IDOCK:   -0.38 KCAL/MOL
REMARK 927      BINDING AFFINITY PREDICTED BY RF-SCORE:    0.00 PKD
ROOT
HETATM    1  O   UNL     1      -9.474   9.762  63.703  1.00  0.00    -0.217 OA 
HETATM    2  C   UNL     1      -8.320  10.221  63.160  1.00  0.00    -0.167 C  
HETATM    3  C   UNL     1      -7.096   9.491  63.692  1.00  0.00    -0.107 C  
HETATM    4  O   UNL     1      -8.277  11.124  62.337  1.00  0.00    -0.213 OA 
ENDROOT
BRANCH   3   5
HETATM    5  O   UNL     1      -7.470   8.557  64.715  1.00  0.00    -0.088 OA 
BRANCH   5   6
HETATM    6  C   UNL     1      -6.663   8.695  65.901  1.00  0.00    -0.061 C  
BRANCH   6   7
HETATM    7  C   UNL     1      -7.505   8.984  67.165  1.00  0.00    -0.087 C  
BRANCH   7   8
HETATM    8  N   UNL     1      -7.481  10.382  67.633  1.00  0.00    -0.088 NA 
HETATM    9  C   UNL     1      -7.878  11.349  66.585  1.00  0.00    -0.137 C  
HETATM   10  C   UNL     1      -9.396  11.377  66.268  1.00  0.00    -0.212 C  
HETATM   11  N   UNL     1     -10.270  11.624  67.442  1.00  0.00    -0.201 NA 
HETATM   12  C   UNL     1      -9.892  10.631  68.477  1.00  0.00    -0.168 C  
HETATM   13  C   UNL     1      -8.377  10.555  68.804  1.00  0.00    -0.136 C  
BRANCH  11  14
HETATM   14  C   UNL     1     -10.174  13.042  67.916  1.00  0.00    -0.234 C  
BRANCH  14  15
HETATM   15  C   UNL     1     -10.554  14.044  66.809  1.00  0.00    -0.277 A  
HETATM   16  C   UNL     1      -9.614  14.996  66.371  1.00  0.00    -0.314 A  
HETATM   17  C   UNL     1     -11.791  13.983  66.141  1.00  0.00    -0.422 A  
HETATM   18  C   UNL     1      -9.894  15.834  65.288  1.00  0.00    -0.095 A  
HETATM   19  C   UNL     1     -11.123  15.754  64.639  1.00  0.00    -0.376 A  
HETATM   20  C   UNL     1     -12.075  14.838  65.073  1.00  0.00    -0.291 A  
ENDBRANCH  14  15
BRANCH  14  21
HETATM   21  C   UNL     1     -10.939  13.302  69.226  1.00  0.00    -0.140 A  
HETATM   22  C   UNL     1     -12.486  13.776  71.531  1.00  0.00    -0.274 A  
HETATM   23 CL   UNL     1     -13.455  14.080  72.918  1.00  0.00    -0.549 Cl 
HETATM   24  C   UNL     1     -11.605  14.751  71.074  1.00  0.00    -0.313 A  
HETATM   25  C   UNL     1     -11.824  12.324  69.718  1.00  0.00    -0.388 A  
HETATM   26  C   UNL     1     -10.843  14.519  69.924  1.00  0.00    -0.083 A  
HETATM   27  C   UNL     1     -12.599  12.562  70.858  1.00  0.00    -0.331 A  
ENDBRANCH  14  21
ENDBRANCH  11  14
ENDBRANCH   7   8
ENDBRANCH   6   7
ENDBRANCH   5   6
ENDBRANCH   3   5
TORSDOF 7
ENDMDL
MODEL      113
REMARK 921   NORMALIZED FREE ENERGY PREDICTED BY IDOCK:   -4.01 KCAL/MOL
REMARK 922        TOTAL FREE ENERGY PREDICTED BY IDOCK:   -6.34 KCAL/MOL
REMARK 923 INTER-LIGAND FREE ENERGY PREDICTED BY IDOCK:   -6.34 KCAL/MOL
REMARK 924 INTRA-LIGAND FREE ENERGY PREDICTED BY IDOCK:    0.00 KCAL/MOL
REMARK 927      BINDING AFFINITY PREDICTED BY RF-SCORE:    0.00 PKD
ROOT
HETATM    1  O   UNL     1     -10.017   3.516  63.848  1.00  0.00    -0.153 OA 
HETATM    2  C   UNL     1      -9.010   4.412  63.705  1.00  0.00    -0.143 C  
HETATM    3  C   UNL     1      -8.117   4.484  64.934  1.00  0.00    -0.100 C  
HETATM    4  O   UNL     1      -8.847   5.085  62.698  1.00  0.00    -0.125 OA 
ENDROOT
BRANCH   3   5
HETATM    5  O   UNL     1      -8.630   3.646  65.981  1.00  0.00    -0.109 OA 
BRANCH   5   6
HETATM    6  C   UNL     1      -9.069   4.408  67.123  1.00  0.00    -0.131 C  
BRANCH   6   7
HETATM    7  C   UNL     1      -8.718   5.909  67.009  1.00  0.00    -0.109 C  
BRANCH   7   8
HETATM    8  N   UNL     1      -9.871   6.818  66.869  1.00  0.00    -0.166 NA 
HETATM    9  C   UNL     1     -10.647   6.962  68.121  1.00  0.00    -0.216 C  
HETATM   10  C   UNL     1      -9.968   7.832  69.211  1.00  0.00    -0.182 C  
HETATM   11  N   UNL     1      -9.595   9.200  68.770  1.00  0.00    -0.157 NA 
HETATM   12  C   UNL     1      -8.788   9.047  67.534  1.00  0.00    -0.123 C  
HETATM   13  C   UNL     1      -9.423   8.163  66.429  1.00  0.00    -0.218 C  
BRANCH  11  14
HETATM   14  C   UNL     1     -10.799  10.072  68.589  1.00  0.00    -0.229 C  
BRANCH  14  15
HETATM   15  C   UNL     1     -11.609  10.207  69.893  1.00  0.00    -0.290 A  
HETATM   16  C   UNL     1     -12.140  11.457  70.263  1.00  0.00    -0.459 A  
HETATM   17  C   UNL     1     -11.926   9.094  70.693  1.00  0.00    -0.171 A  
HETATM   18  C   UNL     1     -12.978  11.580  71.376  1.00  0.00    -0.450 A  
HETATM   19  C   UNL     1     -13.281  10.464  72.150  1.00  0.00    -0.418 A  
HETATM   20  C   UNL     1     -12.746   9.224  71.817  1.00  0.00    -0.462 A  
ENDBRANCH  14  15
BRANCH  14  21
HETATM   21  C   UNL     1     -10.476  11.437  67.959  1.00  0.00    -0.215 A  
HETATM   22  C   UNL     1      -9.831  13.853  66.663  1.00  0.00    -0.284 A  
HETATM   23 CL   UNL     1      -9.413  15.311  65.853  1.00  0.00    -0.369 Cl 
HETATM   24  C   UNL     1      -9.131  13.468  67.802  1.00  0.00    -0.207 A  
HETATM   25  C   UNL     1     -11.182  11.858  66.815  1.00  0.00    -0.384 A  
HETATM   26  C   UNL     1      -9.446  12.264  68.440  1.00  0.00    -0.175 A  
HETATM   27  C   UNL     1     -10.856  13.053  66.166  1.00  0.00    -0.296 A  
ENDBRANCH  14  21
ENDBRANCH  11  14
ENDBRANCH   7   8
ENDBRANCH   6   7
ENDBRANCH   5   6
ENDBRANCH   3   5
TORSDOF 7
ENDMDL
MODEL      114
REMARK 921   NORMALIZED FREE ENERGY PREDICTED BY IDOCK:   -4.01 KCAL/MOL
REMARK 922        TOTAL FREE ENERGY PREDICTED BY IDOCK:   -6.34 KCAL/MOL
REMARK 923 INTER-LIGAND FREE ENERGY PREDICTED BY IDOCK:   -5.64 KCAL/MOL
REMARK 924 INTRA-LIGAND FREE ENERGY PREDICTED BY IDOCK:   -0.70 KCAL/MOL
REMARK 927      BINDING AFFINITY PREDICTED BY RF-SCORE:    0.00 PKD
ROOT
HETATM    1  O   UNL     1      -7.233  21.278  67.171  1.00  0.00    -0.475 OA 
HETATM    2  C   UNL     1      -6.638  20.537  66.204  1.00  0.00    -0.235 C  
HETATM    3  C   UNL     1      -6.205  19.167  66.704  1.00  0.00    -0.177 C  
HETATM    4  O   UNL     1      -6.470  20.935  65.060  1.00  0.00    -0.247 OA 
ENDROOT
BRANCH   3   5
HETATM    5  O   UNL     1      -6.453  19.043  68.112  1.00  0.00    -0.218 OA 
BRANCH   5   6
HETATM    6  C   UNL     1      -7.453  18.046  68.403  1.00  0.00    -0.278 C  
BRANCH   6   7
HETATM    7  C   UNL     1      -6.840  16.695  68.835  1.00  0.00    -0.191 C  
BRANCH   7   8
HETATM    8  N   UNL     1      -6.677  15.702  67.756  1.00  0.00    -0.143 NA 
HETATM    9  C   UNL     1      -6.292  14.364  68.258  1.00  0.00    -0.118 C  
HETATM   10  C   UNL     1      -7.434  13.573  68.948  1.00  0.00    -0.017 C  
HETATM   11  N   UNL     1      -8.652  13.394  68.120  1.00  0.00    -0.169 NA 
HETATM   12  C   UNL     1      -9.055  14.742  67.648  1.00  0.00    -0.185 C  
HETATM   13  C   UNL     1      -7.932  15.574  66.974  1.00  0.00    -0.233 C  
BRANCH  11  14
HETATM   14  C   UNL     1      -8.426  12.418  67.006  1.00  0.00    -0.170 C  
BRANCH  14  15
HETATM   15  C   UNL     1      -7.879  11.074  67.524  1.00  0.00    -0.116 A  
HETATM   16  C   UNL     1      -8.749  10.149  68.130  1.00  0.00    -0.122 A  
HETATM   17  C   UNL     1      -6.541  10.688  67.327  1.00  0.00    -0.073 A  
HETATM   18  C   UNL     1      -8.301   8.876  68.498  1.00  0.00    -0.125 A  
HETATM   19  C   UNL     1      -6.973   8.515  68.290  1.00  0.00    -0.070 A  
HETATM   20  C   UNL     1      -6.090   9.424  67.715  1.00  0.00    -0.053 A  
ENDBRANCH  14  15
BRANCH  14  21
HETATM   21  C   UNL     1      -9.652  12.236  66.094  1.00  0.00    -0.248 A  
HETATM   22  C   UNL     1     -11.822  12.016  64.312  1.00  0.00    -0.346 A  
HETATM   23 CL   UNL     1     -13.140  11.913  63.213  1.00  0.00    -0.297 Cl 
HETATM   24  C   UNL     1     -12.012  12.576  65.572  1.00  0.00    -0.500 A  
HETATM   25  C   UNL     1      -9.489  11.656  64.821  1.00  0.00    -0.083 A  
HETATM   26  C   UNL     1     -10.932  12.693  66.453  1.00  0.00    -0.304 A  
HETATM   27  C   UNL     1     -10.564  11.555  63.932  1.00  0.00    -0.448 A  
ENDBRANCH  14  21
ENDBRANCH  11  14
ENDBRANCH   7   8
ENDBRANCH   6   7
ENDBRANCH   5   6
ENDBRANCH   3   5
TORSDOF 7
ENDMDL
MODEL      115
REMARK 921   NORMALIZED FREE ENERGY PREDICTED BY IDOCK:   -4.00 KCAL/MOL
REMARK 922        TOTAL FREE ENERGY PREDICTED BY IDOCK:   -6.32 KCAL/MOL
REMARK 923 INTER-LIGAND FREE ENERGY PREDICTED BY IDOCK:   -5.71 KCAL/MOL
REMARK 924 INTRA-LIGAND FREE ENERGY PREDICTED BY IDOCK:   -0.61 KCAL/MOL
REMARK 927      BINDING AFFINITY PREDICTED BY RF-SCORE:    0.00 PKD
ROOT
HETATM    1  O   UNL     1     -10.837  16.283  66.065  1.00  0.00    -0.244 OA 
HETATM    2  C   UNL     1     -11.401  16.445  64.843  1.00  0.00    -0.101 C  
HETATM    3  C   UNL     1     -12.071  15.176  64.339  1.00  0.00    -0.300 C  
HETATM    4  O   UNL     1     -11.368  17.497  64.222  1.00  0.00    -0.594 OA 
ENDROOT
BRANCH   3   5
HETATM    5  O   UNL     1     -11.850  14.091  65.252  1.00  0.00    -0.332 OA 
BRANCH   5   6
HETATM    6  C   UNL     1     -10.903  13.132  64.740  1.00  0.00    -0.352 C  
BRANCH   6   7
HETATM    7  C   UNL     1     -10.066  12.467  65.857  1.00  0.00    -0.254 C  
BRANCH   7   8
HETATM    8  N   UNL     1     -10.753  11.399  66.609  1.00  0.00    -0.259 NA 
HETATM    9  C   UNL     1     -10.440  10.044  66.102  1.00  0.00    -0.086 C  
HETATM   10  C   UNL     1      -9.025   9.524  66.464  1.00  0.00    -0.148 C  
HETATM   11  N   UNL     1      -8.715   9.529  67.916  1.00  0.00    -0.120 NA 
HETATM   12  C   UNL     1      -8.996  10.898  68.412  1.00  0.00    -0.154 C  
HETATM   13  C   UNL     1     -10.395  11.464  68.048  1.00  0.00    -0.184 C  
BRANCH  11  14
HETATM   14  C   UNL     1      -9.473   8.464  68.647  1.00  0.00    -0.147 C  
BRANCH  14  15
HETATM   15  C   UNL     1      -9.446   7.121  67.894  1.00  0.00    -0.135 A  
HETATM   16  C   UNL     1      -8.274   6.340  67.893  1.00  0.00    -0.114 A  
HETATM   17  C   UNL     1     -10.592   6.588  67.276  1.00  0.00    -0.383 A  
HETATM   18  C   UNL     1      -8.262   5.065  67.320  1.00  0.00    -0.107 A  
HETATM   19  C   UNL     1      -9.410   4.557  66.718  1.00  0.00    -0.159 A  
HETATM   20  C   UNL     1     -10.571   5.323  66.685  1.00  0.00    -0.334 A  
ENDBRANCH  14  15
BRANCH  14  21
HETATM   21  C   UNL     1      -9.053   8.316  70.120  1.00  0.00    -0.147 A  
HETATM   22  C   UNL     1      -8.245   7.880  72.782  1.00  0.00    -0.144 A  
HETATM   23 CL   UNL     1      -7.758   7.579  74.403  1.00  0.00    -0.167 Cl 
HETATM   24  C   UNL     1      -9.577   8.163  72.499  1.00  0.00    -0.347 A  
HETATM   25  C   UNL     1      -7.707   8.046  70.434  1.00  0.00    -0.085 A  
HETATM   26  C   UNL     1      -9.980   8.371  71.176  1.00  0.00    -0.245 A  
HETATM   27  C   UNL     1      -7.307   7.820  71.755  1.00  0.00    -0.068 A  
ENDBRANCH  14  21
ENDBRANCH  11  14
ENDBRANCH   7   8
ENDBRANCH   6   7
ENDBRANCH   5   6
ENDBRANCH   3   5
TORSDOF 7
ENDMDL
MODEL      116
REMARK 921   NORMALIZED FREE ENERGY PREDICTED BY IDOCK:   -3.99 KCAL/MOL
REMARK 922        TOTAL FREE ENERGY PREDICTED BY IDOCK:   -6.31 KCAL/MOL
REMARK 923 INTER-LIGAND FREE ENERGY PREDICTED BY IDOCK:   -5.98 KCAL/MOL
REMARK 924 INTRA-LIGAND FREE ENERGY PREDICTED BY IDOCK:   -0.33 KCAL/MOL
REMARK 927      BINDING AFFINITY PREDICTED BY RF-SCORE:    0.00 PKD
ROOT
HETATM    1  O   UNL     1     -10.412  18.997  65.539  1.00  0.00    -0.537 OA 
HETATM    2  C   UNL     1     -10.149  18.193  66.599  1.00  0.00    -0.373 C  
HETATM    3  C   UNL     1     -10.338  16.719  66.272  1.00  0.00    -0.310 C  
HETATM    4  O   UNL     1      -9.801  18.615  67.692  1.00  0.00    -0.301 OA 
ENDROOT
BRANCH   3   5
HETATM    5  O   UNL     1     -10.845  16.559  64.939  1.00  0.00    -0.684 OA 
BRANCH   5   6
HETATM    6  C   UNL     1     -11.186  15.189  64.647  1.00  0.00    -0.343 C  
BRANCH   6   7
HETATM    7  C   UNL     1     -11.326  14.326  65.921  1.00  0.00    -0.328 C  
BRANCH   7   8
HETATM    8  N   UNL     1     -10.088  13.661  66.372  1.00  0.00    -0.287 NA 
HETATM    9  C   UNL     1     -10.203  13.091  67.734  1.00  0.00    -0.228 C  
HETATM   10  C   UNL     1     -11.050  11.795  67.827  1.00  0.00    -0.243 C  
HETATM   11  N   UNL     1     -10.605  10.698  66.931  1.00  0.00    -0.257 NA 
HETATM   12  C   UNL     1     -10.526  11.266  65.562  1.00  0.00    -0.265 C  
HETATM   13  C   UNL     1      -9.707  12.577  65.433  1.00  0.00    -0.086 C  
BRANCH  11  14
HETATM   14  C   UNL     1      -9.319  10.088  67.397  1.00  0.00    -0.148 C  
BRANCH  14  15
HETATM   15  C   UNL     1      -9.544   9.082  68.542  1.00  0.00    -0.161 A  
HETATM   16  C   UNL     1      -8.440   8.549  69.234  1.00  0.00    -0.128 A  
HETATM   17  C   UNL     1     -10.832   8.742  68.994  1.00  0.00    -0.052 A  
HETATM   18  C   UNL     1      -8.622   7.730  70.353  1.00  0.00    -0.137 A  
HETATM   19  C   UNL     1      -9.906   7.409  70.785  1.00  0.00    -0.178 A  
HETATM   20  C   UNL     1     -11.010   7.905  70.099  1.00  0.00    -0.235 A  
ENDBRANCH  14  15
BRANCH  14  21
HETATM   21  C   UNL     1      -8.475   9.494  66.257  1.00  0.00    -0.122 A  
HETATM   22  C   UNL     1      -6.903   8.267  64.268  1.00  0.00    -0.066 A  
HETATM   23 CL   UNL     1      -5.927   7.500  63.079  1.00  0.00    -0.053 Cl 
HETATM   24  C   UNL     1      -6.458   9.433  64.883  1.00  0.00    -0.078 A  
HETATM   25  C   UNL     1      -8.912   8.324  65.607  1.00  0.00    -0.157 A  
HETATM   26  C   UNL     1      -7.235  10.037  65.877  1.00  0.00    -0.115 A  
HETATM   27  C   UNL     1      -8.127   7.709  64.625  1.00  0.00    -0.112 A  
ENDBRANCH  14  21
ENDBRANCH  11  14
ENDBRANCH   7   8
ENDBRANCH   6   7
ENDBRANCH   5   6
ENDBRANCH   3   5
TORSDOF 7
ENDMDL
MODEL      117
REMARK 921   NORMALIZED FREE ENERGY PREDICTED BY IDOCK:   -3.96 KCAL/MOL
REMARK 922        TOTAL FREE ENERGY PREDICTED BY IDOCK:   -6.27 KCAL/MOL
REMARK 923 INTER-LIGAND FREE ENERGY PREDICTED BY IDOCK:   -5.45 KCAL/MOL
REMARK 924 INTRA-LIGAND FREE ENERGY PREDICTED BY IDOCK:   -0.83 KCAL/MOL
REMARK 927      BINDING AFFINITY PREDICTED BY RF-SCORE:    0.00 PKD
ROOT
HETATM    1  O   UNL     1     -10.353  14.061  65.912  1.00  0.00    -0.298 OA 
HETATM    2  C   UNL     1     -10.547  15.105  66.755  1.00  0.00    -0.298 C  
HETATM    3  C   UNL     1     -10.596  14.674  68.213  1.00  0.00    -0.235 C  
HETATM    4  O   UNL     1     -10.671  16.261  66.376  1.00  0.00    -0.278 OA 
ENDROOT
BRANCH   3   5
HETATM    5  O   UNL     1     -10.520  13.245  68.319  1.00  0.00    -0.237 OA 
BRANCH   5   6
HETATM    6  C   UNL     1     -11.819  12.639  68.468  1.00  0.00    -0.300 C  
BRANCH   6   7
HETATM    7  C   UNL     1     -11.743  11.110  68.681  1.00  0.00    -0.320 C  
BRANCH   7   8
HETATM    8  N   UNL     1     -10.530  10.629  69.369  1.00  0.00    -0.228 NA 
HETATM    9  C   UNL     1     -10.820  10.007  70.681  1.00  0.00    -0.297 C  
HETATM   10  C   UNL     1     -11.457   8.594  70.605  1.00  0.00    -0.228 C  
HETATM   11  N   UNL     1     -10.681   7.605  69.816  1.00  0.00    -0.245 NA 
HETATM   12  C   UNL     1     -10.422   8.220  68.490  1.00  0.00    -0.162 C  
HETATM   13  C   UNL     1      -9.808   9.644  68.525  1.00  0.00    -0.157 C  
BRANCH  11  14
HETATM   14  C   UNL     1      -9.433   7.185  70.529  1.00  0.00    -0.162 C  
BRANCH  14  15
HETATM   15  C   UNL     1      -9.743   6.509  71.878  1.00  0.00    -0.159 A  
HETATM   16  C   UNL     1      -9.021   6.874  73.029  1.00  0.00    -0.146 A  
HETATM   17  C   UNL     1     -10.801   5.593  72.027  1.00  0.00    -0.300 A  
HETATM   18  C   UNL     1      -9.365   6.364  74.285  1.00  0.00    -0.205 A  
HETATM   19  C   UNL     1     -10.418   5.462  74.409  1.00  0.00    -0.255 A  
HETATM   20  C   UNL     1     -11.128   5.068  73.280  1.00  0.00    -0.406 A  
ENDBRANCH  14  15
BRANCH  14  21
HETATM   21  C   UNL     1      -8.485   6.342  69.658  1.00  0.00    -0.129 A  
HETATM   22  C   UNL     1      -6.769   4.916  67.939  1.00  0.00    -0.055 A  
HETATM   23 CL   UNL     1      -5.738   4.061  66.862  1.00  0.00    -0.021 Cl 
HETATM   24  C   UNL     1      -7.987   4.361  68.320  1.00  0.00    -0.079 A  
HETATM   25  C   UNL     1      -7.240   6.874  69.272  1.00  0.00    -0.090 A  
HETATM   26  C   UNL     1      -8.842   5.073  69.167  1.00  0.00    -0.114 A  
HETATM   27  C   UNL     1      -6.391   6.170  68.411  1.00  0.00    -0.043 A  
ENDBRANCH  14  21
ENDBRANCH  11  14
ENDBRANCH   7   8
ENDBRANCH   6   7
ENDBRANCH   5   6
ENDBRANCH   3   5
TORSDOF 7
ENDMDL
MODEL      118
REMARK 921   NORMALIZED FREE ENERGY PREDICTED BY IDOCK:   -3.92 KCAL/MOL
REMARK 922        TOTAL FREE ENERGY PREDICTED BY IDOCK:   -6.21 KCAL/MOL
REMARK 923 INTER-LIGAND FREE ENERGY PREDICTED BY IDOCK:   -5.93 KCAL/MOL
REMARK 924 INTRA-LIGAND FREE ENERGY PREDICTED BY IDOCK:   -0.27 KCAL/MOL
REMARK 927      BINDING AFFINITY PREDICTED BY RF-SCORE:    0.00 PKD
ROOT
HETATM    1  O   UNL     1     -10.042   4.596  65.539  1.00  0.00    -0.199 OA 
HETATM    2  C   UNL     1      -8.687   4.649  65.547  1.00  0.00    -0.130 C  
HETATM    3  C   UNL     1      -8.084   3.910  66.732  1.00  0.00    -0.096 C  
HETATM    4  O   UNL     1      -8.032   5.230  64.695  1.00  0.00    -0.096 OA 
ENDROOT
BRANCH   3   5
HETATM    5  O   UNL     1      -9.117   3.422  67.601  1.00  0.00    -0.136 OA 
BRANCH   5   6
HETATM    6  C   UNL     1      -8.869   3.754  68.982  1.00  0.00    -0.101 C  
BRANCH   6   7
HETATM    7  C   UNL     1      -9.812   4.860  69.508  1.00  0.00    -0.217 C  
BRANCH   7   8
HETATM    8  N   UNL     1      -9.177   6.171  69.741  1.00  0.00    -0.144 NA 
HETATM    9  C   UNL     1      -9.210   7.048  68.549  1.00  0.00    -0.137 C  
HETATM   10  C   UNL     1     -10.597   7.665  68.233  1.00  0.00    -0.124 C  
HETATM   11  N   UNL     1     -11.206   8.428  69.352  1.00  0.00     0.112 NA 
HETATM   12  C   UNL     1     -11.203   7.532  70.535  1.00  0.00    -0.269 C  
HETATM   13  C   UNL     1      -9.837   6.876  70.869  1.00  0.00    -0.185 C  
BRANCH  11  14
HETATM   14  C   UNL     1     -10.498   9.726  69.587  1.00  0.00    -0.242 C  
BRANCH  14  15
HETATM   15  C   UNL     1      -9.890  10.291  68.290  1.00  0.00    -0.161 A  
HETATM   16  C   UNL     1     -10.713  10.526  67.172  1.00  0.00    -0.323 A  
HETATM   17  C   UNL     1      -8.539  10.677  68.206  1.00  0.00    -0.128 A  
HETATM   18  C   UNL     1     -10.207  11.149  66.027  1.00  0.00    -0.300 A  
HETATM   19  C   UNL     1      -8.869  11.526  65.968  1.00  0.00    -0.144 A  
HETATM   20  C   UNL     1      -8.032  11.279  67.052  1.00  0.00    -0.150 A  
ENDBRANCH  14  15
BRANCH  14  21
HETATM   21  C   UNL     1     -11.357  10.765  70.329  1.00  0.00    -0.374 A  
HETATM   22  C   UNL     1     -13.069  12.594  71.617  1.00  0.00    -0.323 A  
HETATM   23 CL   UNL     1     -14.137  13.705  72.378  1.00  0.00    -0.642 Cl 
HETATM   24  C   UNL     1     -12.172  13.043  70.653  1.00  0.00    -0.390 A  
HETATM   25  C   UNL     1     -12.261  10.338  71.321  1.00  0.00    -0.496 A  
HETATM   26  C   UNL     1     -11.328  12.134  70.008  1.00  0.00    -0.028 A  
HETATM   27  C   UNL     1     -13.117  11.244  71.955  1.00  0.00    -0.510 A  
ENDBRANCH  14  21
ENDBRANCH  11  14
ENDBRANCH   7   8
ENDBRANCH   6   7
ENDBRANCH   5   6
ENDBRANCH   3   5
TORSDOF 7
ENDMDL
MODEL      119
REMARK 921   NORMALIZED FREE ENERGY PREDICTED BY IDOCK:   -3.84 KCAL/MOL
REMARK 922        TOTAL FREE ENERGY PREDICTED BY IDOCK:   -6.09 KCAL/MOL
REMARK 923 INTER-LIGAND FREE ENERGY PREDICTED BY IDOCK:   -5.26 KCAL/MOL
REMARK 924 INTRA-LIGAND FREE ENERGY PREDICTED BY IDOCK:   -0.84 KCAL/MOL
REMARK 927      BINDING AFFINITY PREDICTED BY RF-SCORE:    0.00 PKD
ROOT
HETATM    1  O   UNL     1     -11.436   4.138  64.383  1.00  0.00    -0.207 OA 
HETATM    2  C   UNL     1     -10.572   3.368  63.676  1.00  0.00    -0.270 C  
HETATM    3  C   UNL     1      -9.127   3.577  64.101  1.00  0.00    -0.124 C  
HETATM    4  O   UNL     1     -10.925   2.598  62.795  1.00  0.00    -0.185 OA 
ENDROOT
BRANCH   3   5
HETATM    5  O   UNL     1      -9.035   4.616  65.086  1.00  0.00    -0.141 OA 
BRANCH   5   6
HETATM    6  C   UNL     1      -7.803   5.358  64.983  1.00  0.00    -0.096 C  
BRANCH   6   7
HETATM    7  C   UNL     1      -8.005   6.878  65.175  1.00  0.00    -0.125 C  
BRANCH   7   8
HETATM    8  N   UNL     1      -7.784   7.376  66.546  1.00  0.00    -0.092 NA 
HETATM    9  C   UNL     1      -6.963   8.607  66.587  1.00  0.00    -0.079 C  
HETATM   10  C   UNL     1      -7.698   9.895  66.132  1.00  0.00    -0.107 C  
HETATM   11  N   UNL     1      -8.955  10.184  66.867  1.00  0.00    -0.132 NA 
HETATM   12  C   UNL     1      -9.789   8.959  66.793  1.00  0.00    -0.241 C  
HETATM   13  C   UNL     1      -9.081   7.645  67.217  1.00  0.00    -0.127 C  
BRANCH  11  14
HETATM   14  C   UNL     1      -8.685  10.635  68.270  1.00  0.00    -0.135 C  
BRANCH  14  15
HETATM   15  C   UNL     1      -7.927  11.975  68.305  1.00  0.00    -0.149 A  
HETATM   16  C   UNL     1      -6.814  12.130  69.153  1.00  0.00    -0.078 A  
HETATM   17  C   UNL     1      -8.249  13.038  67.441  1.00  0.00    -0.183 A  
HETATM   18  C   UNL     1      -6.038  13.293  69.115  1.00  0.00    -0.094 A  
HETATM   19  C   UNL     1      -6.373  14.329  68.248  1.00  0.00    -0.118 A  
HETATM   20  C   UNL     1      -7.484  14.207  67.420  1.00  0.00    -0.155 A  
ENDBRANCH  14  15
BRANCH  14  21
HETATM   21  C   UNL     1      -9.941  10.652  69.159  1.00  0.00    -0.228 A  
HETATM   22  C   UNL     1     -12.181  10.832  70.856  1.00  0.00    -0.384 A  
HETATM   23 CL   UNL     1     -13.530  10.960  71.914  1.00  0.00    -0.393 Cl 
HETATM   24  C   UNL     1     -11.268   9.794  71.019  1.00  0.00    -0.451 A  
HETATM   25  C   UNL     1     -10.888  11.682  69.003  1.00  0.00    -0.247 A  
HETATM   26  C   UNL     1     -10.151   9.710  70.182  1.00  0.00    -0.311 A  
HETATM   27  C   UNL     1     -11.996  11.777  69.851  1.00  0.00    -0.405 A  
ENDBRANCH  14  21
ENDBRANCH  11  14
ENDBRANCH   7   8
ENDBRANCH   6   7
ENDBRANCH   5   6
ENDBRANCH   3   5
TORSDOF 7
ENDMDL
MODEL      120
REMARK 921   NORMALIZED FREE ENERGY PREDICTED BY IDOCK:   -3.81 KCAL/MOL
REMARK 922        TOTAL FREE ENERGY PREDICTED BY IDOCK:   -6.06 KCAL/MOL
REMARK 923 INTER-LIGAND FREE ENERGY PREDICTED BY IDOCK:   -6.27 KCAL/MOL
REMARK 924 INTRA-LIGAND FREE ENERGY PREDICTED BY IDOCK:    0.22 KCAL/MOL
REMARK 927      BINDING AFFINITY PREDICTED BY RF-SCORE:    0.00 PKD
ROOT
HETATM    1  O   UNL     1      -7.951   5.843  64.601  1.00  0.00    -0.111 OA 
HETATM    2  C   UNL     1      -7.877   6.571  63.459  1.00  0.00    -0.110 C  
HETATM    3  C   UNL     1      -7.297   7.958  63.690  1.00  0.00    -0.103 C  
HETATM    4  O   UNL     1      -8.239   6.151  62.370  1.00  0.00    -0.102 OA 
ENDROOT
BRANCH   3   5
HETATM    5  O   UNL     1      -7.064   8.182  65.088  1.00  0.00    -0.065 OA 
BRANCH   5   6
HETATM    6  C   UNL     1      -6.324   9.395  65.330  1.00  0.00    -0.066 C  
BRANCH   6   7
HETATM    7  C   UNL     1      -5.787   9.486  66.777  1.00  0.00    -0.055 C  
BRANCH   7   8
HETATM    8  N   UNL     1      -6.411  10.526  67.617  1.00  0.00    -0.057 NA 
HETATM    9  C   UNL     1      -7.384  11.359  66.875  1.00  0.00    -0.147 C  
HETATM   10  C   UNL     1      -8.734  10.661  66.564  1.00  0.00    -0.146 C  
HETATM   11  N   UNL     1      -9.440  10.119  67.752  1.00  0.00    -0.144 NA 
HETATM   12  C   UNL     1      -8.471   9.257  68.472  1.00  0.00    -0.123 C  
HETATM   13  C   UNL     1      -7.099   9.912  68.780  1.00  0.00    -0.067 C  
BRANCH  11  14
HETATM   14  C   UNL     1     -10.012  11.210  68.603  1.00  0.00    -0.205 C  
BRANCH  14  15
HETATM   15  C   UNL     1     -10.647  12.328  67.753  1.00  0.00    -0.241 A  
HETATM   16  C   UNL     1     -10.227  13.661  67.920  1.00  0.00    -0.250 A  
HETATM   17  C   UNL     1     -11.576  12.052  66.734  1.00  0.00    -0.391 A  
HETATM   18  C   UNL     1     -10.701  14.673  67.079  1.00  0.00    -0.290 A  
HETATM   19  C   UNL     1     -11.617  14.377  66.074  1.00  0.00    -0.364 A  
HETATM   20  C   UNL     1     -12.064  13.069  65.909  1.00  0.00    -0.503 A  
ENDBRANCH  14  15
BRANCH  14  21
HETATM   21  C   UNL     1     -10.964  10.698  69.697  1.00  0.00    -0.331 A  
HETATM   22  C   UNL     1     -12.786   9.663  71.579  1.00  0.00    -0.387 A  
HETATM   23 CL   UNL     1     -13.921   9.026  72.703  1.00  0.00    -0.466 Cl 
HETATM   24  C   UNL     1     -12.811  11.017  71.262  1.00  0.00    -0.528 A  
HETATM   25  C   UNL     1     -10.947   9.334  70.049  1.00  0.00    -0.254 A  
HETATM   26  C   UNL     1     -11.912  11.529  70.320  1.00  0.00    -0.455 A  
HETATM   27  C   UNL     1     -11.857   8.818  70.977  1.00  0.00    -0.315 A  
ENDBRANCH  14  21
ENDBRANCH  11  14
ENDBRANCH   7   8
ENDBRANCH   6   7
ENDBRANCH   5   6
ENDBRANCH   3   5
TORSDOF 7
ENDMDL
MODEL      121
REMARK 921   NORMALIZED FREE ENERGY PREDICTED BY IDOCK:   -3.81 KCAL/MOL
REMARK 922        TOTAL FREE ENERGY PREDICTED BY IDOCK:   -6.05 KCAL/MOL
REMARK 923 INTER-LIGAND FREE ENERGY PREDICTED BY IDOCK:   -9.04 KCAL/MOL
REMARK 924 INTRA-LIGAND FREE ENERGY PREDICTED BY IDOCK:    2.99 KCAL/MOL
REMARK 927      BINDING AFFINITY PREDICTED BY RF-SCORE:    0.00 PKD
ROOT
HETATM    1  O   UNL     1     -12.072   9.922  70.856  1.00  0.00    -0.302 OA 
HETATM    2  C   UNL     1     -13.007  10.225  71.790  1.00  0.00    -0.469 C  
HETATM    3  C   UNL     1     -13.272  11.720  71.884  1.00  0.00    -0.362 C  
HETATM    4  O   UNL     1     -13.569   9.384  72.477  1.00  0.00    -0.459 OA 
ENDROOT
BRANCH   3   5
HETATM    5  O   UNL     1     -12.385  12.445  71.019  1.00  0.00    -0.349 OA 
BRANCH   5   6
HETATM    6  C   UNL     1     -12.797  13.815  70.841  1.00  0.00    -0.271 C  
BRANCH   6   7
HETATM    7  C   UNL     1     -11.602  14.777  70.655  1.00  0.00    -0.272 C  
BRANCH   7   8
HETATM    8  N   UNL     1     -11.454  15.346  69.302  1.00  0.00    -0.309 NA 
HETATM    9  C   UNL     1     -10.082  15.828  69.026  1.00  0.00    -0.225 C  
HETATM   10  C   UNL     1      -9.037  14.709  68.777  1.00  0.00    -0.178 C  
HETATM   11  N   UNL     1      -9.392  13.759  67.693  1.00  0.00    -0.205 NA 
HETATM   12  C   UNL     1     -10.754  13.253  67.993  1.00  0.00    -0.240 C  
HETATM   13  C   UNL     1     -11.823  14.342  68.272  1.00  0.00    -0.326 C  
BRANCH  11  14
HETATM   14  C   UNL     1      -9.279  14.394  66.341  1.00  0.00    -0.213 C  
BRANCH  14  15
HETATM   15  C   UNL     1     -10.343  13.858  65.365  1.00  0.00    -0.364 A  
HETATM   16  C   UNL     1     -10.331  12.501  64.989  1.00  0.00    -0.323 A  
HETATM   17  C   UNL     1     -11.400  14.661  64.899  1.00  0.00    -0.403 A  
HETATM   18  C   UNL     1     -11.355  11.966  64.201  1.00  0.00    -0.455 A  
HETATM   19  C   UNL     1     -12.394  12.779  63.755  1.00  0.00    -0.533 A  
HETATM   20  C   UNL     1     -12.410  14.128  64.094  1.00  0.00    -0.372 A  
ENDBRANCH  14  15
BRANCH  14  21
HETATM   21  C   UNL     1      -9.251  15.931  66.387  1.00  0.00    -0.344 A  
HETATM   22  C   UNL     1      -9.163  18.735  66.642  1.00  0.00    -0.329 A  
HETATM   23 CL   UNL     1      -9.117  20.443  66.830  1.00  0.00    -0.436 Cl 
HETATM   24  C   UNL     1     -10.363  18.103  66.330  1.00  0.00    -0.404 A  
HETATM   25  C   UNL     1      -8.045  16.595  66.684  1.00  0.00    -0.309 A  
HETATM   26  C   UNL     1     -10.408  16.710  66.212  1.00  0.00    -0.323 A  
HETATM   27  C   UNL     1      -8.002  17.986  66.819  1.00  0.00    -0.261 A  
ENDBRANCH  14  21
ENDBRANCH  11  14
ENDBRANCH   7   8
ENDBRANCH   6   7
ENDBRANCH   5   6
ENDBRANCH   3   5
TORSDOF 7
ENDMDL
MODEL      122
REMARK 921   NORMALIZED FREE ENERGY PREDICTED BY IDOCK:   -3.78 KCAL/MOL
REMARK 922        TOTAL FREE ENERGY PREDICTED BY IDOCK:   -6.01 KCAL/MOL
REMARK 923 INTER-LIGAND FREE ENERGY PREDICTED BY IDOCK:   -5.43 KCAL/MOL
REMARK 924 INTRA-LIGAND FREE ENERGY PREDICTED BY IDOCK:   -0.58 KCAL/MOL
REMARK 927      BINDING AFFINITY PREDICTED BY RF-SCORE:    0.00 PKD
ROOT
HETATM    1  O   UNL     1     -10.038  13.369  64.421  1.00  0.00    -0.341 OA 
HETATM    2  C   UNL     1     -11.313  12.984  64.678  1.00  0.00    -0.327 C  
HETATM    3  C   UNL     1     -11.573  12.787  66.164  1.00  0.00    -0.379 C  
HETATM    4  O   UNL     1     -12.152  12.813  63.806  1.00  0.00    -0.442 OA 
ENDROOT
BRANCH   3   5
HETATM    5  O   UNL     1     -10.364  12.969  66.916  1.00  0.00    -0.242 OA 
BRANCH   5   6
HETATM    6  C   UNL     1      -9.796  11.716  67.346  1.00  0.00    -0.183 C  
BRANCH   6   7
HETATM    7  C   UNL     1     -10.334  11.258  68.721  1.00  0.00    -0.205 C  
BRANCH   7   8
HETATM    8  N   UNL     1     -10.973   9.928  68.738  1.00  0.00    -0.208 NA 
HETATM    9  C   UNL     1     -10.424   9.013  67.712  1.00  0.00    -0.245 C  
HETATM   10  C   UNL     1      -9.014   8.449  68.029  1.00  0.00    -0.138 C  
HETATM   11  N   UNL     1      -8.904   7.755  69.337  1.00  0.00    -0.139 NA 
HETATM   12  C   UNL     1      -9.422   8.690  70.366  1.00  0.00    -0.170 C  
HETATM   13  C   UNL     1     -10.820   9.295  70.072  1.00  0.00    -0.238 C  
BRANCH  11  14
HETATM   14  C   UNL     1      -9.610   6.435  69.325  1.00  0.00    -0.137 C  
BRANCH  14  15
HETATM   15  C   UNL     1      -9.407   5.688  67.993  1.00  0.00    -0.114 A  
HETATM   16  C   UNL     1     -10.523   5.292  67.233  1.00  0.00    -0.236 A  
HETATM   17  C   UNL     1      -8.128   5.464  67.451  1.00  0.00    -0.101 A  
HETATM   18  C   UNL     1     -10.363   4.722  65.966  1.00  0.00    -0.328 A  
HETATM   19  C   UNL     1      -9.088   4.514  65.448  1.00  0.00    -0.146 A  
HETATM   20  C   UNL     1      -7.971   4.874  66.194  1.00  0.00    -0.107 A  
ENDBRANCH  14  15
BRANCH  14  21
HETATM   21  C   UNL     1      -9.282   5.554  70.543  1.00  0.00    -0.179 A  
HETATM   22  C   UNL     1      -8.594   3.837  72.666  1.00  0.00    -0.094 A  
HETATM   23 CL   UNL     1      -8.171   2.762  73.940  1.00  0.00    -0.070 Cl 
HETATM   24  C   UNL     1      -9.926   3.977  72.291  1.00  0.00    -0.236 A  
HETATM   25  C   UNL     1      -7.942   5.409  70.953  1.00  0.00    -0.104 A  
HETATM   26  C   UNL     1     -10.266   4.823  71.231  1.00  0.00    -0.229 A  
HETATM   27  C   UNL     1      -7.599   4.549  72.002  1.00  0.00    -0.088 A  
ENDBRANCH  14  21
ENDBRANCH  11  14
ENDBRANCH   7   8
ENDBRANCH   6   7
ENDBRANCH   5   6
ENDBRANCH   3   5
TORSDOF 7
ENDMDL
MODEL      123
REMARK 921   NORMALIZED FREE ENERGY PREDICTED BY IDOCK:   -3.68 KCAL/MOL
REMARK 922        TOTAL FREE ENERGY PREDICTED BY IDOCK:   -5.87 KCAL/MOL
REMARK 923 INTER-LIGAND FREE ENERGY PREDICTED BY IDOCK:   -4.93 KCAL/MOL
REMARK 924 INTRA-LIGAND FREE ENERGY PREDICTED BY IDOCK:   -0.94 KCAL/MOL
REMARK 927      BINDING AFFINITY PREDICTED BY RF-SCORE:    0.00 PKD
ROOT
HETATM    1  O   UNL     1     -12.252  12.078  66.043  1.00  0.00    -0.546 OA 
HETATM    2  C   UNL     1     -11.672  13.107  66.710  1.00  0.00    -0.385 C  
HETATM    3  C   UNL     1     -11.583  12.854  68.207  1.00  0.00    -0.335 C  
HETATM    4  O   UNL     1     -11.270  14.122  66.160  1.00  0.00    -0.315 OA 
ENDROOT
BRANCH   3   5
HETATM    5  O   UNL     1     -12.230  11.619  68.549  1.00  0.00    -0.485 OA 
BRANCH   5   6
HETATM    6  C   UNL     1     -12.089  11.299  69.948  1.00  0.00    -0.341 C  
BRANCH   6   7
HETATM    7  C   UNL     1     -11.650   9.836  70.183  1.00  0.00    -0.182 C  
BRANCH   7   8
HETATM    8  N   UNL     1     -10.362   9.458  69.570  1.00  0.00    -0.204 NA 
HETATM    9  C   UNL     1      -9.412   8.870  70.542  1.00  0.00    -0.204 C  
HETATM   10  C   UNL     1      -9.743   7.419  70.980  1.00  0.00    -0.164 C  
HETATM   11  N   UNL     1      -9.880   6.451  69.864  1.00  0.00    -0.166 NA 
HETATM   12  C   UNL     1     -10.859   7.028  68.910  1.00  0.00    -0.167 C  
HETATM   13  C   UNL     1     -10.575   8.488  68.467  1.00  0.00    -0.111 C  
BRANCH  11  14
HETATM   14  C   UNL     1      -8.556   6.136  69.238  1.00  0.00    -0.119 C  
BRANCH  14  15
HETATM   15  C   UNL     1      -7.553   5.580  70.267  1.00  0.00    -0.080 A  
HETATM   16  C   UNL     1      -7.906   4.476  71.066  1.00  0.00    -0.073 A  
HETATM   17  C   UNL     1      -6.243   6.080  70.377  1.00  0.00    -0.031 A  
HETATM   18  C   UNL     1      -6.972   3.880  71.920  1.00  0.00    -0.037 A  
HETATM   19  C   UNL     1      -5.680   4.390  72.009  1.00  0.00    -0.012 A  
HETATM   20  C   UNL     1      -5.318   5.496  71.247  1.00  0.00    -0.009 A  
ENDBRANCH  14  15
BRANCH  14  21
HETATM   21  C   UNL     1      -8.666   5.243  67.990  1.00  0.00    -0.102 A  
HETATM   22  C   UNL     1      -8.981   3.723  65.640  1.00  0.00    -0.136 A  
HETATM   23 CL   UNL     1      -9.204   2.808  64.202  1.00  0.00    -0.114 Cl 
HETATM   24  C   UNL     1      -9.402   3.207  66.862  1.00  0.00    -0.163 A  
HETATM   25  C   UNL     1      -8.231   5.735  66.745  1.00  0.00    -0.105 A  
HETATM   26  C   UNL     1      -9.253   3.966  68.027  1.00  0.00    -0.212 A  
HETATM   27  C   UNL     1      -8.395   4.984  65.576  1.00  0.00    -0.126 A  
ENDBRANCH  14  21
ENDBRANCH  11  14
ENDBRANCH   7   8
ENDBRANCH   6   7
ENDBRANCH   5   6
ENDBRANCH   3   5
TORSDOF 7
ENDMDL
MODEL      124
REMARK 921   NORMALIZED FREE ENERGY PREDICTED BY IDOCK:   -3.63 KCAL/MOL
REMARK 922        TOTAL FREE ENERGY PREDICTED BY IDOCK:   -5.81 KCAL/MOL
REMARK 923 INTER-LIGAND FREE ENERGY PREDICTED BY IDOCK:   -4.87 KCAL/MOL
REMARK 924 INTRA-LIGAND FREE ENERGY PREDICTED BY IDOCK:   -0.93 KCAL/MOL
REMARK 927      BINDING AFFINITY PREDICTED BY RF-SCORE:    0.00 PKD
ROOT
HETATM    1  O   UNL     1     -11.051   6.083  69.402  1.00  0.00    -0.366 OA 
HETATM    2  C   UNL     1     -10.251   5.287  70.155  1.00  0.00    -0.280 C  
HETATM    3  C   UNL     1      -9.779   5.974  71.427  1.00  0.00    -0.164 C  
HETATM    4  O   UNL     1      -9.946   4.147  69.837  1.00  0.00    -0.209 OA 
ENDROOT
BRANCH   3   5
HETATM    5  O   UNL     1     -10.227   7.338  71.461  1.00  0.00    -0.194 OA 
BRANCH   5   6
HETATM    6  C   UNL     1      -9.130   8.273  71.422  1.00  0.00    -0.170 C  
BRANCH   6   7
HETATM    7  C   UNL     1      -8.009   7.836  70.453  1.00  0.00    -0.095 C  
BRANCH   7   8
HETATM    8  N   UNL     1      -7.507   8.891  69.552  1.00  0.00    -0.074 NA 
HETATM    9  C   UNL     1      -6.788   8.352  68.376  1.00  0.00    -0.065 C  
HETATM   10  C   UNL     1      -7.697   7.720  67.290  1.00  0.00    -0.113 C  
HETATM   11  N   UNL     1      -8.763   8.616  66.775  1.00  0.00    -0.122 NA 
HETATM   12  C   UNL     1      -9.503   9.127  67.956  1.00  0.00    -0.141 C  
HETATM   13  C   UNL     1      -8.625   9.744  69.076  1.00  0.00    -0.146 C  
BRANCH  11  14
HETATM   14  C   UNL     1      -8.203   9.702  65.910  1.00  0.00    -0.119 C  
BRANCH  14  15
HETATM   15  C   UNL     1      -7.532   9.138  64.643  1.00  0.00    -0.104 A  
HETATM   16  C   UNL     1      -6.211   9.504  64.325  1.00  0.00    -0.092 A  
HETATM   17  C   UNL     1      -8.165   8.182  63.827  1.00  0.00    -0.065 A  
HETATM   18  C   UNL     1      -5.541   8.913  63.249  1.00  0.00    -0.072 A  
HETATM   19  C   UNL     1      -6.185   7.966  62.459  1.00  0.00    -0.077 A  
HETATM   20  C   UNL     1      -7.501   7.609  62.740  1.00  0.00    -0.106 A  
ENDBRANCH  14  15
BRANCH  14  21
HETATM   21  C   UNL     1      -9.218  10.812  65.587  1.00  0.00    -0.226 A  
HETATM   22  C   UNL     1     -11.132  12.835  65.161  1.00  0.00    -0.291 A  
HETATM   23 CL   UNL     1     -12.319  14.056  64.927  1.00  0.00    -0.442 Cl 
HETATM   24  C   UNL     1     -11.254  11.614  64.504  1.00  0.00    -0.335 A  
HETATM   25  C   UNL     1      -9.107  12.062  66.227  1.00  0.00    -0.165 A  
HETATM   26  C   UNL     1     -10.308  10.607  64.722  1.00  0.00    -0.353 A  
HETATM   27  C   UNL     1     -10.061  13.064  66.022  1.00  0.00    -0.286 A  
ENDBRANCH  14  21
ENDBRANCH  11  14
ENDBRANCH   7   8
ENDBRANCH   6   7
ENDBRANCH   5   6
ENDBRANCH   3   5
TORSDOF 7
ENDMDL
MODEL      125
REMARK 921   NORMALIZED FREE ENERGY PREDICTED BY IDOCK:   -3.62 KCAL/MOL
REMARK 922        TOTAL FREE ENERGY PREDICTED BY IDOCK:   -5.79 KCAL/MOL
REMARK 923 INTER-LIGAND FREE ENERGY PREDICTED BY IDOCK:   -5.02 KCAL/MOL
REMARK 924 INTRA-LIGAND FREE ENERGY PREDICTED BY IDOCK:   -0.77 KCAL/MOL
REMARK 927      BINDING AFFINITY PREDICTED BY RF-SCORE:    0.00 PKD
ROOT
HETATM    1  O   UNL     1     -10.037   4.845  65.828  1.00  0.00    -0.191 OA 
HETATM    2  C   UNL     1      -8.724   4.572  66.026  1.00  0.00    -0.115 C  
HETATM    3  C   UNL     1      -8.367   4.471  67.501  1.00  0.00    -0.100 C  
HETATM    4  O   UNL     1      -7.923   4.427  65.114  1.00  0.00    -0.095 OA 
ENDROOT
BRANCH   3   5
HETATM    5  O   UNL     1      -9.504   4.789  68.318  1.00  0.00    -0.128 OA 
BRANCH   5   6
HETATM    6  C   UNL     1      -9.217   5.836  69.267  1.00  0.00    -0.117 C  
BRANCH   6   7
HETATM    7  C   UNL     1     -10.117   7.077  69.074  1.00  0.00    -0.180 C  
BRANCH   7   8
HETATM    8  N   UNL     1      -9.408   8.322  68.724  1.00  0.00    -0.144 NA 
HETATM    9  C   UNL     1      -9.789   8.848  67.393  1.00  0.00    -0.193 C  
HETATM   10  C   UNL     1     -11.189   9.511  67.332  1.00  0.00     0.371 C  
HETATM   11  N   UNL     1     -11.399  10.608  68.310  1.00  0.00    -0.300 NA 
HETATM   12  C   UNL     1     -11.050  10.066  69.646  1.00  0.00    -0.259 C  
HETATM   13  C   UNL     1      -9.665   9.372  69.741  1.00  0.00    -0.199 C  
BRANCH  11  14
HETATM   14  C   UNL     1     -10.620  11.834  67.944  1.00  0.00    -0.201 C  
BRANCH  14  15
HETATM   15  C   UNL     1     -10.940  12.311  66.514  1.00  0.00    -0.320 A  
HETATM   16  C   UNL     1     -12.278  12.478  66.113  1.00  0.00    -0.215 A  
HETATM   17  C   UNL     1      -9.929  12.682  65.608  1.00  0.00    -0.253 A  
HETATM   18  C   UNL     1     -12.590  13.023  64.863  1.00  0.00    -0.490 A  
HETATM   19  C   UNL     1     -11.574  13.387  63.985  1.00  0.00    -0.429 A  
HETATM   20  C   UNL     1     -10.244  13.206  64.352  1.00  0.00    -0.319 A  
ENDBRANCH  14  15
BRANCH  14  21
HETATM   21  C   UNL     1     -10.741  12.967  68.977  1.00  0.00    -0.138 A  
HETATM   22  C   UNL     1     -11.093  15.106  70.774  1.00  0.00    -0.255 A  
HETATM   23 CL   UNL     1     -11.322  16.431  71.846  1.00  0.00    -0.187 Cl 
HETATM   24  C   UNL     1      -9.919  15.009  70.034  1.00  0.00     0.033 A  
HETATM   25  C   UNL     1     -11.912  13.079  69.751  1.00  0.00    -0.377 A  
HETATM   26  C   UNL     1      -9.749  13.951  69.135  1.00  0.00     0.206 A  
HETATM   27  C   UNL     1     -12.091  14.145  70.638  1.00  0.00    -0.421 A  
ENDBRANCH  14  21
ENDBRANCH  11  14
ENDBRANCH   7   8
ENDBRANCH   6   7
ENDBRANCH   5   6
ENDBRANCH   3   5
TORSDOF 7
ENDMDL
MODEL      126
REMARK 921   NORMALIZED FREE ENERGY PREDICTED BY IDOCK:   -3.61 KCAL/MOL
REMARK 922        TOTAL FREE ENERGY PREDICTED BY IDOCK:   -5.78 KCAL/MOL
REMARK 923 INTER-LIGAND FREE ENERGY PREDICTED BY IDOCK:   -8.64 KCAL/MOL
REMARK 924 INTRA-LIGAND FREE ENERGY PREDICTED BY IDOCK:    2.86 KCAL/MOL
REMARK 927      BINDING AFFINITY PREDICTED BY RF-SCORE:    0.00 PKD
ROOT
HETATM    1  O   UNL     1      -7.157  20.110  68.508  1.00  0.00    -0.294 OA 
HETATM    2  C   UNL     1      -6.480  19.686  69.604  1.00  0.00    -0.336 C  
HETATM    3  C   UNL     1      -6.146  18.203  69.543  1.00  0.00    -0.248 C  
HETATM    4  O   UNL     1      -6.179  20.420  70.533  1.00  0.00    -0.487 OA 
ENDROOT
BRANCH   3   5
HETATM    5  O   UNL     1      -6.722  17.603  68.374  1.00  0.00    -0.190 OA 
BRANCH   5   6
HETATM    6  C   UNL     1      -7.659  16.558  68.703  1.00  0.00    -0.213 C  
BRANCH   6   7
HETATM    7  C   UNL     1      -8.643  16.256  67.550  1.00  0.00    -0.177 C  
BRANCH   7   8
HETATM    8  N   UNL     1      -8.913  14.825  67.309  1.00  0.00    -0.188 NA 
HETATM    9  C   UNL     1      -9.569  14.161  68.458  1.00  0.00    -0.214 C  
HETATM   10  C   UNL     1     -11.068  14.514  68.645  1.00  0.00    -0.257 C  
HETATM   11  N   UNL     1     -11.917  14.263  67.454  1.00  0.00    -0.404 NA 
HETATM   12  C   UNL     1     -11.274  14.960  66.313  1.00  0.00    -0.331 C  
HETATM   13  C   UNL     1      -9.767  14.652  66.108  1.00  0.00    -0.319 C  
BRANCH  11  14
HETATM   14  C   UNL     1     -12.121  12.798  67.217  1.00  0.00    -0.162 C  
BRANCH  14  15
HETATM   15  C   UNL     1     -11.579  12.359  65.843  1.00  0.00    -0.449 A  
HETATM   16  C   UNL     1     -10.389  11.611  65.765  1.00  0.00    -0.292 A  
HETATM   17  C   UNL     1     -12.286  12.598  64.651  1.00  0.00    -0.546 A  
HETATM   18  C   UNL     1      -9.942  11.099  64.543  1.00  0.00    -0.350 A  
HETATM   19  C   UNL     1     -10.661  11.344  63.376  1.00  0.00    -0.435 A  
HETATM   20  C   UNL     1     -11.826  12.103  63.428  1.00  0.00    -0.553 A  
ENDBRANCH  14  15
BRANCH  14  21
HETATM   21  C   UNL     1     -11.596  11.914  68.361  1.00  0.00    -0.376 A  
HETATM   22  C   UNL     1     -10.666  10.157  70.356  1.00  0.00    -0.266 A  
HETATM   23 CL   UNL     1     -10.118   9.060  71.561  1.00  0.00    -0.399 Cl 
HETATM   24  C   UNL     1     -11.813  10.913  70.577  1.00  0.00    -0.457 A  
HETATM   25  C   UNL     1     -10.427  11.152  68.169  1.00  0.00    -0.215 A  
HETATM   26  C   UNL     1     -12.279  11.779  69.582  1.00  0.00    -0.248 A  
HETATM   27  C   UNL     1      -9.970  10.273  69.156  1.00  0.00    -0.235 A  
ENDBRANCH  14  21
ENDBRANCH  11  14
ENDBRANCH   7   8
ENDBRANCH   6   7
ENDBRANCH   5   6
ENDBRANCH   3   5
TORSDOF 7
ENDMDL
MODEL      127
REMARK 921   NORMALIZED FREE ENERGY PREDICTED BY IDOCK:   -3.60 KCAL/MOL
REMARK 922        TOTAL FREE ENERGY PREDICTED BY IDOCK:   -5.75 KCAL/MOL
REMARK 923 INTER-LIGAND FREE ENERGY PREDICTED BY IDOCK:   -6.52 KCAL/MOL
REMARK 924 INTRA-LIGAND FREE ENERGY PREDICTED BY IDOCK:    0.77 KCAL/MOL
REMARK 927      BINDING AFFINITY PREDICTED BY RF-SCORE:    0.00 PKD
ROOT
HETATM    1  O   UNL     1     -10.275  12.852  64.842  1.00  0.00    -0.301 OA 
HETATM    2  C   UNL     1     -10.898  11.808  64.242  1.00  0.00    -0.349 C  
HETATM    3  C   UNL     1     -10.033  10.558  64.201  1.00  0.00    -0.318 C  
HETATM    4  O   UNL     1     -12.030  11.874  63.785  1.00  0.00    -0.441 OA 
ENDROOT
BRANCH   3   5
HETATM    5  O   UNL     1      -8.726  10.832  64.728  1.00  0.00    -0.174 OA 
BRANCH   5   6
HETATM    6  C   UNL     1      -8.206   9.729  65.497  1.00  0.00    -0.129 C  
BRANCH   6   7
HETATM    7  C   UNL     1      -7.047  10.147  66.429  1.00  0.00    -0.107 C  
BRANCH   7   8
HETATM    8  N   UNL     1      -7.133   9.638  67.812  1.00  0.00    -0.080 NA 
HETATM    9  C   UNL     1      -7.665  10.640  68.763  1.00  0.00    -0.117 C  
HETATM   10  C   UNL     1      -9.192  10.893  68.656  1.00  0.00    -0.187 C  
HETATM   11  N   UNL     1     -10.032   9.676  68.788  1.00  0.00    -0.167 NA 
HETATM   12  C   UNL     1      -9.517   8.688  67.808  1.00  0.00    -0.142 C  
HETATM   13  C   UNL     1      -7.989   8.427  67.868  1.00  0.00    -0.115 C  
BRANCH  11  14
HETATM   14  C   UNL     1     -10.048   9.164  70.195  1.00  0.00    -0.202 C  
BRANCH  14  15
HETATM   15  C   UNL     1     -11.276   9.672  70.976  1.00  0.00    -0.445 A  
HETATM   16  C   UNL     1     -11.743  10.984  70.773  1.00  0.00    -0.286 A  
HETATM   17  C   UNL     1     -12.017   8.834  71.829  1.00  0.00    -0.418 A  
HETATM   18  C   UNL     1     -12.923  11.427  71.378  1.00  0.00    -0.468 A  
HETATM   19  C   UNL     1     -13.643  10.579  72.214  1.00  0.00    -0.059 A  
HETATM   20  C   UNL     1     -13.184   9.286  72.449  1.00  0.00    -0.501 A  
ENDBRANCH  14  15
BRANCH  14  21
HETATM   21  C   UNL     1      -9.886   7.638  70.293  1.00  0.00    -0.180 A  
HETATM   22  C   UNL     1      -9.734   4.839  70.568  1.00  0.00    -0.211 A  
HETATM   23 CL   UNL     1      -9.659   3.132  70.765  1.00  0.00    -0.237 Cl 
HETATM   24  C   UNL     1      -8.754   5.646  71.137  1.00  0.00    -0.137 A  
HETATM   25  C   UNL     1     -10.856   6.798  69.712  1.00  0.00    -0.316 A  
HETATM   26  C   UNL     1      -8.835   7.036  71.007  1.00  0.00    -0.146 A  
HETATM   27  C   UNL     1     -10.786   5.409  69.855  1.00  0.00    -0.292 A  
ENDBRANCH  14  21
ENDBRANCH  11  14
ENDBRANCH   7   8
ENDBRANCH   6   7
ENDBRANCH   5   6
ENDBRANCH   3   5
TORSDOF 7
ENDMDL
MODEL      128
REMARK 921   NORMALIZED FREE ENERGY PREDICTED BY IDOCK:   -3.58 KCAL/MOL
REMARK 922        TOTAL FREE ENERGY PREDICTED BY IDOCK:   -5.73 KCAL/MOL
REMARK 923 INTER-LIGAND FREE ENERGY PREDICTED BY IDOCK:   -4.80 KCAL/MOL
REMARK 924 INTRA-LIGAND FREE ENERGY PREDICTED BY IDOCK:   -0.93 KCAL/MOL
REMARK 927      BINDING AFFINITY PREDICTED BY RF-SCORE:    0.00 PKD
ROOT
HETATM    1  O   UNL     1      -6.149   7.488  72.747  1.00  0.00    -0.049 OA 
HETATM    2  C   UNL     1      -6.586   8.312  73.732  1.00  0.00    -0.122 C  
HETATM    3  C   UNL     1      -7.694   7.687  74.565  1.00  0.00    -0.178 C  
HETATM    4  O   UNL     1      -6.134   9.432  73.920  1.00  0.00    -0.325 OA 
ENDROOT
BRANCH   3   5
HETATM    5  O   UNL     1      -8.066   6.408  74.031  1.00  0.00    -0.107 OA 
BRANCH   5   6
HETATM    6  C   UNL     1      -9.495   6.267  73.900  1.00  0.00    -0.155 C  
BRANCH   6   7
HETATM    7  C   UNL     1      -9.929   5.913  72.459  1.00  0.00    -0.177 C  
BRANCH   7   8
HETATM    8  N   UNL     1      -8.975   6.297  71.401  1.00  0.00    -0.139 NA 
HETATM    9  C   UNL     1      -8.862   5.280  70.331  1.00  0.00    -0.127 C  
HETATM   10  C   UNL     1     -10.069   5.221  69.359  1.00  0.00    -0.241 C  
HETATM   11  N   UNL     1     -10.400   6.511  68.702  1.00  0.00    -0.174 NA 
HETATM   12  C   UNL     1     -10.547   7.518  69.781  1.00  0.00    -0.241 C  
HETATM   13  C   UNL     1      -9.369   7.590  70.789  1.00  0.00    -0.162 C  
BRANCH  11  14
HETATM   14  C   UNL     1      -9.379   6.886  67.673  1.00  0.00    -0.121 C  
BRANCH  14  15
HETATM   15  C   UNL     1      -9.471   5.994  66.421  1.00  0.00    -0.174 A  
HETATM   16  C   UNL     1      -8.409   5.968  65.497  1.00  0.00    -0.146 A  
HETATM   17  C   UNL     1     -10.551   5.117  66.207  1.00  0.00    -0.325 A  
HETATM   18  C   UNL     1      -8.417   5.078  64.419  1.00  0.00    -0.142 A  
HETATM   19  C   UNL     1      -9.494   4.217  64.230  1.00  0.00    -0.160 A  
HETATM   20  C   UNL     1     -10.566   4.244  65.116  1.00  0.00    -0.169 A  
ENDBRANCH  14  15
BRANCH  14  21
HETATM   21  C   UNL     1      -9.385   8.384  67.323  1.00  0.00    -0.181 A  
HETATM   22  C   UNL     1      -9.393  11.161  66.853  1.00  0.00    -0.175 A  
HETATM   23 CL   UNL     1      -9.411  12.861  66.597  1.00  0.00    -0.251 Cl 
HETATM   24  C   UNL     1     -10.501  10.396  66.505  1.00  0.00    -0.262 A  
HETATM   25  C   UNL     1      -8.269   9.178  67.649  1.00  0.00    -0.108 A  
HETATM   26  C   UNL     1     -10.501   9.018  66.747  1.00  0.00    -0.270 A  
HETATM   27  C   UNL     1      -8.275  10.558  67.423  1.00  0.00    -0.118 A  
ENDBRANCH  14  21
ENDBRANCH  11  14
ENDBRANCH   7   8
ENDBRANCH   6   7
ENDBRANCH   5   6
ENDBRANCH   3   5
TORSDOF 7
ENDMDL
MODEL      129
REMARK 921   NORMALIZED FREE ENERGY PREDICTED BY IDOCK:   -3.52 KCAL/MOL
REMARK 922        TOTAL FREE ENERGY PREDICTED BY IDOCK:   -5.65 KCAL/MOL
REMARK 923 INTER-LIGAND FREE ENERGY PREDICTED BY IDOCK:   -4.93 KCAL/MOL
REMARK 924 INTRA-LIGAND FREE ENERGY PREDICTED BY IDOCK:   -0.72 KCAL/MOL
REMARK 927      BINDING AFFINITY PREDICTED BY RF-SCORE:    0.00 PKD
ROOT
HETATM    1  O   UNL     1     -10.469   6.499  68.553  1.00  0.00    -0.180 OA 
HETATM    2  C   UNL     1     -10.304   5.629  69.580  1.00  0.00    -0.276 C  
HETATM    3  C   UNL     1     -11.409   5.742  70.620  1.00  0.00    -0.022 C  
HETATM    4  O   UNL     1      -9.368   4.847  69.655  1.00  0.00    -0.110 OA 
ENDROOT
BRANCH   3   5
HETATM    5  O   UNL     1     -12.301   6.818  70.294  1.00  0.00    -0.220 OA 
BRANCH   5   6
HETATM    6  C   UNL     1     -12.874   7.425  71.469  1.00  0.00    -0.375 C  
BRANCH   6   7
HETATM    7  C   UNL     1     -13.215   8.919  71.261  1.00  0.00    -0.185 C  
BRANCH   7   8
HETATM    8  N   UNL     1     -12.085   9.853  71.430  1.00  0.00    -0.388 NA 
HETATM    9  C   UNL     1     -10.880   9.444  70.674  1.00  0.00    -0.283 C  
HETATM   10  C   UNL     1     -10.966   9.670  69.142  1.00  0.00    -0.151 C  
HETATM   11  N   UNL     1     -11.283  11.063  68.737  1.00  0.00    -0.242 NA 
HETATM   12  C   UNL     1     -12.511  11.455  69.472  1.00  0.00    -0.035 C  
HETATM   13  C   UNL     1     -12.473  11.221  71.005  1.00  0.00    -0.400 C  
BRANCH  11  14
HETATM   14  C   UNL     1     -10.127  11.986  68.976  1.00  0.00     0.092 C  
BRANCH  14  15
HETATM   15  C   UNL     1      -8.820  11.434  68.376  1.00  0.00    -0.167 A  
HETATM   16  C   UNL     1      -8.693  11.291  66.982  1.00  0.00    -0.152 A  
HETATM   17  C   UNL     1      -7.695  11.152  69.173  1.00  0.00    -0.076 A  
HETATM   18  C   UNL     1      -7.476  10.907  66.408  1.00  0.00    -0.145 A  
HETATM   19  C   UNL     1      -6.375  10.637  67.215  1.00  0.00    -0.064 A  
HETATM   20  C   UNL     1      -6.487  10.748  68.598  1.00  0.00    -0.055 A  
ENDBRANCH  14  15
BRANCH  14  21
HETATM   21  C   UNL     1     -10.402  13.435  68.541  1.00  0.00    -0.240 A  
HETATM   22  C   UNL     1     -10.769  16.078  67.638  1.00  0.00    -0.320 A  
HETATM   23 CL   UNL     1     -10.959  17.693  67.079  1.00  0.00    -0.051 Cl 
HETATM   24  C   UNL     1     -10.416  15.840  68.963  1.00  0.00    -0.225 A  
HETATM   25  C   UNL     1     -10.777  13.702  67.210  1.00  0.00    -0.283 A  
HETATM   26  C   UNL     1     -10.225  14.528  69.408  1.00  0.00    -0.051 A  
HETATM   27  C   UNL     1     -10.951  15.014  66.759  1.00  0.00    -0.323 A  
ENDBRANCH  14  21
ENDBRANCH  11  14
ENDBRANCH   7   8
ENDBRANCH   6   7
ENDBRANCH   5   6
ENDBRANCH   3   5
TORSDOF 7
ENDMDL
MODEL      130
REMARK 921   NORMALIZED FREE ENERGY PREDICTED BY IDOCK:   -3.51 KCAL/MOL
REMARK 922        TOTAL FREE ENERGY PREDICTED BY IDOCK:   -5.63 KCAL/MOL
REMARK 923 INTER-LIGAND FREE ENERGY PREDICTED BY IDOCK:   -8.33 KCAL/MOL
REMARK 924 INTRA-LIGAND FREE ENERGY PREDICTED BY IDOCK:    2.70 KCAL/MOL
REMARK 927      BINDING AFFINITY PREDICTED BY RF-SCORE:    0.00 PKD
ROOT
HETATM    1  O   UNL     1     -14.187   7.428  71.354  1.00  0.00    -0.433 OA 
HETATM    2  C   UNL     1     -13.725   8.482  72.071  1.00  0.00    -0.403 C  
HETATM    3  C   UNL     1     -12.279   8.819  71.743  1.00  0.00    -0.349 C  
HETATM    4  O   UNL     1     -14.402   9.086  72.891  1.00  0.00    -0.550 OA 
ENDROOT
BRANCH   3   5
HETATM    5  O   UNL     1     -11.736   7.867  70.817  1.00  0.00    -0.284 OA 
BRANCH   5   6
HETATM    6  C   UNL     1     -10.353   8.134  70.508  1.00  0.00    -0.202 C  
BRANCH   6   7
HETATM    7  C   UNL     1     -10.134   8.491  69.020  1.00  0.00    -0.199 C  
BRANCH   7   8
HETATM    8  N   UNL     1     -10.777   9.740  68.570  1.00  0.00    -0.223 NA 
HETATM    9  C   UNL     1     -10.142  10.951  69.136  1.00  0.00    -0.177 C  
HETATM   10  C   UNL     1      -8.769  11.318  68.515  1.00  0.00    -0.156 C  
HETATM   11  N   UNL     1      -8.780  11.480  67.039  1.00  0.00    -0.162 NA 
HETATM   12  C   UNL     1      -9.384  10.249  66.475  1.00  0.00    -0.166 C  
HETATM   13  C   UNL     1     -10.748   9.835  67.089  1.00  0.00    -0.202 C  
BRANCH  11  14
HETATM   14  C   UNL     1      -9.487  12.733  66.625  1.00  0.00    -0.249 C  
BRANCH  14  15
HETATM   15  C   UNL     1     -10.482  12.477  65.476  1.00  0.00    -0.305 A  
HETATM   16  C   UNL     1     -11.862  12.652  65.691  1.00  0.00    -0.488 A  
HETATM   17  C   UNL     1     -10.053  12.161  64.175  1.00  0.00    -0.335 A  
HETATM   18  C   UNL     1     -12.772  12.543  64.635  1.00  0.00    -0.434 A  
HETATM   19  C   UNL     1     -12.325  12.233  63.354  1.00  0.00    -0.624 A  
HETATM   20  C   UNL     1     -10.967  12.031  63.126  1.00  0.00    -0.269 A  
ENDBRANCH  14  15
BRANCH  14  21
HETATM   21  C   UNL     1     -10.134  13.488  67.799  1.00  0.00    -0.236 A  
HETATM   22  C   UNL     1     -11.426  14.944  69.834  1.00  0.00    -0.284 A  
HETATM   23 CL   UNL     1     -12.224  15.856  71.054  1.00  0.00    -0.443 Cl 
HETATM   24  C   UNL     1     -10.093  15.204  69.535  1.00  0.00    -0.222 A  
HETATM   25  C   UNL     1     -11.478  13.231  68.133  1.00  0.00    -0.347 A  
HETATM   26  C   UNL     1      -9.454  14.487  68.518  1.00  0.00    -0.211 A  
HETATM   27  C   UNL     1     -12.122  13.959  69.138  1.00  0.00    -0.377 A  
ENDBRANCH  14  21
ENDBRANCH  11  14
ENDBRANCH   7   8
ENDBRANCH   6   7
ENDBRANCH   5   6
ENDBRANCH   3   5
TORSDOF 7
ENDMDL
MODEL      131
REMARK 921   NORMALIZED FREE ENERGY PREDICTED BY IDOCK:   -3.43 KCAL/MOL
REMARK 922        TOTAL FREE ENERGY PREDICTED BY IDOCK:   -5.51 KCAL/MOL
REMARK 923 INTER-LIGAND FREE ENERGY PREDICTED BY IDOCK:   -4.96 KCAL/MOL
REMARK 924 INTRA-LIGAND FREE ENERGY PREDICTED BY IDOCK:   -0.55 KCAL/MOL
REMARK 927      BINDING AFFINITY PREDICTED BY RF-SCORE:    0.00 PKD
ROOT
HETATM    1  O   UNL     1     -12.425  14.449  72.955  1.00  0.00    -0.282 OA 
HETATM    2  C   UNL     1     -13.432  14.436  72.046  1.00  0.00    -0.402 C  
HETATM    3  C   UNL     1     -13.794  13.028  71.600  1.00  0.00     0.212 C  
HETATM    4  O   UNL     1     -13.979  15.449  71.636  1.00  0.00    -0.488 OA 
ENDROOT
BRANCH   3   5
HETATM    5  O   UNL     1     -12.904  12.067  72.188  1.00  0.00    -0.253 OA 
BRANCH   5   6
HETATM    6  C   UNL     1     -13.331  10.711  71.949  1.00  0.00    -0.349 C  
BRANCH   6   7
HETATM    7  C   UNL     1     -12.653  10.083  70.710  1.00  0.00    -0.285 C  
BRANCH   7   8
HETATM    8  N   UNL     1     -11.377  10.705  70.306  1.00  0.00    -0.316 NA 
HETATM    9  C   UNL     1     -10.280   9.723  70.154  1.00  0.00    -0.275 C  
HETATM   10  C   UNL     1     -10.367   8.840  68.882  1.00  0.00    -0.212 C  
HETATM   11  N   UNL     1     -10.454   9.597  67.607  1.00  0.00    -0.245 NA 
HETATM   12  C   UNL     1     -11.578  10.555  67.752  1.00  0.00     0.131 C  
HETATM   13  C   UNL     1     -11.539  11.439  69.026  1.00  0.00    -0.317 C  
BRANCH  11  14
HETATM   14  C   UNL     1      -9.153  10.254  67.263  1.00  0.00    -0.138 C  
BRANCH  14  15
HETATM   15  C   UNL     1      -8.231   9.315  66.462  1.00  0.00    -0.107 A  
HETATM   16  C   UNL     1      -8.748   8.577  65.381  1.00  0.00    -0.194 A  
HETATM   17  C   UNL     1      -6.849   9.236  66.713  1.00  0.00    -0.080 A  
HETATM   18  C   UNL     1      -7.907   7.813  64.567  1.00  0.00    -0.138 A  
HETATM   19  C   UNL     1      -6.541   7.753  64.831  1.00  0.00    -0.047 A  
HETATM   20  C   UNL     1      -6.014   8.454  65.911  1.00  0.00    -0.048 A  
ENDBRANCH  14  15
BRANCH  14  21
HETATM   21  C   UNL     1      -9.321  11.625  66.585  1.00  0.00    -0.203 A  
HETATM   22  C   UNL     1      -9.706  14.190  65.488  1.00  0.00    -0.132 A  
HETATM   23 CL   UNL     1      -9.968  15.761  64.840  1.00  0.00     0.097 Cl 
HETATM   24  C   UNL     1     -10.363  13.095  64.937  1.00  0.00    -0.352 A  
HETATM   25  C   UNL     1      -8.654  12.747  67.113  1.00  0.00    -0.197 A  
HETATM   26  C   UNL     1     -10.178  11.822  65.487  1.00  0.00    -0.291 A  
HETATM   27  C   UNL     1      -8.851  14.022  66.575  1.00  0.00    -0.048 A  
ENDBRANCH  14  21
ENDBRANCH  11  14
ENDBRANCH   7   8
ENDBRANCH   6   7
ENDBRANCH   5   6
ENDBRANCH   3   5
TORSDOF 7
ENDMDL
MODEL      132
REMARK 921   NORMALIZED FREE ENERGY PREDICTED BY IDOCK:   -3.42 KCAL/MOL
REMARK 922        TOTAL FREE ENERGY PREDICTED BY IDOCK:   -5.50 KCAL/MOL
REMARK 923 INTER-LIGAND FREE ENERGY PREDICTED BY IDOCK:   -5.07 KCAL/MOL
REMARK 924 INTRA-LIGAND FREE ENERGY PREDICTED BY IDOCK:   -0.43 KCAL/MOL
REMARK 927      BINDING AFFINITY PREDICTED BY RF-SCORE:    0.00 PKD
ROOT
HETATM    1  O   UNL     1      -8.869  10.949  64.436  1.00  0.00    -0.157 OA 
HETATM    2  C   UNL     1      -9.048  10.054  63.433  1.00  0.00    -0.273 C  
HETATM    3  C   UNL     1      -8.269   8.766  63.656  1.00  0.00    -0.163 C  
HETATM    4  O   UNL     1      -9.757  10.267  62.460  1.00  0.00    -0.262 OA 
ENDROOT
BRANCH   3   5
HETATM    5  O   UNL     1      -7.458   8.865  64.836  1.00  0.00    -0.094 OA 
BRANCH   5   6
HETATM    6  C   UNL     1      -8.114   8.315  65.996  1.00  0.00    -0.110 C  
BRANCH   6   7
HETATM    7  C   UNL     1      -7.983   6.778  66.081  1.00  0.00    -0.110 C  
BRANCH   7   8
HETATM    8  N   UNL     1      -9.023   6.099  66.879  1.00  0.00    -0.116 NA 
HETATM    9  C   UNL     1      -8.500   4.944  67.643  1.00  0.00    -0.104 C  
HETATM   10  C   UNL     1      -7.650   5.316  68.886  1.00  0.00    -0.081 C  
HETATM   11  N   UNL     1      -8.330   6.209  69.857  1.00  0.00    -0.126 NA 
HETATM   12  C   UNL     1      -8.821   7.382  69.092  1.00  0.00    -0.136 C  
HETATM   13  C   UNL     1      -9.655   7.050  67.827  1.00  0.00    -0.123 C  
BRANCH  11  14
HETATM   14  C   UNL     1      -9.412   5.493  70.605  1.00  0.00    -0.165 C  
BRANCH  14  15
HETATM   15  C   UNL     1      -8.838   4.548  71.678  1.00  0.00    -0.145 A  
HETATM   16  C   UNL     1      -7.737   4.954  72.455  1.00  0.00    -0.093 A  
HETATM   17  C   UNL     1      -9.438   3.312  71.981  1.00  0.00    -0.202 A  
HETATM   18  C   UNL     1      -7.276   4.165  73.513  1.00  0.00    -0.070 A  
HETATM   19  C   UNL     1      -7.887   2.947  73.798  1.00  0.00    -0.060 A  
HETATM   20  C   UNL     1      -8.960   2.515  73.025  1.00  0.00    -0.084 A  
ENDBRANCH  14  15
BRANCH  14  21
HETATM   21  C   UNL     1     -10.489   6.433  71.173  1.00  0.00    -0.265 A  
HETATM   22  C   UNL     1     -12.469   8.231  72.056  1.00  0.00    -0.351 A  
HETATM   23 CL   UNL     1     -13.669   9.350  72.571  1.00  0.00    -0.479 Cl 
HETATM   24  C   UNL     1     -11.187   8.293  72.592  1.00  0.00    -0.410 A  
HETATM   25  C   UNL     1     -11.799   6.379  70.659  1.00  0.00    -0.318 A  
HETATM   26  C   UNL     1     -10.202   7.406  72.147  1.00  0.00    -0.226 A  
HETATM   27  C   UNL     1     -12.781   7.277  71.091  1.00  0.00    -0.349 A  
ENDBRANCH  14  21
ENDBRANCH  11  14
ENDBRANCH   7   8
ENDBRANCH   6   7
ENDBRANCH   5   6
ENDBRANCH   3   5
TORSDOF 7
ENDMDL
MODEL      133
REMARK 921   NORMALIZED FREE ENERGY PREDICTED BY IDOCK:   -3.39 KCAL/MOL
REMARK 922        TOTAL FREE ENERGY PREDICTED BY IDOCK:   -5.46 KCAL/MOL
REMARK 923 INTER-LIGAND FREE ENERGY PREDICTED BY IDOCK:   -4.58 KCAL/MOL
REMARK 924 INTRA-LIGAND FREE ENERGY PREDICTED BY IDOCK:   -0.88 KCAL/MOL
REMARK 927      BINDING AFFINITY PREDICTED BY RF-SCORE:    0.00 PKD
ROOT
HETATM    1  O   UNL     1     -11.345  13.285  66.691  1.00  0.00    -0.301 OA 
HETATM    2  C   UNL     1     -10.968  14.007  67.775  1.00  0.00    -0.258 C  
HETATM    3  C   UNL     1     -10.789  13.144  69.015  1.00  0.00    -0.161 C  
HETATM    4  O   UNL     1     -10.797  15.217  67.750  1.00  0.00    -0.275 OA 
ENDROOT
BRANCH   3   5
HETATM    5  O   UNL     1     -11.161  11.785  68.742  1.00  0.00    -0.212 OA 
BRANCH   5   6
HETATM    6  C   UNL     1     -11.818  11.164  69.865  1.00  0.00    -0.363 C  
BRANCH   6   7
HETATM    7  C   UNL     1     -11.798   9.620  69.788  1.00  0.00     0.195 C  
BRANCH   7   8
HETATM    8  N   UNL     1     -10.503   8.989  70.111  1.00  0.00    -0.204 NA 
HETATM    9  C   UNL     1     -10.548   8.185  71.352  1.00  0.00    -0.220 C  
HETATM   10  C   UNL     1     -11.289   6.828  71.222  1.00  0.00    -0.289 C  
HETATM   11  N   UNL     1     -10.777   5.942  70.147  1.00  0.00    -0.292 NA 
HETATM   12  C   UNL     1     -10.767   6.743  68.898  1.00  0.00    -0.240 C  
HETATM   13  C   UNL     1     -10.056   8.119  68.995  1.00  0.00    -0.205 C  
BRANCH  11  14
HETATM   14  C   UNL     1      -9.439   5.366  70.493  1.00  0.00    -0.165 C  
BRANCH  14  15
HETATM   15  C   UNL     1      -9.440   4.710  71.887  1.00  0.00    -0.197 A  
HETATM   16  C   UNL     1     -10.382   3.709  72.191  1.00  0.00    -0.107 A  
HETATM   17  C   UNL     1      -8.463   5.009  72.853  1.00  0.00    -0.115 A  
HETATM   18  C   UNL     1     -10.327   3.016  73.404  1.00  0.00    -0.231 A  
HETATM   19  C   UNL     1      -9.348   3.326  74.344  1.00  0.00    -0.114 A  
HETATM   20  C   UNL     1      -8.423   4.330  74.074  1.00  0.00    -0.095 A  
ENDBRANCH  14  15
BRANCH  14  21
HETATM   21  C   UNL     1      -8.876   4.431  69.409  1.00  0.00    -0.133 A  
HETATM   22  C   UNL     1      -7.843   2.855  67.316  1.00  0.00    -0.074 A  
HETATM   23 CL   UNL     1      -7.226   1.914  66.016  1.00  0.00    -0.055 Cl 
HETATM   24  C   UNL     1      -9.120   2.605  67.808  1.00  0.00    -0.227 A  
HETATM   25  C   UNL     1      -7.579   4.653  68.906  1.00  0.00    -0.064 A  
HETATM   26  C   UNL     1      -9.636   3.393  68.841  1.00  0.00    -0.121 A  
HETATM   27  C   UNL     1      -7.069   3.876  67.862  1.00  0.00    -0.055 A  
ENDBRANCH  14  21
ENDBRANCH  11  14
ENDBRANCH   7   8
ENDBRANCH   6   7
ENDBRANCH   5   6
ENDBRANCH   3   5
TORSDOF 7
ENDMDL
MODEL      134
REMARK 921   NORMALIZED FREE ENERGY PREDICTED BY IDOCK:   -3.38 KCAL/MOL
REMARK 922        TOTAL FREE ENERGY PREDICTED BY IDOCK:   -5.45 KCAL/MOL
REMARK 923 INTER-LIGAND FREE ENERGY PREDICTED BY IDOCK:   -4.58 KCAL/MOL
REMARK 924 INTRA-LIGAND FREE ENERGY PREDICTED BY IDOCK:   -0.87 KCAL/MOL
REMARK 927      BINDING AFFINITY PREDICTED BY RF-SCORE:    0.00 PKD
ROOT
HETATM    1  O   UNL     1      -7.737  16.147  67.908  1.00  0.00    -0.133 OA 
HETATM    2  C   UNL     1      -8.587  17.119  67.494  1.00  0.00    -0.203 C  
HETATM    3  C   UNL     1     -10.009  16.610  67.313  1.00  0.00    -0.270 C  
HETATM    4  O   UNL     1      -8.239  18.273  67.290  1.00  0.00    -0.232 OA 
ENDROOT
BRANCH   3   5
HETATM    5  O   UNL     1     -10.070  15.193  67.536  1.00  0.00    -0.230 OA 
BRANCH   5   6
HETATM    6  C   UNL     1     -10.277  14.458  66.313  1.00  0.00    -0.299 C  
BRANCH   6   7
HETATM    7  C   UNL     1      -9.497  13.124  66.282  1.00  0.00    -0.185 C  
BRANCH   7   8
HETATM    8  N   UNL     1     -10.156  11.992  66.963  1.00  0.00    -0.202 NA 
HETATM    9  C   UNL     1      -9.961  10.704  66.260  1.00  0.00    -0.222 C  
HETATM   10  C   UNL     1      -8.542  10.093  66.403  1.00  0.00    -0.130 C  
HETATM   11  N   UNL     1      -8.089   9.898  67.803  1.00  0.00    -0.109 NA 
HETATM   12  C   UNL     1      -8.254  11.201  68.494  1.00  0.00    -0.149 C  
HETATM   13  C   UNL     1      -9.653  11.857  68.353  1.00  0.00    -0.196 C  
BRANCH  11  14
HETATM   14  C   UNL     1      -8.821   8.775  68.471  1.00  0.00    -0.138 C  
BRANCH  14  15
HETATM   15  C   UNL     1      -8.586   7.432  67.755  1.00  0.00    -0.120 A  
HETATM   16  C   UNL     1      -9.684   6.637  67.376  1.00  0.00    -0.155 A  
HETATM   17  C   UNL     1      -7.301   7.004  67.374  1.00  0.00    -0.092 A  
HETATM   18  C   UNL     1      -9.502   5.475  66.620  1.00  0.00    -0.154 A  
HETATM   19  C   UNL     1      -8.221   5.073  66.251  1.00  0.00    -0.108 A  
HETATM   20  C   UNL     1      -7.120   5.831  66.638  1.00  0.00    -0.069 A  
ENDBRANCH  14  15
BRANCH  14  21
HETATM   21  C   UNL     1      -8.553   8.684  69.984  1.00  0.00    -0.132 A  
HETATM   22  C   UNL     1      -7.979   8.369  72.723  1.00  0.00    -0.095 A  
HETATM   23 CL   UNL     1      -7.626   8.142  74.390  1.00  0.00    -0.247 Cl 
HETATM   24  C   UNL     1      -9.297   8.320  72.280  1.00  0.00    -0.323 A  
HETATM   25  C   UNL     1      -7.229   8.747  70.459  1.00  0.00    -0.059 A  
HETATM   26  C   UNL     1      -9.581   8.468  70.919  1.00  0.00    -0.228 A  
HETATM   27  C   UNL     1      -6.942   8.582  71.818  1.00  0.00    -0.099 A  
ENDBRANCH  14  21
ENDBRANCH  11  14
ENDBRANCH   7   8
ENDBRANCH   6   7
ENDBRANCH   5   6
ENDBRANCH   3   5
TORSDOF 7
ENDMDL
MODEL      135
REMARK 921   NORMALIZED FREE ENERGY PREDICTED BY IDOCK:   -3.38 KCAL/MOL
REMARK 922        TOTAL FREE ENERGY PREDICTED BY IDOCK:   -5.44 KCAL/MOL
REMARK 923 INTER-LIGAND FREE ENERGY PREDICTED BY IDOCK:   -5.74 KCAL/MOL
REMARK 924 INTRA-LIGAND FREE ENERGY PREDICTED BY IDOCK:    0.30 KCAL/MOL
REMARK 927      BINDING AFFINITY PREDICTED BY RF-SCORE:    0.00 PKD
ROOT
HETATM    1  O   UNL     1      -7.311   3.035  68.426  1.00  0.00    -0.049 OA 
HETATM    2  C   UNL     1      -6.987   2.783  67.133  1.00  0.00    -0.049 C  
HETATM    3  C   UNL     1      -8.118   3.123  66.174  1.00  0.00    -0.089 C  
HETATM    4  O   UNL     1      -5.905   2.331  66.787  1.00  0.00    -0.021 OA 
ENDROOT
BRANCH   3   5
HETATM    5  O   UNL     1      -9.286   3.537  66.896  1.00  0.00    -0.177 OA 
BRANCH   5   6
HETATM    6  C   UNL     1      -9.972   4.626  66.246  1.00  0.00    -0.247 C  
BRANCH   6   7
HETATM    7  C   UNL     1      -9.008   5.734  65.765  1.00  0.00    -0.135 C  
BRANCH   7   8
HETATM    8  N   UNL     1      -8.518   6.645  66.817  1.00  0.00    -0.114 NA 
HETATM    9  C   UNL     1      -8.501   8.062  66.390  1.00  0.00    -0.136 C  
HETATM   10  C   UNL     1      -9.895   8.737  66.317  1.00  0.00    -0.272 C  
HETATM   11  N   UNL     1     -10.683   8.670  67.574  1.00  0.00    -0.211 NA 
HETATM   12  C   UNL     1     -10.727   7.243  67.978  1.00  0.00    -0.146 C  
HETATM   13  C   UNL     1      -9.352   6.526  68.039  1.00  0.00    -0.108 C  
BRANCH  11  14
HETATM   14  C   UNL     1     -10.119   9.570  68.630  1.00  0.00    -0.181 C  
BRANCH  14  15
HETATM   15  C   UNL     1     -10.705  10.992  68.544  1.00  0.00    -0.236 A  
HETATM   16  C   UNL     1     -10.681  11.688  67.321  1.00  0.00    -0.281 A  
HETATM   17  C   UNL     1     -11.358  11.597  69.634  1.00  0.00    -0.308 A  
HETATM   18  C   UNL     1     -11.313  12.929  67.189  1.00  0.00    -0.352 A  
HETATM   19  C   UNL     1     -11.957  13.506  68.280  1.00  0.00    -0.377 A  
HETATM   20  C   UNL     1     -11.970  12.846  69.505  1.00  0.00    -0.346 A  
ENDBRANCH  14  15
BRANCH  14  21
HETATM   21  C   UNL     1     -10.216   8.984  70.049  1.00  0.00    -0.222 A  
HETATM   22  C   UNL     1     -10.308   7.772  72.590  1.00  0.00    -0.292 A  
HETATM   23 CL   UNL     1     -10.361   7.001  74.125  1.00  0.00    -0.323 Cl 
HETATM   24  C   UNL     1     -11.485   7.981  71.878  1.00  0.00    -0.341 A  
HETATM   25  C   UNL     1      -9.041   8.778  70.797  1.00  0.00    -0.233 A  
HETATM   26  C   UNL     1     -11.438   8.575  70.613  1.00  0.00    -0.249 A  
HETATM   27  C   UNL     1      -9.085   8.168  72.055  1.00  0.00    -0.241 A  
ENDBRANCH  14  21
ENDBRANCH  11  14
ENDBRANCH   7   8
ENDBRANCH   6   7
ENDBRANCH   5   6
ENDBRANCH   3   5
TORSDOF 7
ENDMDL
MODEL      136
REMARK 921   NORMALIZED FREE ENERGY PREDICTED BY IDOCK:   -3.35 KCAL/MOL
REMARK 922        TOTAL FREE ENERGY PREDICTED BY IDOCK:   -5.41 KCAL/MOL
REMARK 923 INTER-LIGAND FREE ENERGY PREDICTED BY IDOCK:   -4.61 KCAL/MOL
REMARK 924 INTRA-LIGAND FREE ENERGY PREDICTED BY IDOCK:   -0.80 KCAL/MOL
REMARK 927      BINDING AFFINITY PREDICTED BY RF-SCORE:    0.00 PKD
ROOT
HETATM    1  O   UNL     1      -9.578  13.813  68.512  1.00  0.00    -0.216 OA 
HETATM    2  C   UNL     1     -10.071  14.463  67.429  1.00  0.00    -0.243 C  
HETATM    3  C   UNL     1     -10.411  13.516  66.288  1.00  0.00    -0.290 C  
HETATM    4  O   UNL     1     -10.221  15.675  67.384  1.00  0.00    -0.255 OA 
ENDROOT
BRANCH   3   5
HETATM    5  O   UNL     1     -10.029  12.172  66.615  1.00  0.00    -0.201 OA 
BRANCH   5   6
HETATM    6  C   UNL     1      -8.818  11.771  65.944  1.00  0.00    -0.003 C  
BRANCH   6   7
HETATM    7  C   UNL     1      -8.293  10.401  66.430  1.00  0.00    -0.139 C  
BRANCH   7   8
HETATM    8  N   UNL     1      -9.327   9.373  66.656  1.00  0.00    -0.154 NA 
HETATM    9  C   UNL     1      -9.088   8.135  65.882  1.00  0.00    -0.130 C  
HETATM   10  C   UNL     1      -7.941   7.241  66.422  1.00  0.00    -0.112 C  
HETATM   11  N   UNL     1      -8.082   6.845  67.845  1.00  0.00    -0.114 NA 
HETATM   12  C   UNL     1      -8.286   8.093  68.621  1.00  0.00    -0.126 C  
HETATM   13  C   UNL     1      -9.410   9.026  68.097  1.00  0.00    -0.142 C  
BRANCH  11  14
HETATM   14  C   UNL     1      -9.176   5.840  68.036  1.00  0.00    -0.109 C  
BRANCH  14  15
HETATM   15  C   UNL     1      -8.856   4.504  67.339  1.00  0.00    -0.113 A  
HETATM   16  C   UNL     1      -9.712   4.012  66.337  1.00  0.00    -0.206 A  
HETATM   17  C   UNL     1      -7.672   3.791  67.604  1.00  0.00    -0.074 A  
HETATM   18  C   UNL     1      -9.380   2.865  65.608  1.00  0.00    -0.071 A  
HETATM   19  C   UNL     1      -8.201   2.178  65.884  1.00  0.00    -0.089 A  
HETATM   20  C   UNL     1      -7.353   2.633  66.889  1.00  0.00    -0.065 A  
ENDBRANCH  14  15
BRANCH  14  21
HETATM   21  C   UNL     1      -9.582   5.649  69.507  1.00  0.00    -0.192 A  
HETATM   22  C   UNL     1     -10.325   5.471  72.218  1.00  0.00    -0.210 A  
HETATM   23 CL   UNL     1     -10.764   5.394  73.878  1.00  0.00    -0.320 Cl 
HETATM   24  C   UNL     1      -9.088   4.988  71.805  1.00  0.00    -0.160 A  
HETATM   25  C   UNL     1     -10.836   6.115  69.947  1.00  0.00    -0.420 A  
HETATM   26  C   UNL     1      -8.716   5.084  70.460  1.00  0.00    -0.132 A  
HETATM   27  C   UNL     1     -11.202   6.034  71.295  1.00  0.00    -0.323 A  
ENDBRANCH  14  21
ENDBRANCH  11  14
ENDBRANCH   7   8
ENDBRANCH   6   7
ENDBRANCH   5   6
ENDBRANCH   3   5
TORSDOF 7
ENDMDL
MODEL      137
REMARK 921   NORMALIZED FREE ENERGY PREDICTED BY IDOCK:   -3.31 KCAL/MOL
REMARK 922        TOTAL FREE ENERGY PREDICTED BY IDOCK:   -5.35 KCAL/MOL
REMARK 923 INTER-LIGAND FREE ENERGY PREDICTED BY IDOCK:   -5.01 KCAL/MOL
REMARK 924 INTRA-LIGAND FREE ENERGY PREDICTED BY IDOCK:   -0.34 KCAL/MOL
REMARK 927      BINDING AFFINITY PREDICTED BY RF-SCORE:    0.00 PKD
ROOT
HETATM    1  O   UNL     1     -10.840   3.831  63.683  1.00  0.00    -0.256 OA 
HETATM    2  C   UNL     1      -9.539   3.883  63.304  1.00  0.00    -0.148 C  
HETATM    3  C   UNL     1      -8.657   2.951  64.122  1.00  0.00    -0.090 C  
HETATM    4  O   UNL     1      -9.128   4.603  62.406  1.00  0.00    -0.123 OA 
ENDROOT
BRANCH   3   5
HETATM    5  O   UNL     1      -9.419   2.319  65.161  1.00  0.00    -0.097 OA 
BRANCH   5   6
HETATM    6  C   UNL     1      -8.988   2.723  66.476  1.00  0.00    -0.148 C  
BRANCH   6   7
HETATM    7  C   UNL     1      -9.744   3.968  66.993  1.00  0.00    -0.178 C  
BRANCH   7   8
HETATM    8  N   UNL     1      -8.895   5.022  67.583  1.00  0.00    -0.103 NA 
HETATM    9  C   UNL     1      -8.687   6.171  66.672  1.00  0.00    -0.124 C  
HETATM   10  C   UNL     1      -9.913   7.108  66.516  1.00  0.00    -0.103 C  
HETATM   11  N   UNL     1     -10.444   7.653  67.791  1.00  0.00    -0.221 NA 
HETATM   12  C   UNL     1     -10.684   6.495  68.687  1.00  0.00    -0.271 C  
HETATM   13  C   UNL     1      -9.488   5.520  68.849  1.00  0.00    -0.129 C  
BRANCH  11  14
HETATM   14  C   UNL     1      -9.526   8.679  68.380  1.00  0.00    -0.138 C  
BRANCH  14  15
HETATM   15  C   UNL     1      -9.904  10.106  67.940  1.00  0.00    -0.176 A  
HETATM   16  C   UNL     1      -9.185  11.208  68.438  1.00  0.00    -0.175 A  
HETATM   17  C   UNL     1     -10.895  10.350  66.971  1.00  0.00    -0.269 A  
HETATM   18  C   UNL     1      -9.430  12.500  67.962  1.00  0.00    -0.209 A  
HETATM   19  C   UNL     1     -10.412  12.718  67.001  1.00  0.00    -0.245 A  
HETATM   20  C   UNL     1     -11.153  11.645  66.514  1.00  0.00    -0.357 A  
ENDBRANCH  14  15
BRANCH  14  21
HETATM   21  C   UNL     1      -9.374   8.560  69.906  1.00  0.00    -0.159 A  
HETATM   22  C   UNL     1      -9.059   8.174  72.678  1.00  0.00    -0.250 A  
HETATM   23 CL   UNL     1      -8.874   7.905  74.366  1.00  0.00    -0.136 Cl 
HETATM   24  C   UNL     1     -10.306   8.512  72.162  1.00  0.00    -0.409 A  
HETATM   25  C   UNL     1      -8.118   8.235  70.455  1.00  0.00    -0.108 A  
HETATM   26  C   UNL     1     -10.463   8.695  70.784  1.00  0.00    -0.249 A  
HETATM   27  C   UNL     1      -7.963   8.035  71.830  1.00  0.00    -0.140 A  
ENDBRANCH  14  21
ENDBRANCH  11  14
ENDBRANCH   7   8
ENDBRANCH   6   7
ENDBRANCH   5   6
ENDBRANCH   3   5
TORSDOF 7
ENDMDL
MODEL      138
REMARK 921   NORMALIZED FREE ENERGY PREDICTED BY IDOCK:   -3.30 KCAL/MOL
REMARK 922        TOTAL FREE ENERGY PREDICTED BY IDOCK:   -5.33 KCAL/MOL
REMARK 923 INTER-LIGAND FREE ENERGY PREDICTED BY IDOCK:   -8.39 KCAL/MOL
REMARK 924 INTRA-LIGAND FREE ENERGY PREDICTED BY IDOCK:    3.06 KCAL/MOL
REMARK 927      BINDING AFFINITY PREDICTED BY RF-SCORE:    0.00 PKD
ROOT
HETATM    1  O   UNL     1      -9.151   8.553  72.684  1.00  0.00    -0.253 OA 
HETATM    2  C   UNL     1     -10.359   7.984  72.923  1.00  0.00    -0.327 C  
HETATM    3  C   UNL     1     -11.468   8.603  72.086  1.00  0.00    -0.373 C  
HETATM    4  O   UNL     1     -10.527   7.078  73.725  1.00  0.00    -0.364 OA 
ENDROOT
BRANCH   3   5
HETATM    5  O   UNL     1     -10.966   9.707  71.319  1.00  0.00    -0.349 OA 
BRANCH   5   6
HETATM    6  C   UNL     1     -11.901  10.139  70.310  1.00  0.00    -0.261 C  
BRANCH   6   7
HETATM    7  C   UNL     1     -12.088  11.673  70.289  1.00  0.00    -0.358 C  
BRANCH   7   8
HETATM    8  N   UNL     1     -12.115  12.287  68.948  1.00  0.00    -0.213 NA 
HETATM    9  C   UNL     1     -11.886  13.750  68.979  1.00  0.00    -0.357 C  
HETATM   10  C   UNL     1     -10.419  14.173  69.251  1.00  0.00    -0.061 C  
HETATM   11  N   UNL     1      -9.423  13.596  68.314  1.00  0.00    -0.213 NA 
HETATM   12  C   UNL     1      -9.633  12.127  68.314  1.00  0.00    -0.210 C  
HETATM   13  C   UNL     1     -11.094  11.664  68.069  1.00  0.00    -0.242 C  
BRANCH  11  14
HETATM   14  C   UNL     1      -9.521  14.210  66.952  1.00  0.00    -0.267 C  
BRANCH  14  15
HETATM   15  C   UNL     1     -10.506  13.445  66.047  1.00  0.00    -0.294 A  
HETATM   16  C   UNL     1     -11.836  13.886  65.926  1.00  0.00    -0.399 A  
HETATM   17  C   UNL     1     -10.096  12.359  65.251  1.00  0.00    -0.285 A  
HETATM   18  C   UNL     1     -12.714  13.281  65.020  1.00  0.00    -0.438 A  
HETATM   19  C   UNL     1     -12.286  12.211  64.239  1.00  0.00    -0.469 A  
HETATM   20  C   UNL     1     -10.981  11.743  64.363  1.00  0.00    -0.397 A  
ENDBRANCH  14  15
BRANCH  14  21
HETATM   21  C   UNL     1      -9.811  15.721  66.982  1.00  0.00    -0.238 A  
HETATM   22  C   UNL     1     -10.211  18.508  66.925  1.00  0.00    -0.381 A  
HETATM   23 CL   UNL     1     -10.422  20.214  66.882  1.00  0.00    -0.507 Cl 
HETATM   24  C   UNL     1      -9.796  17.891  68.101  1.00  0.00    -0.334 A  
HETATM   25  C   UNL     1     -10.249  16.367  65.810  1.00  0.00    -0.370 A  
HETATM   26  C   UNL     1      -9.589  16.508  68.126  1.00  0.00    -0.226 A  
HETATM   27  C   UNL     1     -10.439  17.752  65.778  1.00  0.00    -0.199 A  
ENDBRANCH  14  21
ENDBRANCH  11  14
ENDBRANCH   7   8
ENDBRANCH   6   7
ENDBRANCH   5   6
ENDBRANCH   3   5
TORSDOF 7
ENDMDL
MODEL      139
REMARK 921   NORMALIZED FREE ENERGY PREDICTED BY IDOCK:   -3.29 KCAL/MOL
REMARK 922        TOTAL FREE ENERGY PREDICTED BY IDOCK:   -5.32 KCAL/MOL
REMARK 923 INTER-LIGAND FREE ENERGY PREDICTED BY IDOCK:   -4.63 KCAL/MOL
REMARK 924 INTRA-LIGAND FREE ENERGY PREDICTED BY IDOCK:   -0.69 KCAL/MOL
REMARK 927      BINDING AFFINITY PREDICTED BY RF-SCORE:    0.00 PKD
ROOT
HETATM    1  O   UNL     1     -12.250  15.765  69.644  1.00  0.00    -0.336 OA 
HETATM    2  C   UNL     1     -11.199  16.147  68.877  1.00  0.00    -0.351 C  
HETATM    3  C   UNL     1     -11.068  15.312  67.612  1.00  0.00    -0.323 C  
HETATM    4  O   UNL     1     -10.445  17.060  69.178  1.00  0.00    -0.320 OA 
ENDROOT
BRANCH   3   5
HETATM    5  O   UNL     1     -12.043  14.259  67.599  1.00  0.00    -0.376 OA 
BRANCH   5   6
HETATM    6  C   UNL     1     -11.470  12.981  67.941  1.00  0.00    -0.311 C  
BRANCH   6   7
HETATM    7  C   UNL     1     -11.248  12.079  66.706  1.00  0.00    -0.322 C  
BRANCH   7   8
HETATM    8  N   UNL     1      -9.882  11.540  66.556  1.00  0.00    -0.198 NA 
HETATM    9  C   UNL     1      -9.190  11.355  67.851  1.00  0.00    -0.164 C  
HETATM   10  C   UNL     1      -9.683  10.142  68.684  1.00  0.00    -0.163 C  
HETATM   11  N   UNL     1      -9.634   8.840  67.973  1.00  0.00    -0.140 NA 
HETATM   12  C   UNL     1     -10.359   9.022  66.691  1.00  0.00    -0.219 C  
HETATM   13  C   UNL     1      -9.911  10.240  65.841  1.00  0.00    -0.256 C  
BRANCH  11  14
HETATM   14  C   UNL     1      -8.227   8.358  67.796  1.00  0.00    -0.126 C  
BRANCH  14  15
HETATM   15  C   UNL     1      -7.490   8.232  69.143  1.00  0.00    -0.086 A  
HETATM   16  C   UNL     1      -8.191   7.813  70.290  1.00  0.00    -0.125 A  
HETATM   17  C   UNL     1      -6.102   8.432  69.255  1.00  0.00    -0.038 A  
HETATM   18  C   UNL     1      -7.520   7.576  71.494  1.00  0.00    -0.079 A  
HETATM   19  C   UNL     1      -6.145   7.776  71.581  1.00  0.00    -0.035 A  
HETATM   20  C   UNL     1      -5.438   8.215  70.466  1.00  0.00    -0.022 A  
ENDBRANCH  14  15
BRANCH  14  21
HETATM   21  C   UNL     1      -8.121   7.076  66.952  1.00  0.00    -0.116 A  
HETATM   22  C   UNL     1      -7.861   4.650  65.545  1.00  0.00    -0.094 A  
HETATM   23 CL   UNL     1      -7.676   3.160  64.708  1.00  0.00    -0.077 Cl 
HETATM   24  C   UNL     1      -7.108   5.757  65.165  1.00  0.00    -0.064 A  
HETATM   25  C   UNL     1      -8.885   5.947  67.306  1.00  0.00    -0.106 A  
HETATM   26  C   UNL     1      -7.232   6.959  65.870  1.00  0.00    -0.074 A  
HETATM   27  C   UNL     1      -8.750   4.740  66.613  1.00  0.00    -0.111 A  
ENDBRANCH  14  21
ENDBRANCH  11  14
ENDBRANCH   7   8
ENDBRANCH   6   7
ENDBRANCH   5   6
ENDBRANCH   3   5
TORSDOF 7
ENDMDL
MODEL      140
REMARK 921   NORMALIZED FREE ENERGY PREDICTED BY IDOCK:   -3.21 KCAL/MOL
REMARK 922        TOTAL FREE ENERGY PREDICTED BY IDOCK:   -5.21 KCAL/MOL
REMARK 923 INTER-LIGAND FREE ENERGY PREDICTED BY IDOCK:   -4.43 KCAL/MOL
REMARK 924 INTRA-LIGAND FREE ENERGY PREDICTED BY IDOCK:   -0.78 KCAL/MOL
REMARK 927      BINDING AFFINITY PREDICTED BY RF-SCORE:    0.00 PKD
ROOT
HETATM    1  O   UNL     1     -10.732  13.675  64.808  1.00  0.00    -0.363 OA 
HETATM    2  C   UNL     1     -11.783  12.921  65.214  1.00  0.00    -0.364 C  
HETATM    3  C   UNL     1     -11.351  11.584  65.794  1.00  0.00    -0.095 C  
HETATM    4  O   UNL     1     -12.947  13.284  65.118  1.00  0.00    -0.705 OA 
ENDROOT
BRANCH   3   5
HETATM    5  O   UNL     1      -9.930  11.417  65.675  1.00  0.00    -0.219 OA 
BRANCH   5   6
HETATM    6  C   UNL     1      -9.575  10.509  64.613  1.00  0.00    -0.292 C  
BRANCH   6   7
HETATM    7  C   UNL     1      -8.866   9.237  65.129  1.00  0.00    -0.198 C  
BRANCH   7   8
HETATM    8  N   UNL     1      -9.464   8.624  66.331  1.00  0.00    -0.212 NA 
HETATM    9  C   UNL     1      -9.407   7.145  66.312  1.00  0.00    -0.104 C  
HETATM   10  C   UNL     1      -8.003   6.544  66.584  1.00  0.00    -0.109 C  
HETATM   11  N   UNL     1      -7.373   6.989  67.853  1.00  0.00    -0.094 NA 
HETATM   12  C   UNL     1      -7.401   8.472  67.850  1.00  0.00    -0.093 C  
HETATM   13  C   UNL     1      -8.784   9.112  67.557  1.00  0.00    -0.119 C  
BRANCH  11  14
HETATM   14  C   UNL     1      -8.045   6.384  69.047  1.00  0.00    -0.111 C  
BRANCH  14  15
HETATM   15  C   UNL     1      -8.028   4.844  68.996  1.00  0.00    -0.076 A  
HETATM   16  C   UNL     1      -9.225   4.123  69.168  1.00  0.00    -0.211 A  
HETATM   17  C   UNL     1      -6.862   4.121  68.685  1.00  0.00    -0.047 A  
HETATM   18  C   UNL     1      -9.255   2.734  69.007  1.00  0.00    -0.221 A  
HETATM   19  C   UNL     1      -8.090   2.040  68.695  1.00  0.00    -0.065 A  
HETATM   20  C   UNL     1      -6.892   2.731  68.546  1.00  0.00    -0.047 A  
ENDBRANCH  14  15
BRANCH  14  21
HETATM   21  C   UNL     1      -7.520   6.929  70.386  1.00  0.00    -0.086 A  
HETATM   22  C   UNL     1      -6.605   8.086  72.785  1.00  0.00    -0.080 A  
HETATM   23 CL   UNL     1      -6.043   8.822  74.234  1.00  0.00    -0.143 Cl 
HETATM   24  C   UNL     1      -5.698   7.501  71.907  1.00  0.00    -0.036 A  
HETATM   25  C   UNL     1      -8.420   7.511  71.300  1.00  0.00    -0.116 A  
HETATM   26  C   UNL     1      -6.152   6.935  70.712  1.00  0.00    -0.032 A  
HETATM   27  C   UNL     1      -7.965   8.093  72.487  1.00  0.00    -0.195 A  
ENDBRANCH  14  21
ENDBRANCH  11  14
ENDBRANCH   7   8
ENDBRANCH   6   7
ENDBRANCH   5   6
ENDBRANCH   3   5
TORSDOF 7
ENDMDL
MODEL      141
REMARK 921   NORMALIZED FREE ENERGY PREDICTED BY IDOCK:   -3.19 KCAL/MOL
REMARK 922        TOTAL FREE ENERGY PREDICTED BY IDOCK:   -5.18 KCAL/MOL
REMARK 923 INTER-LIGAND FREE ENERGY PREDICTED BY IDOCK:   -5.06 KCAL/MOL
REMARK 924 INTRA-LIGAND FREE ENERGY PREDICTED BY IDOCK:   -0.12 KCAL/MOL
REMARK 927      BINDING AFFINITY PREDICTED BY RF-SCORE:    0.00 PKD
ROOT
HETATM    1  O   UNL     1      -9.645  12.152  65.252  1.00  0.00    -0.182 OA 
HETATM    2  C   UNL     1     -10.918  11.930  65.663  1.00  0.00    -0.304 C  
HETATM    3  C   UNL     1     -11.000  10.890  66.769  1.00  0.00    -0.185 C  
HETATM    4  O   UNL     1     -11.886  12.507  65.190  1.00  0.00    -0.366 OA 
ENDROOT
BRANCH   3   5
HETATM    5  O   UNL     1      -9.704  10.330  67.033  1.00  0.00    -0.166 OA 
BRANCH   5   6
HETATM    6  C   UNL     1      -9.421   9.192  66.195  1.00  0.00    -0.245 C  
BRANCH   6   7
HETATM    7  C   UNL     1      -9.344   7.870  66.992  1.00  0.00    -0.160 C  
BRANCH   7   8
HETATM    8  N   UNL     1      -9.648   7.983  68.432  1.00  0.00    -0.149 NA 
HETATM    9  C   UNL     1     -10.778   7.124  68.852  1.00  0.00    -0.175 C  
HETATM   10  C   UNL     1     -10.448   5.611  68.939  1.00  0.00    -0.240 C  
HETATM   11  N   UNL     1      -9.297   5.277  69.815  1.00  0.00    -0.127 NA 
HETATM   12  C   UNL     1      -8.157   6.115  69.367  1.00  0.00    -0.112 C  
HETATM   13  C   UNL     1      -8.456   7.632  69.244  1.00  0.00    -0.138 C  
BRANCH  11  14
HETATM   14  C   UNL     1      -9.633   5.455  71.263  1.00  0.00    -0.157 C  
BRANCH  14  15
HETATM   15  C   UNL     1      -9.936   4.111  71.952  1.00  0.00    -0.253 A  
HETATM   16  C   UNL     1     -10.721   4.082  73.120  1.00  0.00    -0.272 A  
HETATM   17  C   UNL     1      -9.533   2.882  71.399  1.00  0.00    -0.216 A  
HETATM   18  C   UNL     1     -11.109   2.867  73.694  1.00  0.00    -0.326 A  
HETATM   19  C   UNL     1     -10.702   1.663  73.127  1.00  0.00    -0.228 A  
HETATM   20  C   UNL     1      -9.905   1.670  71.986  1.00  0.00    -0.200 A  
ENDBRANCH  14  15
BRANCH  14  21
HETATM   21  C   UNL     1      -8.592   6.284  72.035  1.00  0.00    -0.131 A  
HETATM   22  C   UNL     1      -6.691   7.681  73.574  1.00  0.00    -0.078 A  
HETATM   23 CL   UNL     1      -5.543   8.518  74.542  1.00  0.00    -0.099 Cl 
HETATM   24  C   UNL     1      -7.943   8.241  73.343  1.00  0.00    -0.215 A  
HETATM   25  C   UNL     1      -7.311   5.746  72.269  1.00  0.00    -0.091 A  
HETATM   26  C   UNL     1      -8.890   7.543  72.586  1.00  0.00    -0.180 A  
HETATM   27  C   UNL     1      -6.370   6.436  73.040  1.00  0.00    -0.063 A  
ENDBRANCH  14  21
ENDBRANCH  11  14
ENDBRANCH   7   8
ENDBRANCH   6   7
ENDBRANCH   5   6
ENDBRANCH   3   5
TORSDOF 7
ENDMDL
MODEL      142
REMARK 921   NORMALIZED FREE ENERGY PREDICTED BY IDOCK:   -3.18 KCAL/MOL
REMARK 922        TOTAL FREE ENERGY PREDICTED BY IDOCK:   -5.17 KCAL/MOL
REMARK 923 INTER-LIGAND FREE ENERGY PREDICTED BY IDOCK:   -5.20 KCAL/MOL
REMARK 924 INTRA-LIGAND FREE ENERGY PREDICTED BY IDOCK:    0.04 KCAL/MOL
REMARK 927      BINDING AFFINITY PREDICTED BY RF-SCORE:    0.00 PKD
ROOT
HETATM    1  O   UNL     1      -7.539   5.935  71.203  1.00  0.00    -0.095 OA 
HETATM    2  C   UNL     1      -6.580   5.023  70.904  1.00  0.00    -0.035 C  
HETATM    3  C   UNL     1      -6.827   4.336  69.570  1.00  0.00    -0.045 C  
HETATM    4  O   UNL     1      -5.628   4.786  71.633  1.00  0.00    -0.007 OA 
ENDROOT
BRANCH   3   5
HETATM    5  O   UNL     1      -8.077   4.762  69.006  1.00  0.00    -0.078 OA 
BRANCH   5   6
HETATM    6  C   UNL     1      -8.012   4.892  67.572  1.00  0.00    -0.095 C  
BRANCH   6   7
HETATM    7  C   UNL     1      -7.472   6.269  67.123  1.00  0.00    -0.084 C  
BRANCH   7   8
HETATM    8  N   UNL     1      -7.611   7.354  68.113  1.00  0.00    -0.112 NA 
HETATM    9  C   UNL     1      -6.979   8.619  67.673  1.00  0.00    -0.075 C  
HETATM   10  C   UNL     1      -7.757   9.388  66.574  1.00  0.00    -0.094 C  
HETATM   11  N   UNL     1      -9.167   9.701  66.917  1.00  0.00    -0.141 NA 
HETATM   12  C   UNL     1      -9.805   8.425  67.322  1.00  0.00    -0.203 C  
HETATM   13  C   UNL     1      -9.043   7.614  68.403  1.00  0.00    -0.130 C  
BRANCH  11  14
HETATM   14  C   UNL     1      -9.259  10.770  67.962  1.00  0.00    -0.150 C  
BRANCH  14  15
HETATM   15  C   UNL     1      -9.430  12.168  67.338  1.00  0.00    -0.179 A  
HETATM   16  C   UNL     1     -10.139  12.317  66.132  1.00  0.00    -0.265 A  
HETATM   17  C   UNL     1      -8.980  13.333  67.986  1.00  0.00    -0.191 A  
HETATM   18  C   UNL     1     -10.410  13.586  65.610  1.00  0.00    -0.303 A  
HETATM   19  C   UNL     1      -9.959  14.725  66.270  1.00  0.00    -0.308 A  
HETATM   20  C   UNL     1      -9.234  14.599  67.451  1.00  0.00    -0.201 A  
ENDBRANCH  14  15
BRANCH  14  21
HETATM   21  C   UNL     1     -10.316  10.480  69.042  1.00  0.00    -0.232 A  
HETATM   22  C   UNL     1     -12.252  10.120  71.055  1.00  0.00    -0.374 A  
HETATM   23 CL   UNL     1     -13.424   9.928  72.299  1.00  0.00    -0.478 Cl 
HETATM   24  C   UNL     1     -10.980   9.579  71.211  1.00  0.00    -0.440 A  
HETATM   25  C   UNL     1     -11.616  11.002  68.899  1.00  0.00    -0.383 A  
HETATM   26  C   UNL     1     -10.016   9.766  70.215  1.00  0.00    -0.309 A  
HETATM   27  C   UNL     1     -12.575  10.831  69.902  1.00  0.00    -0.199 A  
ENDBRANCH  14  21
ENDBRANCH  11  14
ENDBRANCH   7   8
ENDBRANCH   6   7
ENDBRANCH   5   6
ENDBRANCH   3   5
TORSDOF 7
ENDMDL
MODEL      143
REMARK 921   NORMALIZED FREE ENERGY PREDICTED BY IDOCK:   -3.17 KCAL/MOL
REMARK 922        TOTAL FREE ENERGY PREDICTED BY IDOCK:   -5.16 KCAL/MOL
REMARK 923 INTER-LIGAND FREE ENERGY PREDICTED BY IDOCK:   -8.66 KCAL/MOL
REMARK 924 INTRA-LIGAND FREE ENERGY PREDICTED BY IDOCK:    3.51 KCAL/MOL
REMARK 927      BINDING AFFINITY PREDICTED BY RF-SCORE:    0.00 PKD
ROOT
HETATM    1  O   UNL     1     -14.401  13.360  72.703  1.00  0.00    -0.709 OA 
HETATM    2  C   UNL     1     -13.228  13.897  72.286  1.00  0.00    -0.473 C  
HETATM    3  C   UNL     1     -12.419  12.934  71.430  1.00  0.00    -0.132 C  
HETATM    4  O   UNL     1     -12.868  15.030  72.572  1.00  0.00    -0.313 OA 
ENDROOT
BRANCH   3   5
HETATM    5  O   UNL     1     -13.066  11.654  71.362  1.00  0.00    -0.375 OA 
BRANCH   5   6
HETATM    6  C   UNL     1     -12.963  11.061  70.052  1.00  0.00     0.134 C  
BRANCH   6   7
HETATM    7  C   UNL     1     -11.624  11.389  69.353  1.00  0.00    -0.323 C  
BRANCH   7   8
HETATM    8  N   UNL     1     -11.744  12.044  68.037  1.00  0.00    -0.432 NA 
HETATM    9  C   UNL     1     -11.565  13.512  68.105  1.00  0.00    -0.333 C  
HETATM   10  C   UNL     1     -10.102  13.981  68.315  1.00  0.00    -0.246 C  
HETATM   11  N   UNL     1      -9.136  13.470  67.310  1.00  0.00    -0.216 NA 
HETATM   12  C   UNL     1      -9.295  11.996  67.271  1.00  0.00    -0.180 C  
HETATM   13  C   UNL     1     -10.749  11.487  67.086  1.00  0.00    -0.254 C  
BRANCH  11  14
HETATM   14  C   UNL     1      -9.328  14.124  65.976  1.00  0.00    -0.075 C  
BRANCH  14  15
HETATM   15  C   UNL     1     -10.479  13.479  65.181  1.00  0.00    -0.375 A  
HETATM   16  C   UNL     1     -10.217  12.401  64.315  1.00  0.00    -0.358 A  
HETATM   17  C   UNL     1     -11.819  13.868  65.360  1.00  0.00    -0.363 A  
HETATM   18  C   UNL     1     -11.259  11.722  63.676  1.00  0.00    -0.519 A  
HETATM   19  C   UNL     1     -12.578  12.123  63.872  1.00  0.00    -0.545 A  
HETATM   20  C   UNL     1     -12.858  13.202  64.704  1.00  0.00    -0.235 A  
ENDBRANCH  14  15
BRANCH  14  21
HETATM   21  C   UNL     1      -9.462  15.654  66.058  1.00  0.00    -0.390 A  
HETATM   22  C   UNL     1      -9.701  18.442  66.382  1.00  0.00    -0.339 A  
HETATM   23 CL   UNL     1      -9.861  20.138  66.611  1.00  0.00    -0.565 Cl 
HETATM   24  C   UNL     1     -10.754  17.714  65.837  1.00  0.00    -0.113 A  
HETATM   25  C   UNL     1      -8.404  16.416  66.591  1.00  0.00    -0.305 A  
HETATM   26  C   UNL     1     -10.638  16.328  65.685  1.00  0.00    -0.360 A  
HETATM   27  C   UNL     1      -8.525  17.799  66.760  1.00  0.00    -0.269 A  
ENDBRANCH  14  21
ENDBRANCH  11  14
ENDBRANCH   7   8
ENDBRANCH   6   7
ENDBRANCH   5   6
ENDBRANCH   3   5
TORSDOF 7
ENDMDL
MODEL      144
REMARK 921   NORMALIZED FREE ENERGY PREDICTED BY IDOCK:   -3.16 KCAL/MOL
REMARK 922        TOTAL FREE ENERGY PREDICTED BY IDOCK:   -5.14 KCAL/MOL
REMARK 923 INTER-LIGAND FREE ENERGY PREDICTED BY IDOCK:   -4.06 KCAL/MOL
REMARK 924 INTRA-LIGAND FREE ENERGY PREDICTED BY IDOCK:   -1.07 KCAL/MOL
REMARK 927      BINDING AFFINITY PREDICTED BY RF-SCORE:    0.00 PKD
ROOT
HETATM    1  O   UNL     1     -10.775   3.164  63.882  1.00  0.00    -0.218 OA 
HETATM    2  C   UNL     1      -9.475   3.453  63.624  1.00  0.00    -0.122 C  
HETATM    3  C   UNL     1      -8.530   2.849  64.651  1.00  0.00    -0.091 C  
HETATM    4  O   UNL     1      -9.113   4.127  62.670  1.00  0.00    -0.102 OA 
ENDROOT
BRANCH   3   5
HETATM    5  O   UNL     1      -9.268   2.200  65.697  1.00  0.00    -0.108 OA 
BRANCH   5   6
HETATM    6  C   UNL     1      -8.846   2.627  67.007  1.00  0.00    -0.137 C  
BRANCH   6   7
HETATM    7  C   UNL     1      -9.623   3.865  67.510  1.00  0.00    -0.163 C  
BRANCH   7   8
HETATM    8  N   UNL     1      -8.794   5.040  67.840  1.00  0.00    -0.103 NA 
HETATM    9  C   UNL     1      -8.121   5.622  66.657  1.00  0.00    -0.105 C  
HETATM   10  C   UNL     1      -9.052   6.422  65.708  1.00  0.00     0.003 C  
HETATM   11  N   UNL     1      -9.810   7.518  66.362  1.00  0.00    -0.138 NA 
HETATM   12  C   UNL     1     -10.509   6.922  67.526  1.00  0.00    -0.247 C  
HETATM   13  C   UNL     1      -9.616   6.093  68.486  1.00  0.00    -0.119 C  
BRANCH  11  14
HETATM   14  C   UNL     1      -8.920   8.666  66.727  1.00  0.00    -0.141 C  
BRANCH  14  15
HETATM   15  C   UNL     1      -7.991   9.064  65.564  1.00  0.00    -0.106 A  
HETATM   16  C   UNL     1      -6.594   8.999  65.728  1.00  0.00    -0.064 A  
HETATM   17  C   UNL     1      -8.490   9.404  64.293  1.00  0.00    -0.198 A  
HETATM   18  C   UNL     1      -5.734   9.239  64.652  1.00  0.00    -0.064 A  
HETATM   19  C   UNL     1      -6.250   9.570  63.402  1.00  0.00    -0.100 A  
HETATM   20  C   UNL     1      -7.627   9.665  63.226  1.00  0.00    -0.119 A  
ENDBRANCH  14  15
BRANCH  14  21
HETATM   21  C   UNL     1      -9.682   9.872  67.303  1.00  0.00    -0.213 A  
HETATM   22  C   UNL     1     -11.156  11.970  68.468  1.00  0.00    -0.244 A  
HETATM   23 CL   UNL     1     -12.079  13.228  69.189  1.00  0.00    -0.326 Cl 
HETATM   24  C   UNL     1     -11.382  11.616  67.142  1.00  0.00    -0.373 A  
HETATM   25  C   UNL     1      -9.459  10.260  68.638  1.00  0.00    -0.169 A  
HETATM   26  C   UNL     1     -10.656  10.569  66.566  1.00  0.00    -0.240 A  
HETATM   27  C   UNL     1     -10.196  11.297  69.220  1.00  0.00    -0.058 A  
ENDBRANCH  14  21
ENDBRANCH  11  14
ENDBRANCH   7   8
ENDBRANCH   6   7
ENDBRANCH   5   6
ENDBRANCH   3   5
TORSDOF 7
ENDMDL
MODEL      145
REMARK 921   NORMALIZED FREE ENERGY PREDICTED BY IDOCK:   -3.16 KCAL/MOL
REMARK 922        TOTAL FREE ENERGY PREDICTED BY IDOCK:   -5.13 KCAL/MOL
REMARK 923 INTER-LIGAND FREE ENERGY PREDICTED BY IDOCK:   -5.51 KCAL/MOL
REMARK 924 INTRA-LIGAND FREE ENERGY PREDICTED BY IDOCK:    0.38 KCAL/MOL
REMARK 927      BINDING AFFINITY PREDICTED BY RF-SCORE:    0.00 PKD
ROOT
HETATM    1  O   UNL     1     -10.655  15.841  69.422  1.00  0.00    -0.217 OA 
HETATM    2  C   UNL     1     -10.486  17.094  68.931  1.00  0.00    -0.346 C  
HETATM    3  C   UNL     1     -10.851  17.195  67.458  1.00  0.00    -0.203 C  
HETATM    4  O   UNL     1     -10.082  18.031  69.604  1.00  0.00     0.018 OA 
ENDROOT
BRANCH   3   5
HETATM    5  O   UNL     1     -11.194  15.904  66.932  1.00  0.00    -0.168 OA 
BRANCH   5   6
HETATM    6  C   UNL     1     -10.684  15.705  65.599  1.00  0.00    -0.364 C  
BRANCH   6   7
HETATM    7  C   UNL     1      -9.974  14.342  65.430  1.00  0.00    -0.311 C  
BRANCH   7   8
HETATM    8  N   UNL     1     -10.737  13.171  65.901  1.00  0.00    -0.271 NA 
HETATM    9  C   UNL     1     -10.554  11.980  65.041  1.00  0.00    -0.289 C  
HETATM   10  C   UNL     1      -9.183  11.272  65.192  1.00  0.00    -0.149 C  
HETATM   11  N   UNL     1      -8.845  10.863  66.579  1.00  0.00    -0.158 NA 
HETATM   12  C   UNL     1      -8.995  12.069  67.431  1.00  0.00    -0.176 C  
HETATM   13  C   UNL     1     -10.346  12.819  67.290  1.00  0.00    -0.232 C  
BRANCH  11  14
HETATM   14  C   UNL     1      -9.679   9.706  67.034  1.00  0.00    -0.181 C  
BRANCH  14  15
HETATM   15  C   UNL     1      -8.847   8.416  67.164  1.00  0.00    -0.139 A  
HETATM   16  C   UNL     1      -7.456   8.495  67.363  1.00  0.00    -0.093 A  
HETATM   17  C   UNL     1      -9.445   7.142  67.188  1.00  0.00    -0.180 A  
HETATM   18  C   UNL     1      -6.699   7.344  67.604  1.00  0.00    -0.066 A  
HETATM   19  C   UNL     1      -7.312   6.094  67.626  1.00  0.00    -0.080 A  
HETATM   20  C   UNL     1      -8.682   5.992  67.407  1.00  0.00    -0.104 A  
ENDBRANCH  14  15
BRANCH  14  21
HETATM   21  C   UNL     1     -10.497  10.003  68.303  1.00  0.00    -0.246 A  
HETATM   22  C   UNL     1     -12.008  10.375  70.650  1.00  0.00    -0.351 A  
HETATM   23 CL   UNL     1     -12.944  10.570  72.079  1.00  0.00    -0.547 Cl 
HETATM   24  C   UNL     1     -12.531  10.761  69.420  1.00  0.00     0.008 A  
HETATM   25  C   UNL     1      -9.983   9.636  69.562  1.00  0.00    -0.223 A  
HETATM   26  C   UNL     1     -11.784  10.568  68.254  1.00  0.00    -0.051 A  
HETATM   27  C   UNL     1     -10.736   9.813  70.727  1.00  0.00    -0.393 A  
ENDBRANCH  14  21
ENDBRANCH  11  14
ENDBRANCH   7   8
ENDBRANCH   6   7
ENDBRANCH   5   6
ENDBRANCH   3   5
TORSDOF 7
ENDMDL
MODEL      146
REMARK 921   NORMALIZED FREE ENERGY PREDICTED BY IDOCK:   -3.08 KCAL/MOL
REMARK 922        TOTAL FREE ENERGY PREDICTED BY IDOCK:   -5.02 KCAL/MOL
REMARK 923 INTER-LIGAND FREE ENERGY PREDICTED BY IDOCK:   -5.23 KCAL/MOL
REMARK 924 INTRA-LIGAND FREE ENERGY PREDICTED BY IDOCK:    0.20 KCAL/MOL
REMARK 927      BINDING AFFINITY PREDICTED BY RF-SCORE:    0.00 PKD
ROOT
HETATM    1  O   UNL     1     -10.001  20.187  67.751  1.00  0.00    -0.389 OA 
HETATM    2  C   UNL     1     -10.380  19.606  66.586  1.00  0.00    -0.486 C  
HETATM    3  C   UNL     1     -11.084  18.275  66.803  1.00  0.00     0.352 C  
HETATM    4  O   UNL     1     -10.173  20.102  65.489  1.00  0.00    -0.364 OA 
ENDROOT
BRANCH   3   5
HETATM    5  O   UNL     1     -11.082  17.923  68.194  1.00  0.00    -0.145 OA 
BRANCH   5   6
HETATM    6  C   UNL     1     -10.208  16.812  68.474  1.00  0.00    -0.298 C  
BRANCH   6   7
HETATM    7  C   UNL     1     -10.195  15.763  67.339  1.00  0.00    -0.270 C  
BRANCH   7   8
HETATM    8  N   UNL     1      -9.164  14.715  67.461  1.00  0.00    -0.188 NA 
HETATM    9  C   UNL     1      -9.332  13.879  68.671  1.00  0.00    -0.106 C  
HETATM   10  C   UNL     1     -10.500  12.861  68.602  1.00  0.00    -0.213 C  
HETATM   11  N   UNL     1     -10.452  11.939  67.439  1.00  0.00    -0.213 NA 
HETATM   12  C   UNL     1     -10.319  12.783  66.227  1.00  0.00    -0.258 C  
HETATM   13  C   UNL     1      -9.176  13.832  66.267  1.00  0.00    -0.071 C  
BRANCH  11  14
HETATM   14  C   UNL     1      -9.358  10.926  67.580  1.00  0.00    -0.156 C  
BRANCH  14  15
HETATM   15  C   UNL     1      -9.864   9.622  68.226  1.00  0.00    -0.169 A  
HETATM   16  C   UNL     1     -10.056   8.475  67.434  1.00  0.00    -0.298 A  
HETATM   17  C   UNL     1     -10.056   9.503  69.615  1.00  0.00    -0.228 A  
HETATM   18  C   UNL     1     -10.399   7.250  68.015  1.00  0.00    -0.243 A  
HETATM   19  C   UNL     1     -10.579   7.154  69.392  1.00  0.00    -0.246 A  
HETATM   20  C   UNL     1     -10.420   8.283  70.191  1.00  0.00    -0.225 A  
ENDBRANCH  14  15
BRANCH  14  21
HETATM   21  C   UNL     1      -8.590  10.669  66.272  1.00  0.00    -0.156 A  
HETATM   22  C   UNL     1      -7.226  10.030  63.893  1.00  0.00    -0.125 A  
HETATM   23 CL   UNL     1      -6.389   9.608  62.451  1.00  0.00    -0.096 Cl 
HETATM   24  C   UNL     1      -6.516  10.487  64.998  1.00  0.00    -0.030 A  
HETATM   25  C   UNL     1      -9.288  10.221  65.134  1.00  0.00    -0.279 A  
HETATM   26  C   UNL     1      -7.193  10.796  66.182  1.00  0.00    -0.126 A  
HETATM   27  C   UNL     1      -8.610   9.896  63.955  1.00  0.00    -0.202 A  
ENDBRANCH  14  21
ENDBRANCH  11  14
ENDBRANCH   7   8
ENDBRANCH   6   7
ENDBRANCH   5   6
ENDBRANCH   3   5
TORSDOF 7
ENDMDL
MODEL      147
REMARK 921   NORMALIZED FREE ENERGY PREDICTED BY IDOCK:   -3.04 KCAL/MOL
REMARK 922        TOTAL FREE ENERGY PREDICTED BY IDOCK:   -4.96 KCAL/MOL
REMARK 923 INTER-LIGAND FREE ENERGY PREDICTED BY IDOCK:   -6.30 KCAL/MOL
REMARK 924 INTRA-LIGAND FREE ENERGY PREDICTED BY IDOCK:    1.34 KCAL/MOL
REMARK 927      BINDING AFFINITY PREDICTED BY RF-SCORE:    0.00 PKD
ROOT
HETATM    1  O   UNL     1     -12.566   8.487  72.529  1.00  0.00    -0.376 OA 
HETATM    2  C   UNL     1     -12.014   7.571  71.695  1.00  0.00    -0.302 C  
HETATM    3  C   UNL     1     -11.280   8.215  70.529  1.00  0.00    -0.247 C  
HETATM    4  O   UNL     1     -12.103   6.365  71.868  1.00  0.00    -0.336 OA 
ENDROOT
BRANCH   3   5
HETATM    5  O   UNL     1     -11.442   9.641  70.555  1.00  0.00    -0.259 OA 
BRANCH   5   6
HETATM    6  C   UNL     1     -12.307  10.111  69.502  1.00  0.00     0.320 C  
BRANCH   6   7
HETATM    7  C   UNL     1     -12.283  11.649  69.353  1.00  0.00    -0.182 C  
BRANCH   7   8
HETATM    8  N   UNL     1     -11.134  12.192  68.604  1.00  0.00    -0.235 NA 
HETATM    9  C   UNL     1     -11.516  12.752  67.288  1.00  0.00    -0.337 C  
HETATM   10  C   UNL     1     -12.248  14.118  67.349  1.00  0.00    -0.243 C  
HETATM   11  N   UNL     1     -11.515  15.182  68.079  1.00  0.00    -0.336 NA 
HETATM   12  C   UNL     1     -11.165  14.629  69.410  1.00  0.00    -0.279 C  
HETATM   13  C   UNL     1     -10.452  13.250  69.391  1.00  0.00     0.327 C  
BRANCH  11  14
HETATM   14  C   UNL     1     -10.327  15.667  67.306  1.00  0.00    -0.277 C  
BRANCH  14  15
HETATM   15  C   UNL     1     -10.311  17.202  67.182  1.00  0.00    -0.307 A  
HETATM   16  C   UNL     1     -10.435  17.806  65.916  1.00  0.00    -0.251 A  
HETATM   17  C   UNL     1     -10.271  18.042  68.310  1.00  0.00    -0.402 A  
HETATM   18  C   UNL     1     -10.544  19.194  65.790  1.00  0.00    -0.417 A  
HETATM   19  C   UNL     1     -10.507  20.005  66.921  1.00  0.00    -0.523 A  
HETATM   20  C   UNL     1     -10.358  19.430  68.180  1.00  0.00    -0.525 A  
ENDBRANCH  14  15
BRANCH  14  21
HETATM   21  C   UNL     1      -8.990  15.110  67.825  1.00  0.00    -0.178 A  
HETATM   22  C   UNL     1      -6.620  13.936  68.793  1.00  0.00    -0.098 A  
HETATM   23 CL   UNL     1      -5.193  13.195  69.401  1.00  0.00    -0.075 Cl 
HETATM   24  C   UNL     1      -7.258  14.924  69.536  1.00  0.00    -0.184 A  
HETATM   25  C   UNL     1      -8.316  14.120  67.084  1.00  0.00    -0.189 A  
HETATM   26  C   UNL     1      -8.440  15.501  69.059  1.00  0.00    -0.229 A  
HETATM   27  C   UNL     1      -7.144  13.530  67.569  1.00  0.00    -0.159 A  
ENDBRANCH  14  21
ENDBRANCH  11  14
ENDBRANCH   7   8
ENDBRANCH   6   7
ENDBRANCH   5   6
ENDBRANCH   3   5
TORSDOF 7
ENDMDL
MODEL      148
REMARK 921   NORMALIZED FREE ENERGY PREDICTED BY IDOCK:   -3.00 KCAL/MOL
REMARK 922        TOTAL FREE ENERGY PREDICTED BY IDOCK:   -4.91 KCAL/MOL
REMARK 923 INTER-LIGAND FREE ENERGY PREDICTED BY IDOCK:   -5.57 KCAL/MOL
REMARK 924 INTRA-LIGAND FREE ENERGY PREDICTED BY IDOCK:    0.66 KCAL/MOL
REMARK 927      BINDING AFFINITY PREDICTED BY RF-SCORE:    0.00 PKD
ROOT
HETATM    1  O   UNL     1     -10.252  12.633  64.922  1.00  0.00    -0.290 OA 
HETATM    2  C   UNL     1     -10.765  11.642  64.151  1.00  0.00    -0.362 C  
HETATM    3  C   UNL     1      -9.743  10.561  63.837  1.00  0.00    -0.325 C  
HETATM    4  O   UNL     1     -11.922  11.629  63.756  1.00  0.00    -0.384 OA 
ENDROOT
BRANCH   3   5
HETATM    5  O   UNL     1      -8.455  10.917  64.361  1.00  0.00    -0.056 OA 
BRANCH   5   6
HETATM    6  C   UNL     1      -8.155  10.223  65.589  1.00  0.00    -0.155 C  
BRANCH   6   7
HETATM    7  C   UNL     1      -7.166  11.001  66.486  1.00  0.00    -0.143 C  
BRANCH   7   8
HETATM    8  N   UNL     1      -7.408  10.888  67.937  1.00  0.00    -0.087 NA 
HETATM    9  C   UNL     1      -8.111  12.064  68.497  1.00  0.00    -0.123 C  
HETATM   10  C   UNL     1      -9.621  12.145  68.152  1.00  0.00    -0.208 C  
HETATM   11  N   UNL     1     -10.409  10.945  68.530  1.00  0.00    -0.178 NA 
HETATM   12  C   UNL     1      -9.719   9.773  67.937  1.00  0.00    -0.144 C  
HETATM   13  C   UNL     1      -8.201   9.670  68.240  1.00  0.00    -0.106 C  
BRANCH  11  14
HETATM   14  C   UNL     1     -10.585  10.843  70.014  1.00  0.00     0.116 C  
BRANCH  14  15
HETATM   15  C   UNL     1     -11.712  11.761  70.523  1.00  0.00    -0.146 A  
HETATM   16  C   UNL     1     -12.496  11.366  71.623  1.00  0.00    -0.219 A  
HETATM   17  C   UNL     1     -11.933  13.041  69.982  1.00  0.00    -0.383 A  
HETATM   18  C   UNL     1     -13.444  12.233  72.177  1.00  0.00    -0.431 A  
HETATM   19  C   UNL     1     -13.642  13.497  71.628  1.00  0.00    -0.342 A  
HETATM   20  C   UNL     1     -12.896  13.896  70.524  1.00  0.00    -0.250 A  
ENDBRANCH  14  15
BRANCH  14  21
HETATM   21  C   UNL     1     -10.741   9.396  70.513  1.00  0.00    -0.335 A  
HETATM   22  C   UNL     1     -10.860   6.720  71.383  1.00  0.00    -0.236 A  
HETATM   23 CL   UNL     1     -10.908   5.078  71.892  1.00  0.00    -0.182 Cl 
HETATM   24  C   UNL     1     -11.628   7.132  70.298  1.00  0.00    -0.260 A  
HETATM   25  C   UNL     1      -9.988   8.959  71.620  1.00  0.00    -0.397 A  
HETATM   26  C   UNL     1     -11.561   8.459  69.861  1.00  0.00     0.289 A  
HETATM   27  C   UNL     1     -10.040   7.628  72.047  1.00  0.00    -0.233 A  
ENDBRANCH  14  21
ENDBRANCH  11  14
ENDBRANCH   7   8
ENDBRANCH   6   7
ENDBRANCH   5   6
ENDBRANCH   3   5
TORSDOF 7
ENDMDL
MODEL      149
REMARK 921   NORMALIZED FREE ENERGY PREDICTED BY IDOCK:   -3.00 KCAL/MOL
REMARK 922        TOTAL FREE ENERGY PREDICTED BY IDOCK:   -4.91 KCAL/MOL
REMARK 923 INTER-LIGAND FREE ENERGY PREDICTED BY IDOCK:   -7.53 KCAL/MOL
REMARK 924 INTRA-LIGAND FREE ENERGY PREDICTED BY IDOCK:    2.61 KCAL/MOL
REMARK 927      BINDING AFFINITY PREDICTED BY RF-SCORE:    0.00 PKD
ROOT
HETATM    1  O   UNL     1     -11.046   7.433  66.790  1.00  0.00    -0.149 OA 
HETATM    2  C   UNL     1     -10.106   7.596  67.753  1.00  0.00    -0.186 C  
HETATM    3  C   UNL     1      -9.646   9.041  67.877  1.00  0.00    -0.147 C  
HETATM    4  O   UNL     1      -9.680   6.679  68.439  1.00  0.00    -0.126 OA 
ENDROOT
BRANCH   3   5
HETATM    5  O   UNL     1     -10.260   9.855  66.867  1.00  0.00    -0.218 OA 
BRANCH   5   6
HETATM    6  C   UNL     1      -9.449  10.995  66.518  1.00  0.00    -0.187 C  
BRANCH   6   7
HETATM    7  C   UNL     1     -10.241  12.076  65.748  1.00  0.00    -0.242 C  
BRANCH   7   8
HETATM    8  N   UNL     1     -10.144  13.441  66.299  1.00  0.00    -0.293 NA 
HETATM    9  C   UNL     1     -11.410  14.199  66.185  1.00  0.00    -0.337 C  
HETATM   10  C   UNL     1     -12.519  13.769  67.181  1.00  0.00    -0.045 C  
HETATM   11  N   UNL     1     -12.116  13.805  68.610  1.00  0.00    -0.355 NA 
HETATM   12  C   UNL     1     -10.866  13.014  68.725  1.00  0.00    -0.244 C  
HETATM   13  C   UNL     1      -9.742  13.399  67.727  1.00  0.00    -0.216 C  
BRANCH  11  14
HETATM   14  C   UNL     1     -11.979  15.209  69.112  1.00  0.00    -0.274 C  
BRANCH  14  15
HETATM   15  C   UNL     1     -12.244  15.305  70.627  1.00  0.00    -0.412 A  
HETATM   16  C   UNL     1     -13.563  15.419  71.103  1.00  0.00    -0.536 A  
HETATM   17  C   UNL     1     -11.210  15.186  71.573  1.00  0.00    -0.323 A  
HETATM   18  C   UNL     1     -13.837  15.386  72.475  1.00  0.00    -0.651 A  
HETATM   19  C   UNL     1     -12.798  15.263  73.393  1.00  0.00    -0.667 A  
HETATM   20  C   UNL     1     -11.484  15.175  72.943  1.00  0.00    -0.206 A  
ENDBRANCH  14  15
BRANCH  14  21
HETATM   21  C   UNL     1     -10.654  15.877  68.708  1.00  0.00    -0.245 A  
HETATM   22  C   UNL     1      -8.233  17.191  68.117  1.00  0.00    -0.224 A  
HETATM   23 CL   UNL     1      -6.766  18.019  67.776  1.00  0.00    -0.196 Cl 
HETATM   24  C   UNL     1      -9.352  17.405  67.318  1.00  0.00    -0.238 A  
HETATM   25  C   UNL     1      -9.502  15.664  69.491  1.00  0.00    -0.275 A  
HETATM   26  C   UNL     1     -10.556  16.759  67.617  1.00  0.00    -0.325 A  
HETATM   27  C   UNL     1      -8.303  16.322  69.203  1.00  0.00    -0.211 A  
ENDBRANCH  14  21
ENDBRANCH  11  14
ENDBRANCH   7   8
ENDBRANCH   6   7
ENDBRANCH   5   6
ENDBRANCH   3   5
TORSDOF 7
ENDMDL
MODEL      150
REMARK 921   NORMALIZED FREE ENERGY PREDICTED BY IDOCK:   -2.97 KCAL/MOL
REMARK 922        TOTAL FREE ENERGY PREDICTED BY IDOCK:   -4.86 KCAL/MOL
REMARK 923 INTER-LIGAND FREE ENERGY PREDICTED BY IDOCK:   -5.28 KCAL/MOL
REMARK 924 INTRA-LIGAND FREE ENERGY PREDICTED BY IDOCK:    0.42 KCAL/MOL
REMARK 927      BINDING AFFINITY PREDICTED BY RF-SCORE:    0.00 PKD
ROOT
HETATM    1  O   UNL     1      -7.310   1.899  67.764  1.00  0.00    -0.052 OA 
HETATM    2  C   UNL     1      -7.040   2.126  66.454  1.00  0.00    -0.052 C  
HETATM    3  C   UNL     1      -8.103   2.980  65.781  1.00  0.00    -0.086 C  
HETATM    4  O   UNL     1      -6.051   1.686  65.886  1.00  0.00    -0.021 OA 
ENDROOT
BRANCH   3   5
HETATM    5  O   UNL     1      -9.182   3.251  66.687  1.00  0.00    -0.158 OA 
BRANCH   5   6
HETATM    6  C   UNL     1      -9.876   4.471  66.359  1.00  0.00    -0.229 C  
BRANCH   6   7
HETATM    7  C   UNL     1      -8.917   5.612  65.952  1.00  0.00    -0.155 C  
BRANCH   7   8
HETATM    8  N   UNL     1      -8.670   6.629  66.992  1.00  0.00    -0.112 NA 
HETATM    9  C   UNL     1      -9.820   7.539  67.193  1.00  0.00    -0.201 C  
HETATM   10  C   UNL     1     -11.020   6.914  67.950  1.00  0.00    -0.183 C  
HETATM   11  N   UNL     1     -10.684   6.337  69.276  1.00  0.00    -0.269 NA 
HETATM   12  C   UNL     1      -9.554   5.400  69.064  1.00  0.00    -0.141 C  
HETATM   13  C   UNL     1      -8.343   5.982  68.287  1.00  0.00    -0.113 C  
BRANCH  11  14
HETATM   14  C   UNL     1     -10.390   7.404  70.286  1.00  0.00    -0.212 C  
BRANCH  14  15
HETATM   15  C   UNL     1     -11.674   7.929  70.956  1.00  0.00    -0.293 A  
HETATM   16  C   UNL     1     -11.774   9.286  71.313  1.00  0.00    -0.416 A  
HETATM   17  C   UNL     1     -12.804   7.113  71.144  1.00  0.00    -0.340 A  
HETATM   18  C   UNL     1     -12.971   9.811  71.812  1.00  0.00    -0.536 A  
HETATM   19  C   UNL     1     -14.079   8.986  71.985  1.00  0.00    -0.434 A  
HETATM   20  C   UNL     1     -13.992   7.635  71.662  1.00  0.00    -0.510 A  
ENDBRANCH  14  15
BRANCH  14  21
HETATM   21  C   UNL     1      -9.321   6.995  71.313  1.00  0.00    -0.160 A  
HETATM   22  C   UNL     1      -7.466   6.311  73.319  1.00  0.00    -0.091 A  
HETATM   23 CL   UNL     1      -6.346   5.919  74.564  1.00  0.00    -0.073 Cl 
HETATM   24  C   UNL     1      -7.134   7.268  72.365  1.00  0.00    -0.067 A  
HETATM   25  C   UNL     1      -9.625   6.017  72.280  1.00  0.00    -0.162 A  
HETATM   26  C   UNL     1      -8.059   7.613  71.375  1.00  0.00    -0.096 A  
HETATM   27  C   UNL     1      -8.707   5.683  73.281  1.00  0.00    -0.118 A  
ENDBRANCH  14  21
ENDBRANCH  11  14
ENDBRANCH   7   8
ENDBRANCH   6   7
ENDBRANCH   5   6
ENDBRANCH   3   5
TORSDOF 7
ENDMDL
MODEL      151
REMARK 921   NORMALIZED FREE ENERGY PREDICTED BY IDOCK:   -2.96 KCAL/MOL
REMARK 922        TOTAL FREE ENERGY PREDICTED BY IDOCK:   -4.86 KCAL/MOL
REMARK 923 INTER-LIGAND FREE ENERGY PREDICTED BY IDOCK:   -4.72 KCAL/MOL
REMARK 924 INTRA-LIGAND FREE ENERGY PREDICTED BY IDOCK:   -0.14 KCAL/MOL
REMARK 927      BINDING AFFINITY PREDICTED BY RF-SCORE:    0.00 PKD
ROOT
HETATM    1  O   UNL     1     -11.029  11.701  67.058  1.00  0.00    -0.257 OA 
HETATM    2  C   UNL     1     -11.376  12.063  65.798  1.00  0.00    -0.331 C  
HETATM    3  C   UNL     1     -10.277  11.776  64.787  1.00  0.00    -0.282 C  
HETATM    4  O   UNL     1     -12.455  12.565  65.516  1.00  0.00    -0.646 OA 
ENDROOT
BRANCH   3   5
HETATM    5  O   UNL     1      -9.102  11.279  65.445  1.00  0.00    -0.205 OA 
BRANCH   5   6
HETATM    6  C   UNL     1      -8.325  10.414  64.594  1.00  0.00    -0.155 C  
BRANCH   6   7
HETATM    7  C   UNL     1      -6.933  10.092  65.183  1.00  0.00    -0.134 C  
BRANCH   7   8
HETATM    8  N   UNL     1      -6.721   8.683  65.566  1.00  0.00    -0.063 NA 
HETATM    9  C   UNL     1      -6.553   8.501  67.025  1.00  0.00    -0.058 C  
HETATM   10  C   UNL     1      -7.858   8.632  67.853  1.00  0.00    -0.103 C  
HETATM   11  N   UNL     1      -8.956   7.729  67.425  1.00  0.00    -0.123 NA 
HETATM   12  C   UNL     1      -9.145   7.941  65.969  1.00  0.00    -0.132 C  
HETATM   13  C   UNL     1      -7.857   7.842  65.110  1.00  0.00    -0.114 C  
BRANCH  11  14
HETATM   14  C   UNL     1      -8.675   6.304  67.787  1.00  0.00    -0.113 C  
BRANCH  14  15
HETATM   15  C   UNL     1      -9.260   5.935  69.163  1.00  0.00    -0.131 A  
HETATM   16  C   UNL     1     -10.409   6.595  69.637  1.00  0.00    -0.226 A  
HETATM   17  C   UNL     1      -8.738   4.882  69.938  1.00  0.00    -0.117 A  
HETATM   18  C   UNL     1     -11.027   6.195  70.826  1.00  0.00    -0.365 A  
HETATM   19  C   UNL     1     -10.496   5.148  71.574  1.00  0.00    -0.256 A  
HETATM   20  C   UNL     1      -9.345   4.500  71.137  1.00  0.00    -0.212 A  
ENDBRANCH  14  15
BRANCH  14  21
HETATM   21  C   UNL     1      -9.083   5.303  66.692  1.00  0.00    -0.122 A  
HETATM   22  C   UNL     1      -9.910   3.376  64.812  1.00  0.00    -0.124 A  
HETATM   23 CL   UNL     1     -10.416   2.176  63.690  1.00  0.00    -0.137 Cl 
HETATM   24  C   UNL     1      -8.556   3.549  65.078  1.00  0.00    -0.110 A  
HETATM   25  C   UNL     1     -10.447   5.120  66.393  1.00  0.00    -0.356 A  
HETATM   26  C   UNL     1      -8.146   4.500  66.018  1.00  0.00    -0.103 A  
HETATM   27  C   UNL     1     -10.859   4.158  65.465  1.00  0.00     0.250 A  
ENDBRANCH  14  21
ENDBRANCH  11  14
ENDBRANCH   7   8
ENDBRANCH   6   7
ENDBRANCH   5   6
ENDBRANCH   3   5
TORSDOF 7
ENDMDL
MODEL      152
REMARK 921   NORMALIZED FREE ENERGY PREDICTED BY IDOCK:   -2.91 KCAL/MOL
REMARK 922        TOTAL FREE ENERGY PREDICTED BY IDOCK:   -4.78 KCAL/MOL
REMARK 923 INTER-LIGAND FREE ENERGY PREDICTED BY IDOCK:   -4.48 KCAL/MOL
REMARK 924 INTRA-LIGAND FREE ENERGY PREDICTED BY IDOCK:   -0.30 KCAL/MOL
REMARK 927      BINDING AFFINITY PREDICTED BY RF-SCORE:    0.00 PKD
ROOT
HETATM    1  O   UNL     1     -11.704  16.178  71.737  1.00  0.00    -0.470 OA 
HETATM    2  C   UNL     1     -12.433  15.703  70.697  1.00  0.00    -0.417 C  
HETATM    3  C   UNL     1     -11.568  15.321  69.506  1.00  0.00    -0.322 C  
HETATM    4  O   UNL     1     -13.651  15.598  70.722  1.00  0.00    -0.524 OA 
ENDROOT
BRANCH   3   5
HETATM    5  O   UNL     1     -10.194  15.654  69.753  1.00  0.00    -0.273 OA 
BRANCH   5   6
HETATM    6  C   UNL     1      -9.329  15.229  68.681  1.00  0.00    -0.201 C  
BRANCH   6   7
HETATM    7  C   UNL     1      -7.944  14.762  69.183  1.00  0.00    -0.133 C  
BRANCH   7   8
HETATM    8  N   UNL     1      -7.195  13.894  68.254  1.00  0.00    -0.100 NA 
HETATM    9  C   UNL     1      -6.231  13.007  68.944  1.00  0.00    -0.088 C  
HETATM   10  C   UNL     1      -6.871  11.813  69.700  1.00  0.00     0.026 C  
HETATM   11  N   UNL     1      -7.742  10.947  68.867  1.00  0.00    -0.127 NA 
HETATM   12  C   UNL     1      -8.728  11.836  68.205  1.00  0.00    -0.167 C  
HETATM   13  C   UNL     1      -8.127  13.057  67.459  1.00  0.00    -0.179 C  
BRANCH  11  14
HETATM   14  C   UNL     1      -6.944  10.123  67.903  1.00  0.00    -0.083 C  
BRANCH  14  15
HETATM   15  C   UNL     1      -6.544   8.763  68.505  1.00  0.00    -0.059 A  
HETATM   16  C   UNL     1      -7.202   8.282  69.653  1.00  0.00    -0.061 A  
HETATM   17  C   UNL     1      -5.597   7.924  67.890  1.00  0.00    -0.033 A  
HETATM   18  C   UNL     1      -6.941   7.000  70.147  1.00  0.00    -0.065 A  
HETATM   19  C   UNL     1      -6.003   6.186  69.519  1.00  0.00    -0.025 A  
HETATM   20  C   UNL     1      -5.322   6.652  68.398  1.00  0.00    -0.012 A  
ENDBRANCH  14  15
BRANCH  14  21
HETATM   21  C   UNL     1      -7.612   9.977  66.525  1.00  0.00    -0.106 A  
HETATM   22  C   UNL     1      -8.825   9.882  63.985  1.00  0.00    -0.228 A  
HETATM   23 CL   UNL     1      -9.578   9.857  62.439  1.00  0.00    -0.176 Cl 
HETATM   24  C   UNL     1      -9.545   9.501  65.113  1.00  0.00    -0.270 A  
HETATM   25  C   UNL     1      -6.898  10.341  65.366  1.00  0.00    -0.140 A  
HETATM   26  C   UNL     1      -8.945   9.556  66.375  1.00  0.00    -0.182 A  
HETATM   27  C   UNL     1      -7.503  10.302  64.106  1.00  0.00    -0.069 A  
ENDBRANCH  14  21
ENDBRANCH  11  14
ENDBRANCH   7   8
ENDBRANCH   6   7
ENDBRANCH   5   6
ENDBRANCH   3   5
TORSDOF 7
ENDMDL
MODEL      153
REMARK 921   NORMALIZED FREE ENERGY PREDICTED BY IDOCK:   -2.84 KCAL/MOL
REMARK 922        TOTAL FREE ENERGY PREDICTED BY IDOCK:   -4.69 KCAL/MOL
REMARK 923 INTER-LIGAND FREE ENERGY PREDICTED BY IDOCK:   -4.51 KCAL/MOL
REMARK 924 INTRA-LIGAND FREE ENERGY PREDICTED BY IDOCK:   -0.18 KCAL/MOL
REMARK 927      BINDING AFFINITY PREDICTED BY RF-SCORE:    0.00 PKD
ROOT
HETATM    1  O   UNL     1     -12.573  15.344  74.500  1.00  0.00    -0.541 OA 
HETATM    2  C   UNL     1     -12.644  16.085  73.366  1.00  0.00    -0.561 C  
HETATM    3  C   UNL     1     -13.750  15.616  72.434  1.00  0.00    -0.528 C  
HETATM    4  O   UNL     1     -11.898  17.023  73.129  1.00  0.00    -0.263 OA 
ENDROOT
BRANCH   3   5
HETATM    5  O   UNL     1     -14.380  14.435  72.952  1.00  0.00    -0.276 OA 
BRANCH   5   6
HETATM    6  C   UNL     1     -13.718  13.229  72.520  1.00  0.00    -0.508 C  
BRANCH   6   7
HETATM    7  C   UNL     1     -13.145  13.345  71.089  1.00  0.00    -0.178 C  
BRANCH   7   8
HETATM    8  N   UNL     1     -11.688  13.147  70.975  1.00  0.00     0.422 NA 
HETATM    9  C   UNL     1     -11.329  11.922  70.225  1.00  0.00     0.245 C  
HETATM   10  C   UNL     1     -11.536  12.014  68.691  1.00  0.00    -0.319 C  
HETATM   11  N   UNL     1     -10.833  13.146  68.037  1.00  0.00    -0.235 NA 
HETATM   12  C   UNL     1     -11.223  14.376  68.771  1.00  0.00    -0.260 C  
HETATM   13  C   UNL     1     -11.054  14.313  70.312  1.00  0.00     0.097 C  
BRANCH  11  14
HETATM   14  C   UNL     1      -9.352  12.927  67.991  1.00  0.00    -0.213 C  
BRANCH  14  15
HETATM   15  C   UNL     1      -8.976  11.746  67.076  1.00  0.00    -0.186 A  
HETATM   16  C   UNL     1      -8.566  11.987  65.752  1.00  0.00     0.388 A  
HETATM   17  C   UNL     1      -8.935  10.421  67.548  1.00  0.00    -0.138 A  
HETATM   18  C   UNL     1      -8.105  10.944  64.942  1.00  0.00     0.168 A  
HETATM   19  C   UNL     1      -8.069   9.641  65.431  1.00  0.00    -0.127 A  
HETATM   20  C   UNL     1      -8.495   9.377  66.729  1.00  0.00    -0.129 A  
ENDBRANCH  14  15
BRANCH  14  21
HETATM   21  C   UNL     1      -8.555  14.200  67.657  1.00  0.00    -0.191 A  
HETATM   22  C   UNL     1      -7.090  16.564  67.217  1.00  0.00    -0.171 A  
HETATM   23 CL   UNL     1      -6.208  18.020  66.978  1.00  0.00    -0.178 Cl 
HETATM   24  C   UNL     1      -8.397  16.461  66.752  1.00  0.00    -0.285 A  
HETATM   25  C   UNL     1      -7.225  14.322  68.102  1.00  0.00    -0.127 A  
HETATM   26  C   UNL     1      -9.127  15.290  66.978  1.00  0.00    -0.245 A  
HETATM   27  C   UNL     1      -6.499  15.499  67.891  1.00  0.00    -0.171 A  
ENDBRANCH  14  21
ENDBRANCH  11  14
ENDBRANCH   7   8
ENDBRANCH   6   7
ENDBRANCH   5   6
ENDBRANCH   3   5
TORSDOF 7
ENDMDL
MODEL      154
REMARK 921   NORMALIZED FREE ENERGY PREDICTED BY IDOCK:   -2.71 KCAL/MOL
REMARK 922        TOTAL FREE ENERGY PREDICTED BY IDOCK:   -4.51 KCAL/MOL
REMARK 923 INTER-LIGAND FREE ENERGY PREDICTED BY IDOCK:   -3.79 KCAL/MOL
REMARK 924 INTRA-LIGAND FREE ENERGY PREDICTED BY IDOCK:   -0.71 KCAL/MOL
REMARK 927      BINDING AFFINITY PREDICTED BY RF-SCORE:    0.00 PKD
ROOT
HETATM    1  O   UNL     1      -8.374   8.929  64.669  1.00  0.00    -0.155 OA 
HETATM    2  C   UNL     1      -7.283   8.707  63.895  1.00  0.00    -0.096 C  
HETATM    3  C   UNL     1      -7.069   7.231  63.599  1.00  0.00    -0.066 C  
HETATM    4  O   UNL     1      -6.555   9.601  63.487  1.00  0.00    -0.101 OA 
ENDROOT
BRANCH   3   5
HETATM    5  O   UNL     1      -8.032   6.431  64.301  1.00  0.00    -0.115 OA 
BRANCH   5   6
HETATM    6  C   UNL     1      -7.703   5.028  64.268  1.00  0.00    -0.085 C  
BRANCH   6   7
HETATM    7  C   UNL     1      -7.395   4.456  65.671  1.00  0.00    -0.080 C  
BRANCH   7   8
HETATM    8  N   UNL     1      -8.564   4.287  66.555  1.00  0.00    -0.112 NA 
HETATM    9  C   UNL     1      -8.425   3.141  67.482  1.00  0.00    -0.091 C  
HETATM   10  C   UNL     1      -7.443   3.373  68.660  1.00  0.00    -0.049 C  
HETATM   11  N   UNL     1      -7.739   4.569  69.487  1.00  0.00    -0.055 NA 
HETATM   12  C   UNL     1      -7.842   5.721  68.557  1.00  0.00    -0.097 C  
HETATM   13  C   UNL     1      -8.796   5.518  67.351  1.00  0.00    -0.105 C  
BRANCH  11  14
HETATM   14  C   UNL     1      -8.962   4.373  70.328  1.00  0.00    -0.088 C  
BRANCH  14  15
HETATM   15  C   UNL     1      -8.684   3.465  71.542  1.00  0.00    -0.120 A  
HETATM   16  C   UNL     1      -9.650   2.527  71.952  1.00  0.00    -0.208 A  
HETATM   17  C   UNL     1      -7.446   3.471  72.209  1.00  0.00    -0.057 A  
HETATM   18  C   UNL     1      -9.374   1.612  72.972  1.00  0.00    -0.092 A  
HETATM   19  C   UNL     1      -8.140   1.633  73.616  1.00  0.00    -0.045 A  
HETATM   20  C   UNL     1      -7.181   2.570  73.243  1.00  0.00    -0.036 A  
ENDBRANCH  14  15
BRANCH  14  21
HETATM   21  C   UNL     1      -9.645   5.692  70.731  1.00  0.00    -0.213 A  
HETATM   22  C   UNL     1     -10.877   8.159  71.303  1.00  0.00    -0.237 A  
HETATM   23 CL   UNL     1     -11.612   9.679  71.626  1.00  0.00    -0.449 Cl 
HETATM   24  C   UNL     1      -9.659   7.838  71.894  1.00  0.00    -0.210 A  
HETATM   25  C   UNL     1     -10.887   6.033  70.159  1.00  0.00    -0.409 A  
HETATM   26  C   UNL     1      -9.044   6.616  71.603  1.00  0.00    -0.142 A  
HETATM   27  C   UNL     1     -11.495   7.261  70.437  1.00  0.00    -0.279 A  
ENDBRANCH  14  21
ENDBRANCH  11  14
ENDBRANCH   7   8
ENDBRANCH   6   7
ENDBRANCH   5   6
ENDBRANCH   3   5
TORSDOF 7
ENDMDL
MODEL      155
REMARK 921   NORMALIZED FREE ENERGY PREDICTED BY IDOCK:   -2.68 KCAL/MOL
REMARK 922        TOTAL FREE ENERGY PREDICTED BY IDOCK:   -4.46 KCAL/MOL
REMARK 923 INTER-LIGAND FREE ENERGY PREDICTED BY IDOCK:   -4.93 KCAL/MOL
REMARK 924 INTRA-LIGAND FREE ENERGY PREDICTED BY IDOCK:    0.47 KCAL/MOL
REMARK 927      BINDING AFFINITY PREDICTED BY RF-SCORE:    0.00 PKD
ROOT
HETATM    1  O   UNL     1     -11.763  14.032  64.143  1.00  0.00    -0.381 OA 
HETATM    2  C   UNL     1     -12.255  12.780  64.314  1.00  0.00    -0.425 C  
HETATM    3  C   UNL     1     -11.587  12.044  65.465  1.00  0.00    -0.293 C  
HETATM    4  O   UNL     1     -13.137  12.304  63.614  1.00  0.00    -0.780 OA 
ENDROOT
BRANCH   3   5
HETATM    5  O   UNL     1     -10.527  12.835  66.022  1.00  0.00    -0.265 OA 
BRANCH   5   6
HETATM    6  C   UNL     1      -9.226  12.371  65.609  1.00  0.00     0.153 C  
BRANCH   6   7
HETATM    7  C   UNL     1      -9.276  10.982  64.934  1.00  0.00    -0.188 C  
BRANCH   7   8
HETATM    8  N   UNL     1      -8.400   9.957  65.533  1.00  0.00    -0.134 NA 
HETATM    9  C   UNL     1      -7.914  10.331  66.880  1.00  0.00    -0.112 C  
HETATM   10  C   UNL     1      -8.974  10.225  68.008  1.00  0.00    -0.132 C  
HETATM   11  N   UNL     1      -9.618   8.893  68.131  1.00  0.00    -0.143 NA 
HETATM   12  C   UNL     1     -10.134   8.539  66.786  1.00  0.00    -0.299 C  
HETATM   13  C   UNL     1      -9.109   8.656  65.627  1.00  0.00    -0.164 C  
BRANCH  11  14
HETATM   14  C   UNL     1      -8.677   7.873  68.694  1.00  0.00    -0.128 C  
BRANCH  14  15
HETATM   15  C   UNL     1      -8.533   8.007  70.222  1.00  0.00    -0.127 A  
HETATM   16  C   UNL     1      -7.284   7.787  70.831  1.00  0.00    -0.054 A  
HETATM   17  C   UNL     1      -9.596   8.438  71.036  1.00  0.00    -0.212 A  
HETATM   18  C   UNL     1      -7.101   8.019  72.198  1.00  0.00    -0.086 A  
HETATM   19  C   UNL     1      -8.166   8.451  72.983  1.00  0.00    -0.181 A  
HETATM   20  C   UNL     1      -9.416   8.649  72.405  1.00  0.00    -0.295 A  
ENDBRANCH  14  15
BRANCH  14  21
HETATM   21  C   UNL     1      -9.007   6.434  68.263  1.00  0.00    -0.116 A  
HETATM   22  C   UNL     1      -9.475   3.744  67.568  1.00  0.00    -0.191 A  
HETATM   23 CL   UNL     1      -9.727   2.096  67.150  1.00  0.00     0.228 Cl 
HETATM   24  C   UNL     1      -9.097   4.658  66.589  1.00  0.00    -0.119 A  
HETATM   25  C   UNL     1      -9.407   5.493  69.232  1.00  0.00    -0.153 A  
HETATM   26  C   UNL     1      -8.857   5.991  66.936  1.00  0.00    -0.116 A  
HETATM   27  C   UNL     1      -9.632   4.156  68.889  1.00  0.00    -0.222 A  
ENDBRANCH  14  21
ENDBRANCH  11  14
ENDBRANCH   7   8
ENDBRANCH   6   7
ENDBRANCH   5   6
ENDBRANCH   3   5
TORSDOF 7
ENDMDL
MODEL      156
REMARK 921   NORMALIZED FREE ENERGY PREDICTED BY IDOCK:   -2.63 KCAL/MOL
REMARK 922        TOTAL FREE ENERGY PREDICTED BY IDOCK:   -4.39 KCAL/MOL
REMARK 923 INTER-LIGAND FREE ENERGY PREDICTED BY IDOCK:   -5.00 KCAL/MOL
REMARK 924 INTRA-LIGAND FREE ENERGY PREDICTED BY IDOCK:    0.61 KCAL/MOL
REMARK 927      BINDING AFFINITY PREDICTED BY RF-SCORE:    0.00 PKD
ROOT
HETATM    1  O   UNL     1     -11.089  12.510  63.349  1.00  0.00    -0.459 OA 
HETATM    2  C   UNL     1     -12.324  12.505  63.909  1.00  0.00    -0.485 C  
HETATM    3  C   UNL     1     -12.419  13.424  65.117  1.00  0.00    -0.459 C  
HETATM    4  O   UNL     1     -13.252  11.831  63.484  1.00  0.00    -0.585 OA 
ENDROOT
BRANCH   3   5
HETATM    5  O   UNL     1     -11.138  13.996  65.418  1.00  0.00    -0.303 OA 
BRANCH   5   6
HETATM    6  C   UNL     1     -10.555  13.431  66.610  1.00  0.00    -0.282 C  
BRANCH   6   7
HETATM    7  C   UNL     1     -11.499  12.434  67.319  1.00  0.00    -0.354 C  
BRANCH   7   8
HETATM    8  N   UNL     1     -11.109  11.014  67.218  1.00  0.00    -0.301 NA 
HETATM    9  C   UNL     1      -9.743  10.829  66.677  1.00  0.00    -0.190 C  
HETATM   10  C   UNL     1      -8.599  11.176  67.665  1.00  0.00    -0.126 C  
HETATM   11  N   UNL     1      -8.657  10.451  68.959  1.00  0.00    -0.148 NA 
HETATM   12  C   UNL     1     -10.015  10.669  69.514  1.00  0.00    -0.106 C  
HETATM   13  C   UNL     1     -11.187  10.357  68.546  1.00  0.00    -0.251 C  
BRANCH  11  14
HETATM   14  C   UNL     1      -8.305   9.004  68.801  1.00  0.00    -0.122 C  
BRANCH  14  15
HETATM   15  C   UNL     1      -7.523   8.743  67.499  1.00  0.00    -0.089 A  
HETATM   16  C   UNL     1      -6.198   9.203  67.372  1.00  0.00    -0.058 A  
HETATM   17  C   UNL     1      -8.055   7.970  66.451  1.00  0.00    -0.107 A  
HETATM   18  C   UNL     1      -5.429   8.875  66.251  1.00  0.00    -0.037 A  
HETATM   19  C   UNL     1      -5.975   8.105  65.228  1.00  0.00    -0.045 A  
HETATM   20  C   UNL     1      -7.291   7.663  65.322  1.00  0.00    -0.071 A  
ENDBRANCH  14  15
BRANCH  14  21
HETATM   21  C   UNL     1      -7.603   8.406  70.032  1.00  0.00    -0.068 A  
HETATM   22  C   UNL     1      -6.235   7.203  72.180  1.00  0.00    -0.041 A  
HETATM   23 CL   UNL     1      -5.397   6.440  73.473  1.00  0.00    -0.040 Cl 
HETATM   24  C   UNL     1      -7.617   7.076  72.079  1.00  0.00    -0.091 A  
HETATM   25  C   UNL     1      -6.207   8.536  70.167  1.00  0.00    -0.034 A  
HETATM   26  C   UNL     1      -8.295   7.666  71.007  1.00  0.00    -0.112 A  
HETATM   27  C   UNL     1      -5.526   7.932  71.228  1.00  0.00    -0.034 A  
ENDBRANCH  14  21
ENDBRANCH  11  14
ENDBRANCH   7   8
ENDBRANCH   6   7
ENDBRANCH   5   6
ENDBRANCH   3   5
TORSDOF 7
ENDMDL
MODEL      157
REMARK 921   NORMALIZED FREE ENERGY PREDICTED BY IDOCK:   -2.56 KCAL/MOL
REMARK 922        TOTAL FREE ENERGY PREDICTED BY IDOCK:   -4.29 KCAL/MOL
REMARK 923 INTER-LIGAND FREE ENERGY PREDICTED BY IDOCK:   -5.09 KCAL/MOL
REMARK 924 INTRA-LIGAND FREE ENERGY PREDICTED BY IDOCK:    0.80 KCAL/MOL
REMARK 927      BINDING AFFINITY PREDICTED BY RF-SCORE:    0.00 PKD
ROOT
HETATM    1  O   UNL     1     -11.024  15.591  71.270  1.00  0.00    -0.332 OA 
HETATM    2  C   UNL     1     -11.848  15.723  70.202  1.00  0.00    -0.355 C  
HETATM    3  C   UNL     1     -11.091  16.011  68.914  1.00  0.00    -0.331 C  
HETATM    4  O   UNL     1     -13.064  15.622  70.275  1.00  0.00    -0.301 OA 
ENDROOT
BRANCH   3   5
HETATM    5  O   UNL     1      -9.689  16.166  69.177  1.00  0.00    -0.227 OA 
BRANCH   5   6
HETATM    6  C   UNL     1      -8.873  15.464  68.218  1.00  0.00    -0.176 C  
BRANCH   6   7
HETATM    7  C   UNL     1      -8.054  14.321  68.858  1.00  0.00    -0.063 C  
BRANCH   7   8
HETATM    8  N   UNL     1      -7.757  13.183  67.966  1.00  0.00    -0.131 NA 
HETATM    9  C   UNL     1      -6.908  12.154  68.609  1.00  0.00    -0.089 C  
HETATM   10  C   UNL     1      -7.636  11.271  69.656  1.00  0.00     0.258 C  
HETATM   11  N   UNL     1      -8.850  10.582  69.150  1.00  0.00    -0.166 NA 
HETATM   12  C   UNL     1      -9.712  11.623  68.539  1.00  0.00    -0.184 C  
HETATM   13  C   UNL     1      -9.013  12.543  67.503  1.00  0.00    -0.185 C  
BRANCH  11  14
HETATM   14  C   UNL     1      -8.503   9.469  68.209  1.00  0.00    -0.119 C  
BRANCH  14  15
HETATM   15  C   UNL     1      -9.165   8.141  68.624  1.00  0.00    -0.143 A  
HETATM   16  C   UNL     1      -8.592   6.918  68.227  1.00  0.00    -0.125 A  
HETATM   17  C   UNL     1     -10.284   8.099  69.475  1.00  0.00    -0.213 A  
HETATM   18  C   UNL     1      -9.105   5.702  68.690  1.00  0.00    -0.124 A  
HETATM   19  C   UNL     1     -10.210   5.685  69.536  1.00  0.00    -0.320 A  
HETATM   20  C   UNL     1     -10.807   6.882  69.919  1.00  0.00    -0.294 A  
ENDBRANCH  14  15
BRANCH  14  21
HETATM   21  C   UNL     1      -8.762   9.814  66.732  1.00  0.00    -0.140 A  
HETATM   22  C   UNL     1      -9.164  10.601  64.058  1.00  0.00    -0.239 A  
HETATM   23 CL   UNL     1      -9.410  11.114  62.436  1.00  0.00    -0.269 Cl 
HETATM   24  C   UNL     1     -10.259  10.364  64.884  1.00  0.00    -0.330 A  
HETATM   25  C   UNL     1      -7.671  10.042  65.872  1.00  0.00    -0.116 A  
HETATM   26  C   UNL     1     -10.058   9.982  66.214  1.00  0.00    -0.310 A  
HETATM   27  C   UNL     1      -7.870  10.440  64.546  1.00  0.00    -0.066 A  
ENDBRANCH  14  21
ENDBRANCH  11  14
ENDBRANCH   7   8
ENDBRANCH   6   7
ENDBRANCH   5   6
ENDBRANCH   3   5
TORSDOF 7
ENDMDL
MODEL      158
REMARK 921   NORMALIZED FREE ENERGY PREDICTED BY IDOCK:   -2.46 KCAL/MOL
REMARK 922        TOTAL FREE ENERGY PREDICTED BY IDOCK:   -4.15 KCAL/MOL
REMARK 923 INTER-LIGAND FREE ENERGY PREDICTED BY IDOCK:   -7.47 KCAL/MOL
REMARK 924 INTRA-LIGAND FREE ENERGY PREDICTED BY IDOCK:    3.32 KCAL/MOL
REMARK 927      BINDING AFFINITY PREDICTED BY RF-SCORE:    0.00 PKD
ROOT
HETATM    1  O   UNL     1     -14.382  13.982  72.527  1.00  0.00    -0.626 OA 
HETATM    2  C   UNL     1     -13.385  14.029  71.609  1.00  0.00    -0.367 C  
HETATM    3  C   UNL     1     -12.871  12.647  71.237  1.00  0.00    -0.250 C  
HETATM    4  O   UNL     1     -12.952  15.072  71.140  1.00  0.00    -0.333 OA 
ENDROOT
BRANCH   3   5
HETATM    5  O   UNL     1     -13.513  11.638  72.031  1.00  0.00    -0.411 OA 
BRANCH   5   6
HETATM    6  C   UNL     1     -13.144  10.306  71.624  1.00  0.00    -0.449 C  
BRANCH   6   7
HETATM    7  C   UNL     1     -11.665  10.205  71.188  1.00  0.00    -0.366 C  
BRANCH   7   8
HETATM    8  N   UNL     1     -11.441   9.670  69.832  1.00  0.00    -0.159 NA 
HETATM    9  C   UNL     1     -11.428  10.723  68.792  1.00  0.00    -0.295 C  
HETATM   10  C   UNL     1     -10.146  11.596  68.765  1.00  0.00    -0.156 C  
HETATM   11  N   UNL     1      -8.880  10.834  68.629  1.00  0.00    -0.146 NA 
HETATM   12  C   UNL     1      -8.882   9.802  69.696  1.00  0.00    -0.211 C  
HETATM   13  C   UNL     1     -10.159   8.924  69.771  1.00  0.00    -0.199 C  
BRANCH  11  14
HETATM   14  C   UNL     1      -8.720  10.265  67.253  1.00  0.00    -0.125 C  
BRANCH  14  15
HETATM   15  C   UNL     1      -8.978   8.746  67.227  1.00  0.00    -0.144 A  
HETATM   16  C   UNL     1      -7.994   7.858  67.700  1.00  0.00    -0.124 A  
HETATM   17  C   UNL     1     -10.216   8.207  66.830  1.00  0.00    -0.387 A  
HETATM   18  C   UNL     1      -8.251   6.487  67.798  1.00  0.00    -0.115 A  
HETATM   19  C   UNL     1      -9.484   5.976  67.403  1.00  0.00    -0.113 A  
HETATM   20  C   UNL     1     -10.462   6.834  66.909  1.00  0.00    -0.350 A  
ENDBRANCH  14  15
BRANCH  14  21
HETATM   21  C   UNL     1      -9.533  11.013  66.184  1.00  0.00    -0.230 A  
HETATM   22  C   UNL     1     -11.132  12.433  64.351  1.00  0.00    -0.333 A  
HETATM   23 CL   UNL     1     -12.136  13.295  63.253  1.00  0.00    -0.551 Cl 
HETATM   24  C   UNL     1     -11.032  11.048  64.256  1.00  0.00    -0.148 A  
HETATM   25  C   UNL     1      -9.637  12.416  66.247  1.00  0.00    -0.245 A  
HETATM   26  C   UNL     1     -10.244  10.343  65.172  1.00  0.00    -0.326 A  
HETATM   27  C   UNL     1     -10.438  13.121  65.342  1.00  0.00    -0.307 A  
ENDBRANCH  14  21
ENDBRANCH  11  14
ENDBRANCH   7   8
ENDBRANCH   6   7
ENDBRANCH   5   6
ENDBRANCH   3   5
TORSDOF 7
ENDMDL
MODEL      159
REMARK 921   NORMALIZED FREE ENERGY PREDICTED BY IDOCK:   -2.46 KCAL/MOL
REMARK 922        TOTAL FREE ENERGY PREDICTED BY IDOCK:   -4.15 KCAL/MOL
REMARK 923 INTER-LIGAND FREE ENERGY PREDICTED BY IDOCK:   -6.74 KCAL/MOL
REMARK 924 INTRA-LIGAND FREE ENERGY PREDICTED BY IDOCK:    2.59 KCAL/MOL
REMARK 927      BINDING AFFINITY PREDICTED BY RF-SCORE:    0.00 PKD
ROOT
HETATM    1  O   UNL     1     -13.084  12.479  64.766  1.00  0.00    -0.853 OA 
HETATM    2  C   UNL     1     -12.428  13.535  64.225  1.00  0.00    -0.252 C  
HETATM    3  C   UNL     1     -12.027  14.567  65.269  1.00  0.00    -0.353 C  
HETATM    4  O   UNL     1     -12.193  13.640  63.030  1.00  0.00    -0.559 OA 
ENDROOT
BRANCH   3   5
HETATM    5  O   UNL     1     -12.534  14.201  66.561  1.00  0.00    -0.447 OA 
BRANCH   5   6
HETATM    6  C   UNL     1     -11.479  13.915  67.499  1.00  0.00    -0.340 C  
BRANCH   6   7
HETATM    7  C   UNL     1     -11.653  12.544  68.191  1.00  0.00    -0.340 C  
BRANCH   7   8
HETATM    8  N   UNL     1     -11.094  11.392  67.457  1.00  0.00    -0.262 NA 
HETATM    9  C   UNL     1      -9.698  11.610  67.018  1.00  0.00    -0.186 C  
HETATM   10  C   UNL     1      -8.639  11.529  68.149  1.00  0.00    -0.156 C  
HETATM   11  N   UNL     1      -8.659  10.264  68.927  1.00  0.00    -0.141 NA 
HETATM   12  C   UNL     1     -10.054  10.068  69.395  1.00  0.00    -0.219 C  
HETATM   13  C   UNL     1     -11.144  10.167  68.295  1.00  0.00    -0.227 C  
BRANCH  11  14
HETATM   14  C   UNL     1      -8.134   9.113  68.127  1.00  0.00    -0.104 C  
BRANCH  14  15
HETATM   15  C   UNL     1      -9.121   7.931  68.106  1.00  0.00    -0.133 A  
HETATM   16  C   UNL     1     -10.061   7.820  67.064  1.00  0.00    -0.343 A  
HETATM   17  C   UNL     1      -9.059   6.890  69.050  1.00  0.00    -0.138 A  
HETATM   18  C   UNL     1     -10.886   6.695  66.958  1.00  0.00    -0.467 A  
HETATM   19  C   UNL     1     -10.803   5.675  67.901  1.00  0.00    -0.171 A  
HETATM   20  C   UNL     1      -9.899   5.777  68.954  1.00  0.00    -0.191 A  
ENDBRANCH  14  15
BRANCH  14  21
HETATM   21  C   UNL     1      -7.670   9.510  66.715  1.00  0.00    -0.098 A  
HETATM   22  C   UNL     1      -6.819  10.069  64.089  1.00  0.00    -0.126 A  
HETATM   23 CL   UNL     1      -6.286  10.378  62.484  1.00  0.00    -0.136 Cl 
HETATM   24  C   UNL     1      -5.980  10.344  65.163  1.00  0.00    -0.133 A  
HETATM   25  C   UNL     1      -8.508   9.257  65.612  1.00  0.00    -0.149 A  
HETATM   26  C   UNL     1      -6.399  10.059  66.467  1.00  0.00    -0.072 A  
HETATM   27  C   UNL     1      -8.083   9.526  64.307  1.00  0.00    -0.142 A  
ENDBRANCH  14  21
ENDBRANCH  11  14
ENDBRANCH   7   8
ENDBRANCH   6   7
ENDBRANCH   5   6
ENDBRANCH   3   5
TORSDOF 7
ENDMDL
MODEL      160
REMARK 921   NORMALIZED FREE ENERGY PREDICTED BY IDOCK:   -2.38 KCAL/MOL
REMARK 922        TOTAL FREE ENERGY PREDICTED BY IDOCK:   -4.03 KCAL/MOL
REMARK 923 INTER-LIGAND FREE ENERGY PREDICTED BY IDOCK:   -4.39 KCAL/MOL
REMARK 924 INTRA-LIGAND FREE ENERGY PREDICTED BY IDOCK:    0.35 KCAL/MOL
REMARK 927      BINDING AFFINITY PREDICTED BY RF-SCORE:    0.00 PKD
ROOT
HETATM    1  O   UNL     1      -6.717  14.477  69.188  1.00  0.00    -0.101 OA 
HETATM    2  C   UNL     1      -7.287  15.694  69.368  1.00  0.00    -0.216 C  
HETATM    3  C   UNL     1      -8.759  15.709  68.984  1.00  0.00    -0.240 C  
HETATM    4  O   UNL     1      -6.678  16.666  69.791  1.00  0.00    -0.184 OA 
ENDROOT
BRANCH   3   5
HETATM    5  O   UNL     1      -9.150  14.443  68.431  1.00  0.00    -0.184 OA 
BRANCH   5   6
HETATM    6  C   UNL     1      -8.381  14.099  67.261  1.00  0.00    -0.196 C  
BRANCH   6   7
HETATM    7  C   UNL     1      -8.083  12.585  67.169  1.00  0.00    -0.156 C  
BRANCH   7   8
HETATM    8  N   UNL     1      -9.194  11.698  67.562  1.00  0.00    -0.169 NA 
HETATM    9  C   UNL     1      -9.450  10.624  66.576  1.00  0.00    -0.169 C  
HETATM   10  C   UNL     1      -8.405   9.478  66.575  1.00  0.00    -0.119 C  
HETATM   11  N   UNL     1      -8.203   8.822  67.891  1.00  0.00    -0.110 NA 
HETATM   12  C   UNL     1      -7.911   9.900  68.869  1.00  0.00    -0.096 C  
HETATM   13  C   UNL     1      -8.922  11.077  68.882  1.00  0.00    -0.115 C  
BRANCH  11  14
HETATM   14  C   UNL     1      -9.376   7.974  68.274  1.00  0.00    -0.140 C  
BRANCH  14  15
HETATM   15  C   UNL     1      -9.507   6.734  67.368  1.00  0.00    -0.150 A  
HETATM   16  C   UNL     1      -8.410   6.311  66.594  1.00  0.00    -0.112 A  
HETATM   17  C   UNL     1     -10.668   5.940  67.355  1.00  0.00    -0.370 A  
HETATM   18  C   UNL     1      -8.466   5.123  65.859  1.00  0.00    -0.121 A  
HETATM   19  C   UNL     1      -9.624   4.351  65.864  1.00  0.00    -0.188 A  
HETATM   20  C   UNL     1     -10.729   4.765  66.602  1.00  0.00     0.056 A  
ENDBRANCH  14  15
BRANCH  14  21
HETATM   21  C   UNL     1      -9.407   7.610  69.768  1.00  0.00    -0.150 A  
HETATM   22  C   UNL     1      -9.425   7.111  72.540  1.00  0.00    -0.142 A  
HETATM   23 CL   UNL     1      -9.414   6.832  74.236  1.00  0.00    -0.258 Cl 
HETATM   24  C   UNL     1      -8.464   6.510  71.732  1.00  0.00    -0.123 A  
HETATM   25  C   UNL     1     -10.380   8.193  70.604  1.00  0.00    -0.214 A  
HETATM   26  C   UNL     1      -8.451   6.765  70.357  1.00  0.00    -0.135 A  
HETATM   27  C   UNL     1     -10.384   7.951  71.982  1.00  0.00    -0.283 A  
ENDBRANCH  14  21
ENDBRANCH  11  14
ENDBRANCH   7   8
ENDBRANCH   6   7
ENDBRANCH   5   6
ENDBRANCH   3   5
TORSDOF 7
ENDMDL
MODEL      161
REMARK 921   NORMALIZED FREE ENERGY PREDICTED BY IDOCK:   -2.33 KCAL/MOL
REMARK 922        TOTAL FREE ENERGY PREDICTED BY IDOCK:   -3.97 KCAL/MOL
REMARK 923 INTER-LIGAND FREE ENERGY PREDICTED BY IDOCK:   -7.38 KCAL/MOL
REMARK 924 INTRA-LIGAND FREE ENERGY PREDICTED BY IDOCK:    3.41 KCAL/MOL
REMARK 927      BINDING AFFINITY PREDICTED BY RF-SCORE:    0.00 PKD
ROOT
HETATM    1  O   UNL     1     -12.194   9.109  72.408  1.00  0.00    -0.307 OA 
HETATM    2  C   UNL     1     -11.977   8.392  71.277  1.00  0.00    -0.288 C  
HETATM    3  C   UNL     1     -11.243   9.194  70.213  1.00  0.00    -0.218 C  
HETATM    4  O   UNL     1     -12.335   7.232  71.138  1.00  0.00    -0.341 OA 
ENDROOT
BRANCH   3   5
HETATM    5  O   UNL     1     -11.051  10.549  70.644  1.00  0.00    -0.292 OA 
BRANCH   5   6
HETATM    6  C   UNL     1     -12.274  11.310  70.609  1.00  0.00    -0.393 C  
BRANCH   6   7
HETATM    7  C   UNL     1     -12.070  12.741  70.062  1.00  0.00    -0.285 C  
BRANCH   7   8
HETATM    8  N   UNL     1     -11.029  12.878  69.025  1.00  0.00    -0.230 NA 
HETATM    9  C   UNL     1     -11.461  12.369  67.704  1.00  0.00    -0.337 C  
HETATM   10  C   UNL     1     -12.468  13.279  66.953  1.00  0.00     0.015 C  
HETATM   11  N   UNL     1     -12.009  14.677  66.754  1.00  0.00    -0.338 NA 
HETATM   12  C   UNL     1     -11.611  15.194  68.086  1.00  0.00    -0.341 C  
HETATM   13  C   UNL     1     -10.623  14.298  68.879  1.00  0.00    -0.245 C  
BRANCH  11  14
HETATM   14  C   UNL     1     -10.917  14.762  65.732  1.00  0.00    -0.334 C  
BRANCH  14  15
HETATM   15  C   UNL     1      -9.677  15.496  66.278  1.00  0.00    -0.328 A  
HETATM   16  C   UNL     1      -8.553  14.759  66.695  1.00  0.00    -0.170 A  
HETATM   17  C   UNL     1      -9.586  16.899  66.288  1.00  0.00    -0.300 A  
HETATM   18  C   UNL     1      -7.374  15.405  67.080  1.00  0.00    -0.203 A  
HETATM   19  C   UNL     1      -7.305  16.795  67.078  1.00  0.00    -0.238 A  
HETATM   20  C   UNL     1      -8.414  17.543  66.694  1.00  0.00    -0.288 A  
ENDBRANCH  14  15
BRANCH  14  21
HETATM   21  C   UNL     1     -10.561  13.404  65.103  1.00  0.00    -0.353 A  
HETATM   22  C   UNL     1      -9.750  10.980  63.921  1.00  0.00    -0.292 A  
HETATM   23 CL   UNL     1      -9.231   9.517  63.181  1.00  0.00    -0.166 Cl 
HETATM   24  C   UNL     1     -10.734  11.753  63.313  1.00  0.00    -0.414 A  
HETATM   25  C   UNL     1      -9.581  12.594  65.708  1.00  0.00    -0.117 A  
HETATM   26  C   UNL     1     -11.130  12.961  63.896  1.00  0.00    -0.454 A  
HETATM   27  C   UNL     1      -9.171  11.395  65.117  1.00  0.00    -0.119 A  
ENDBRANCH  14  21
ENDBRANCH  11  14
ENDBRANCH   7   8
ENDBRANCH   6   7
ENDBRANCH   5   6
ENDBRANCH   3   5
TORSDOF 7
ENDMDL
MODEL      162
REMARK 921   NORMALIZED FREE ENERGY PREDICTED BY IDOCK:   -2.27 KCAL/MOL
REMARK 922        TOTAL FREE ENERGY PREDICTED BY IDOCK:   -3.89 KCAL/MOL
REMARK 923 INTER-LIGAND FREE ENERGY PREDICTED BY IDOCK:   -6.63 KCAL/MOL
REMARK 924 INTRA-LIGAND FREE ENERGY PREDICTED BY IDOCK:    2.74 KCAL/MOL
REMARK 927      BINDING AFFINITY PREDICTED BY RF-SCORE:    0.00 PKD
ROOT
HETATM    1  O   UNL     1     -10.440   7.864  67.511  1.00  0.00    -0.241 OA 
HETATM    2  C   UNL     1     -10.075   8.029  68.807  1.00  0.00    -0.195 C  
HETATM    3  C   UNL     1      -9.314   9.326  69.037  1.00  0.00    -0.151 C  
HETATM    4  O   UNL     1     -10.331   7.218  69.685  1.00  0.00    -0.208 OA 
ENDROOT
BRANCH   3   5
HETATM    5  O   UNL     1      -9.090  10.007  67.793  1.00  0.00    -0.131 OA 
BRANCH   5   6
HETATM    6  C   UNL     1      -8.000  10.947  67.875  1.00  0.00    -0.111 C  
BRANCH   6   7
HETATM    7  C   UNL     1      -8.310  12.281  67.160  1.00  0.00    -0.183 C  
BRANCH   7   8
HETATM    8  N   UNL     1      -8.675  13.403  68.047  1.00  0.00    -0.170 NA 
HETATM    9  C   UNL     1      -8.527  14.724  67.397  1.00  0.00    -0.201 C  
HETATM   10  C   UNL     1      -9.624  15.063  66.354  1.00  0.00    -0.289 C  
HETATM   11  N   UNL     1     -11.014  14.983  66.868  1.00  0.00    -0.320 NA 
HETATM   12  C   UNL     1     -11.168  13.644  67.488  1.00  0.00    -0.294 C  
HETATM   13  C   UNL     1     -10.074  13.258  68.519  1.00  0.00    -0.206 C  
BRANCH  11  14
HETATM   14  C   UNL     1     -11.323  16.110  67.805  1.00  0.00    -0.126 C  
BRANCH  14  15
HETATM   15  C   UNL     1     -11.598  15.609  69.235  1.00  0.00    -0.375 A  
HETATM   16  C   UNL     1     -10.637  15.806  70.244  1.00  0.00    -0.297 A  
HETATM   17  C   UNL     1     -12.829  15.036  69.601  1.00  0.00     0.145 A  
HETATM   18  C   UNL     1     -10.912  15.468  71.573  1.00  0.00    -0.151 A  
HETATM   19  C   UNL     1     -12.139  14.906  71.913  1.00  0.00    -0.435 A  
HETATM   20  C   UNL     1     -13.093  14.679  70.926  1.00  0.00    -0.416 A  
ENDBRANCH  14  15
BRANCH  14  21
HETATM   21  C   UNL     1     -10.277  17.237  67.773  1.00  0.00    -0.332 A  
HETATM   22  C   UNL     1      -8.291  19.225  67.574  1.00  0.00    -0.290 A  
HETATM   23 CL   UNL     1      -7.058  20.415  67.436  1.00  0.00    -0.323 Cl 
HETATM   24  C   UNL     1      -8.313  18.374  68.674  1.00  0.00    -0.319 A  
HETATM   25  C   UNL     1     -10.244  18.123  66.678  1.00  0.00    -0.388 A  
HETATM   26  C   UNL     1      -9.295  17.381  68.768  1.00  0.00    -0.244 A  
HETATM   27  C   UNL     1      -9.253  19.104  66.574  1.00  0.00    -0.374 A  
ENDBRANCH  14  21
ENDBRANCH  11  14
ENDBRANCH   7   8
ENDBRANCH   6   7
ENDBRANCH   5   6
ENDBRANCH   3   5
TORSDOF 7
ENDMDL
MODEL      163
REMARK 921   NORMALIZED FREE ENERGY PREDICTED BY IDOCK:   -2.26 KCAL/MOL
REMARK 922        TOTAL FREE ENERGY PREDICTED BY IDOCK:   -3.87 KCAL/MOL
REMARK 923 INTER-LIGAND FREE ENERGY PREDICTED BY IDOCK:   -7.02 KCAL/MOL
REMARK 924 INTRA-LIGAND FREE ENERGY PREDICTED BY IDOCK:    3.15 KCAL/MOL
REMARK 927      BINDING AFFINITY PREDICTED BY RF-SCORE:    0.00 PKD
ROOT
HETATM    1  O   UNL     1     -11.210  14.436  68.733  1.00  0.00    -0.236 OA 
HETATM    2  C   UNL     1     -10.678  15.150  67.710  1.00  0.00    -0.279 C  
HETATM    3  C   UNL     1     -11.025  14.564  66.350  1.00  0.00    -0.324 C  
HETATM    4  O   UNL     1      -9.996  16.152  67.872  1.00  0.00    -0.233 OA 
ENDROOT
BRANCH   3   5
HETATM    5  O   UNL     1     -11.753  13.337  66.500  1.00  0.00    -0.340 OA 
BRANCH   5   6
HETATM    6  C   UNL     1     -11.132  12.244  65.794  1.00  0.00    -0.323 C  
BRANCH   6   7
HETATM    7  C   UNL     1     -10.001  11.575  66.607  1.00  0.00    -0.207 C  
BRANCH   7   8
HETATM    8  N   UNL     1     -10.293  10.212  67.090  1.00  0.00    -0.224 NA 
HETATM    9  C   UNL     1      -9.132   9.574  67.752  1.00  0.00    -0.125 C  
HETATM   10  C   UNL     1      -8.814  10.115  69.171  1.00  0.00    -0.175 C  
HETATM   11  N   UNL     1      -9.949  10.054  70.126  1.00  0.00    -0.235 NA 
HETATM   12  C   UNL     1     -11.099  10.725  69.472  1.00  0.00    -0.278 C  
HETATM   13  C   UNL     1     -11.433  10.229  68.040  1.00  0.00    -0.002 C  
BRANCH  11  14
HETATM   14  C   UNL     1     -10.243   8.648  70.548  1.00  0.00    -0.197 C  
BRANCH  14  15
HETATM   15  C   UNL     1     -11.657   8.512  71.145  1.00  0.00    -0.325 A  
HETATM   16  C   UNL     1     -12.308   9.644  71.671  1.00  0.00    -0.489 A  
HETATM   17  C   UNL     1     -12.373   7.302  71.099  1.00  0.00    -0.381 A  
HETATM   18  C   UNL     1     -13.635   9.570  72.107  1.00  0.00    -0.500 A  
HETATM   19  C   UNL     1     -14.325   8.363  72.049  1.00  0.00    -0.555 A  
HETATM   20  C   UNL     1     -13.691   7.226  71.556  1.00  0.00    -0.451 A  
ENDBRANCH  14  15
BRANCH  14  21
HETATM   21  C   UNL     1      -9.973   7.609  69.446  1.00  0.00    -0.180 A  
HETATM   22  C   UNL     1      -9.373   5.823  67.353  1.00  0.00    -0.112 A  
HETATM   23 CL   UNL     1      -9.000   4.759  66.055  1.00  0.00    -0.122 Cl 
HETATM   24  C   UNL     1     -10.666   6.317  67.494  1.00  0.00    -0.398 A  
HETATM   25  C   UNL     1      -8.677   7.081  69.292  1.00  0.00    -0.136 A  
HETATM   26  C   UNL     1     -10.962   7.211  68.529  1.00  0.00    -0.080 A  
HETATM   27  C   UNL     1      -8.376   6.201  68.248  1.00  0.00    -0.114 A  
ENDBRANCH  14  21
ENDBRANCH  11  14
ENDBRANCH   7   8
ENDBRANCH   6   7
ENDBRANCH   5   6
ENDBRANCH   3   5
TORSDOF 7
ENDMDL
MODEL      164
REMARK 921   NORMALIZED FREE ENERGY PREDICTED BY IDOCK:   -2.25 KCAL/MOL
REMARK 922        TOTAL FREE ENERGY PREDICTED BY IDOCK:   -3.85 KCAL/MOL
REMARK 923 INTER-LIGAND FREE ENERGY PREDICTED BY IDOCK:   -3.28 KCAL/MOL
REMARK 924 INTRA-LIGAND FREE ENERGY PREDICTED BY IDOCK:   -0.57 KCAL/MOL
REMARK 927      BINDING AFFINITY PREDICTED BY RF-SCORE:    0.00 PKD
ROOT
HETATM    1  O   UNL     1      -9.896  13.506  67.794  1.00  0.00    -0.221 OA 
HETATM    2  C   UNL     1      -9.606  13.350  66.478  1.00  0.00    -0.272 C  
HETATM    3  C   UNL     1      -9.319  11.901  66.114  1.00  0.00    -0.219 C  
HETATM    4  O   UNL     1      -9.579  14.277  65.682  1.00  0.00    -0.231 OA 
ENDROOT
BRANCH   3   5
HETATM    5  O   UNL     1      -9.334  11.073  67.286  1.00  0.00    -0.155 OA 
BRANCH   5   6
HETATM    6  C   UNL     1      -8.035  10.520  67.579  1.00  0.00    -0.107 C  
BRANCH   6   7
HETATM    7  C   UNL     1      -8.001   9.760  68.924  1.00  0.00    -0.092 C  
BRANCH   7   8
HETATM    8  N   UNL     1      -7.168   8.542  68.939  1.00  0.00    -0.076 NA 
HETATM    9  C   UNL     1      -7.540   7.603  70.022  1.00  0.00    -0.087 C  
HETATM   10  C   UNL     1      -8.856   6.819  69.781  1.00  0.00    -0.141 C  
HETATM   11  N   UNL     1      -8.899   6.056  68.508  1.00  0.00    -0.113 NA 
HETATM   12  C   UNL     1      -8.561   7.009  67.423  1.00  0.00    -0.121 C  
HETATM   13  C   UNL     1      -7.263   7.830  67.639  1.00  0.00    -0.091 C  
BRANCH  11  14
HETATM   14  C   UNL     1      -8.000   4.859  68.549  1.00  0.00    -0.085 C  
BRANCH  14  15
HETATM   15  C   UNL     1      -8.331   3.934  69.736  1.00  0.00    -0.079 A  
HETATM   16  C   UNL     1      -7.608   4.049  70.939  1.00  0.00    -0.047 A  
HETATM   17  C   UNL     1      -9.406   3.028  69.699  1.00  0.00    -0.214 A  
HETATM   18  C   UNL     1      -7.969   3.306  72.067  1.00  0.00    -0.062 A  
HETATM   19  C   UNL     1      -9.039   2.418  72.008  1.00  0.00    -0.136 A  
HETATM   20  C   UNL     1      -9.750   2.270  70.821  1.00  0.00    -0.102 A  
ENDBRANCH  14  15
BRANCH  14  21
HETATM   21  C   UNL     1      -7.937   4.095  67.216  1.00  0.00    -0.096 A  
HETATM   22  C   UNL     1      -7.893   2.562  64.854  1.00  0.00    -0.078 A  
HETATM   23 CL   UNL     1      -7.866   1.596  63.431  1.00  0.00    -0.058 Cl 
HETATM   24  C   UNL     1      -6.698   2.943  65.456  1.00  0.00    -0.040 A  
HETATM   25  C   UNL     1      -9.132   3.712  66.577  1.00  0.00    -0.168 A  
HETATM   26  C   UNL     1      -6.720   3.697  66.633  1.00  0.00    -0.046 A  
HETATM   27  C   UNL     1      -9.112   2.943  65.409  1.00  0.00    -0.149 A  
ENDBRANCH  14  21
ENDBRANCH  11  14
ENDBRANCH   7   8
ENDBRANCH   6   7
ENDBRANCH   5   6
ENDBRANCH   3   5
TORSDOF 7
ENDMDL
MODEL      165
REMARK 921   NORMALIZED FREE ENERGY PREDICTED BY IDOCK:   -2.15 KCAL/MOL
REMARK 922        TOTAL FREE ENERGY PREDICTED BY IDOCK:   -3.72 KCAL/MOL
REMARK 923 INTER-LIGAND FREE ENERGY PREDICTED BY IDOCK:   -3.37 KCAL/MOL
REMARK 924 INTRA-LIGAND FREE ENERGY PREDICTED BY IDOCK:   -0.35 KCAL/MOL
REMARK 927      BINDING AFFINITY PREDICTED BY RF-SCORE:    0.00 PKD
ROOT
HETATM    1  O   UNL     1      -8.175   6.230  72.371  1.00  0.00    -0.108 OA 
HETATM    2  C   UNL     1      -7.368   6.234  73.461  1.00  0.00    -0.087 C  
HETATM    3  C   UNL     1      -6.032   5.556  73.198  1.00  0.00    -0.036 C  
HETATM    4  O   UNL     1      -7.688   6.729  74.532  1.00  0.00    -0.111 OA 
ENDROOT
BRANCH   3   5
HETATM    5  O   UNL     1      -6.003   4.993  71.878  1.00  0.00    -0.022 OA 
BRANCH   5   6
HETATM    6  C   UNL     1      -6.330   3.589  71.877  1.00  0.00    -0.015 C  
BRANCH   6   7
HETATM    7  C   UNL     1      -6.918   3.115  70.528  1.00  0.00    -0.033 C  
BRANCH   7   8
HETATM    8  N   UNL     1      -6.548   3.932  69.357  1.00  0.00    -0.033 NA 
HETATM    9  C   UNL     1      -6.901   3.289  68.071  1.00  0.00    -0.049 C  
HETATM   10  C   UNL     1      -8.413   3.305  67.728  1.00  0.00    -0.088 C  
HETATM   11  N   UNL     1      -9.034   4.654  67.726  1.00  0.00    -0.110 NA 
HETATM   12  C   UNL     1      -8.708   5.280  69.030  1.00  0.00    -0.100 C  
HETATM   13  C   UNL     1      -7.206   5.262  69.420  1.00  0.00    -0.061 C  
BRANCH  11  14
HETATM   14  C   UNL     1      -8.590   5.466  66.549  1.00  0.00    -0.116 C  
BRANCH  14  15
HETATM   15  C   UNL     1      -9.074   4.860  65.218  1.00  0.00    -0.154 A  
HETATM   16  C   UNL     1      -8.204   4.807  64.113  1.00  0.00    -0.118 A  
HETATM   17  C   UNL     1     -10.341   4.261  65.088  1.00  0.00    -0.215 A  
HETATM   18  C   UNL     1      -8.579   4.155  62.934  1.00  0.00    -0.097 A  
HETATM   19  C   UNL     1      -9.836   3.565  62.830  1.00  0.00    -0.118 A  
HETATM   20  C   UNL     1     -10.721   3.628  63.902  1.00  0.00    -0.266 A  
ENDBRANCH  14  15
BRANCH  14  21
HETATM   21  C   UNL     1      -8.938   6.960  66.670  1.00  0.00    -0.157 A  
HETATM   22  C   UNL     1      -9.664   9.680  66.742  1.00  0.00    -0.197 A  
HETATM   23 CL   UNL     1     -10.109  11.341  66.751  1.00  0.00    -0.244 Cl 
HETATM   24  C   UNL     1      -8.327   9.322  66.599  1.00  0.00    -0.122 A  
HETATM   25  C   UNL     1     -10.283   7.348  66.831  1.00  0.00    -0.346 A  
HETATM   26  C   UNL     1      -7.968   7.971  66.555  1.00  0.00    -0.102 A  
HETATM   27  C   UNL     1     -10.644   8.699  66.859  1.00  0.00    -0.270 A  
ENDBRANCH  14  21
ENDBRANCH  11  14
ENDBRANCH   7   8
ENDBRANCH   6   7
ENDBRANCH   5   6
ENDBRANCH   3   5
TORSDOF 7
ENDMDL
MODEL      166
REMARK 921   NORMALIZED FREE ENERGY PREDICTED BY IDOCK:   -2.14 KCAL/MOL
REMARK 922        TOTAL FREE ENERGY PREDICTED BY IDOCK:   -3.70 KCAL/MOL
REMARK 923 INTER-LIGAND FREE ENERGY PREDICTED BY IDOCK:   -6.60 KCAL/MOL
REMARK 924 INTRA-LIGAND FREE ENERGY PREDICTED BY IDOCK:    2.90 KCAL/MOL
REMARK 927      BINDING AFFINITY PREDICTED BY RF-SCORE:    0.00 PKD
ROOT
HETATM    1  O   UNL     1     -13.343  12.092  64.342  1.00  0.00    -0.740 OA 
HETATM    2  C   UNL     1     -12.058  12.433  64.076  1.00  0.00    -0.475 C  
HETATM    3  C   UNL     1     -11.139  12.209  65.267  1.00  0.00    -0.321 C  
HETATM    4  O   UNL     1     -11.689  12.873  62.997  1.00  0.00    -0.354 OA 
ENDROOT
BRANCH   3   5
HETATM    5  O   UNL     1     -11.891  11.780  66.412  1.00  0.00    -0.534 OA 
BRANCH   5   6
HETATM    6  C   UNL     1     -11.247  12.136  67.651  1.00  0.00    -0.286 C  
BRANCH   6   7
HETATM    7  C   UNL     1     -11.734  11.280  68.843  1.00  0.00    -0.341 C  
BRANCH   7   8
HETATM    8  N   UNL     1     -11.260   9.883  68.850  1.00  0.00    -0.136 NA 
HETATM    9  C   UNL     1      -9.831   9.757  68.486  1.00  0.00    -0.156 C  
HETATM   10  C   UNL     1      -8.836  10.204  69.589  1.00  0.00    -0.164 C  
HETATM   11  N   UNL     1      -9.014   9.525  70.897  1.00  0.00    -0.229 NA 
HETATM   12  C   UNL     1     -10.440   9.684  71.274  1.00  0.00    -0.146 C  
HETATM   13  C   UNL     1     -11.466   9.270  70.187  1.00  0.00    -0.108 C  
BRANCH  11  14
HETATM   14  C   UNL     1      -8.569   8.096  70.844  1.00  0.00    -0.135 C  
BRANCH  14  15
HETATM   15  C   UNL     1      -9.382   7.207  71.805  1.00  0.00    -0.155 A  
HETATM   16  C   UNL     1      -9.965   6.015  71.334  1.00  0.00    -0.223 A  
HETATM   17  C   UNL     1      -9.489   7.494  73.178  1.00  0.00    -0.272 A  
HETATM   18  C   UNL     1     -10.604   5.133  72.211  1.00  0.00    -0.278 A  
HETATM   19  C   UNL     1     -10.694   5.436  73.567  1.00  0.00    -0.331 A  
HETATM   20  C   UNL     1     -10.147   6.621  74.048  1.00  0.00    -0.373 A  
ENDBRANCH  14  15
BRANCH  14  21
HETATM   21  C   UNL     1      -8.521   7.522  69.418  1.00  0.00    -0.133 A  
HETATM   22  C   UNL     1      -8.432   6.635  66.746  1.00  0.00    -0.117 A  
HETATM   23 CL   UNL     1      -8.391   6.123  65.105  1.00  0.00    -0.143 Cl 
HETATM   24  C   UNL     1      -9.555   6.377  67.526  1.00  0.00    -0.129 A  
HETATM   25  C   UNL     1      -7.388   7.755  68.614  1.00  0.00    -0.087 A  
HETATM   26  C   UNL     1      -9.603   6.826  68.850  1.00  0.00    -0.137 A  
HETATM   27  C   UNL     1      -7.347   7.322  67.285  1.00  0.00    -0.098 A  
ENDBRANCH  14  21
ENDBRANCH  11  14
ENDBRANCH   7   8
ENDBRANCH   6   7
ENDBRANCH   5   6
ENDBRANCH   3   5
TORSDOF 7
ENDMDL
MODEL      167
REMARK 921   NORMALIZED FREE ENERGY PREDICTED BY IDOCK:   -2.09 KCAL/MOL
REMARK 922        TOTAL FREE ENERGY PREDICTED BY IDOCK:   -3.63 KCAL/MOL
REMARK 923 INTER-LIGAND FREE ENERGY PREDICTED BY IDOCK:   -6.58 KCAL/MOL
REMARK 924 INTRA-LIGAND FREE ENERGY PREDICTED BY IDOCK:    2.96 KCAL/MOL
REMARK 927      BINDING AFFINITY PREDICTED BY RF-SCORE:    0.00 PKD
ROOT
HETATM    1  O   UNL     1     -10.166  16.063  69.596  1.00  0.00    -0.258 OA 
HETATM    2  C   UNL     1     -10.709  16.336  68.384  1.00  0.00    -0.311 C  
HETATM    3  C   UNL     1     -11.084  15.076  67.618  1.00  0.00    -0.316 C  
HETATM    4  O   UNL     1     -10.874  17.471  67.961  1.00  0.00    -0.378 OA 
ENDROOT
BRANCH   3   5
HETATM    5  O   UNL     1     -10.674  13.905  68.340  1.00  0.00    -0.242 OA 
BRANCH   5   6
HETATM    6  C   UNL     1     -11.647  12.845  68.257  1.00  0.00    -0.335 C  
BRANCH   6   7
HETATM    7  C   UNL     1     -11.209  11.709  67.306  1.00  0.00    -0.304 C  
BRANCH   7   8
HETATM    8  N   UNL     1     -11.356  10.343  67.844  1.00  0.00    -0.368 NA 
HETATM    9  C   UNL     1     -10.585   9.336  67.081  1.00  0.00    -0.216 C  
HETATM   10  C   UNL     1      -9.053   9.371  67.320  1.00  0.00    -0.133 C  
HETATM   11  N   UNL     1      -8.644   9.247  68.742  1.00  0.00    -0.129 NA 
HETATM   12  C   UNL     1      -9.394  10.282  69.497  1.00  0.00    -0.178 C  
HETATM   13  C   UNL     1     -10.928  10.294  69.264  1.00  0.00    -0.241 C  
BRANCH  11  14
HETATM   14  C   UNL     1      -8.860   7.859  69.262  1.00  0.00    -0.142 C  
BRANCH  14  15
HETATM   15  C   UNL     1      -9.904   7.827  70.395  1.00  0.00    -0.183 A  
HETATM   16  C   UNL     1      -9.554   8.270  71.684  1.00  0.00    -0.261 A  
HETATM   17  C   UNL     1     -11.241   7.454  70.166  1.00  0.00    -0.239 A  
HETATM   18  C   UNL     1     -10.515   8.364  72.696  1.00  0.00    -0.317 A  
HETATM   19  C   UNL     1     -11.833   7.993  72.446  1.00  0.00    -0.429 A  
HETATM   20  C   UNL     1     -12.194   7.528  71.186  1.00  0.00    -0.330 A  
ENDBRANCH  14  15
BRANCH  14  21
HETATM   21  C   UNL     1      -9.167   6.833  68.157  1.00  0.00    -0.121 A  
HETATM   22  C   UNL     1      -9.693   5.078  66.018  1.00  0.00    -0.180 A  
HETATM   23 CL   UNL     1     -10.022   4.034  64.692  1.00  0.00    -0.197 Cl 
HETATM   24  C   UNL     1     -10.720   5.449  66.880  1.00  0.00    -0.264 A  
HETATM   25  C   UNL     1      -8.140   6.429  67.281  1.00  0.00    -0.113 A  
HETATM   26  C   UNL     1     -10.460   6.327  67.937  1.00  0.00    -0.285 A  
HETATM   27  C   UNL     1      -8.403   5.565  66.214  1.00  0.00    -0.112 A  
ENDBRANCH  14  21
ENDBRANCH  11  14
ENDBRANCH   7   8
ENDBRANCH   6   7
ENDBRANCH   5   6
ENDBRANCH   3   5
TORSDOF 7
ENDMDL
MODEL      168
REMARK 921   NORMALIZED FREE ENERGY PREDICTED BY IDOCK:   -2.09 KCAL/MOL
REMARK 922        TOTAL FREE ENERGY PREDICTED BY IDOCK:   -3.62 KCAL/MOL
REMARK 923 INTER-LIGAND FREE ENERGY PREDICTED BY IDOCK:   -4.88 KCAL/MOL
REMARK 924 INTRA-LIGAND FREE ENERGY PREDICTED BY IDOCK:    1.26 KCAL/MOL
REMARK 927      BINDING AFFINITY PREDICTED BY RF-SCORE:    0.00 PKD
ROOT
HETATM    1  O   UNL     1     -10.307  14.274  68.847  1.00  0.00    -0.235 OA 
HETATM    2  C   UNL     1     -10.136  15.075  67.766  1.00  0.00    -0.234 C  
HETATM    3  C   UNL     1      -8.684  15.482  67.568  1.00  0.00    -0.172 C  
HETATM    4  O   UNL     1     -11.053  15.426  67.038  1.00  0.00    -0.322 OA 
ENDROOT
BRANCH   3   5
HETATM    5  O   UNL     1      -7.871  14.989  68.642  1.00  0.00    -0.123 OA 
BRANCH   5   6
HETATM    6  C   UNL     1      -6.511  14.746  68.229  1.00  0.00    -0.119 C  
BRANCH   6   7
HETATM    7  C   UNL     1      -6.144  13.245  68.246  1.00  0.00    -0.093 C  
BRANCH   7   8
HETATM    8  N   UNL     1      -6.786  12.426  67.199  1.00  0.00    -0.126 NA 
HETATM    9  C   UNL     1      -6.022  11.200  66.877  1.00  0.00    -0.103 C  
HETATM   10  C   UNL     1      -6.110  10.079  67.946  1.00  0.00    -0.053 C  
HETATM   11  N   UNL     1      -7.491   9.656  68.288  1.00  0.00    -0.077 NA 
HETATM   12  C   UNL     1      -8.242  10.885  68.644  1.00  0.00    -0.146 C  
HETATM   13  C   UNL     1      -8.158  12.039  67.610  1.00  0.00    -0.155 C  
BRANCH  11  14
HETATM   14  C   UNL     1      -8.122   8.874  67.178  1.00  0.00    -0.103 C  
BRANCH  14  15
HETATM   15  C   UNL     1      -8.773   7.575  67.689  1.00  0.00    -0.122 A  
HETATM   16  C   UNL     1      -9.089   7.438  69.054  1.00  0.00    -0.133 A  
HETATM   17  C   UNL     1      -9.157   6.540  66.817  1.00  0.00    -0.153 A  
HETATM   18  C   UNL     1      -9.788   6.320  69.520  1.00  0.00    -0.183 A  
HETATM   19  C   UNL     1     -10.161   5.309  68.638  1.00  0.00    -0.223 A  
HETATM   20  C   UNL     1      -9.836   5.413  67.289  1.00  0.00    -0.175 A  
ENDBRANCH  14  15
BRANCH  14  21
HETATM   21  C   UNL     1      -9.084   9.707  66.313  1.00  0.00    -0.197 A  
HETATM   22  C   UNL     1     -10.727  11.360  64.732  1.00  0.00    -0.298 A  
HETATM   23 CL   UNL     1     -11.715  12.397  63.780  1.00  0.00    -0.515 Cl 
HETATM   24  C   UNL     1     -11.131  11.004  66.015  1.00  0.00    -0.053 A  
HETATM   25  C   UNL     1      -8.707  10.066  65.005  1.00  0.00    -0.192 A  
HETATM   26  C   UNL     1     -10.310  10.191  66.803  1.00  0.00    -0.285 A  
HETATM   27  C   UNL     1      -9.518  10.894  64.222  1.00  0.00    -0.289 A  
ENDBRANCH  14  21
ENDBRANCH  11  14
ENDBRANCH   7   8
ENDBRANCH   6   7
ENDBRANCH   5   6
ENDBRANCH   3   5
TORSDOF 7
ENDMDL
MODEL      169
REMARK 921   NORMALIZED FREE ENERGY PREDICTED BY IDOCK:   -2.06 KCAL/MOL
REMARK 922        TOTAL FREE ENERGY PREDICTED BY IDOCK:   -3.59 KCAL/MOL
REMARK 923 INTER-LIGAND FREE ENERGY PREDICTED BY IDOCK:   -3.82 KCAL/MOL
REMARK 924 INTRA-LIGAND FREE ENERGY PREDICTED BY IDOCK:    0.23 KCAL/MOL
REMARK 927      BINDING AFFINITY PREDICTED BY RF-SCORE:    0.00 PKD
ROOT
HETATM    1  O   UNL     1      -9.647  19.898  66.423  1.00  0.00    -0.382 OA 
HETATM    2  C   UNL     1      -9.547  19.929  67.775  1.00  0.00    -0.378 C  
HETATM    3  C   UNL     1      -8.871  18.688  68.337  1.00  0.00    -0.339 C  
HETATM    4  O   UNL     1      -9.958  20.855  68.458  1.00  0.00     0.231 OA 
ENDROOT
BRANCH   3   5
HETATM    5  O   UNL     1      -8.595  17.746  67.290  1.00  0.00    -0.227 OA 
BRANCH   5   6
HETATM    6  C   UNL     1      -7.741  16.673  67.733  1.00  0.00    -0.163 C  
BRANCH   6   7
HETATM    7  C   UNL     1      -8.200  16.062  69.076  1.00  0.00    -0.235 C  
BRANCH   7   8
HETATM    8  N   UNL     1      -9.447  15.275  69.019  1.00  0.00    -0.220 NA 
HETATM    9  C   UNL     1     -10.111  15.344  67.698  1.00  0.00    -0.236 C  
HETATM   10  C   UNL     1      -9.422  14.519  66.579  1.00  0.00    -0.289 C  
HETATM   11  N   UNL     1      -9.232  13.081  66.897  1.00  0.00    -0.231 NA 
HETATM   12  C   UNL     1      -8.534  13.019  68.206  1.00  0.00    -0.159 C  
HETATM   13  C   UNL     1      -9.180  13.852  69.344  1.00  0.00     0.695 C  
BRANCH  11  14
HETATM   14  C   UNL     1     -10.529  12.333  66.879  1.00  0.00    -0.217 C  
BRANCH  14  15
HETATM   15  C   UNL     1     -11.253  12.474  65.527  1.00  0.00    -0.349 A  
HETATM   16  C   UNL     1     -10.507  12.578  64.338  1.00  0.00    -0.384 A  
HETATM   17  C   UNL     1     -12.654  12.407  65.421  1.00  0.00    -0.001 A  
HETATM   18  C   UNL     1     -11.140  12.585  63.091  1.00  0.00    -0.067 A  
HETATM   19  C   UNL     1     -12.528  12.514  63.010  1.00  0.00    -0.022 A  
HETATM   20  C   UNL     1     -13.285  12.436  64.175  1.00  0.00     0.067 A  
ENDBRANCH  14  15
BRANCH  14  21
HETATM   21  C   UNL     1     -10.394  10.865  67.318  1.00  0.00    -0.255 A  
HETATM   22  C   UNL     1     -10.116   8.233  68.284  1.00  0.00    -0.198 A  
HETATM   23 CL   UNL     1      -9.926   6.639  68.899  1.00  0.00    -0.152 Cl 
HETATM   24  C   UNL     1      -9.199   8.736  67.366  1.00  0.00    -0.158 A  
HETATM   25  C   UNL     1     -11.319  10.327  68.234  1.00  0.00    -0.245 A  
HETATM   26  C   UNL     1      -9.333  10.046  66.894  1.00  0.00    -0.188 A  
HETATM   27  C   UNL     1     -11.177   9.023  68.721  1.00  0.00     0.277 A  
ENDBRANCH  14  21
ENDBRANCH  11  14
ENDBRANCH   7   8
ENDBRANCH   6   7
ENDBRANCH   5   6
ENDBRANCH   3   5
TORSDOF 7
ENDMDL
MODEL      170
REMARK 921   NORMALIZED FREE ENERGY PREDICTED BY IDOCK:   -1.99 KCAL/MOL
REMARK 922        TOTAL FREE ENERGY PREDICTED BY IDOCK:   -3.49 KCAL/MOL
REMARK 923 INTER-LIGAND FREE ENERGY PREDICTED BY IDOCK:   -4.94 KCAL/MOL
REMARK 924 INTRA-LIGAND FREE ENERGY PREDICTED BY IDOCK:    1.45 KCAL/MOL
REMARK 927      BINDING AFFINITY PREDICTED BY RF-SCORE:    0.00 PKD
ROOT
HETATM    1  O   UNL     1      -9.533  19.686  66.446  1.00  0.00    -0.354 OA 
HETATM    2  C   UNL     1      -9.535  19.632  67.801  1.00  0.00    -0.348 C  
HETATM    3  C   UNL     1      -8.635  18.529  68.340  1.00  0.00    -0.331 C  
HETATM    4  O   UNL     1     -10.190  20.387  68.504  1.00  0.00    -0.273 OA 
ENDROOT
BRANCH   3   5
HETATM    5  O   UNL     1      -8.083  17.757  67.263  1.00  0.00    -0.206 OA 
BRANCH   5   6
HETATM    6  C   UNL     1      -6.795  17.202  67.595  1.00  0.00    -0.142 C  
BRANCH   6   7
HETATM    7  C   UNL     1      -6.651  16.892  69.102  1.00  0.00    -0.224 C  
BRANCH   7   8
HETATM    8  N   UNL     1      -7.444  15.747  69.589  1.00  0.00    -0.166 NA 
HETATM    9  C   UNL     1      -8.581  15.414  68.702  1.00  0.00    -0.179 C  
HETATM   10  C   UNL     1      -8.189  14.706  67.379  1.00  0.00    -0.201 C  
HETATM   11  N   UNL     1      -7.394  13.464  67.554  1.00  0.00    -0.165 NA 
HETATM   12  C   UNL     1      -6.236  13.811  68.415  1.00  0.00    -0.100 C  
HETATM   13  C   UNL     1      -6.587  14.544  69.736  1.00  0.00    -0.158 C  
BRANCH  11  14
HETATM   14  C   UNL     1      -8.226  12.345  68.099  1.00  0.00    -0.173 C  
BRANCH  14  15
HETATM   15  C   UNL     1      -9.678  12.407  67.588  1.00  0.00    -0.195 A  
HETATM   16  C   UNL     1     -10.706  12.837  68.447  1.00  0.00    -0.269 A  
HETATM   17  C   UNL     1     -10.008  12.138  66.248  1.00  0.00    -0.249 A  
HETATM   18  C   UNL     1     -12.010  13.017  67.972  1.00  0.00    -0.335 A  
HETATM   19  C   UNL     1     -12.313  12.748  66.641  1.00  0.00     0.043 A  
HETATM   20  C   UNL     1     -11.316  12.297  65.781  1.00  0.00    -0.400 A  
ENDBRANCH  14  15
BRANCH  14  21
HETATM   21  C   UNL     1      -7.595  10.957  67.895  1.00  0.00    -0.095 A  
HETATM   22  C   UNL     1      -6.541   8.396  67.380  1.00  0.00    -0.059 A  
HETATM   23 CL   UNL     1      -5.926   6.825  67.049  1.00  0.00    -0.021 Cl 
HETATM   24  C   UNL     1      -7.284   8.621  68.534  1.00  0.00    -0.081 A  
HETATM   25  C   UNL     1      -6.824  10.708  66.742  1.00  0.00    -0.108 A  
HETATM   26  C   UNL     1      -7.814   9.891  68.785  1.00  0.00    -0.091 A  
HETATM   27  C   UNL     1      -6.307   9.435  66.482  1.00  0.00    -0.066 A  
ENDBRANCH  14  21
ENDBRANCH  11  14
ENDBRANCH   7   8
ENDBRANCH   6   7
ENDBRANCH   5   6
ENDBRANCH   3   5
TORSDOF 7
ENDMDL
MODEL      171
REMARK 921   NORMALIZED FREE ENERGY PREDICTED BY IDOCK:   -1.95 KCAL/MOL
REMARK 922        TOTAL FREE ENERGY PREDICTED BY IDOCK:   -3.43 KCAL/MOL
REMARK 923 INTER-LIGAND FREE ENERGY PREDICTED BY IDOCK:   -6.17 KCAL/MOL
REMARK 924 INTRA-LIGAND FREE ENERGY PREDICTED BY IDOCK:    2.74 KCAL/MOL
REMARK 927      BINDING AFFINITY PREDICTED BY RF-SCORE:    0.00 PKD
ROOT
HETATM    1  O   UNL     1     -13.280  14.983  74.154  1.00  0.00     0.005 OA 
HETATM    2  C   UNL     1     -12.410  15.958  73.794  1.00  0.00    -0.587 C  
HETATM    3  C   UNL     1     -11.733  15.670  72.463  1.00  0.00    -0.466 C  
HETATM    4  O   UNL     1     -12.197  16.953  74.472  1.00  0.00    -0.644 OA 
ENDROOT
BRANCH   3   5
HETATM    5  O   UNL     1     -12.120  14.380  71.967  1.00  0.00    -0.266 OA 
BRANCH   5   6
HETATM    6  C   UNL     1     -13.002  14.475  70.832  1.00  0.00    -0.361 C  
BRANCH   6   7
HETATM    7  C   UNL     1     -12.410  15.327  69.686  1.00  0.00    -0.210 C  
BRANCH   7   8
HETATM    8  N   UNL     1     -11.320  14.689  68.924  1.00  0.00    -0.268 NA 
HETATM    9  C   UNL     1     -11.486  14.823  67.459  1.00  0.00    -0.354 C  
HETATM   10  C   UNL     1     -11.185  16.237  66.897  1.00  0.00     0.182 C  
HETATM   11  N   UNL     1      -9.839  16.764  67.233  1.00  0.00    -0.255 NA 
HETATM   12  C   UNL     1      -9.692  16.660  68.705  1.00  0.00    -0.254 C  
HETATM   13  C   UNL     1     -10.008  15.266  69.309  1.00  0.00    -0.251 C  
BRANCH  11  14
HETATM   14  C   UNL     1      -8.760  16.053  66.476  1.00  0.00    -0.303 C  
BRANCH  14  15
HETATM   15  C   UNL     1      -7.454  16.869  66.436  1.00  0.00    -0.323 A  
HETATM   16  C   UNL     1      -7.406  18.083  65.726  1.00  0.00    -0.161 A  
HETATM   17  C   UNL     1      -6.316  16.491  67.171  1.00  0.00    -0.220 A  
HETATM   18  C   UNL     1      -6.271  18.899  65.775  1.00  0.00    -0.257 A  
HETATM   19  C   UNL     1      -5.158  18.507  66.512  1.00  0.00    -0.160 A  
HETATM   20  C   UNL     1      -5.175  17.297  67.200  1.00  0.00    -0.169 A  
ENDBRANCH  14  15
BRANCH  14  21
HETATM   21  C   UNL     1      -8.531  14.608  66.950  1.00  0.00    -0.203 A  
HETATM   22  C   UNL     1      -7.942  11.981  67.779  1.00  0.00    -0.147 A  
HETATM   23 CL   UNL     1      -7.556  10.377  68.264  1.00  0.00    -0.093 Cl 
HETATM   24  C   UNL     1      -8.767  12.193  66.678  1.00  0.00    -0.153 A  
HETATM   25  C   UNL     1      -7.714  14.367  68.072  1.00  0.00    -0.140 A  
HETATM   26  C   UNL     1      -9.051  13.498  66.262  1.00  0.00     0.010 A  
HETATM   27  C   UNL     1      -7.415  13.063  68.479  1.00  0.00    -0.123 A  
ENDBRANCH  14  21
ENDBRANCH  11  14
ENDBRANCH   7   8
ENDBRANCH   6   7
ENDBRANCH   5   6
ENDBRANCH   3   5
TORSDOF 7
ENDMDL
MODEL      172
REMARK 921   NORMALIZED FREE ENERGY PREDICTED BY IDOCK:   -1.87 KCAL/MOL
REMARK 922        TOTAL FREE ENERGY PREDICTED BY IDOCK:   -3.32 KCAL/MOL
REMARK 923 INTER-LIGAND FREE ENERGY PREDICTED BY IDOCK:   -3.49 KCAL/MOL
REMARK 924 INTRA-LIGAND FREE ENERGY PREDICTED BY IDOCK:    0.16 KCAL/MOL
REMARK 927      BINDING AFFINITY PREDICTED BY RF-SCORE:    0.00 PKD
ROOT
HETATM    1  O   UNL     1      -7.772  12.160  66.659  1.00  0.00    -0.031 OA 
HETATM    2  C   UNL     1      -8.978  11.689  66.254  1.00  0.00    -0.193 C  
HETATM    3  C   UNL     1      -8.901  10.968  64.917  1.00  0.00    -0.057 C  
HETATM    4  O   UNL     1     -10.007  11.835  66.897  1.00  0.00    -0.196 OA 
ENDROOT
BRANCH   3   5
HETATM    5  O   UNL     1      -7.576  11.054  64.372  1.00  0.00     0.369 OA 
BRANCH   5   6
HETATM    6  C   UNL     1      -6.873   9.798  64.449  1.00  0.00    -0.119 C  
BRANCH   6   7
HETATM    7  C   UNL     1      -5.942   9.711  65.680  1.00  0.00    -0.061 C  
BRANCH   7   8
HETATM    8  N   UNL     1      -6.047   8.466  66.464  1.00  0.00    -0.052 NA 
HETATM    9  C   UNL     1      -6.223   8.710  67.913  1.00  0.00    -0.052 C  
HETATM   10  C   UNL     1      -7.636   9.203  68.322  1.00  0.00    -0.083 C  
HETATM   11  N   UNL     1      -8.750   8.322  67.890  1.00  0.00    -0.134 NA 
HETATM   12  C   UNL     1      -8.588   8.109  66.430  1.00  0.00    -0.139 C  
HETATM   13  C   UNL     1      -7.180   7.639  65.979  1.00  0.00    -0.070 C  
BRANCH  11  14
HETATM   14  C   UNL     1      -8.786   7.048  68.676  1.00  0.00    -0.123 C  
BRANCH  14  15
HETATM   15  C   UNL     1      -9.831   7.101  69.806  1.00  0.00    -0.173 A  
HETATM   16  C   UNL     1      -9.843   6.103  70.799  1.00  0.00    -0.220 A  
HETATM   17  C   UNL     1     -10.729   8.176  69.942  1.00  0.00    -0.241 A  
HETATM   18  C   UNL     1     -10.702   6.195  71.899  1.00  0.00    -0.277 A  
HETATM   19  C   UNL     1     -11.579   7.270  72.014  1.00  0.00    -0.311 A  
HETATM   20  C   UNL     1     -11.601   8.254  71.031  1.00  0.00    -0.301 A  
ENDBRANCH  14  15
BRANCH  14  21
HETATM   21  C   UNL     1      -8.938   5.793  67.800  1.00  0.00    -0.107 A  
HETATM   22  C   UNL     1      -9.095   3.561  66.090  1.00  0.00    -0.157 A  
HETATM   23 CL   UNL     1      -9.179   2.218  65.020  1.00  0.00    -0.134 Cl 
HETATM   24  C   UNL     1     -10.190   4.408  66.227  1.00  0.00    -0.211 A  
HETATM   25  C   UNL     1      -7.849   4.910  67.658  1.00  0.00    -0.094 A  
HETATM   26  C   UNL     1     -10.108   5.521  67.070  1.00  0.00    -0.226 A  
HETATM   27  C   UNL     1      -7.924   3.806  66.802  1.00  0.00    -0.095 A  
ENDBRANCH  14  21
ENDBRANCH  11  14
ENDBRANCH   7   8
ENDBRANCH   6   7
ENDBRANCH   5   6
ENDBRANCH   3   5
TORSDOF 7
ENDMDL
MODEL      173
REMARK 921   NORMALIZED FREE ENERGY PREDICTED BY IDOCK:   -1.71 KCAL/MOL
REMARK 922        TOTAL FREE ENERGY PREDICTED BY IDOCK:   -3.10 KCAL/MOL
REMARK 923 INTER-LIGAND FREE ENERGY PREDICTED BY IDOCK:   -5.94 KCAL/MOL
REMARK 924 INTRA-LIGAND FREE ENERGY PREDICTED BY IDOCK:    2.84 KCAL/MOL
REMARK 927      BINDING AFFINITY PREDICTED BY RF-SCORE:    0.00 PKD
ROOT
HETATM    1  O   UNL     1     -13.882   7.836  71.452  1.00  0.00    -0.351 OA 
HETATM    2  C   UNL     1     -13.288   8.922  72.004  1.00  0.00    -0.421 C  
HETATM    3  C   UNL     1     -11.786   8.949  71.764  1.00  0.00    -0.362 C  
HETATM    4  O   UNL     1     -13.899   9.780  72.625  1.00  0.00    -0.236 OA 
ENDROOT
BRANCH   3   5
HETATM    5  O   UNL     1     -11.362   7.754  71.090  1.00  0.00    -0.260 OA 
BRANCH   5   6
HETATM    6  C   UNL     1      -9.965   7.472  71.309  1.00  0.00    -0.186 C  
BRANCH   6   7
HETATM    7  C   UNL     1      -9.100   7.742  70.056  1.00  0.00    -0.150 C  
BRANCH   7   8
HETATM    8  N   UNL     1      -9.590   8.815  69.170  1.00  0.00    -0.161 NA 
HETATM    9  C   UNL     1      -8.889  10.102  69.381  1.00  0.00    -0.185 C  
HETATM   10  C   UNL     1      -7.446  10.158  68.815  1.00  0.00    -0.086 C  
HETATM   11  N   UNL     1      -7.334   9.832  67.371  1.00  0.00    -0.090 NA 
HETATM   12  C   UNL     1      -8.007   8.525  67.171  1.00  0.00    -0.101 C  
HETATM   13  C   UNL     1      -9.444   8.421  67.746  1.00  0.00    -0.149 C  
BRANCH  11  14
HETATM   14  C   UNL     1      -7.890  10.924  66.511  1.00  0.00    -0.152 C  
BRANCH  14  15
HETATM   15  C   UNL     1      -8.351  10.396  65.139  1.00  0.00    -0.165 A  
HETATM   16  C   UNL     1      -9.442  10.998  64.485  1.00  0.00    -0.269 A  
HETATM   17  C   UNL     1      -7.654   9.381  64.459  1.00  0.00    -0.110 A  
HETATM   18  C   UNL     1      -9.802  10.616  63.189  1.00  0.00    -0.351 A  
HETATM   19  C   UNL     1      -9.095   9.612  62.533  1.00  0.00    -0.283 A  
HETATM   20  C   UNL     1      -8.029   8.986  63.172  1.00  0.00    -0.151 A  
ENDBRANCH  14  15
BRANCH  14  21
HETATM   21  C   UNL     1      -8.978  11.758  67.210  1.00  0.00    -0.172 A  
HETATM   22  C   UNL     1     -11.038  13.317  68.331  1.00  0.00    -0.270 A  
HETATM   23 CL   UNL     1     -12.298  14.286  68.986  1.00  0.00    -0.248 Cl 
HETATM   24  C   UNL     1      -9.717  13.746  68.419  1.00  0.00    -0.219 A  
HETATM   25  C   UNL     1     -10.321  11.338  67.150  1.00  0.00    -0.244 A  
HETATM   26  C   UNL     1      -8.696  12.976  67.854  1.00  0.00    -0.189 A  
HETATM   27  C   UNL     1     -11.345  12.115  67.699  1.00  0.00    -0.379 A  
ENDBRANCH  14  21
ENDBRANCH  11  14
ENDBRANCH   7   8
ENDBRANCH   6   7
ENDBRANCH   5   6
ENDBRANCH   3   5
TORSDOF 7
ENDMDL
MODEL      174
REMARK 921   NORMALIZED FREE ENERGY PREDICTED BY IDOCK:   -1.67 KCAL/MOL
REMARK 922        TOTAL FREE ENERGY PREDICTED BY IDOCK:   -3.04 KCAL/MOL
REMARK 923 INTER-LIGAND FREE ENERGY PREDICTED BY IDOCK:   -5.36 KCAL/MOL
REMARK 924 INTRA-LIGAND FREE ENERGY PREDICTED BY IDOCK:    2.32 KCAL/MOL
REMARK 927      BINDING AFFINITY PREDICTED BY RF-SCORE:    0.00 PKD
ROOT
HETATM    1  O   UNL     1      -9.632   3.809  69.945  1.00  0.00    -0.187 OA 
HETATM    2  C   UNL     1      -8.361   3.623  70.379  1.00  0.00    -0.056 C  
HETATM    3  C   UNL     1      -8.204   3.916  71.864  1.00  0.00    -0.083 C  
HETATM    4  O   UNL     1      -7.449   3.260  69.651  1.00  0.00    -0.045 OA 
ENDROOT
BRANCH   3   5
HETATM    5  O   UNL     1      -9.434   4.414  72.412  1.00  0.00    -0.132 OA 
BRANCH   5   6
HETATM    6  C   UNL     1      -9.292   5.746  72.945  1.00  0.00    -0.144 C  
BRANCH   6   7
HETATM    7  C   UNL     1      -9.952   6.819  72.050  1.00  0.00    -0.171 C  
BRANCH   7   8
HETATM    8  N   UNL     1      -9.454   6.876  70.663  1.00  0.00    -0.166 NA 
HETATM    9  C   UNL     1     -10.504   7.246  69.688  1.00  0.00    -0.231 C  
HETATM   10  C   UNL     1     -10.913   8.742  69.707  1.00  0.00    -0.140 C  
HETATM   11  N   UNL     1      -9.790   9.694  69.520  1.00  0.00    -0.193 NA 
HETATM   12  C   UNL     1      -8.755   9.342  70.523  1.00  0.00    -0.236 C  
HETATM   13  C   UNL     1      -8.337   7.848  70.550  1.00  0.00    -0.124 C  
BRANCH  11  14
HETATM   14  C   UNL     1      -9.281   9.681  68.111  1.00  0.00    -0.125 C  
BRANCH  14  15
HETATM   15  C   UNL     1      -9.191   8.250  67.547  1.00  0.00    -0.155 A  
HETATM   16  C   UNL     1     -10.333   7.639  66.998  1.00  0.00    -0.400 A  
HETATM   17  C   UNL     1      -7.971   7.554  67.473  1.00  0.00    -0.116 A  
HETATM   18  C   UNL     1     -10.248   6.391  66.372  1.00  0.00    -0.059 A  
HETATM   19  C   UNL     1      -9.030   5.722  66.307  1.00  0.00    -0.149 A  
HETATM   20  C   UNL     1      -7.893   6.297  66.867  1.00  0.00    -0.104 A  
ENDBRANCH  14  15
BRANCH  14  21
HETATM   21  C   UNL     1     -10.050  10.629  67.175  1.00  0.00    -0.248 A  
HETATM   22  C   UNL     1     -11.313  12.464  65.451  1.00  0.00    -0.337 A  
HETATM   23 CL   UNL     1     -12.062  13.609  64.410  1.00  0.00    -0.457 Cl 
HETATM   24  C   UNL     1     -11.765  12.316  66.759  1.00  0.00    -0.411 A  
HETATM   25  C   UNL     1      -9.622  10.785  65.841  1.00  0.00    -0.252 A  
HETATM   26  C   UNL     1     -11.131  11.411  67.617  1.00  0.00    -0.325 A  
HETATM   27  C   UNL     1     -10.244  11.701  64.988  1.00  0.00    -0.321 A  
ENDBRANCH  14  21
ENDBRANCH  11  14
ENDBRANCH   7   8
ENDBRANCH   6   7
ENDBRANCH   5   6
ENDBRANCH   3   5
TORSDOF 7
ENDMDL
MODEL      175
REMARK 921   NORMALIZED FREE ENERGY PREDICTED BY IDOCK:   -1.60 KCAL/MOL
REMARK 922        TOTAL FREE ENERGY PREDICTED BY IDOCK:   -2.95 KCAL/MOL
REMARK 923 INTER-LIGAND FREE ENERGY PREDICTED BY IDOCK:   -5.27 KCAL/MOL
REMARK 924 INTRA-LIGAND FREE ENERGY PREDICTED BY IDOCK:    2.32 KCAL/MOL
REMARK 927      BINDING AFFINITY PREDICTED BY RF-SCORE:    0.00 PKD
ROOT
HETATM    1  O   UNL     1      -7.144   8.785  70.804  1.00  0.00    -0.053 OA 
HETATM    2  C   UNL     1      -6.548   7.833  70.045  1.00  0.00    -0.037 C  
HETATM    3  C   UNL     1      -6.890   7.967  68.569  1.00  0.00    -0.067 C  
HETATM    4  O   UNL     1      -5.820   6.965  70.505  1.00  0.00    -0.023 OA 
ENDROOT
BRANCH   3   5
HETATM    5  O   UNL     1      -7.843   9.020  68.365  1.00  0.00    -0.100 OA 
BRANCH   5   6
HETATM    6  C   UNL     1      -8.037   9.317  66.968  1.00  0.00    -0.112 C  
BRANCH   6   7
HETATM    7  C   UNL     1      -7.980  10.832  66.668  1.00  0.00    -0.139 C  
BRANCH   7   8
HETATM    8  N   UNL     1      -9.290  11.499  66.536  1.00  0.00    -0.192 NA 
HETATM    9  C   UNL     1     -10.369  10.799  67.270  1.00  0.00    -0.220 C  
HETATM   10  C   UNL     1     -10.326  10.971  68.811  1.00  0.00    -0.199 C  
HETATM   11  N   UNL     1     -10.323  12.380  69.278  1.00  0.00     0.180 NA 
HETATM   12  C   UNL     1      -9.218  13.067  68.566  1.00  0.00    -0.062 C  
HETATM   13  C   UNL     1      -9.213  12.899  67.024  1.00  0.00    -0.226 C  
BRANCH  11  14
HETATM   14  C   UNL     1     -11.656  13.032  69.078  1.00  0.00    -0.318 C  
BRANCH  14  15
HETATM   15  C   UNL     1     -12.087  13.847  70.312  1.00  0.00    -0.423 A  
HETATM   16  C   UNL     1     -11.355  14.987  70.692  1.00  0.00    -0.312 A  
HETATM   17  C   UNL     1     -13.258  13.546  71.032  1.00  0.00    -0.146 A  
HETATM   18  C   UNL     1     -11.796  15.809  71.734  1.00  0.00    -0.549 A  
HETATM   19  C   UNL     1     -12.959  15.494  72.430  1.00  0.00    -0.511 A  
HETATM   20  C   UNL     1     -13.684  14.357  72.087  1.00  0.00    -0.557 A  
ENDBRANCH  14  15
BRANCH  14  21
HETATM   21  C   UNL     1     -11.747  13.851  67.778  1.00  0.00    -0.401 A  
HETATM   22  C   UNL     1     -11.786  15.251  65.335  1.00  0.00    -0.013 A  
HETATM   23 CL   UNL     1     -11.776  16.097  63.838  1.00  0.00     0.190 Cl 
HETATM   24  C   UNL     1     -11.402  15.903  66.502  1.00  0.00     0.207 A  
HETATM   25  C   UNL     1     -12.148  13.218  66.586  1.00  0.00    -0.421 A  
HETATM   26  C   UNL     1     -11.375  15.205  67.714  1.00  0.00    -0.335 A  
HETATM   27  C   UNL     1     -12.160  13.910  65.371  1.00  0.00    -0.423 A  
ENDBRANCH  14  21
ENDBRANCH  11  14
ENDBRANCH   7   8
ENDBRANCH   6   7
ENDBRANCH   5   6
ENDBRANCH   3   5
TORSDOF 7
ENDMDL
MODEL      176
REMARK 921   NORMALIZED FREE ENERGY PREDICTED BY IDOCK:   -1.60 KCAL/MOL
REMARK 922        TOTAL FREE ENERGY PREDICTED BY IDOCK:   -2.94 KCAL/MOL
REMARK 923 INTER-LIGAND FREE ENERGY PREDICTED BY IDOCK:   -5.73 KCAL/MOL
REMARK 924 INTRA-LIGAND FREE ENERGY PREDICTED BY IDOCK:    2.80 KCAL/MOL
REMARK 927      BINDING AFFINITY PREDICTED BY RF-SCORE:    0.00 PKD
ROOT
HETATM    1  O   UNL     1      -7.294  12.833  67.006  1.00  0.00    -0.063 OA 
HETATM    2  C   UNL     1      -7.942  13.300  68.102  1.00  0.00    -0.150 C  
HETATM    3  C   UNL     1      -9.398  13.635  67.818  1.00  0.00    -0.218 C  
HETATM    4  O   UNL     1      -7.406  13.436  69.192  1.00  0.00    -0.033 OA 
ENDROOT
BRANCH   3   5
HETATM    5  O   UNL     1      -9.694  13.460  66.424  1.00  0.00    -0.270 OA 
BRANCH   5   6
HETATM    6  C   UNL     1     -10.582  12.350  66.191  1.00  0.00    -0.254 C  
BRANCH   6   7
HETATM    7  C   UNL     1      -9.872  11.147  65.528  1.00  0.00    -0.235 C  
BRANCH   7   8
HETATM    8  N   UNL     1     -10.237   9.823  66.068  1.00  0.00    -0.236 NA 
HETATM    9  C   UNL     1      -9.116   8.858  66.034  1.00  0.00    -0.214 C  
HETATM   10  C   UNL     1      -8.016   9.099  67.101  1.00  0.00    -0.106 C  
HETATM   11  N   UNL     1      -8.510   9.145  68.500  1.00  0.00    -0.127 NA 
HETATM   12  C   UNL     1      -9.610  10.139  68.536  1.00  0.00    -0.154 C  
HETATM   13  C   UNL     1     -10.718   9.946  67.467  1.00  0.00    -0.272 C  
BRANCH  11  14
HETATM   14  C   UNL     1      -8.918   7.789  68.988  1.00  0.00    -0.145 C  
BRANCH  14  15
HETATM   15  C   UNL     1     -10.080   7.868  69.997  1.00  0.00    -0.199 A  
HETATM   16  C   UNL     1     -11.116   6.916  69.951  1.00  0.00    -0.333 A  
HETATM   17  C   UNL     1     -10.099   8.813  71.039  1.00  0.00    -0.301 A  
HETATM   18  C   UNL     1     -12.116   6.896  70.929  1.00  0.00    -0.424 A  
HETATM   19  C   UNL     1     -12.112   7.838  71.953  1.00  0.00    -0.341 A  
HETATM   20  C   UNL     1     -11.112   8.804  72.002  1.00  0.00    -0.441 A  
ENDBRANCH  14  15
BRANCH  14  21
HETATM   21  C   UNL     1      -9.199   6.789  67.853  1.00  0.00    -0.112 A  
HETATM   22  C   UNL     1      -9.788   4.855  65.893  1.00  0.00    -0.191 A  
HETATM   23 CL   UNL     1     -10.149   3.650  64.721  1.00  0.00    -0.162 Cl 
HETATM   24  C   UNL     1      -8.464   5.129  66.220  1.00  0.00    -0.114 A  
HETATM   25  C   UNL     1     -10.530   6.506  67.491  1.00  0.00    -0.297 A  
HETATM   26  C   UNL     1      -8.173   6.084  67.200  1.00  0.00    -0.105 A  
HETATM   27  C   UNL     1     -10.824   5.539  66.524  1.00  0.00    -0.237 A  
ENDBRANCH  14  21
ENDBRANCH  11  14
ENDBRANCH   7   8
ENDBRANCH   6   7
ENDBRANCH   5   6
ENDBRANCH   3   5
TORSDOF 7
ENDMDL
MODEL      177
REMARK 921   NORMALIZED FREE ENERGY PREDICTED BY IDOCK:   -1.58 KCAL/MOL
REMARK 922        TOTAL FREE ENERGY PREDICTED BY IDOCK:   -2.91 KCAL/MOL
REMARK 923 INTER-LIGAND FREE ENERGY PREDICTED BY IDOCK:   -3.68 KCAL/MOL
REMARK 924 INTRA-LIGAND FREE ENERGY PREDICTED BY IDOCK:    0.78 KCAL/MOL
REMARK 927      BINDING AFFINITY PREDICTED BY RF-SCORE:    0.00 PKD
ROOT
HETATM    1  O   UNL     1      -9.699   4.955  62.765  1.00  0.00     0.087 OA 
HETATM    2  C   UNL     1      -8.602   5.629  63.191  1.00  0.00     0.078 C  
HETATM    3  C   UNL     1      -8.549   5.754  64.706  1.00  0.00    -0.038 C  
HETATM    4  O   UNL     1      -7.756   6.082  62.434  1.00  0.00    -0.065 OA 
ENDROOT
BRANCH   3   5
HETATM    5  O   UNL     1      -9.735   5.207  65.300  1.00  0.00    -0.041 OA 
BRANCH   5   6
HETATM    6  C   UNL     1     -10.325   6.101  66.264  1.00  0.00     0.070 C  
BRANCH   6   7
HETATM    7  C   UNL     1      -9.411   7.301  66.601  1.00  0.00    -0.171 C  
BRANCH   7   8
HETATM    8  N   UNL     1      -9.999   8.632  66.356  1.00  0.00    -0.278 NA 
HETATM    9  C   UNL     1     -11.111   8.949  67.280  1.00  0.00     0.408 C  
HETATM   10  C   UNL     1     -10.675   9.299  68.727  1.00  0.00    -0.154 C  
HETATM   11  N   UNL     1      -9.694  10.409  68.827  1.00  0.00    -0.174 NA 
HETATM   12  C   UNL     1      -8.566  10.069  67.925  1.00  0.00    -0.121 C  
HETATM   13  C   UNL     1      -8.964   9.689  66.475  1.00  0.00    -0.147 C  
BRANCH  11  14
HETATM   14  C   UNL     1     -10.322  11.734  68.519  1.00  0.00    -0.217 C  
BRANCH  14  15
HETATM   15  C   UNL     1     -11.194  12.239  69.684  1.00  0.00    -0.120 A  
HETATM   16  C   UNL     1     -11.619  13.581  69.712  1.00  0.00    -0.313 A  
HETATM   17  C   UNL     1     -11.670  11.377  70.689  1.00  0.00    -0.199 A  
HETATM   18  C   UNL     1     -12.508  14.032  70.693  1.00  0.00    -0.435 A  
HETATM   19  C   UNL     1     -12.969  13.159  71.675  1.00  0.00    -0.429 A  
HETATM   20  C   UNL     1     -12.541  11.835  71.680  1.00  0.00    -0.249 A  
ENDBRANCH  14  15
BRANCH  14  21
HETATM   21  C   UNL     1      -9.314  12.793  68.043  1.00  0.00    -0.213 A  
HETATM   22  C   UNL     1      -7.440  14.774  67.338  1.00  0.00    -0.194 A  
HETATM   23 CL   UNL     1      -6.303  16.000  66.938  1.00  0.00    -0.002 Cl 
HETATM   24  C   UNL     1      -8.776  14.925  66.982  1.00  0.00    -0.263 A  
HETATM   25  C   UNL     1      -7.952  12.655  68.377  1.00  0.00    -0.134 A  
HETATM   26  C   UNL     1      -9.708  13.945  67.340  1.00  0.00    -0.234 A  
HETATM   27  C   UNL     1      -7.023  13.643  68.034  1.00  0.00    -0.135 A  
ENDBRANCH  14  21
ENDBRANCH  11  14
ENDBRANCH   7   8
ENDBRANCH   6   7
ENDBRANCH   5   6
ENDBRANCH   3   5
TORSDOF 7
ENDMDL
MODEL      178
REMARK 921   NORMALIZED FREE ENERGY PREDICTED BY IDOCK:   -1.54 KCAL/MOL
REMARK 922        TOTAL FREE ENERGY PREDICTED BY IDOCK:   -2.85 KCAL/MOL
REMARK 923 INTER-LIGAND FREE ENERGY PREDICTED BY IDOCK:   -5.44 KCAL/MOL
REMARK 924 INTRA-LIGAND FREE ENERGY PREDICTED BY IDOCK:    2.59 KCAL/MOL
REMARK 927      BINDING AFFINITY PREDICTED BY RF-SCORE:    0.00 PKD
ROOT
HETATM    1  O   UNL     1     -14.219   7.608  71.390  1.00  0.00    -0.419 OA 
HETATM    2  C   UNL     1     -13.365   8.510  71.935  1.00  0.00    -0.372 C  
HETATM    3  C   UNL     1     -12.030   7.888  72.317  1.00  0.00    -0.337 C  
HETATM    4  O   UNL     1     -13.645   9.688  72.098  1.00  0.00    -0.426 OA 
ENDROOT
BRANCH   3   5
HETATM    5  O   UNL     1     -12.050   6.471  72.091  1.00  0.00    -0.315 OA 
BRANCH   5   6
HETATM    6  C   UNL     1     -10.941   5.802  72.725  1.00  0.00    -0.272 C  
BRANCH   6   7
HETATM    7  C   UNL     1      -9.994   5.126  71.708  1.00  0.00    -0.187 C  
BRANCH   7   8
HETATM    8  N   UNL     1     -10.143   5.575  70.311  1.00  0.00    -0.217 NA 
HETATM    9  C   UNL     1      -9.238   6.694  69.965  1.00  0.00    -0.158 C  
HETATM   10  C   UNL     1      -7.750   6.295  69.782  1.00  0.00    -0.105 C  
HETATM   11  N   UNL     1      -7.515   5.220  68.785  1.00  0.00    -0.073 NA 
HETATM   12  C   UNL     1      -8.399   4.088  69.156  1.00  0.00    -0.072 C  
HETATM   13  C   UNL     1      -9.892   4.453  69.373  1.00  0.00    -0.168 C  
BRANCH  11  14
HETATM   14  C   UNL     1      -7.729   5.707  67.385  1.00  0.00    -0.100 C  
BRANCH  14  15
HETATM   15  C   UNL     1      -8.351   4.619  66.488  1.00  0.00    -0.106 A  
HETATM   16  C   UNL     1      -9.506   4.905  65.737  1.00  0.00    -0.172 A  
HETATM   17  C   UNL     1      -7.747   3.360  66.315  1.00  0.00    -0.078 A  
HETATM   18  C   UNL     1     -10.018   3.975  64.826  1.00  0.00    -0.210 A  
HETATM   19  C   UNL     1      -9.401   2.737  64.668  1.00  0.00    -0.147 A  
HETATM   20  C   UNL     1      -8.273   2.425  65.421  1.00  0.00    -0.086 A  
ENDBRANCH  14  15
BRANCH  14  21
HETATM   21  C   UNL     1      -8.500   7.036  67.310  1.00  0.00    -0.121 A  
HETATM   22  C   UNL     1      -9.951   9.431  67.007  1.00  0.00    -0.221 A  
HETATM   23 CL   UNL     1     -10.830  10.892  66.788  1.00  0.00    -0.307 Cl 
HETATM   24  C   UNL     1      -8.578   9.474  67.228  1.00  0.00    -0.128 A  
HETATM   25  C   UNL     1      -9.893   7.019  67.103  1.00  0.00    -0.225 A  
HETATM   26  C   UNL     1      -7.857   8.284  67.370  1.00  0.00    -0.106 A  
HETATM   27  C   UNL     1     -10.613   8.207  66.944  1.00  0.00    -0.311 A  
ENDBRANCH  14  21
ENDBRANCH  11  14
ENDBRANCH   7   8
ENDBRANCH   6   7
ENDBRANCH   5   6
ENDBRANCH   3   5
TORSDOF 7
ENDMDL
MODEL      179
REMARK 921   NORMALIZED FREE ENERGY PREDICTED BY IDOCK:   -1.47 KCAL/MOL
REMARK 922        TOTAL FREE ENERGY PREDICTED BY IDOCK:   -2.76 KCAL/MOL
REMARK 923 INTER-LIGAND FREE ENERGY PREDICTED BY IDOCK:   -5.83 KCAL/MOL
REMARK 924 INTRA-LIGAND FREE ENERGY PREDICTED BY IDOCK:    3.07 KCAL/MOL
REMARK 927      BINDING AFFINITY PREDICTED BY RF-SCORE:    0.00 PKD
ROOT
HETATM    1  O   UNL     1     -14.358  13.532  72.503  1.00  0.00    -0.713 OA 
HETATM    2  C   UNL     1     -13.304  13.579  71.651  1.00  0.00    -0.340 C  
HETATM    3  C   UNL     1     -12.752  12.198  71.331  1.00  0.00    -0.263 C  
HETATM    4  O   UNL     1     -12.853  14.621  71.197  1.00  0.00    -0.307 OA 
ENDROOT
BRANCH   3   5
HETATM    5  O   UNL     1     -13.434  11.193  72.096  1.00  0.00    -0.380 OA 
BRANCH   5   6
HETATM    6  C   UNL     1     -12.939   9.868  71.817  1.00  0.00    -0.449 C  
BRANCH   6   7
HETATM    7  C   UNL     1     -11.440   9.858  71.443  1.00  0.00    -0.321 C  
BRANCH   7   8
HETATM    8  N   UNL     1     -11.060   8.906  70.381  1.00  0.00    -0.242 NA 
HETATM    9  C   UNL     1     -10.684   9.574  69.116  1.00  0.00    -0.210 C  
HETATM   10  C   UNL     1      -9.294  10.263  69.132  1.00  0.00    -0.204 C  
HETATM   11  N   UNL     1      -8.166   9.374  69.508  1.00  0.00    -0.114 NA 
HETATM   12  C   UNL     1      -8.533   8.733  70.795  1.00  0.00    -0.173 C  
HETATM   13  C   UNL     1      -9.929   8.055  70.826  1.00  0.00    -0.188 C  
BRANCH  11  14
HETATM   14  C   UNL     1      -7.850   8.390  68.423  1.00  0.00    -0.113 C  
BRANCH  14  15
HETATM   15  C   UNL     1      -8.559   7.041  68.648  1.00  0.00    -0.120 A  
HETATM   16  C   UNL     1      -9.702   6.715  67.894  1.00  0.00    -0.130 A  
HETATM   17  C   UNL     1      -8.048   6.067  69.525  1.00  0.00    -0.107 A  
HETATM   18  C   UNL     1     -10.291   5.450  67.994  1.00  0.00    -0.215 A  
HETATM   19  C   UNL     1      -9.765   4.500  68.865  1.00  0.00    -0.224 A  
HETATM   20  C   UNL     1      -8.652   4.812  69.639  1.00  0.00    -0.100 A  
ENDBRANCH  14  15
BRANCH  14  21
HETATM   21  C   UNL     1      -8.085   8.944  67.008  1.00  0.00    -0.109 A  
HETATM   22  C   UNL     1      -8.632  10.068  64.484  1.00  0.00    -0.187 A  
HETATM   23 CL   UNL     1      -8.997  10.764  62.954  1.00  0.00    -0.247 Cl 
HETATM   24  C   UNL     1      -8.963   8.741  64.739  1.00  0.00    -0.016 A  
HETATM   25  C   UNL     1      -7.743  10.279  66.719  1.00  0.00    -0.111 A  
HETATM   26  C   UNL     1      -8.699   8.186  65.995  1.00  0.00    -0.182 A  
HETATM   27  C   UNL     1      -8.022  10.841  65.469  1.00  0.00    -0.064 A  
ENDBRANCH  14  21
ENDBRANCH  11  14
ENDBRANCH   7   8
ENDBRANCH   6   7
ENDBRANCH   5   6
ENDBRANCH   3   5
TORSDOF 7
ENDMDL
MODEL      180
REMARK 921   NORMALIZED FREE ENERGY PREDICTED BY IDOCK:   -1.29 KCAL/MOL
REMARK 922        TOTAL FREE ENERGY PREDICTED BY IDOCK:   -2.50 KCAL/MOL
REMARK 923 INTER-LIGAND FREE ENERGY PREDICTED BY IDOCK:   -5.41 KCAL/MOL
REMARK 924 INTRA-LIGAND FREE ENERGY PREDICTED BY IDOCK:    2.90 KCAL/MOL
REMARK 927      BINDING AFFINITY PREDICTED BY RF-SCORE:    0.00 PKD
ROOT
HETATM    1  O   UNL     1      -7.139  13.539  70.121  1.00  0.00     0.418 OA 
HETATM    2  C   UNL     1      -5.862  13.424  70.562  1.00  0.00    -0.159 C  
HETATM    3  C   UNL     1      -5.135  12.244  69.936  1.00  0.00    -0.078 C  
HETATM    4  O   UNL     1      -5.360  14.187  71.375  1.00  0.00    -0.146 OA 
ENDROOT
BRANCH   3   5
HETATM    5  O   UNL     1      -6.024  11.487  69.101  1.00  0.00    -0.049 OA 
BRANCH   5   6
HETATM    6  C   UNL     1      -5.620  11.504  67.718  1.00  0.00    -0.049 C  
BRANCH   6   7
HETATM    7  C   UNL     1      -6.121  10.269  66.936  1.00  0.00    -0.060 C  
BRANCH   7   8
HETATM    8  N   UNL     1      -7.576  10.223  66.693  1.00  0.00    -0.106 NA 
HETATM    9  C   UNL     1      -8.180   8.920  67.050  1.00  0.00    -0.106 C  
HETATM   10  C   UNL     1      -8.326   8.664  68.573  1.00  0.00    -0.123 C  
HETATM   11  N   UNL     1      -9.082   9.710  69.307  1.00  0.00    -0.161 NA 
HETATM   12  C   UNL     1      -8.451  11.011  68.974  1.00  0.00    -0.076 C  
HETATM   13  C   UNL     1      -8.265  11.292  67.459  1.00  0.00    -0.124 C  
BRANCH  11  14
HETATM   14  C   UNL     1     -10.545   9.661  68.990  1.00  0.00    -0.218 C  
BRANCH  14  15
HETATM   15  C   UNL     1     -11.390   9.329  70.235  1.00  0.00    -0.238 A  
HETATM   16  C   UNL     1     -11.040   8.236  71.050  1.00  0.00    -0.284 A  
HETATM   17  C   UNL     1     -12.459  10.143  70.650  1.00  0.00    -0.372 A  
HETATM   18  C   UNL     1     -11.717   7.987  72.248  1.00  0.00    -0.428 A  
HETATM   19  C   UNL     1     -12.770   8.809  72.640  1.00  0.00    -0.286 A  
HETATM   20  C   UNL     1     -13.149   9.880  71.836  1.00  0.00    -0.559 A  
ENDBRANCH  14  15
BRANCH  14  21
HETATM   21  C   UNL     1     -11.055  10.913  68.257  1.00  0.00    -0.324 A  
HETATM   22  C   UNL     1     -11.835  13.213  66.831  1.00  0.00    -0.386 A  
HETATM   23 CL   UNL     1     -12.278  14.626  65.957  1.00  0.00    -0.236 Cl 
HETATM   24  C   UNL     1     -11.682  13.272  68.212  1.00  0.00    -0.388 A  
HETATM   25  C   UNL     1     -11.234  10.875  66.860  1.00  0.00    -0.162 A  
HETATM   26  C   UNL     1     -11.286  12.132  68.919  1.00  0.00    -0.335 A  
HETATM   27  C   UNL     1     -11.613  12.019  66.151  1.00  0.00    -0.371 A  
ENDBRANCH  14  21
ENDBRANCH  11  14
ENDBRANCH   7   8
ENDBRANCH   6   7
ENDBRANCH   5   6
ENDBRANCH   3   5
TORSDOF 7
ENDMDL
MODEL      181
REMARK 921   NORMALIZED FREE ENERGY PREDICTED BY IDOCK:   -1.29 KCAL/MOL
REMARK 922        TOTAL FREE ENERGY PREDICTED BY IDOCK:   -2.50 KCAL/MOL
REMARK 923 INTER-LIGAND FREE ENERGY PREDICTED BY IDOCK:   -6.30 KCAL/MOL
REMARK 924 INTRA-LIGAND FREE ENERGY PREDICTED BY IDOCK:    3.81 KCAL/MOL
REMARK 927      BINDING AFFINITY PREDICTED BY RF-SCORE:    0.00 PKD
ROOT
HETATM    1  O   UNL     1     -10.928  11.079  67.771  1.00  0.00    -0.227 OA 
HETATM    2  C   UNL     1     -10.640  11.758  66.632  1.00  0.00    -0.240 C  
HETATM    3  C   UNL     1      -9.593  11.052  65.783  1.00  0.00    -0.222 C  
HETATM    4  O   UNL     1     -11.166  12.819  66.331  1.00  0.00    -0.277 OA 
ENDROOT
BRANCH   3   5
HETATM    5  O   UNL     1      -9.101   9.884  66.457  1.00  0.00    -0.147 OA 
BRANCH   5   6
HETATM    6  C   UNL     1      -9.798   8.688  66.053  1.00  0.00    -0.113 C  
BRANCH   6   7
HETATM    7  C   UNL     1      -9.629   7.531  67.063  1.00  0.00    -0.170 C  
BRANCH   7   8
HETATM    8  N   UNL     1     -10.413   7.659  68.307  1.00  0.00    -0.195 NA 
HETATM    9  C   UNL     1     -10.663   6.358  68.967  1.00  0.00    -0.286 C  
HETATM   10  C   UNL     1      -9.433   5.747  69.689  1.00  0.00    -0.140 C  
HETATM   11  N   UNL     1      -8.803   6.635  70.698  1.00  0.00    -0.147 NA 
HETATM   12  C   UNL     1      -8.522   7.925  70.022  1.00  0.00    -0.134 C  
HETATM   13  C   UNL     1      -9.723   8.556  69.267  1.00  0.00    -0.173 C  
BRANCH  11  14
HETATM   14  C   UNL     1      -9.656   6.778  71.921  1.00  0.00    -0.148 C  
BRANCH  14  15
HETATM   15  C   UNL     1     -10.866   7.698  71.670  1.00  0.00    -0.260 A  
HETATM   16  C   UNL     1     -12.162   7.152  71.606  1.00  0.00    -0.385 A  
HETATM   17  C   UNL     1     -10.737   9.097  71.596  1.00  0.00    -0.441 A  
HETATM   18  C   UNL     1     -13.285   7.979  71.501  1.00  0.00    -0.320 A  
HETATM   19  C   UNL     1     -13.133   9.361  71.433  1.00  0.00    -0.419 A  
HETATM   20  C   UNL     1     -11.859   9.920  71.469  1.00  0.00    -0.445 A  
ENDBRANCH  14  15
BRANCH  14  21
HETATM   21  C   UNL     1     -10.066   5.432  72.542  1.00  0.00    -0.215 A  
HETATM   22  C   UNL     1     -10.676   2.977  73.781  1.00  0.00    -0.200 A  
HETATM   23 CL   UNL     1     -11.015   1.475  74.546  1.00  0.00    -0.150 Cl 
HETATM   24  C   UNL     1     -10.338   3.008  72.432  1.00  0.00    -0.149 A  
HETATM   25  C   UNL     1     -10.428   5.376  73.902  1.00  0.00    -0.313 A  
HETATM   26  C   UNL     1     -10.027   4.226  71.819  1.00  0.00    -0.254 A  
HETATM   27  C   UNL     1     -10.723   4.157  74.520  1.00  0.00    -0.135 A  
ENDBRANCH  14  21
ENDBRANCH  11  14
ENDBRANCH   7   8
ENDBRANCH   6   7
ENDBRANCH   5   6
ENDBRANCH   3   5
TORSDOF 7
ENDMDL
MODEL      182
REMARK 921   NORMALIZED FREE ENERGY PREDICTED BY IDOCK:   -1.27 KCAL/MOL
REMARK 922        TOTAL FREE ENERGY PREDICTED BY IDOCK:   -2.47 KCAL/MOL
REMARK 923 INTER-LIGAND FREE ENERGY PREDICTED BY IDOCK:   -3.53 KCAL/MOL
REMARK 924 INTRA-LIGAND FREE ENERGY PREDICTED BY IDOCK:    1.06 KCAL/MOL
REMARK 927      BINDING AFFINITY PREDICTED BY RF-SCORE:    0.00 PKD
ROOT
HETATM    1  O   UNL     1      -6.753  19.736  70.477  1.00  0.00    -0.118 OA 
HETATM    2  C   UNL     1      -7.496  19.351  69.411  1.00  0.00    -0.160 C  
HETATM    3  C   UNL     1      -7.147  17.950  68.933  1.00  0.00    -0.264 C  
HETATM    4  O   UNL     1      -8.350  20.059  68.896  1.00  0.00    -0.083 OA 
ENDROOT
BRANCH   3   5
HETATM    5  O   UNL     1      -6.040  17.423  69.680  1.00  0.00    -0.239 OA 
BRANCH   5   6
HETATM    6  C   UNL     1      -6.139  15.998  69.870  1.00  0.00    -0.166 C  
BRANCH   6   7
HETATM    7  C   UNL     1      -5.296  15.201  68.848  1.00  0.00    -0.095 C  
BRANCH   7   8
HETATM    8  N   UNL     1      -6.069  14.462  67.832  1.00  0.00    -0.168 NA 
HETATM    9  C   UNL     1      -5.558  13.091  67.605  1.00  0.00    -0.105 C  
HETATM   10  C   UNL     1      -5.886  12.079  68.734  1.00  0.00    -0.051 C  
HETATM   11  N   UNL     1      -7.329  11.958  69.059  1.00  0.00    -0.079 NA 
HETATM   12  C   UNL     1      -7.828  13.331  69.320  1.00  0.00     0.494 C  
HETATM   13  C   UNL     1      -7.498  14.378  68.224  1.00  0.00    -0.123 C  
BRANCH  11  14
HETATM   14  C   UNL     1      -8.083  11.248  67.977  1.00  0.00    -0.128 C  
BRANCH  14  15
HETATM   15  C   UNL     1      -8.645   9.898  68.461  1.00  0.00    -0.117 A  
HETATM   16  C   UNL     1      -9.902   9.456  68.006  1.00  0.00    -0.191 A  
HETATM   17  C   UNL     1      -7.900   9.030  69.280  1.00  0.00    -0.095 A  
HETATM   18  C   UNL     1     -10.378   8.184  68.335  1.00  0.00    -0.236 A  
HETATM   19  C   UNL     1      -9.621   7.340  69.144  1.00  0.00    -0.155 A  
HETATM   20  C   UNL     1      -8.388   7.767  69.626  1.00  0.00    -0.129 A  
ENDBRANCH  14  15
BRANCH  14  21
HETATM   21  C   UNL     1      -9.158  12.120  67.306  1.00  0.00    -0.181 A  
HETATM   22  C   UNL     1     -11.001  13.830  66.036  1.00  0.00    -0.284 A  
HETATM   23 CL   UNL     1     -12.104  14.900  65.266  1.00  0.00    -0.188 Cl 
HETATM   24  C   UNL     1     -11.074  13.630  67.411  1.00  0.00    -0.299 A  
HETATM   25  C   UNL     1      -9.117  12.325  65.914  1.00  0.00     0.044 A  
HETATM   26  C   UNL     1     -10.153  12.788  68.043  1.00  0.00    -0.230 A  
HETATM   27  C   UNL     1     -10.026  13.180  65.283  1.00  0.00    -0.184 A  
ENDBRANCH  14  21
ENDBRANCH  11  14
ENDBRANCH   7   8
ENDBRANCH   6   7
ENDBRANCH   5   6
ENDBRANCH   3   5
TORSDOF 7
ENDMDL
MODEL      183
REMARK 921   NORMALIZED FREE ENERGY PREDICTED BY IDOCK:   -1.26 KCAL/MOL
REMARK 922        TOTAL FREE ENERGY PREDICTED BY IDOCK:   -2.46 KCAL/MOL
REMARK 923 INTER-LIGAND FREE ENERGY PREDICTED BY IDOCK:   -5.48 KCAL/MOL
REMARK 924 INTRA-LIGAND FREE ENERGY PREDICTED BY IDOCK:    3.02 KCAL/MOL
REMARK 927      BINDING AFFINITY PREDICTED BY RF-SCORE:    0.00 PKD
ROOT
HETATM    1  O   UNL     1     -14.257  13.762  72.720  1.00  0.00    -0.650 OA 
HETATM    2  C   UNL     1     -13.147  14.116  72.027  1.00  0.00    -0.387 C  
HETATM    3  C   UNL     1     -12.503  12.935  71.317  1.00  0.00    -0.200 C  
HETATM    4  O   UNL     1     -12.717  15.260  71.986  1.00  0.00    -0.309 OA 
ENDROOT
BRANCH   3   5
HETATM    5  O   UNL     1     -13.187  11.716  71.643  1.00  0.00    -0.409 OA 
BRANCH   5   6
HETATM    6  C   UNL     1     -12.817  10.633  70.767  1.00  0.00    -0.352 C  
BRANCH   6   7
HETATM    7  C   UNL     1     -11.296  10.576  70.500  1.00  0.00    -0.314 C  
BRANCH   7   8
HETATM    8  N   UNL     1     -10.907  10.523  69.078  1.00  0.00    -0.216 NA 
HETATM    9  C   UNL     1     -11.038  11.830  68.395  1.00  0.00    -0.237 C  
HETATM   10  C   UNL     1      -9.943  12.867  68.759  1.00  0.00     0.002 C  
HETATM   11  N   UNL     1      -8.551  12.400  68.542  1.00  0.00    -0.112 NA 
HETATM   12  C   UNL     1      -8.414  11.107  69.257  1.00  0.00     0.136 C  
HETATM   13  C   UNL     1      -9.506  10.052  68.939  1.00  0.00    -0.172 C  
BRANCH  11  14
HETATM   14  C   UNL     1      -8.216  12.311  67.085  1.00  0.00    -0.179 C  
BRANCH  14  15
HETATM   15  C   UNL     1      -7.305  11.107  66.778  1.00  0.00    -0.146 A  
HETATM   16  C   UNL     1      -7.504  10.359  65.603  1.00  0.00    -0.149 A  
HETATM   17  C   UNL     1      -6.205  10.778  67.591  1.00  0.00    -0.052 A  
HETATM   18  C   UNL     1      -6.618   9.338  65.244  1.00  0.00    -0.073 A  
HETATM   19  C   UNL     1      -5.533   9.033  66.061  1.00  0.00    -0.041 A  
HETATM   20  C   UNL     1      -5.334   9.744  67.240  1.00  0.00    -0.039 A  
ENDBRANCH  14  15
BRANCH  14  21
HETATM   21  C   UNL     1      -9.452  12.356  66.170  1.00  0.00    -0.201 A  
HETATM   22  C   UNL     1     -11.805  12.500  64.629  1.00  0.00    -0.378 A  
HETATM   23 CL   UNL     1     -13.260  12.585  63.717  1.00  0.00     0.047 Cl 
HETATM   24  C   UNL     1     -11.230  11.263  64.905  1.00  0.00    -0.107 A  
HETATM   25  C   UNL     1     -10.043  13.597  65.862  1.00  0.00    -0.320 A  
HETATM   26  C   UNL     1     -10.066  11.192  65.677  1.00  0.00    -0.304 A  
HETATM   27  C   UNL     1     -11.216  13.669  65.104  1.00  0.00    -0.318 A  
ENDBRANCH  14  21
ENDBRANCH  11  14
ENDBRANCH   7   8
ENDBRANCH   6   7
ENDBRANCH   5   6
ENDBRANCH   3   5
TORSDOF 7
ENDMDL
MODEL      184
REMARK 921   NORMALIZED FREE ENERGY PREDICTED BY IDOCK:   -1.26 KCAL/MOL
REMARK 922        TOTAL FREE ENERGY PREDICTED BY IDOCK:   -2.46 KCAL/MOL
REMARK 923 INTER-LIGAND FREE ENERGY PREDICTED BY IDOCK:   -3.67 KCAL/MOL
REMARK 924 INTRA-LIGAND FREE ENERGY PREDICTED BY IDOCK:    1.21 KCAL/MOL
REMARK 927      BINDING AFFINITY PREDICTED BY RF-SCORE:    0.00 PKD
ROOT
HETATM    1  O   UNL     1     -12.306  13.378  72.545  1.00  0.00     0.259 OA 
HETATM    2  C   UNL     1     -13.656  13.277  72.467  1.00  0.00    -0.532 C  
HETATM    3  C   UNL     1     -14.124  11.836  72.324  1.00  0.00     0.760 C  
HETATM    4  O   UNL     1     -14.406  14.241  72.506  1.00  0.00    -0.554 OA 
ENDROOT
BRANCH   3   5
HETATM    5  O   UNL     1     -13.001  10.950  72.210  1.00  0.00    -0.324 OA 
BRANCH   5   6
HETATM    6  C   UNL     1     -12.079  11.367  71.184  1.00  0.00    -0.092 C  
BRANCH   6   7
HETATM    7  C   UNL     1     -12.237  10.560  69.876  1.00  0.00    -0.218 C  
BRANCH   7   8
HETATM    8  N   UNL     1     -11.208  10.814  68.849  1.00  0.00    -0.247 NA 
HETATM    9  C   UNL     1     -11.768  11.374  67.598  1.00  0.00    -0.168 C  
HETATM   10  C   UNL     1     -12.191  12.864  67.685  1.00  0.00     0.004 C  
HETATM   11  N   UNL     1     -11.119  13.788  68.135  1.00  0.00    -0.250 NA 
HETATM   12  C   UNL     1     -10.585  13.240  69.407  1.00  0.00     0.234 C  
HETATM   13  C   UNL     1     -10.174  11.744  69.366  1.00  0.00     0.321 C  
BRANCH  11  14
HETATM   14  C   UNL     1     -10.071  13.975  67.082  1.00  0.00    -0.259 C  
BRANCH  14  15
HETATM   15  C   UNL     1     -10.675  13.971  65.665  1.00  0.00    -0.306 A  
HETATM   16  C   UNL     1     -10.446  12.879  64.807  1.00  0.00    -0.371 A  
HETATM   17  C   UNL     1     -11.537  14.990  65.219  1.00  0.00    -0.258 A  
HETATM   18  C   UNL     1     -11.081  12.798  63.564  1.00  0.00    -0.377 A  
HETATM   19  C   UNL     1     -11.934  13.815  63.145  1.00  0.00     0.330 A  
HETATM   20  C   UNL     1     -12.153  14.916  63.967  1.00  0.00    -0.153 A  
ENDBRANCH  14  15
BRANCH  14  21
HETATM   21  C   UNL     1      -9.168  15.196  67.328  1.00  0.00    -0.208 A  
HETATM   22  C   UNL     1      -7.654  17.532  67.757  1.00  0.00    -0.193 A  
HETATM   23 CL   UNL     1      -6.753  18.976  68.001  1.00  0.00    -0.244 Cl 
HETATM   24  C   UNL     1      -7.406  16.740  66.641  1.00  0.00    -0.297 A  
HETATM   25  C   UNL     1      -9.387  16.004  68.460  1.00  0.00    -0.213 A  
HETATM   26  C   UNL     1      -8.164  15.585  66.423  1.00  0.00    -0.055 A  
HETATM   27  C   UNL     1      -8.641  17.169  68.669  1.00  0.00    -0.260 A  
ENDBRANCH  14  21
ENDBRANCH  11  14
ENDBRANCH   7   8
ENDBRANCH   6   7
ENDBRANCH   5   6
ENDBRANCH   3   5
TORSDOF 7
ENDMDL
MODEL      185
REMARK 921   NORMALIZED FREE ENERGY PREDICTED BY IDOCK:   -1.21 KCAL/MOL
REMARK 922        TOTAL FREE ENERGY PREDICTED BY IDOCK:   -2.39 KCAL/MOL
REMARK 923 INTER-LIGAND FREE ENERGY PREDICTED BY IDOCK:   -5.23 KCAL/MOL
REMARK 924 INTRA-LIGAND FREE ENERGY PREDICTED BY IDOCK:    2.85 KCAL/MOL
REMARK 927      BINDING AFFINITY PREDICTED BY RF-SCORE:    0.00 PKD
ROOT
HETATM    1  O   UNL     1      -7.637  11.969  66.775  1.00  0.00    -0.102 OA 
HETATM    2  C   UNL     1      -8.018  12.635  67.894  1.00  0.00    -0.156 C  
HETATM    3  C   UNL     1      -9.507  12.944  67.908  1.00  0.00    -0.208 C  
HETATM    4  O   UNL     1      -7.243  12.949  68.785  1.00  0.00    -0.102 OA 
ENDROOT
BRANCH   3   5
HETATM    5  O   UNL     1     -10.120  12.533  66.677  1.00  0.00    -0.224 OA 
BRANCH   5   6
HETATM    6  C   UNL     1     -10.963  11.376  66.847  1.00  0.00    -0.299 C  
BRANCH   6   7
HETATM    7  C   UNL     1     -10.241  10.056  66.493  1.00  0.00    -0.224 C  
BRANCH   7   8
HETATM    8  N   UNL     1     -10.571   8.905  67.356  1.00  0.00    -0.273 NA 
HETATM    9  C   UNL     1      -9.561   7.825  67.287  1.00  0.00    -0.161 C  
HETATM   10  C   UNL     1      -8.232   8.127  68.028  1.00  0.00    -0.129 C  
HETATM   11  N   UNL     1      -8.390   8.486  69.460  1.00  0.00    -0.116 NA 
HETATM   12  C   UNL     1      -9.376   9.592  69.521  1.00  0.00    -0.200 C  
HETATM   13  C   UNL     1     -10.709   9.337  68.769  1.00  0.00    -0.154 C  
BRANCH  11  14
HETATM   14  C   UNL     1      -8.775   7.300  70.290  1.00  0.00    -0.147 C  
BRANCH  14  15
HETATM   15  C   UNL     1     -10.174   7.467  70.915  1.00  0.00    -0.193 A  
HETATM   16  C   UNL     1     -10.357   8.344  72.000  1.00  0.00    -0.374 A  
HETATM   17  C   UNL     1     -11.311   6.840  70.375  1.00  0.00    -0.399 A  
HETATM   18  C   UNL     1     -11.635   8.604  72.505  1.00  0.00    -0.310 A  
HETATM   19  C   UNL     1     -12.747   7.975  71.953  1.00  0.00    -0.354 A  
HETATM   20  C   UNL     1     -12.585   7.084  70.896  1.00  0.00    -0.273 A  
ENDBRANCH  14  15
BRANCH  14  21
HETATM   21  C   UNL     1      -8.624   5.960  69.549  1.00  0.00    -0.117 A  
HETATM   22  C   UNL     1      -8.299   3.597  68.052  1.00  0.00    -0.091 A  
HETATM   23 CL   UNL     1      -8.107   2.172  67.109  1.00  0.00    -0.067 Cl 
HETATM   24  C   UNL     1      -9.564   3.968  68.497  1.00  0.00    -0.184 A  
HETATM   25  C   UNL     1      -7.352   5.554  69.102  1.00  0.00    -0.077 A  
HETATM   26  C   UNL     1      -9.726   5.146  69.233  1.00  0.00    -0.242 A  
HETATM   27  C   UNL     1      -7.191   4.385  68.351  1.00  0.00    -0.060 A  
ENDBRANCH  14  21
ENDBRANCH  11  14
ENDBRANCH   7   8
ENDBRANCH   6   7
ENDBRANCH   5   6
ENDBRANCH   3   5
TORSDOF 7
ENDMDL
MODEL      186
REMARK 921   NORMALIZED FREE ENERGY PREDICTED BY IDOCK:   -1.19 KCAL/MOL
REMARK 922        TOTAL FREE ENERGY PREDICTED BY IDOCK:   -2.36 KCAL/MOL
REMARK 923 INTER-LIGAND FREE ENERGY PREDICTED BY IDOCK:   -5.12 KCAL/MOL
REMARK 924 INTRA-LIGAND FREE ENERGY PREDICTED BY IDOCK:    2.77 KCAL/MOL
REMARK 927      BINDING AFFINITY PREDICTED BY RF-SCORE:    0.00 PKD
ROOT
HETATM    1  O   UNL     1     -10.971  11.738  67.565  1.00  0.00    -0.228 OA 
HETATM    2  C   UNL     1     -11.491  12.221  66.409  1.00  0.00    -0.378 C  
HETATM    3  C   UNL     1     -10.650  11.855  65.196  1.00  0.00    -0.287 C  
HETATM    4  O   UNL     1     -12.521  12.878  66.358  1.00  0.00    -0.422 OA 
ENDROOT
BRANCH   3   5
HETATM    5  O   UNL     1      -9.457  11.167  65.597  1.00  0.00    -0.208 OA 
BRANCH   5   6
HETATM    6  C   UNL     1      -9.551   9.744  65.389  1.00  0.00    -0.292 C  
BRANCH   6   7
HETATM    7  C   UNL     1      -8.446   8.958  66.131  1.00  0.00    -0.125 C  
BRANCH   7   8
HETATM    8  N   UNL     1      -8.919   7.828  66.953  1.00  0.00    -0.128 NA 
HETATM    9  C   UNL     1      -7.819   7.122  67.649  1.00  0.00    -0.113 C  
HETATM   10  C   UNL     1      -7.223   7.883  68.862  1.00  0.00    -0.076 C  
HETATM   11  N   UNL     1      -8.214   8.274  69.896  1.00  0.00    -0.120 NA 
HETATM   12  C   UNL     1      -9.296   9.011  69.198  1.00  0.00    -0.148 C  
HETATM   13  C   UNL     1      -9.901   8.293  67.963  1.00  0.00    -0.169 C  
BRANCH  11  14
HETATM   14  C   UNL     1      -8.705   7.090  70.670  1.00  0.00    -0.149 C  
BRANCH  14  15
HETATM   15  C   UNL     1     -10.175   7.256  71.102  1.00  0.00    -0.197 A  
HETATM   16  C   UNL     1     -11.091   6.208  70.893  1.00  0.00    -0.371 A  
HETATM   17  C   UNL     1     -10.624   8.396  71.793  1.00  0.00    -0.352 A  
HETATM   18  C   UNL     1     -12.398   6.289  71.384  1.00  0.00     0.036 A  
HETATM   19  C   UNL     1     -12.819   7.425  72.069  1.00  0.00    -0.217 A  
HETATM   20  C   UNL     1     -11.937   8.483  72.264  1.00  0.00    -0.454 A  
ENDBRANCH  14  15
BRANCH  14  21
HETATM   21  C   UNL     1      -8.455   5.748  69.960  1.00  0.00    -0.124 A  
HETATM   22  C   UNL     1      -8.134   3.229  68.743  1.00  0.00    -0.060 A  
HETATM   23 CL   UNL     1      -7.955   1.676  68.027  1.00  0.00    -0.057 Cl 
HETATM   24  C   UNL     1      -7.165   3.703  69.622  1.00  0.00    -0.042 A  
HETATM   25  C   UNL     1      -9.412   5.254  69.053  1.00  0.00    -0.182 A  
HETATM   26  C   UNL     1      -7.329   4.951  70.232  1.00  0.00    -0.055 A  
HETATM   27  C   UNL     1      -9.258   3.999  68.455  1.00  0.00    -0.204 A  
ENDBRANCH  14  21
ENDBRANCH  11  14
ENDBRANCH   7   8
ENDBRANCH   6   7
ENDBRANCH   5   6
ENDBRANCH   3   5
TORSDOF 7
ENDMDL
MODEL      187
REMARK 921   NORMALIZED FREE ENERGY PREDICTED BY IDOCK:   -1.17 KCAL/MOL
REMARK 922        TOTAL FREE ENERGY PREDICTED BY IDOCK:   -2.33 KCAL/MOL
REMARK 923 INTER-LIGAND FREE ENERGY PREDICTED BY IDOCK:   -5.37 KCAL/MOL
REMARK 924 INTRA-LIGAND FREE ENERGY PREDICTED BY IDOCK:    3.04 KCAL/MOL
REMARK 927      BINDING AFFINITY PREDICTED BY RF-SCORE:    0.00 PKD
ROOT
HETATM    1  O   UNL     1     -11.129  14.170  69.204  1.00  0.00    -0.251 OA 
HETATM    2  C   UNL     1     -10.776  14.968  68.167  1.00  0.00    -0.256 C  
HETATM    3  C   UNL     1     -11.360  14.496  66.844  1.00  0.00    -0.348 C  
HETATM    4  O   UNL     1     -10.066  15.955  68.290  1.00  0.00    -0.219 OA 
ENDROOT
BRANCH   3   5
HETATM    5  O   UNL     1     -12.064  13.257  67.017  1.00  0.00    -0.375 OA 
BRANCH   5   6
HETATM    6  C   UNL     1     -12.009  12.430  65.838  1.00  0.00    -0.367 C  
BRANCH   6   7
HETATM    7  C   UNL     1     -10.811  11.453  65.850  1.00  0.00    -0.234 C  
BRANCH   7   8
HETATM    8  N   UNL     1     -10.592  10.741  67.124  1.00  0.00    -0.241 NA 
HETATM    9  C   UNL     1     -10.371   9.289  66.941  1.00  0.00    -0.246 C  
HETATM   10  C   UNL     1      -8.979   8.907  66.374  1.00  0.00    -0.158 C  
HETATM   11  N   UNL     1      -7.828   9.428  67.153  1.00  0.00    -0.098 NA 
HETATM   12  C   UNL     1      -8.036  10.890  67.303  1.00  0.00    -0.123 C  
HETATM   13  C   UNL     1      -9.427  11.312  67.845  1.00  0.00    -0.178 C  
BRANCH  11  14
HETATM   14  C   UNL     1      -7.675   8.713  68.460  1.00  0.00    -0.100 C  
BRANCH  14  15
HETATM   15  C   UNL     1      -6.754   9.479  69.429  1.00  0.00    -0.048 A  
HETATM   16  C   UNL     1      -6.408  10.817  69.158  1.00  0.00    -0.055 A  
HETATM   17  C   UNL     1      -6.315   8.918  70.642  1.00  0.00    -0.045 A  
HETATM   18  C   UNL     1      -5.674  11.569  70.081  1.00  0.00    -0.137 A  
HETATM   19  C   UNL     1      -5.254  10.994  71.277  1.00  0.00    -0.071 A  
HETATM   20  C   UNL     1      -5.563   9.665  71.552  1.00  0.00    -0.067 A  
ENDBRANCH  14  15
BRANCH  14  21
HETATM   21  C   UNL     1      -9.016   8.330  69.109  1.00  0.00    -0.147 A  
HETATM   22  C   UNL     1     -11.389   7.622  70.451  1.00  0.00    -0.219 A  
HETATM   23 CL   UNL     1     -12.818   7.174  71.295  1.00  0.00    -0.425 Cl 
HETATM   24  C   UNL     1     -10.836   6.755  69.514  1.00  0.00    -0.315 A  
HETATM   25  C   UNL     1      -9.604   9.199  70.049  1.00  0.00    -0.218 A  
HETATM   26  C   UNL     1      -9.653   7.103  68.855  1.00  0.00    -0.142 A  
HETATM   27  C   UNL     1     -10.778   8.844  70.722  1.00  0.00    -0.287 A  
ENDBRANCH  14  21
ENDBRANCH  11  14
ENDBRANCH   7   8
ENDBRANCH   6   7
ENDBRANCH   5   6
ENDBRANCH   3   5
TORSDOF 7
ENDMDL
MODEL      188
REMARK 921   NORMALIZED FREE ENERGY PREDICTED BY IDOCK:   -1.12 KCAL/MOL
REMARK 922        TOTAL FREE ENERGY PREDICTED BY IDOCK:   -2.26 KCAL/MOL
REMARK 923 INTER-LIGAND FREE ENERGY PREDICTED BY IDOCK:   -4.62 KCAL/MOL
REMARK 924 INTRA-LIGAND FREE ENERGY PREDICTED BY IDOCK:    2.36 KCAL/MOL
REMARK 927      BINDING AFFINITY PREDICTED BY RF-SCORE:    0.00 PKD
ROOT
HETATM    1  O   UNL     1      -9.261   4.680  66.933  1.00  0.00    -0.116 OA 
HETATM    2  C   UNL     1      -8.593   3.600  66.457  1.00  0.00    -0.115 C  
HETATM    3  C   UNL     1      -7.139   3.573  66.903  1.00  0.00    -0.059 C  
HETATM    4  O   UNL     1      -9.110   2.749  65.749  1.00  0.00    -0.142 OA 
ENDROOT
BRANCH   3   5
HETATM    5  O   UNL     1      -6.815   4.761  67.641  1.00  0.00    -0.057 OA 
BRANCH   5   6
HETATM    6  C   UNL     1      -5.928   5.631  66.912  1.00  0.00    -0.018 C  
BRANCH   6   7
HETATM    7  C   UNL     1      -6.531   7.036  66.679  1.00  0.00    -0.051 C  
BRANCH   7   8
HETATM    8  N   UNL     1      -7.364   7.555  67.780  1.00  0.00    -0.100 NA 
HETATM    9  C   UNL     1      -6.703   8.640  68.540  1.00  0.00    -0.060 C  
HETATM   10  C   UNL     1      -6.644  10.006  67.808  1.00  0.00    -0.067 C  
HETATM   11  N   UNL     1      -7.961  10.527  67.361  1.00  0.00    -0.110 NA 
HETATM   12  C   UNL     1      -8.604   9.449  66.570  1.00  0.00    -0.134 C  
HETATM   13  C   UNL     1      -8.659   8.060  67.259  1.00  0.00    -0.124 C  
BRANCH  11  14
HETATM   14  C   UNL     1      -8.793  10.994  68.515  1.00  0.00    -0.159 C  
BRANCH  14  15
HETATM   15  C   UNL     1      -9.927  11.934  68.061  1.00  0.00    -0.192 A  
HETATM   16  C   UNL     1     -10.947  12.289  68.963  1.00  0.00    -0.250 A  
HETATM   17  C   UNL     1      -9.932  12.536  66.790  1.00  0.00    -0.234 A  
HETATM   18  C   UNL     1     -11.918  13.232  68.612  1.00  0.00    -0.345 A  
HETATM   19  C   UNL     1     -11.901  13.819  67.350  1.00  0.00    -0.431 A  
HETATM   20  C   UNL     1     -10.915  13.463  66.435  1.00  0.00    -0.297 A  
ENDBRANCH  14  15
BRANCH  14  21
HETATM   21  C   UNL     1      -9.307   9.848  69.403  1.00  0.00    -0.226 A  
HETATM   22  C   UNL     1     -10.105   7.658  70.984  1.00  0.00    -0.189 A  
HETATM   23 CL   UNL     1     -10.573   6.300  71.929  1.00  0.00    -0.246 Cl 
HETATM   24  C   UNL     1     -10.858   8.022  69.873  1.00  0.00    -0.217 A  
HETATM   25  C   UNL     1      -8.571   9.470  70.543  1.00  0.00    -0.231 A  
HETATM   26  C   UNL     1     -10.457   9.104  69.083  1.00  0.00    -0.230 A  
HETATM   27  C   UNL     1      -8.962   8.378  71.324  1.00  0.00    -0.224 A  
ENDBRANCH  14  21
ENDBRANCH  11  14
ENDBRANCH   7   8
ENDBRANCH   6   7
ENDBRANCH   5   6
ENDBRANCH   3   5
TORSDOF 7
ENDMDL
MODEL      189
REMARK 921   NORMALIZED FREE ENERGY PREDICTED BY IDOCK:   -0.81 KCAL/MOL
REMARK 922        TOTAL FREE ENERGY PREDICTED BY IDOCK:   -1.82 KCAL/MOL
REMARK 923 INTER-LIGAND FREE ENERGY PREDICTED BY IDOCK:   -4.83 KCAL/MOL
REMARK 924 INTRA-LIGAND FREE ENERGY PREDICTED BY IDOCK:    3.01 KCAL/MOL
REMARK 927      BINDING AFFINITY PREDICTED BY RF-SCORE:    0.00 PKD
ROOT
HETATM    1  O   UNL     1     -14.078   7.787  71.399  1.00  0.00    -0.389 OA 
HETATM    2  C   UNL     1     -13.270   8.799  71.802  1.00  0.00    -0.367 C  
HETATM    3  C   UNL     1     -11.807   8.542  71.471  1.00  0.00    -0.299 C  
HETATM    4  O   UNL     1     -13.680   9.802  72.368  1.00  0.00    -0.376 OA 
ENDROOT
BRANCH   3   5
HETATM    5  O   UNL     1     -11.641   7.236  70.898  1.00  0.00    -0.282 OA 
BRANCH   5   6
HETATM    6  C   UNL     1     -10.338   6.683  71.171  1.00  0.00    -0.206 C  
BRANCH   6   7
HETATM    7  C   UNL     1      -9.467   6.559  69.901  1.00  0.00    -0.155 C  
BRANCH   7   8
HETATM    8  N   UNL     1      -9.480   7.733  69.008  1.00  0.00    -0.150 NA 
HETATM    9  C   UNL     1      -8.501   8.770  69.404  1.00  0.00    -0.125 C  
HETATM   10  C   UNL     1      -7.022   8.423  69.088  1.00  0.00    -0.059 C  
HETATM   11  N   UNL     1      -6.754   8.090  67.666  1.00  0.00    -0.067 NA 
HETATM   12  C   UNL     1      -7.715   7.027  67.284  1.00  0.00    -0.109 C  
HETATM   13  C   UNL     1      -9.203   7.326  67.608  1.00  0.00    -0.126 C  
BRANCH  11  14
HETATM   14  C   UNL     1      -6.830   9.302  66.789  1.00  0.00    -0.080 C  
BRANCH  14  15
HETATM   15  C   UNL     1      -6.622   8.950  65.304  1.00  0.00    -0.068 A  
HETATM   16  C   UNL     1      -5.397   9.244  64.678  1.00  0.00    -0.053 A  
HETATM   17  C   UNL     1      -7.590   8.249  64.561  1.00  0.00    -0.108 A  
HETATM   18  C   UNL     1      -5.141   8.827  63.368  1.00  0.00    -0.062 A  
HETATM   19  C   UNL     1      -6.112   8.130  62.653  1.00  0.00    -0.082 A  
HETATM   20  C   UNL     1      -7.340   7.852  63.245  1.00  0.00    -0.107 A  
ENDBRANCH  14  15
BRANCH  14  21
HETATM   21  C   UNL     1      -8.098  10.144  67.017  1.00  0.00    -0.117 A  
HETATM   22  C   UNL     1     -10.404  11.741  67.270  1.00  0.00    -0.206 A  
HETATM   23 CL   UNL     1     -11.799  12.737  67.400  1.00  0.00    -0.422 Cl 
HETATM   24  C   UNL     1      -9.273  12.030  68.027  1.00  0.00    -0.192 A  
HETATM   25  C   UNL     1      -9.261   9.861  66.275  1.00  0.00    -0.208 A  
HETATM   26  C   UNL     1      -8.125  11.242  67.895  1.00  0.00    -0.121 A  
HETATM   27  C   UNL     1     -10.404  10.658  66.395  1.00  0.00    -0.291 A  
ENDBRANCH  14  21
ENDBRANCH  11  14
ENDBRANCH   7   8
ENDBRANCH   6   7
ENDBRANCH   5   6
ENDBRANCH   3   5
TORSDOF 7
ENDMDL
MODEL      190
REMARK 921   NORMALIZED FREE ENERGY PREDICTED BY IDOCK:   -0.65 KCAL/MOL
REMARK 922        TOTAL FREE ENERGY PREDICTED BY IDOCK:   -1.60 KCAL/MOL
REMARK 923 INTER-LIGAND FREE ENERGY PREDICTED BY IDOCK:   -3.57 KCAL/MOL
REMARK 924 INTRA-LIGAND FREE ENERGY PREDICTED BY IDOCK:    1.97 KCAL/MOL
REMARK 927      BINDING AFFINITY PREDICTED BY RF-SCORE:    0.00 PKD
ROOT
HETATM    1  O   UNL     1      -7.129  13.980  70.590  1.00  0.00     0.513 OA 
HETATM    2  C   UNL     1      -6.046  13.555  71.287  1.00  0.00     0.299 C  
HETATM    3  C   UNL     1      -5.229  12.524  70.522  1.00  0.00    -0.129 C  
HETATM    4  O   UNL     1      -5.767  13.959  72.406  1.00  0.00    -0.412 OA 
ENDROOT
BRANCH   3   5
HETATM    5  O   UNL     1      -5.872  12.189  69.284  1.00  0.00    -0.068 OA 
BRANCH   5   6
HETATM    6  C   UNL     1      -5.134  12.663  68.140  1.00  0.00    -0.073 C  
BRANCH   6   7
HETATM    7  C   UNL     1      -5.128  11.651  66.973  1.00  0.00    -0.103 C  
BRANCH   7   8
HETATM    8  N   UNL     1      -6.456  11.298  66.437  1.00  0.00    -0.115 NA 
HETATM    9  C   UNL     1      -6.394  10.273  65.371  1.00  0.00    -0.124 C  
HETATM   10  C   UNL     1      -6.103   8.833  65.868  1.00  0.00    -0.052 C  
HETATM   11  N   UNL     1      -7.044   8.331  66.900  1.00  0.00    -0.077 NA 
HETATM   12  C   UNL     1      -7.076   9.345  67.983  1.00  0.00    -0.081 C  
HETATM   13  C   UNL     1      -7.341  10.803  67.522  1.00  0.00    -0.092 C  
BRANCH  11  14
HETATM   14  C   UNL     1      -8.394   8.036  66.322  1.00  0.00    -0.121 C  
BRANCH  14  15
HETATM   15  C   UNL     1      -8.960   6.700  66.841  1.00  0.00    -0.131 A  
HETATM   16  C   UNL     1      -9.810   5.933  66.022  1.00  0.00     0.018 A  
HETATM   17  C   UNL     1      -8.580   6.161  68.084  1.00  0.00    -0.115 A  
HETATM   18  C   UNL     1     -10.238   4.663  66.422  1.00  0.00    -0.293 A  
HETATM   19  C   UNL     1      -9.846   4.148  67.655  1.00  0.00    -0.122 A  
HETATM   20  C   UNL     1      -9.028   4.902  68.491  1.00  0.00    -0.131 A  
ENDBRANCH  14  15
BRANCH  14  21
HETATM   21  C   UNL     1      -9.394   9.194  66.481  1.00  0.00    -0.244 A  
HETATM   22  C   UNL     1     -11.091  11.424  66.759  1.00  0.00    -0.281 A  
HETATM   23 CL   UNL     1     -12.101  12.804  66.940  1.00  0.00    -0.362 Cl 
HETATM   24  C   UNL     1     -10.929  10.540  67.820  1.00  0.00    -0.372 A  
HETATM   25  C   UNL     1      -9.589  10.094  65.416  1.00  0.00    -0.325 A  
HETATM   26  C   UNL     1     -10.079   9.437  67.685  1.00  0.00    -0.262 A  
HETATM   27  C   UNL     1     -10.425  11.206  65.556  1.00  0.00    -0.317 A  
ENDBRANCH  14  21
ENDBRANCH  11  14
ENDBRANCH   7   8
ENDBRANCH   6   7
ENDBRANCH   5   6
ENDBRANCH   3   5
TORSDOF 7
ENDMDL
MODEL      191
REMARK 921   NORMALIZED FREE ENERGY PREDICTED BY IDOCK:   -0.63 KCAL/MOL
REMARK 922        TOTAL FREE ENERGY PREDICTED BY IDOCK:   -1.57 KCAL/MOL
REMARK 923 INTER-LIGAND FREE ENERGY PREDICTED BY IDOCK:   -4.73 KCAL/MOL
REMARK 924 INTRA-LIGAND FREE ENERGY PREDICTED BY IDOCK:    3.16 KCAL/MOL
REMARK 927      BINDING AFFINITY PREDICTED BY RF-SCORE:    0.00 PKD
ROOT
HETATM    1  O   UNL     1     -11.149  14.130  68.703  1.00  0.00    -0.241 OA 
HETATM    2  C   UNL     1     -11.288  15.053  67.719  1.00  0.00    -0.330 C  
HETATM    3  C   UNL     1     -11.939  14.478  66.471  1.00  0.00    -0.340 C  
HETATM    4  O   UNL     1     -10.926  16.215  67.832  1.00  0.00    -0.331 OA 
ENDROOT
BRANCH   3   5
HETATM    5  O   UNL     1     -12.155  13.067  66.618  1.00  0.00    -0.388 OA 
BRANCH   5   6
HETATM    6  C   UNL     1     -11.946  12.352  65.385  1.00  0.00    -0.398 C  
BRANCH   6   7
HETATM    7  C   UNL     1     -10.464  11.979  65.156  1.00  0.00    -0.289 C  
BRANCH   7   8
HETATM    8  N   UNL     1     -10.009  10.754  65.843  1.00  0.00    -0.239 NA 
HETATM    9  C   UNL     1      -9.034   9.976  65.046  1.00  0.00    -0.199 C  
HETATM   10  C   UNL     1      -7.610  10.587  64.980  1.00  0.00    -0.026 C  
HETATM   11  N   UNL     1      -6.985  10.846  66.301  1.00  0.00    -0.133 NA 
HETATM   12  C   UNL     1      -7.951  11.657  67.083  1.00  0.00    -0.163 C  
HETATM   13  C   UNL     1      -9.394  11.090  67.151  1.00  0.00    -0.164 C  
BRANCH  11  14
HETATM   14  C   UNL     1      -6.586   9.574  66.985  1.00  0.00    -0.068 C  
BRANCH  14  15
HETATM   15  C   UNL     1      -6.168   9.816  68.447  1.00  0.00    -0.050 A  
HETATM   16  C   UNL     1      -5.841  11.115  68.878  1.00  0.00    -0.039 A  
HETATM   17  C   UNL     1      -6.190   8.789  69.409  1.00  0.00    -0.041 A  
HETATM   18  C   UNL     1      -5.575  11.379  70.226  1.00  0.00    -0.130 A  
HETATM   19  C   UNL     1      -5.607  10.348  71.160  1.00  0.00    -0.050 A  
HETATM   20  C   UNL     1      -5.903   9.052  70.751  1.00  0.00    -0.039 A  
ENDBRANCH  14  15
BRANCH  14  21
HETATM   21  C   UNL     1      -7.635   8.456  66.855  1.00  0.00    -0.091 A  
HETATM   22  C   UNL     1      -9.602   6.478  66.466  1.00  0.00    -0.140 A  
HETATM   23 CL   UNL     1     -10.820   5.293  66.209  1.00  0.00    -0.288 Cl 
HETATM   24  C   UNL     1      -9.724   7.381  67.518  1.00  0.00    -0.186 A  
HETATM   25  C   UNL     1      -7.524   7.519  65.809  1.00  0.00    -0.079 A  
HETATM   26  C   UNL     1      -8.751   8.368  67.705  1.00  0.00    -0.137 A  
HETATM   27  C   UNL     1      -8.505   6.542  65.611  1.00  0.00    -0.146 A  
ENDBRANCH  14  21
ENDBRANCH  11  14
ENDBRANCH   7   8
ENDBRANCH   6   7
ENDBRANCH   5   6
ENDBRANCH   3   5
TORSDOF 7
ENDMDL
MODEL      192
REMARK 921   NORMALIZED FREE ENERGY PREDICTED BY IDOCK:   -0.46 KCAL/MOL
REMARK 922        TOTAL FREE ENERGY PREDICTED BY IDOCK:   -1.34 KCAL/MOL
REMARK 923 INTER-LIGAND FREE ENERGY PREDICTED BY IDOCK:   -3.87 KCAL/MOL
REMARK 924 INTRA-LIGAND FREE ENERGY PREDICTED BY IDOCK:    2.53 KCAL/MOL
REMARK 927      BINDING AFFINITY PREDICTED BY RF-SCORE:    0.00 PKD
ROOT
HETATM    1  O   UNL     1     -11.393  19.152  65.605  1.00  0.00     0.122 OA 
HETATM    2  C   UNL     1     -10.496  18.311  66.176  1.00  0.00    -0.383 C  
HETATM    3  C   UNL     1     -10.489  16.938  65.522  1.00  0.00    -0.204 C  
HETATM    4  O   UNL     1      -9.778  18.630  67.113  1.00  0.00    -0.289 OA 
ENDROOT
BRANCH   3   5
HETATM    5  O   UNL     1     -11.512  16.850  64.520  1.00  0.00    -0.911 OA 
BRANCH   5   6
HETATM    6  C   UNL     1     -12.464  15.805  64.802  1.00  0.00     0.600 C  
BRANCH   6   7
HETATM    7  C   UNL     1     -11.788  14.443  65.082  1.00  0.00    -0.386 C  
BRANCH   7   8
HETATM    8  N   UNL     1     -11.317  14.245  66.466  1.00  0.00    -0.336 NA 
HETATM    9  C   UNL     1     -12.198  13.352  67.252  1.00  0.00    -0.233 C  
HETATM   10  C   UNL     1     -12.087  11.847  66.893  1.00  0.00     0.331 C  
HETATM   11  N   UNL     1     -10.713  11.290  66.979  1.00  0.00    -0.247 NA 
HETATM   12  C   UNL     1      -9.841  12.168  66.161  1.00  0.00    -0.237 C  
HETATM   13  C   UNL     1      -9.943  13.684  66.474  1.00  0.00    -0.288 C  
BRANCH  11  14
HETATM   14  C   UNL     1     -10.257  11.155  68.399  1.00  0.00    -0.188 C  
BRANCH  14  15
HETATM   15  C   UNL     1     -11.276  11.753  69.387  1.00  0.00    -0.300 A  
HETATM   16  C   UNL     1     -11.138  13.086  69.817  1.00  0.00     0.109 A  
HETATM   17  C   UNL     1     -12.411  11.038  69.812  1.00  0.00    -0.331 A  
HETATM   18  C   UNL     1     -12.114  13.687  70.618  1.00  0.00    -0.398 A  
HETATM   19  C   UNL     1     -13.231  12.962  71.023  1.00  0.00     0.045 A  
HETATM   20  C   UNL     1     -13.374  11.635  70.630  1.00  0.00     0.694 A  
ENDBRANCH  14  15
BRANCH  14  21
HETATM   21  C   UNL     1      -9.851   9.720  68.777  1.00  0.00    -0.176 A  
HETATM   22  C   UNL     1      -9.149   7.130  69.634  1.00  0.00    -0.140 A  
HETATM   23 CL   UNL     1      -8.716   5.562  70.189  1.00  0.00    -0.127 Cl 
HETATM   24  C   UNL     1      -8.169   7.990  69.149  1.00  0.00    -0.130 A  
HETATM   25  C   UNL     1     -10.827   8.825  69.255  1.00  0.00    -0.094 A  
HETATM   26  C   UNL     1      -8.516   9.279  68.732  1.00  0.00    -0.129 A  
HETATM   27  C   UNL     1     -10.478   7.542  69.688  1.00  0.00    -0.235 A  
ENDBRANCH  14  21
ENDBRANCH  11  14
ENDBRANCH   7   8
ENDBRANCH   6   7
ENDBRANCH   5   6
ENDBRANCH   3   5
TORSDOF 7
ENDMDL
MODEL      193
REMARK 921   NORMALIZED FREE ENERGY PREDICTED BY IDOCK:   -0.31 KCAL/MOL
REMARK 922        TOTAL FREE ENERGY PREDICTED BY IDOCK:   -1.12 KCAL/MOL
REMARK 923 INTER-LIGAND FREE ENERGY PREDICTED BY IDOCK:   -5.69 KCAL/MOL
REMARK 924 INTRA-LIGAND FREE ENERGY PREDICTED BY IDOCK:    4.57 KCAL/MOL
REMARK 927      BINDING AFFINITY PREDICTED BY RF-SCORE:    0.00 PKD
ROOT
HETATM    1  O   UNL     1     -10.906   6.793  70.847  1.00  0.00    -0.234 OA 
HETATM    2  C   UNL     1     -10.401   7.194  72.040  1.00  0.00    -0.191 C  
HETATM    3  C   UNL     1      -9.909   8.633  72.010  1.00  0.00    -0.325 C  
HETATM    4  O   UNL     1     -10.349   6.471  73.024  1.00  0.00    -0.193 OA 
ENDROOT
BRANCH   3   5
HETATM    5  O   UNL     1     -10.017   9.175  70.686  1.00  0.00    -0.208 OA 
BRANCH   5   6
HETATM    6  C   UNL     1     -11.389   9.326  70.269  1.00  0.00    -0.203 C  
BRANCH   6   7
HETATM    7  C   UNL     1     -11.729  10.775  69.852  1.00  0.00    -0.333 C  
BRANCH   7   8
HETATM    8  N   UNL     1     -11.354  11.139  68.472  1.00  0.00    -0.256 NA 
HETATM    9  C   UNL     1     -11.225  12.601  68.277  1.00  0.00    -0.272 C  
HETATM   10  C   UNL     1      -9.949  13.230  68.895  1.00  0.00     0.067 C  
HETATM   11  N   UNL     1      -8.675  12.616  68.445  1.00  0.00    -0.156 NA 
HETATM   12  C   UNL     1      -8.796  11.155  68.675  1.00  0.00    -0.155 C  
HETATM   13  C   UNL     1     -10.072  10.493  68.093  1.00  0.00    -0.158 C  
BRANCH  11  14
HETATM   14  C   UNL     1      -8.361  12.969  67.024  1.00  0.00    -0.095 C  
BRANCH  14  15
HETATM   15  C   UNL     1      -8.729  11.829  66.055  1.00  0.00     0.002 A  
HETATM   16  C   UNL     1      -7.857  10.736  65.893  1.00  0.00    -0.131 A  
HETATM   17  C   UNL     1      -9.966  11.791  65.385  1.00  0.00    -0.284 A  
HETATM   18  C   UNL     1      -8.224   9.635  65.113  1.00  0.00    -0.134 A  
HETATM   19  C   UNL     1      -9.455   9.616  64.463  1.00  0.00    -0.182 A  
HETATM   20  C   UNL     1     -10.320  10.699  64.589  1.00  0.00    -0.353 A  
ENDBRANCH  14  15
BRANCH  14  21
HETATM   21  C   UNL     1      -8.949  14.321  66.585  1.00  0.00    -0.212 A  
HETATM   22  C   UNL     1     -10.097  16.811  65.940  1.00  0.00    -0.304 A  
HETATM   23 CL   UNL     1     -10.822  18.325  65.570  1.00  0.00    -0.113 Cl 
HETATM   24  C   UNL     1     -10.524  15.659  65.285  1.00  0.00    -0.439 A  
HETATM   25  C   UNL     1      -8.522  15.503  67.220  1.00  0.00    -0.216 A  
HETATM   26  C   UNL     1      -9.960  14.422  65.612  1.00  0.00    -0.365 A  
HETATM   27  C   UNL     1      -9.097  16.738  66.906  1.00  0.00    -0.248 A  
ENDBRANCH  14  21
ENDBRANCH  11  14
ENDBRANCH   7   8
ENDBRANCH   6   7
ENDBRANCH   5   6
ENDBRANCH   3   5
TORSDOF 7
ENDMDL
MODEL      194
REMARK 921   NORMALIZED FREE ENERGY PREDICTED BY IDOCK:   -0.01 KCAL/MOL
REMARK 922        TOTAL FREE ENERGY PREDICTED BY IDOCK:   -0.70 KCAL/MOL
REMARK 923 INTER-LIGAND FREE ENERGY PREDICTED BY IDOCK:   -4.86 KCAL/MOL
REMARK 924 INTRA-LIGAND FREE ENERGY PREDICTED BY IDOCK:    4.16 KCAL/MOL
REMARK 927      BINDING AFFINITY PREDICTED BY RF-SCORE:    0.00 PKD
ROOT
HETATM    1  O   UNL     1     -10.960  14.821  70.644  1.00  0.00    -0.138 OA 
HETATM    2  C   UNL     1     -11.598  15.834  70.006  1.00  0.00    -0.357 C  
HETATM    3  C   UNL     1     -10.651  16.687  69.176  1.00  0.00    -0.340 C  
HETATM    4  O   UNL     1     -12.800  16.033  70.096  1.00  0.00    -0.203 OA 
ENDROOT
BRANCH   3   5
HETATM    5  O   UNL     1      -9.293  16.256  69.357  1.00  0.00    -0.232 OA 
BRANCH   5   6
HETATM    6  C   UNL     1      -8.770  15.596  68.187  1.00  0.00    -0.168 C  
BRANCH   6   7
HETATM    7  C   UNL     1      -7.720  14.516  68.532  1.00  0.00    -0.129 C  
BRANCH   7   8
HETATM    8  N   UNL     1      -8.269  13.193  68.888  1.00  0.00     0.125 NA 
HETATM    9  C   UNL     1      -9.628  12.969  68.349  1.00  0.00    -0.178 C  
HETATM   10  C   UNL     1      -9.686  12.692  66.823  1.00  0.00    -0.240 C  
HETATM   11  N   UNL     1      -8.843  11.558  66.367  1.00  0.00    -0.192 NA 
HETATM   12  C   UNL     1      -7.473  11.806  66.881  1.00  0.00    -0.106 C  
HETATM   13  C   UNL     1      -7.378  12.112  68.400  1.00  0.00    -0.108 C  
BRANCH  11  14
HETATM   14  C   UNL     1      -9.409  10.239  66.796  1.00  0.00    -0.160 C  
BRANCH  14  15
HETATM   15  C   UNL     1      -8.332   9.138  66.833  1.00  0.00    -0.119 A  
HETATM   16  C   UNL     1      -7.218   9.274  67.682  1.00  0.00    -0.083 A  
HETATM   17  C   UNL     1      -8.467   7.938  66.110  1.00  0.00    -0.139 A  
HETATM   18  C   UNL     1      -6.291   8.236  67.823  1.00  0.00    -0.053 A  
HETATM   19  C   UNL     1      -6.447   7.056  67.101  1.00  0.00    -0.053 A  
HETATM   20  C   UNL     1      -7.527   6.912  66.236  1.00  0.00    -0.077 A  
ENDBRANCH  14  15
BRANCH  14  21
HETATM   21  C   UNL     1     -10.212  10.314  68.106  1.00  0.00    -0.192 A  
HETATM   22  C   UNL     1     -11.666  10.625  70.498  1.00  0.00    -0.356 A  
HETATM   23 CL   UNL     1     -12.537  10.845  71.963  1.00  0.00    -0.228 Cl 
HETATM   24  C   UNL     1     -10.429   9.988  70.515  1.00  0.00    -0.265 A  
HETATM   25  C   UNL     1     -11.474  10.940  68.111  1.00  0.00    -0.368 A  
HETATM   26  C   UNL     1      -9.703   9.842  69.328  1.00  0.00    -0.204 A  
HETATM   27  C   UNL     1     -12.192  11.102  69.300  1.00  0.00    -0.295 A  
ENDBRANCH  14  21
ENDBRANCH  11  14
ENDBRANCH   7   8
ENDBRANCH   6   7
ENDBRANCH   5   6
ENDBRANCH   3   5
TORSDOF 7
ENDMDL
MODEL      195
REMARK 921   NORMALIZED FREE ENERGY PREDICTED BY IDOCK:    0.14 KCAL/MOL
REMARK 922        TOTAL FREE ENERGY PREDICTED BY IDOCK:   -0.49 KCAL/MOL
REMARK 923 INTER-LIGAND FREE ENERGY PREDICTED BY IDOCK:   -2.35 KCAL/MOL
REMARK 924 INTRA-LIGAND FREE ENERGY PREDICTED BY IDOCK:    1.85 KCAL/MOL
REMARK 927      BINDING AFFINITY PREDICTED BY RF-SCORE:    0.00 PKD
ROOT
HETATM    1  O   UNL     1      -7.092  14.007  71.307  1.00  0.00     1.095 OA 
HETATM    2  C   UNL     1      -5.776  13.887  71.610  1.00  0.00    -0.188 C  
HETATM    3  C   UNL     1      -5.144  12.657  70.978  1.00  0.00    -0.152 C  
HETATM    4  O   UNL     1      -5.173  14.684  72.314  1.00  0.00    -0.164 OA 
ENDROOT
BRANCH   3   5
HETATM    5  O   UNL     1      -6.134  11.875  70.294  1.00  0.00    -0.160 OA 
BRANCH   5   6
HETATM    6  C   UNL     1      -5.884  11.797  68.876  1.00  0.00    -0.052 C  
BRANCH   6   7
HETATM    7  C   UNL     1      -6.976  11.005  68.122  1.00  0.00    -0.069 C  
BRANCH   7   8
HETATM    8  N   UNL     1      -8.316  11.622  68.121  1.00  0.00    -0.147 NA 
HETATM    9  C   UNL     1      -8.386  12.849  68.946  1.00  0.00     0.280 C  
HETATM   10  C   UNL     1      -7.704  14.094  68.320  1.00  0.00    -0.139 C  
HETATM   11  N   UNL     1      -8.191  14.452  66.964  1.00  0.00    -0.163 NA 
HETATM   12  C   UNL     1      -8.086  13.228  66.132  1.00  0.00     1.494 C  
HETATM   13  C   UNL     1      -8.735  11.954  66.736  1.00  0.00    -0.193 C  
BRANCH  11  14
HETATM   14  C   UNL     1      -9.574  15.025  67.006  1.00  0.00    -0.225 C  
BRANCH  14  15
HETATM   15  C   UNL     1      -9.570  16.550  66.788  1.00  0.00    -0.268 A  
HETATM   16  C   UNL     1      -8.397  17.290  67.029  1.00  0.00    -0.231 A  
HETATM   17  C   UNL     1     -10.681  17.231  66.259  1.00  0.00    -0.077 A  
HETATM   18  C   UNL     1      -8.333  18.653  66.724  1.00  0.00    -0.287 A  
HETATM   19  C   UNL     1      -9.444  19.306  66.197  1.00  0.00    -0.320 A  
HETATM   20  C   UNL     1     -10.622  18.598  65.976  1.00  0.00    -0.410 A  
ENDBRANCH  14  15
BRANCH  14  21
HETATM   21  C   UNL     1     -10.563  14.305  66.072  1.00  0.00    -0.302 A  
HETATM   22  C   UNL     1     -12.339  12.841  64.449  1.00  0.00    -0.424 A  
HETATM   23 CL   UNL     1     -13.405  11.918  63.465  1.00  0.00    -0.018 Cl 
HETATM   24  C   UNL     1     -11.189  13.394  63.895  1.00  0.00    -0.239 A  
HETATM   25  C   UNL     1     -11.743  13.751  66.605  1.00  0.00    -0.421 A  
HETATM   26  C   UNL     1     -10.303  14.114  64.703  1.00  0.00    -0.296 A  
HETATM   27  C   UNL     1     -12.621  13.016  65.801  1.00  0.00    -0.269 A  
ENDBRANCH  14  21
ENDBRANCH  11  14
ENDBRANCH   7   8
ENDBRANCH   6   7
ENDBRANCH   5   6
ENDBRANCH   3   5
TORSDOF 7
ENDMDL
MODEL      196
REMARK 921   NORMALIZED FREE ENERGY PREDICTED BY IDOCK:    0.32 KCAL/MOL
REMARK 922        TOTAL FREE ENERGY PREDICTED BY IDOCK:   -0.24 KCAL/MOL
REMARK 923 INTER-LIGAND FREE ENERGY PREDICTED BY IDOCK:   -3.95 KCAL/MOL
REMARK 924 INTRA-LIGAND FREE ENERGY PREDICTED BY IDOCK:    3.71 KCAL/MOL
REMARK 927      BINDING AFFINITY PREDICTED BY RF-SCORE:    0.00 PKD
ROOT
HETATM    1  O   UNL     1     -11.004  11.470  67.817  1.00  0.00    -0.207 OA 
HETATM    2  C   UNL     1     -11.369  11.714  66.534  1.00  0.00    -0.263 C  
HETATM    3  C   UNL     1     -10.246  11.436  65.547  1.00  0.00    -0.264 C  
HETATM    4  O   UNL     1     -12.479  12.115  66.216  1.00  0.00    -0.321 OA 
ENDROOT
BRANCH   3   5
HETATM    5  O   UNL     1      -9.042  11.074  66.240  1.00  0.00    -0.170 OA 
BRANCH   5   6
HETATM    6  C   UNL     1      -8.897   9.646  66.372  1.00  0.00    -0.150 C  
BRANCH   6   7
HETATM    7  C   UNL     1      -8.100   9.241  67.633  1.00  0.00    -0.104 C  
BRANCH   7   8
HETATM    8  N   UNL     1      -8.782   8.290  68.531  1.00  0.00    -0.133 NA 
HETATM    9  C   UNL     1      -7.961   7.919  69.706  1.00  0.00    -0.114 C  
HETATM   10  C   UNL     1      -7.847   9.018  70.795  1.00  0.00    -0.136 C  
HETATM   11  N   UNL     1      -9.147   9.517  71.310  1.00  0.00    -0.163 NA 
HETATM   12  C   UNL     1      -9.952   9.920  70.131  1.00  0.00    -0.238 C  
HETATM   13  C   UNL     1     -10.068   8.855  69.009  1.00  0.00    -0.197 C  
BRANCH  11  14
HETATM   14  C   UNL     1      -9.827   8.500  72.174  1.00  0.00    -0.318 C  
BRANCH  14  15
HETATM   15  C   UNL     1     -11.343   8.754  72.274  1.00  0.00    -0.356 A  
HETATM   16  C   UNL     1     -12.205   7.712  72.665  1.00  0.00    -0.058 A  
HETATM   17  C   UNL     1     -11.900  10.031  72.077  1.00  0.00     0.247 A  
HETATM   18  C   UNL     1     -13.567   7.950  72.878  1.00  0.00     0.719 A  
HETATM   19  C   UNL     1     -14.095   9.222  72.682  1.00  0.00    -0.241 A  
HETATM   20  C   UNL     1     -13.265  10.260  72.270  1.00  0.00    -0.324 A  
ENDBRANCH  14  15
BRANCH  14  21
HETATM   21  C   UNL     1      -9.504   7.048  71.781  1.00  0.00    -0.157 A  
HETATM   22  C   UNL     1      -9.038   4.339  71.168  1.00  0.00    -0.127 A  
HETATM   23 CL   UNL     1      -8.767   2.676  70.825  1.00  0.00    -0.108 Cl 
HETATM   24  C   UNL     1      -8.063   5.078  71.830  1.00  0.00    -0.115 A  
HETATM   25  C   UNL     1     -10.468   6.283  71.096  1.00  0.00    -0.271 A  
HETATM   26  C   UNL     1      -8.298   6.421  72.142  1.00  0.00    -0.108 A  
HETATM   27  C   UNL     1     -10.241   4.936  70.799  1.00  0.00    -0.276 A  
ENDBRANCH  14  21
ENDBRANCH  11  14
ENDBRANCH   7   8
ENDBRANCH   6   7
ENDBRANCH   5   6
ENDBRANCH   3   5
TORSDOF 7
ENDMDL
MODEL      197
REMARK 921   NORMALIZED FREE ENERGY PREDICTED BY IDOCK:    0.38 KCAL/MOL
REMARK 922        TOTAL FREE ENERGY PREDICTED BY IDOCK:   -0.15 KCAL/MOL
REMARK 923 INTER-LIGAND FREE ENERGY PREDICTED BY IDOCK:   -3.96 KCAL/MOL
REMARK 924 INTRA-LIGAND FREE ENERGY PREDICTED BY IDOCK:    3.81 KCAL/MOL
REMARK 927      BINDING AFFINITY PREDICTED BY RF-SCORE:    0.00 PKD
ROOT
HETATM    1  O   UNL     1      -6.553  14.068  71.427  1.00  0.00     0.204 OA 
HETATM    2  C   UNL     1      -5.599  13.653  72.296  1.00  0.00     0.007 C  
HETATM    3  C   UNL     1      -5.177  12.212  72.052  1.00  0.00     0.224 C  
HETATM    4  O   UNL     1      -5.136  14.363  73.177  1.00  0.00    -0.269 OA 
ENDROOT
BRANCH   3   5
HETATM    5  O   UNL     1      -5.973  11.622  71.014  1.00  0.00    -0.374 OA 
BRANCH   5   6
HETATM    6  C   UNL     1      -5.308  11.647  69.735  1.00  0.00    -0.070 C  
BRANCH   6   7
HETATM    7  C   UNL     1      -5.990  10.735  68.690  1.00  0.00    -0.039 C  
BRANCH   7   8
HETATM    8  N   UNL     1      -7.465  10.780  68.681  1.00  0.00    -0.094 NA 
HETATM    9  C   UNL     1      -8.005  12.091  69.106  1.00  0.00     0.299 C  
HETATM   10  C   UNL     1      -7.866  13.224  68.056  1.00  0.00    -0.148 C  
HETATM   11  N   UNL     1      -8.459  12.917  66.730  1.00  0.00    -0.084 NA 
HETATM   12  C   UNL     1      -7.888  11.619  66.293  1.00  0.00     0.117 C  
HETATM   13  C   UNL     1      -7.987  10.467  67.327  1.00  0.00    -0.110 C  
BRANCH  11  14
HETATM   14  C   UNL     1      -9.956  12.921  66.779  1.00  0.00    -0.243 C  
BRANCH  14  15
HETATM   15  C   UNL     1     -10.576  12.638  65.397  1.00  0.00    -0.307 A  
HETATM   16  C   UNL     1     -10.231  11.464  64.701  1.00  0.00    -0.347 A  
HETATM   17  C   UNL     1     -11.560  13.471  64.836  1.00  0.00    -0.355 A  
HETATM   18  C   UNL     1     -10.870  11.126  63.503  1.00  0.00    -0.275 A  
HETATM   19  C   UNL     1     -11.844  11.965  62.969  1.00  0.00    -0.060 A  
HETATM   20  C   UNL     1     -12.181  13.143  63.629  1.00  0.00    -0.553 A  
ENDBRANCH  14  15
BRANCH  14  21
HETATM   21  C   UNL     1     -10.535  12.011  67.876  1.00  0.00    -0.221 A  
HETATM   22  C   UNL     1     -11.733  10.317  69.781  1.00  0.00    -0.191 A  
HETATM   23 CL   UNL     1     -12.495   9.290  70.930  1.00  0.00    -0.243 Cl 
HETATM   24  C   UNL     1     -11.555  11.666  70.067  1.00  0.00    -0.338 A  
HETATM   25  C   UNL     1     -10.710  10.637  67.617  1.00  0.00    -0.315 A  
HETATM   26  C   UNL     1     -10.968  12.509  69.117  1.00  0.00    -0.198 A  
HETATM   27  C   UNL     1     -11.312   9.797  68.559  1.00  0.00     0.025 A  
ENDBRANCH  14  21
ENDBRANCH  11  14
ENDBRANCH   7   8
ENDBRANCH   6   7
ENDBRANCH   5   6
ENDBRANCH   3   5
TORSDOF 7
ENDMDL
MODEL      198
REMARK 921   NORMALIZED FREE ENERGY PREDICTED BY IDOCK:    1.10 KCAL/MOL
REMARK 922        TOTAL FREE ENERGY PREDICTED BY IDOCK:    0.87 KCAL/MOL
REMARK 923 INTER-LIGAND FREE ENERGY PREDICTED BY IDOCK:   -6.76 KCAL/MOL
REMARK 924 INTRA-LIGAND FREE ENERGY PREDICTED BY IDOCK:    7.62 KCAL/MOL
REMARK 927      BINDING AFFINITY PREDICTED BY RF-SCORE:    0.00 PKD
ROOT
HETATM    1  O   UNL     1      -8.350  20.659  66.004  1.00  0.00     0.135 OA 
HETATM    2  C   UNL     1      -9.608  20.158  66.090  1.00  0.00    -0.329 C  
HETATM    3  C   UNL     1      -9.854  19.427  67.401  1.00  0.00    -0.345 C  
HETATM    4  O   UNL     1     -10.443  20.283  65.206  1.00  0.00    -0.215 OA 
ENDROOT
BRANCH   3   5
HETATM    5  O   UNL     1      -8.650  19.370  68.181  1.00  0.00    -0.315 OA 
BRANCH   5   6
HETATM    6  C   UNL     1      -7.698  18.431  67.645  1.00  0.00    -0.230 C  
BRANCH   6   7
HETATM    7  C   UNL     1      -8.279  17.587  66.488  1.00  0.00    -0.276 C  
BRANCH   7   8
HETATM    8  N   UNL     1      -8.950  16.337  66.894  1.00  0.00    -0.204 NA 
HETATM    9  C   UNL     1      -8.161  15.548  67.865  1.00  0.00    -0.139 C  
HETATM   10  C   UNL     1      -8.141  16.121  69.306  1.00  0.00    -0.186 C  
HETATM   11  N   UNL     1      -9.481  16.336  69.907  1.00  0.00     0.224 NA 
HETATM   12  C   UNL     1     -10.257  17.157  68.945  1.00  0.00    -0.332 C  
HETATM   13  C   UNL     1     -10.280  16.629  67.486  1.00  0.00    -0.289 C  
BRANCH  11  14
HETATM   14  C   UNL     1     -10.147  15.040  70.254  1.00  0.00     0.165 C  
BRANCH  14  15
HETATM   15  C   UNL     1     -11.475  15.261  71.003  1.00  0.00    -0.396 A  
HETATM   16  C   UNL     1     -12.684  14.819  70.434  1.00  0.00    -0.368 A  
HETATM   17  C   UNL     1     -11.519  15.810  72.298  1.00  0.00    -0.416 A  
HETATM   18  C   UNL     1     -13.885  14.899  71.147  1.00  0.00    -0.428 A  
HETATM   19  C   UNL     1     -13.903  15.443  72.428  1.00  0.00    -0.661 A  
HETATM   20  C   UNL     1     -12.723  15.909  72.999  1.00  0.00    -0.611 A  
ENDBRANCH  14  15
BRANCH  14  21
HETATM   21  C   UNL     1     -10.306  14.093  69.053  1.00  0.00    -0.159 A  
HETATM   22  C   UNL     1     -10.723  12.276  66.941  1.00  0.00    -0.232 A  
HETATM   23 CL   UNL     1     -10.990  11.145  65.675  1.00  0.00    -0.210 Cl 
HETATM   24  C   UNL     1      -9.518  12.266  67.637  1.00  0.00    -0.188 A  
HETATM   25  C   UNL     1     -11.509  14.095  68.321  1.00  0.00    -0.335 A  
HETATM   26  C   UNL     1      -9.315  13.163  68.691  1.00  0.00     0.008 A  
HETATM   27  C   UNL     1     -11.720  13.187  67.278  1.00  0.00    -0.425 A  
ENDBRANCH  14  21
ENDBRANCH  11  14
ENDBRANCH   7   8
ENDBRANCH   6   7
ENDBRANCH   5   6
ENDBRANCH   3   5
TORSDOF 7
ENDMDL
MODEL      199
REMARK 921   NORMALIZED FREE ENERGY PREDICTED BY IDOCK:    1.68 KCAL/MOL
REMARK 922        TOTAL FREE ENERGY PREDICTED BY IDOCK:    1.69 KCAL/MOL
REMARK 923 INTER-LIGAND FREE ENERGY PREDICTED BY IDOCK:   -1.04 KCAL/MOL
REMARK 924 INTRA-LIGAND FREE ENERGY PREDICTED BY IDOCK:    2.73 KCAL/MOL
REMARK 927      BINDING AFFINITY PREDICTED BY RF-SCORE:    0.00 PKD
ROOT
HETATM    1  O   UNL     1      -8.390   2.702  68.264  1.00  0.00    -0.066 OA 
HETATM    2  C   UNL     1      -9.092   2.925  69.403  1.00  0.00    -0.132 C  
HETATM    3  C   UNL     1      -8.839   4.308  69.982  1.00  0.00    -0.077 C  
HETATM    4  O   UNL     1      -9.842   2.098  69.903  1.00  0.00     0.052 OA 
ENDROOT
BRANCH   3   5
HETATM    5  O   UNL     1      -7.836   4.998  69.220  1.00  0.00    -0.074 OA 
BRANCH   5   6
HETATM    6  C   UNL     1      -8.402   6.014  68.369  1.00  0.00    -0.113 C  
BRANCH   6   7
HETATM    7  C   UNL     1      -7.325   6.891  67.691  1.00  0.00    -0.096 C  
BRANCH   7   8
HETATM    8  N   UNL     1      -7.111   8.215  68.305  1.00  0.00    -0.079 NA 
HETATM    9  C   UNL     1      -7.579   9.329  67.452  1.00  0.00    -0.088 C  
HETATM   10  C   UNL     1      -9.120   9.498  67.389  1.00  0.00    -0.130 C  
HETATM   11  N   UNL     1      -9.781   9.653  68.710  1.00  0.00    -0.159 NA 
HETATM   12  C   UNL     1      -9.335   8.514  69.550  1.00  0.00    -0.161 C  
HETATM   13  C   UNL     1      -7.800   8.298  69.617  1.00  0.00    -0.102 C  
BRANCH  11  14
HETATM   14  C   UNL     1      -9.493  10.990  69.320  1.00  0.00     0.043 C  
BRANCH  14  15
HETATM   15  C   UNL     1      -8.767  11.926  68.335  1.00  0.00    -0.157 A  
HETATM   16  C   UNL     1      -7.366  11.864  68.211  1.00  0.00    -0.093 A  
HETATM   17  C   UNL     1      -9.467  12.789  67.472  1.00  0.00    -0.187 A  
HETATM   18  C   UNL     1      -6.697  12.616  67.240  1.00  0.00    -0.105 A  
HETATM   19  C   UNL     1      -7.411  13.460  66.394  1.00  0.00     1.860 A  
HETATM   20  C   UNL     1      -8.794  13.556  66.518  1.00  0.00     0.005 A  
ENDBRANCH  14  15
BRANCH  14  21
HETATM   21  C   UNL     1     -10.729  11.654  69.951  1.00  0.00     0.401 A  
HETATM   22  C   UNL     1     -12.885  12.964  71.203  1.00  0.00    -0.238 A  
HETATM   23 CL   UNL     1     -14.181  13.769  71.995  1.00  0.00    -0.520 Cl 
HETATM   24  C   UNL     1     -12.694  11.599  71.399  1.00  0.00    -0.445 A  
HETATM   25  C   UNL     1     -10.954  13.030  69.755  1.00  0.00     0.245 A  
HETATM   26  C   UNL     1     -11.618  10.951  70.783  1.00  0.00    -0.249 A  
HETATM   27  C   UNL     1     -12.020  13.683  70.383  1.00  0.00    -0.372 A  
ENDBRANCH  14  21
ENDBRANCH  11  14
ENDBRANCH   7   8
ENDBRANCH   6   7
ENDBRANCH   5   6
ENDBRANCH   3   5
TORSDOF 7
ENDMDL
MODEL      200
REMARK 921   NORMALIZED FREE ENERGY PREDICTED BY IDOCK:    1.84 KCAL/MOL
REMARK 922        TOTAL FREE ENERGY PREDICTED BY IDOCK:    1.90 KCAL/MOL
REMARK 923 INTER-LIGAND FREE ENERGY PREDICTED BY IDOCK:    1.70 KCAL/MOL
REMARK 924 INTRA-LIGAND FREE ENERGY PREDICTED BY IDOCK:    0.20 KCAL/MOL
REMARK 927      BINDING AFFINITY PREDICTED BY RF-SCORE:    0.00 PKD
ROOT
HETATM    1  O   UNL     1      -6.880   5.051  65.569  1.00  0.00    -0.058 OA 
HETATM    2  C   UNL     1      -7.389   5.074  64.313  1.00  0.00    -0.055 C  
HETATM    3  C   UNL     1      -7.344   6.461  63.692  1.00  0.00    -0.073 C  
HETATM    4  O   UNL     1      -7.835   4.084  63.750  1.00  0.00    -0.080 OA 
ENDROOT
BRANCH   3   5
HETATM    5  O   UNL     1      -6.857   7.423  64.640  1.00  0.00    -0.046 OA 
BRANCH   5   6
HETATM    6  C   UNL     1      -6.724   8.737  64.063  1.00  0.00    -0.083 C  
BRANCH   6   7
HETATM    7  C   UNL     1      -5.806   9.662  64.894  1.00  0.00    -0.075 C  
BRANCH   7   8
HETATM    8  N   UNL     1      -6.429  10.914  65.364  1.00  0.00     0.037 NA 
HETATM    9  C   UNL     1      -7.452  11.435  64.429  1.00  0.00     1.617 C  
HETATM   10  C   UNL     1      -8.791  10.653  64.427  1.00  0.00    -0.173 C  
HETATM   11  N   UNL     1      -9.439  10.530  65.758  1.00  0.00    -0.190 NA 
HETATM   12  C   UNL     1      -8.421   9.975  66.683  1.00  0.00    -0.125 C  
HETATM   13  C   UNL     1      -7.058  10.716  66.694  1.00  0.00    -0.124 C  
BRANCH  11  14
HETATM   14  C   UNL     1     -10.011  11.835  66.218  1.00  0.00    -0.218 C  
BRANCH  14  15
HETATM   15  C   UNL     1     -11.144  12.322  65.295  1.00  0.00    -0.359 A  
HETATM   16  C   UNL     1     -11.620  13.642  65.404  1.00  0.00    -0.334 A  
HETATM   17  C   UNL     1     -11.666  11.517  64.266  1.00  0.00    -0.164 A  
HETATM   18  C   UNL     1     -12.561  14.143  64.499  1.00  0.00    -0.242 A  
HETATM   19  C   UNL     1     -13.061  13.329  63.486  1.00  0.00     0.959 A  
HETATM   20  C   UNL     1     -12.623  12.013  63.377  1.00  0.00    -0.592 A  
ENDBRANCH  14  15
BRANCH  14  21
HETATM   21  C   UNL     1     -10.427  11.833  67.699  1.00  0.00    -0.223 A  
HETATM   22  C   UNL     1     -11.350  11.861  70.360  1.00  0.00     0.444 A  
HETATM   23 CL   UNL     1     -11.940  11.899  71.974  1.00  0.00     1.494 Cl 
HETATM   24  C   UNL     1     -10.457  12.835  69.925  1.00  0.00     1.247 A  
HETATM   25  C   UNL     1     -11.317  10.847  68.169  1.00  0.00    -0.383 A  
HETATM   26  C   UNL     1     -10.005  12.826  68.601  1.00  0.00    -0.099 A  
HETATM   27  C   UNL     1     -11.782  10.866  69.487  1.00  0.00    -0.400 A  
ENDBRANCH  14  21
ENDBRANCH  11  14
ENDBRANCH   7   8
ENDBRANCH   6   7
ENDBRANCH   5   6
ENDBRANCH   3   5
TORSDOF 7
ENDMDL
MODEL      201
REMARK 921   NORMALIZED FREE ENERGY PREDICTED BY IDOCK:    1.96 KCAL/MOL
REMARK 922        TOTAL FREE ENERGY PREDICTED BY IDOCK:    2.08 KCAL/MOL
REMARK 923 INTER-LIGAND FREE ENERGY PREDICTED BY IDOCK:   -2.04 KCAL/MOL
REMARK 924 INTRA-LIGAND FREE ENERGY PREDICTED BY IDOCK:    4.12 KCAL/MOL
REMARK 927      BINDING AFFINITY PREDICTED BY RF-SCORE:    0.00 PKD
ROOT
HETATM    1  O   UNL     1      -7.799  10.304  69.992  1.00  0.00    -0.157 OA 
HETATM    2  C   UNL     1      -7.517   9.185  70.704  1.00  0.00    -0.124 C  
HETATM    3  C   UNL     1      -8.703   8.706  71.527  1.00  0.00    -0.202 C  
HETATM    4  O   UNL     1      -6.428   8.631  70.683  1.00  0.00    -0.036 OA 
ENDROOT
BRANCH   3   5
HETATM    5  O   UNL     1      -9.801   9.624  71.414  1.00  0.00    -0.122 OA 
BRANCH   5   6
HETATM    6  C   UNL     1     -10.278   9.737  70.059  1.00  0.00    -0.263 C  
BRANCH   6   7
HETATM    7  C   UNL     1     -10.931   8.434  69.546  1.00  0.00    -0.040 C  
BRANCH   7   8
HETATM    8  N   UNL     1     -10.002   7.312  69.314  1.00  0.00    -0.167 NA 
HETATM    9  C   UNL     1     -10.678   5.995  69.304  1.00  0.00    -0.332 C  
HETATM   10  C   UNL     1     -11.510   5.700  68.028  1.00  0.00     1.363 C  
HETATM   11  N   UNL     1     -10.753   5.811  66.756  1.00  0.00    -0.308 NA 
HETATM   12  C   UNL     1     -10.105   7.146  66.755  1.00  0.00    -0.208 C  
HETATM   13  C   UNL     1      -9.284   7.488  68.026  1.00  0.00    -0.137 C  
BRANCH  11  14
HETATM   14  C   UNL     1      -9.785   4.681  66.586  1.00  0.00    -0.199 C  
BRANCH  14  15
HETATM   15  C   UNL     1      -9.386   4.483  65.111  1.00  0.00    -0.160 A  
HETATM   16  C   UNL     1      -8.548   5.422  64.480  1.00  0.00    -0.077 A  
HETATM   17  C   UNL     1      -9.754   3.336  64.386  1.00  0.00    -0.163 A  
HETATM   18  C   UNL     1      -8.076   5.202  63.182  1.00  0.00    -0.101 A  
HETATM   19  C   UNL     1      -8.450   4.057  62.485  1.00  0.00    -0.083 A  
HETATM   20  C   UNL     1      -9.298   3.130  63.082  1.00  0.00    -0.094 A  
ENDBRANCH  14  15
BRANCH  14  21
HETATM   21  C   UNL     1      -8.561   4.779  67.513  1.00  0.00    -0.104 A  
HETATM   22  C   UNL     1      -6.425   5.030  69.331  1.00  0.00    -0.039 A  
HETATM   23 CL   UNL     1      -5.137   5.210  70.456  1.00  0.00    -0.004 Cl 
HETATM   24  C   UNL     1      -6.419   5.763  68.148  1.00  0.00    -0.043 A  
HETATM   25  C   UNL     1      -8.535   4.035  68.709  1.00  0.00    -0.100 A  
HETATM   26  C   UNL     1      -7.485   5.644  67.250  1.00  0.00    -0.084 A  
HETATM   27  C   UNL     1      -7.479   4.166  69.616  1.00  0.00    -0.053 A  
ENDBRANCH  14  21
ENDBRANCH  11  14
ENDBRANCH   7   8
ENDBRANCH   6   7
ENDBRANCH   5   6
ENDBRANCH   3   5
TORSDOF 7
ENDMDL
MODEL      202
REMARK 921   NORMALIZED FREE ENERGY PREDICTED BY IDOCK:    4.72 KCAL/MOL
REMARK 922        TOTAL FREE ENERGY PREDICTED BY IDOCK:    5.97 KCAL/MOL
REMARK 923 INTER-LIGAND FREE ENERGY PREDICTED BY IDOCK:    2.11 KCAL/MOL
REMARK 924 INTRA-LIGAND FREE ENERGY PREDICTED BY IDOCK:    3.86 KCAL/MOL
REMARK 927      BINDING AFFINITY PREDICTED BY RF-SCORE:    0.00 PKD
ROOT
HETATM    1  O   UNL     1     -11.583  11.736  62.913  1.00  0.00    -0.018 OA 
HETATM    2  C   UNL     1     -10.764  10.787  63.429  1.00  0.00     0.238 C  
HETATM    3  C   UNL     1     -10.857  10.701  64.945  1.00  0.00     0.148 C  
HETATM    4  O   UNL     1     -10.034  10.085  62.745  1.00  0.00     0.061 OA 
ENDROOT
BRANCH   3   5
HETATM    5  O   UNL     1     -11.726  11.723  65.456  1.00  0.00    -0.277 OA 
BRANCH   5   6
HETATM    6  C   UNL     1     -11.795  12.867  64.582  1.00  0.00    -0.372 C  
BRANCH   6   7
HETATM    7  C   UNL     1     -12.718  13.979  65.129  1.00  0.00    -0.389 C  
BRANCH   7   8
HETATM    8  N   UNL     1     -12.039  15.047  65.888  1.00  0.00     0.031 NA 
HETATM    9  C   UNL     1     -12.909  15.670  66.911  1.00  0.00     2.774 C  
HETATM   10  C   UNL     1     -13.160  14.799  68.170  1.00  0.00     2.603 C  
HETATM   11  N   UNL     1     -11.929  14.343  68.863  1.00  0.00    -0.318 NA 
HETATM   12  C   UNL     1     -11.076  13.689  67.840  1.00  0.00    -0.261 C  
HETATM   13  C   UNL     1     -10.823  14.520  66.555  1.00  0.00    -0.314 C  
BRANCH  11  14
HETATM   14  C   UNL     1     -11.245  15.469  69.575  1.00  0.00    -0.299 C  
BRANCH  14  15
HETATM   15  C   UNL     1     -11.667  15.553  71.055  1.00  0.00    -0.423 A  
HETATM   16  C   UNL     1     -12.385  14.493  71.640  1.00  0.00    -0.420 A  
HETATM   17  C   UNL     1     -11.275  16.620  71.883  1.00  0.00     0.463 A  
HETATM   18  C   UNL     1     -12.673  14.492  73.009  1.00  0.00    -0.491 A  
HETATM   19  C   UNL     1     -12.273  15.557  73.810  1.00  0.00    -0.703 A  
HETATM   20  C   UNL     1     -11.584  16.627  73.245  1.00  0.00     0.180 A  
ENDBRANCH  14  15
BRANCH  14  21
HETATM   21  C   UNL     1      -9.716  15.462  69.404  1.00  0.00    -0.273 A  
HETATM   22  C   UNL     1      -6.908  15.339  69.225  1.00  0.00    -0.155 A  
HETATM   23 CL   UNL     1      -5.192  15.255  69.150  1.00  0.00    -0.095 Cl 
HETATM   24  C   UNL     1      -7.529  16.533  69.576  1.00  0.00     0.042 A  
HETATM   25  C   UNL     1      -9.065  14.270  69.034  1.00  0.00     0.056 A  
HETATM   26  C   UNL     1      -8.923  16.592  69.673  1.00  0.00     0.414 A  
HETATM   27  C   UNL     1      -7.670  14.206  68.953  1.00  0.00    -0.091 A  
ENDBRANCH  14  21
ENDBRANCH  11  14
ENDBRANCH   7   8
ENDBRANCH   6   7
ENDBRANCH   5   6
ENDBRANCH   3   5
TORSDOF 7
ENDMDL
MODEL      203
REMARK 921   NORMALIZED FREE ENERGY PREDICTED BY IDOCK:    4.74 KCAL/MOL
REMARK 922        TOTAL FREE ENERGY PREDICTED BY IDOCK:    5.99 KCAL/MOL
REMARK 923 INTER-LIGAND FREE ENERGY PREDICTED BY IDOCK:   -4.03 KCAL/MOL
REMARK 924 INTRA-LIGAND FREE ENERGY PREDICTED BY IDOCK:   10.03 KCAL/MOL
REMARK 927      BINDING AFFINITY PREDICTED BY RF-SCORE:    0.00 PKD
ROOT
HETATM    1  O   UNL     1      -8.977  13.243  67.650  1.00  0.00    -0.178 OA 
HETATM    2  C   UNL     1      -9.436  13.035  66.391  1.00  0.00    -0.224 C  
HETATM    3  C   UNL     1      -9.250  11.596  65.934  1.00  0.00    -0.196 C  
HETATM    4  O   UNL     1      -9.941  13.913  65.707  1.00  0.00    -0.301 OA 
ENDROOT
BRANCH   3   5
HETATM    5  O   UNL     1      -8.541  10.839  66.926  1.00  0.00    -0.129 OA 
BRANCH   5   6
HETATM    6  C   UNL     1      -7.199  11.326  67.126  1.00  0.00    -0.126 C  
BRANCH   6   7
HETATM    7  C   UNL     1      -6.554  10.780  68.420  1.00  0.00    -0.055 C  
BRANCH   7   8
HETATM    8  N   UNL     1      -6.819   9.357  68.706  1.00  0.00    -0.052 NA 
HETATM    9  C   UNL     1      -6.945   9.073  70.153  1.00  0.00    -0.047 C  
HETATM   10  C   UNL     1      -8.273   9.551  70.797  1.00  0.00    -0.034 C  
HETATM   11  N   UNL     1      -9.501   9.034  70.143  1.00  0.00    -0.182 NA 
HETATM   12  C   UNL     1      -9.386   9.352  68.698  1.00  0.00    -0.142 C  
HETATM   13  C   UNL     1      -8.060   8.911  68.023  1.00  0.00    -0.106 C  
BRANCH  11  14
HETATM   14  C   UNL     1      -9.702   7.575  70.415  1.00  0.00    -0.179 C  
BRANCH  14  15
HETATM   15  C   UNL     1     -10.050   6.794  69.134  1.00  0.00    -0.180 A  
HETATM   16  C   UNL     1     -10.662   7.457  68.053  1.00  0.00    -0.191 A  
HETATM   17  C   UNL     1      -9.690   5.446  68.961  1.00  0.00    -0.208 A  
HETATM   18  C   UNL     1     -10.878   6.800  66.838  1.00  0.00    -0.402 A  
HETATM   19  C   UNL     1     -10.510   5.466  66.688  1.00  0.00    -0.356 A  
HETATM   20  C   UNL     1      -9.927   4.785  67.752  1.00  0.00    -0.169 A  
ENDBRANCH  14  15
BRANCH  14  21
HETATM   21  C   UNL     1      -8.540   6.932  71.192  1.00  0.00    -0.131 A  
HETATM   22  C   UNL     1      -6.530   5.668  72.706  1.00  0.00    -0.066 A  
HETATM   23 CL   UNL     1      -5.325   4.892  73.657  1.00  0.00    -0.012 Cl 
HETATM   24  C   UNL     1      -6.705   7.045  72.799  1.00  0.00    -0.068 A  
HETATM   25  C   UNL     1      -8.330   5.542  71.102  1.00  0.00    -0.125 A  
HETATM   26  C   UNL     1      -7.709   7.671  72.053  1.00  0.00    -0.096 A  
HETATM   27  C   UNL     1      -7.338   4.913  71.861  1.00  0.00    -0.080 A  
ENDBRANCH  14  21
ENDBRANCH  11  14
ENDBRANCH   7   8
ENDBRANCH   6   7
ENDBRANCH   5   6
ENDBRANCH   3   5
TORSDOF 7
ENDMDL
MODEL      204
REMARK 921   NORMALIZED FREE ENERGY PREDICTED BY IDOCK:    5.09 KCAL/MOL
REMARK 922        TOTAL FREE ENERGY PREDICTED BY IDOCK:    6.49 KCAL/MOL
REMARK 923 INTER-LIGAND FREE ENERGY PREDICTED BY IDOCK:    1.83 KCAL/MOL
REMARK 924 INTRA-LIGAND FREE ENERGY PREDICTED BY IDOCK:    4.66 KCAL/MOL
REMARK 927      BINDING AFFINITY PREDICTED BY RF-SCORE:    0.00 PKD
ROOT
HETATM    1  O   UNL     1     -11.111  19.605  64.657  1.00  0.00     0.042 OA 
HETATM    2  C   UNL     1     -10.721  19.492  65.951  1.00  0.00    -0.420 C  
HETATM    3  C   UNL     1      -9.683  18.399  66.152  1.00  0.00    -0.229 C  
HETATM    4  O   UNL     1     -11.161  20.195  66.849  1.00  0.00     0.098 OA 
ENDROOT
BRANCH   3   5
HETATM    5  O   UNL     1      -9.449  17.693  64.924  1.00  0.00     1.542 OA 
BRANCH   5   6
HETATM    6  C   UNL     1     -10.532  16.800  64.595  1.00  0.00     0.867 C  
BRANCH   6   7
HETATM    7  C   UNL     1     -11.206  16.194  65.846  1.00  0.00     0.176 C  
BRANCH   7   8
HETATM    8  N   UNL     1     -10.461  15.100  66.498  1.00  0.00    -0.284 NA 
HETATM    9  C   UNL     1      -9.768  15.530  67.733  1.00  0.00    -0.211 C  
HETATM   10  C   UNL     1     -10.697  15.757  68.955  1.00  0.00    -0.248 C  
HETATM   11  N   UNL     1     -11.546  14.593  69.313  1.00  0.00    -0.284 NA 
HETATM   12  C   UNL     1     -12.264  14.188  68.080  1.00  0.00    -0.144 C  
HETATM   13  C   UNL     1     -11.371  13.975  66.829  1.00  0.00    -0.334 C  
BRANCH  11  14
HETATM   14  C   UNL     1     -10.740  13.487  69.922  1.00  0.00     0.607 C  
BRANCH  14  15
HETATM   15  C   UNL     1     -11.568  12.197  70.084  1.00  0.00    -0.202 A  
HETATM   16  C   UNL     1     -12.353  12.007  71.237  1.00  0.00    -0.195 A  
HETATM   17  C   UNL     1     -11.645  11.228  69.068  1.00  0.00    -0.386 A  
HETATM   18  C   UNL     1     -13.204  10.904  71.352  1.00  0.00    -0.355 A  
HETATM   19  C   UNL     1     -13.268   9.959  70.331  1.00  0.00     0.131 A  
HETATM   20  C   UNL     1     -12.480  10.115  69.195  1.00  0.00     0.897 A  
ENDBRANCH  14  15
BRANCH  14  21
HETATM   21  C   UNL     1      -9.404  13.236  69.203  1.00  0.00     0.573 A  
HETATM   22  C   UNL     1      -6.987  12.918  67.792  1.00  0.00    -0.138 A  
HETATM   23 CL   UNL     1      -5.526  12.742  66.904  1.00  0.00     0.324 Cl 
HETATM   24  C   UNL     1      -8.000  11.974  67.655  1.00  0.00    -0.150 A  
HETATM   25  C   UNL     1      -8.357  14.168  69.339  1.00  0.00     0.416 A  
HETATM   26  C   UNL     1      -9.203  12.137  68.349  1.00  0.00    -0.154 A  
HETATM   27  C   UNL     1      -7.160  14.015  68.632  1.00  0.00    -0.108 A  
ENDBRANCH  14  21
ENDBRANCH  11  14
ENDBRANCH   7   8
ENDBRANCH   6   7
ENDBRANCH   5   6
ENDBRANCH   3   5
TORSDOF 7
ENDMDL
MODEL      205
REMARK 921   NORMALIZED FREE ENERGY PREDICTED BY IDOCK:    5.13 KCAL/MOL
REMARK 922        TOTAL FREE ENERGY PREDICTED BY IDOCK:    6.55 KCAL/MOL
REMARK 923 INTER-LIGAND FREE ENERGY PREDICTED BY IDOCK:    2.33 KCAL/MOL
REMARK 924 INTRA-LIGAND FREE ENERGY PREDICTED BY IDOCK:    4.22 KCAL/MOL
REMARK 927      BINDING AFFINITY PREDICTED BY RF-SCORE:    0.00 PKD
ROOT
HETATM    1  O   UNL     1      -8.387   2.704  68.263  1.00  0.00    -0.066 OA 
HETATM    2  C   UNL     1      -9.073   2.970  69.402  1.00  0.00    -0.132 C  
HETATM    3  C   UNL     1      -8.770   4.355  69.953  1.00  0.00    -0.073 C  
HETATM    4  O   UNL     1      -9.845   2.177  69.922  1.00  0.00     0.052 OA 
ENDROOT
BRANCH   3   5
HETATM    5  O   UNL     1      -7.752   4.998  69.172  1.00  0.00    -0.074 OA 
BRANCH   5   6
HETATM    6  C   UNL     1      -8.290   6.020  68.310  1.00  0.00    -0.113 C  
BRANCH   6   7
HETATM    7  C   UNL     1      -7.190   6.825  67.583  1.00  0.00    -0.094 C  
BRANCH   7   8
HETATM    8  N   UNL     1      -6.890   8.149  68.161  1.00  0.00    -0.074 NA 
HETATM    9  C   UNL     1      -7.255   9.267  67.261  1.00  0.00    -0.087 C  
HETATM   10  C   UNL     1      -8.777   9.548  67.156  1.00  0.00    -0.132 C  
HETATM   11  N   UNL     1      -9.453   9.795  68.454  1.00  0.00    -0.139 NA 
HETATM   12  C   UNL     1      -9.113   8.654  69.340  1.00  0.00    -0.149 C  
HETATM   13  C   UNL     1      -7.600   8.326  69.452  1.00  0.00    -0.096 C  
BRANCH  11  14
HETATM   14  C   UNL     1      -9.079  11.126  69.029  1.00  0.00    -0.023 C  
BRANCH  14  15
HETATM   15  C   UNL     1      -7.729  11.073  69.769  1.00  0.00     0.276 A  
HETATM   16  C   UNL     1      -7.681  10.659  71.114  1.00  0.00     3.086 A  
HETATM   17  C   UNL     1      -6.511  11.335  69.117  1.00  0.00    -0.081 A  
HETATM   18  C   UNL     1      -6.458  10.487  71.769  1.00  0.00     1.452 A  
HETATM   19  C   UNL     1      -5.264  10.748  71.102  1.00  0.00    -0.096 A  
HETATM   20  C   UNL     1      -5.290  11.183  69.780  1.00  0.00    -0.049 A  
ENDBRANCH  14  15
BRANCH  14  21
HETATM   21  C   UNL     1      -9.139  12.273  68.006  1.00  0.00    -0.191 A  
HETATM   22  C   UNL     1      -9.263  14.484  66.266  1.00  0.00    -0.198 A  
HETATM   23 CL   UNL     1      -9.356  15.851  65.227  1.00  0.00     0.195 Cl 
HETATM   24  C   UNL     1     -10.281  13.535  66.256  1.00  0.00    -0.299 A  
HETATM   25  C   UNL     1      -8.113  13.238  67.984  1.00  0.00    -0.157 A  
HETATM   26  C   UNL     1     -10.223  12.442  67.127  1.00  0.00    -0.226 A  
HETATM   27  C   UNL     1      -8.178  14.340  67.126  1.00  0.00    -0.184 A  
ENDBRANCH  14  21
ENDBRANCH  11  14
ENDBRANCH   7   8
ENDBRANCH   6   7
ENDBRANCH   5   6
ENDBRANCH   3   5
TORSDOF 7
ENDMDL
MODEL      206
REMARK 921   NORMALIZED FREE ENERGY PREDICTED BY IDOCK:    5.52 KCAL/MOL
REMARK 922        TOTAL FREE ENERGY PREDICTED BY IDOCK:    7.09 KCAL/MOL
REMARK 923 INTER-LIGAND FREE ENERGY PREDICTED BY IDOCK:   -4.05 KCAL/MOL
REMARK 924 INTRA-LIGAND FREE ENERGY PREDICTED BY IDOCK:   11.14 KCAL/MOL
REMARK 927      BINDING AFFINITY PREDICTED BY RF-SCORE:    0.00 PKD
ROOT
HETATM    1  O   UNL     1      -6.999   9.966  65.761  1.00  0.00    -0.097 OA 
HETATM    2  C   UNL     1      -6.315   9.054  65.026  1.00  0.00    -0.065 C  
HETATM    3  C   UNL     1      -7.182   8.392  63.966  1.00  0.00    -0.093 C  
HETATM    4  O   UNL     1      -5.133   8.797  65.205  1.00  0.00    -0.037 OA 
ENDROOT
BRANCH   3   5
HETATM    5  O   UNL     1      -8.543   8.836  64.077  1.00  0.00    -0.156 OA 
BRANCH   5   6
HETATM    6  C   UNL     1      -8.634  10.225  64.455  1.00  0.00    -0.187 C  
BRANCH   6   7
HETATM    7  C   UNL     1      -8.391  10.449  65.964  1.00  0.00    -0.149 C  
BRANCH   7   8
HETATM    8  N   UNL     1      -8.987  11.677  66.524  1.00  0.00    -0.188 NA 
HETATM    9  C   UNL     1     -10.112  12.193  65.712  1.00  0.00    -0.247 C  
HETATM   10  C   UNL     1     -11.429  11.381  65.833  1.00  0.00     0.102 C  
HETATM   11  N   UNL     1     -11.931  11.218  67.221  1.00  0.00    -0.357 NA 
HETATM   12  C   UNL     1     -10.810  10.668  68.022  1.00  0.00    -0.261 C  
HETATM   13  C   UNL     1      -9.468  11.439  67.908  1.00  0.00    -0.174 C  
BRANCH  11  14
HETATM   14  C   UNL     1     -12.478  12.501  67.767  1.00  0.00     0.897 C  
BRANCH  14  15
HETATM   15  C   UNL     1     -12.616  12.459  69.300  1.00  0.00     0.548 A  
HETATM   16  C   UNL     1     -12.786  13.655  70.023  1.00  0.00    -0.044 A  
HETATM   17  C   UNL     1     -12.674  11.246  70.011  1.00  0.00    -0.066 A  
HETATM   18  C   UNL     1     -13.033  13.633  71.399  1.00  0.00    -0.427 A  
HETATM   19  C   UNL     1     -13.091  12.421  72.081  1.00  0.00    -0.419 A  
HETATM   20  C   UNL     1     -12.900  11.229  71.390  1.00  0.00    -0.515 A  
ENDBRANCH  14  15
BRANCH  14  21
HETATM   21  C   UNL     1     -11.715  13.746  67.284  1.00  0.00    -0.416 A  
HETATM   22  C   UNL     1     -10.426  16.123  66.495  1.00  0.00    -0.297 A  
HETATM   23 CL   UNL     1      -9.668  17.591  66.019  1.00  0.00    -0.212 Cl 
HETATM   24  C   UNL     1     -11.102  15.355  65.553  1.00  0.00    -0.301 A  
HETATM   25  C   UNL     1     -11.008  14.532  68.215  1.00  0.00    -0.258 A  
HETATM   26  C   UNL     1     -11.750  14.180  65.946  1.00  0.00    -0.369 A  
HETATM   27  C   UNL     1     -10.375  15.716  67.826  1.00  0.00    -0.266 A  
ENDBRANCH  14  21
ENDBRANCH  11  14
ENDBRANCH   7   8
ENDBRANCH   6   7
ENDBRANCH   5   6
ENDBRANCH   3   5
TORSDOF 7
ENDMDL
MODEL      207
REMARK 921   NORMALIZED FREE ENERGY PREDICTED BY IDOCK:    7.34 KCAL/MOL
REMARK 922        TOTAL FREE ENERGY PREDICTED BY IDOCK:    9.66 KCAL/MOL
REMARK 923 INTER-LIGAND FREE ENERGY PREDICTED BY IDOCK:    1.35 KCAL/MOL
REMARK 924 INTRA-LIGAND FREE ENERGY PREDICTED BY IDOCK:    8.31 KCAL/MOL
REMARK 927      BINDING AFFINITY PREDICTED BY RF-SCORE:    0.00 PKD
ROOT
HETATM    1  O   UNL     1     -11.917   9.114  71.671  1.00  0.00    -0.319 OA 
HETATM    2  C   UNL     1     -11.213   7.956  71.641  1.00  0.00    -0.251 C  
HETATM    3  C   UNL     1     -10.307   7.858  70.423  1.00  0.00    -0.212 C  
HETATM    4  O   UNL     1     -11.304   7.091  72.500  1.00  0.00    -0.263 OA 
ENDROOT
BRANCH   3   5
HETATM    5  O   UNL     1     -10.501   8.985  69.557  1.00  0.00    -0.211 OA 
BRANCH   5   6
HETATM    6  C   UNL     1     -11.465   9.918  70.084  1.00  0.00    -0.248 C  
BRANCH   6   7
HETATM    7  C   UNL     1     -11.036  11.390  69.891  1.00  0.00    -0.059 C  
BRANCH   7   8
HETATM    8  N   UNL     1      -9.887  11.600  68.989  1.00  0.00    -0.032 NA 
HETATM    9  C   UNL     1     -10.130  11.094  67.619  1.00  0.00    -0.179 C  
HETATM   10  C   UNL     1     -11.086  11.965  66.764  1.00  0.00    -0.308 C  
HETATM   11  N   UNL     1     -10.683  13.388  66.638  1.00  0.00    -0.280 NA 
HETATM   12  C   UNL     1     -10.475  13.900  68.015  1.00  0.00    -0.243 C  
HETATM   13  C   UNL     1      -9.543  13.041  68.910  1.00  0.00     0.229 C  
BRANCH  11  14
HETATM   14  C   UNL     1      -9.482  13.548  65.757  1.00  0.00     0.047 C  
BRANCH  14  15
HETATM   15  C   UNL     1      -8.241  13.993  66.554  1.00  0.00     0.554 A  
HETATM   16  C   UNL     1      -8.385  14.869  67.646  1.00  0.00    -0.178 A  
HETATM   17  C   UNL     1      -6.960  13.475  66.290  1.00  0.00     3.368 A  
HETATM   18  C   UNL     1      -7.292  15.191  68.457  1.00  0.00    -0.119 A  
HETATM   19  C   UNL     1      -6.034  14.664  68.179  1.00  0.00    -0.143 A  
HETATM   20  C   UNL     1      -5.866  13.816  67.089  1.00  0.00     0.758 A  
ENDBRANCH  14  15
BRANCH  14  21
HETATM   21  C   UNL     1      -9.200  12.318  64.877  1.00  0.00     0.457 A  
HETATM   22  C   UNL     1      -8.847  10.013  63.298  1.00  0.00    -0.237 A  
HETATM   23 CL   UNL     1      -8.656   8.590  62.353  1.00  0.00    -0.175 Cl 
HETATM   24  C   UNL     1      -8.115  10.169  64.471  1.00  0.00    -0.160 A  
HETATM   25  C   UNL     1      -9.917  12.144  63.677  1.00  0.00    -0.347 A  
HETATM   26  C   UNL     1      -8.297  11.310  65.259  1.00  0.00     0.250 A  
HETATM   27  C   UNL     1      -9.748  10.996  62.897  1.00  0.00    -0.353 A  
ENDBRANCH  14  21
ENDBRANCH  11  14
ENDBRANCH   7   8
ENDBRANCH   6   7
ENDBRANCH   5   6
ENDBRANCH   3   5
TORSDOF 7
ENDMDL
MODEL      208
REMARK 921   NORMALIZED FREE ENERGY PREDICTED BY IDOCK:    8.77 KCAL/MOL
REMARK 922        TOTAL FREE ENERGY PREDICTED BY IDOCK:   11.67 KCAL/MOL
REMARK 923 INTER-LIGAND FREE ENERGY PREDICTED BY IDOCK:    2.59 KCAL/MOL
REMARK 924 INTRA-LIGAND FREE ENERGY PREDICTED BY IDOCK:    9.09 KCAL/MOL
REMARK 927      BINDING AFFINITY PREDICTED BY RF-SCORE:    0.00 PKD
ROOT
HETATM    1  O   UNL     1     -10.847  20.097  66.595  1.00  0.00    -0.277 OA 
HETATM    2  C   UNL     1      -9.565  19.666  66.684  1.00  0.00    -0.380 C  
HETATM    3  C   UNL     1      -9.235  18.604  65.646  1.00  0.00     0.726 C  
HETATM    4  O   UNL     1      -8.769  20.090  67.510  1.00  0.00    -0.326 OA 
ENDROOT
BRANCH   3   5
HETATM    5  O   UNL     1     -10.405  18.254  64.892  1.00  0.00     0.386 OA 
BRANCH   5   6
HETATM    6  C   UNL     1     -11.264  17.345  65.609  1.00  0.00     0.621 C  
BRANCH   6   7
HETATM    7  C   UNL     1     -10.473  16.289  66.415  1.00  0.00    -0.294 C  
BRANCH   7   8
HETATM    8  N   UNL     1      -9.310  16.806  67.162  1.00  0.00    -0.226 NA 
HETATM    9  C   UNL     1      -9.183  16.215  68.513  1.00  0.00    -0.210 C  
HETATM   10  C   UNL     1      -8.673  14.750  68.537  1.00  0.00    -0.174 C  
HETATM   11  N   UNL     1      -7.378  14.533  67.843  1.00  0.00    -0.138 NA 
HETATM   12  C   UNL     1      -7.522  15.096  66.478  1.00  0.00     0.921 C  
HETATM   13  C   UNL     1      -8.055  16.552  66.411  1.00  0.00    -0.327 C  
BRANCH  11  14
HETATM   14  C   UNL     1      -6.233  15.120  68.610  1.00  0.00    -0.089 C  
BRANCH  14  15
HETATM   15  C   UNL     1      -6.238  16.659  68.559  1.00  0.00    -0.135 A  
HETATM   16  C   UNL     1      -5.585  17.329  67.508  1.00  0.00    -0.148 A  
HETATM   17  C   UNL     1      -6.960  17.434  69.486  1.00  0.00    -0.011 A  
HETATM   18  C   UNL     1      -5.677  18.718  67.374  1.00  0.00    -0.152 A  
HETATM   19  C   UNL     1      -6.401  19.464  68.301  1.00  0.00    -0.262 A  
HETATM   20  C   UNL     1      -7.032  18.824  69.363  1.00  0.00    -0.180 A  
ENDBRANCH  14  15
BRANCH  14  21
HETATM   21  C   UNL     1      -6.121  14.583  70.047  1.00  0.00    -0.151 A  
HETATM   22  C   UNL     1      -5.838  13.751  72.723  1.00  0.00     0.410 A  
HETATM   23 CL   UNL     1      -5.638  13.265  74.360  1.00  0.00     0.031 Cl 
HETATM   24  C   UNL     1      -5.151  13.085  71.713  1.00  0.00    -0.129 A  
HETATM   25  C   UNL     1      -6.819  15.230  71.086  1.00  0.00     1.214 A  
HETATM   26  C   UNL     1      -5.285  13.504  70.385  1.00  0.00    -0.108 A  
HETATM   27  C   UNL     1      -6.673  14.823  72.416  1.00  0.00     1.998 A  
ENDBRANCH  14  21
ENDBRANCH  11  14
ENDBRANCH   7   8
ENDBRANCH   6   7
ENDBRANCH   5   6
ENDBRANCH   3   5
TORSDOF 7
ENDMDL
MODEL      209
REMARK 921   NORMALIZED FREE ENERGY PREDICTED BY IDOCK:   10.48 KCAL/MOL
REMARK 922        TOTAL FREE ENERGY PREDICTED BY IDOCK:   14.09 KCAL/MOL
REMARK 923 INTER-LIGAND FREE ENERGY PREDICTED BY IDOCK:    1.54 KCAL/MOL
REMARK 924 INTRA-LIGAND FREE ENERGY PREDICTED BY IDOCK:   12.55 KCAL/MOL
REMARK 927      BINDING AFFINITY PREDICTED BY RF-SCORE:    0.00 PKD
ROOT
HETATM    1  O   UNL     1      -9.573  19.237  66.467  1.00  0.00    -0.328 OA 
HETATM    2  C   UNL     1      -9.917  18.556  67.588  1.00  0.00    -0.338 C  
HETATM    3  C   UNL     1      -9.048  17.328  67.811  1.00  0.00    -0.235 C  
HETATM    4  O   UNL     1     -10.827  18.897  68.329  1.00  0.00    -0.131 OA 
ENDROOT
BRANCH   3   5
HETATM    5  O   UNL     1      -8.138  17.147  66.716  1.00  0.00    -0.205 OA 
BRANCH   5   6
HETATM    6  C   UNL     1      -6.798  16.861  67.162  1.00  0.00    -0.186 C  
BRANCH   6   7
HETATM    7  C   UNL     1      -6.749  16.371  68.627  1.00  0.00    -0.145 C  
BRANCH   7   8
HETATM    8  N   UNL     1      -7.725  15.319  68.973  1.00  0.00    -0.166 NA 
HETATM    9  C   UNL     1      -9.094  15.625  68.501  1.00  0.00    -0.196 C  
HETATM   10  C   UNL     1      -9.309  15.459  66.974  1.00  0.00    -0.224 C  
HETATM   11  N   UNL     1      -8.952  14.121  66.439  1.00  0.00    -0.116 NA 
HETATM   12  C   UNL     1      -7.566  13.835  66.885  1.00  0.00     0.477 C  
HETATM   13  C   UNL     1      -7.306  14.013  68.404  1.00  0.00    -0.113 C  
BRANCH  11  14
HETATM   14  C   UNL     1      -9.939  13.076  66.858  1.00  0.00    -0.243 C  
BRANCH  14  15
HETATM   15  C   UNL     1     -10.716  13.494  68.121  1.00  0.00    -0.265 A  
HETATM   16  C   UNL     1     -11.785  14.404  68.019  1.00  0.00    -0.374 A  
HETATM   17  C   UNL     1     -10.456  12.922  69.380  1.00  0.00     0.340 A  
HETATM   18  C   UNL     1     -12.580  14.705  69.130  1.00  0.00     0.146 A  
HETATM   19  C   UNL     1     -12.307  14.124  70.365  1.00  0.00    -0.428 A  
HETATM   20  C   UNL     1     -11.238  13.242  70.493  1.00  0.00     0.836 A  
ENDBRANCH  14  15
BRANCH  14  21
HETATM   21  C   UNL     1     -10.873  12.626  65.722  1.00  0.00    -0.304 A  
HETATM   22  C   UNL     1     -12.703  11.911  63.704  1.00  0.00    -0.390 A  
HETATM   23 CL   UNL     1     -13.846  11.484  62.492  1.00  0.00     2.737 Cl 
HETATM   24  C   UNL     1     -12.315  10.971  64.652  1.00  0.00     2.127 A  
HETATM   25  C   UNL     1     -11.269  13.554  64.739  1.00  0.00    -0.363 A  
HETATM   26  C   UNL     1     -11.413  11.329  65.660  1.00  0.00     0.156 A  
HETATM   27  C   UNL     1     -12.184  13.202  63.742  1.00  0.00    -0.528 A  
ENDBRANCH  14  21
ENDBRANCH  11  14
ENDBRANCH   7   8
ENDBRANCH   6   7
ENDBRANCH   5   6
ENDBRANCH   3   5
TORSDOF 7
ENDMDL
MODEL      210
REMARK 921   NORMALIZED FREE ENERGY PREDICTED BY IDOCK:   14.44 KCAL/MOL
REMARK 922        TOTAL FREE ENERGY PREDICTED BY IDOCK:   19.67 KCAL/MOL
REMARK 923 INTER-LIGAND FREE ENERGY PREDICTED BY IDOCK:   10.69 KCAL/MOL
REMARK 924 INTRA-LIGAND FREE ENERGY PREDICTED BY IDOCK:    8.98 KCAL/MOL
REMARK 927      BINDING AFFINITY PREDICTED BY RF-SCORE:    0.00 PKD
ROOT
HETATM    1  O   UNL     1     -11.044  19.610  64.567  1.00  0.00     0.300 OA 
HETATM    2  C   UNL     1     -10.705  19.713  65.876  1.00  0.00    -0.413 C  
HETATM    3  C   UNL     1      -9.510  18.843  66.237  1.00  0.00    -0.297 C  
HETATM    4  O   UNL     1     -11.300  20.426  66.671  1.00  0.00     0.766 OA 
ENDROOT
BRANCH   3   5
HETATM    5  O   UNL     1      -9.102  18.053  65.111  1.00  0.00     1.025 OA 
BRANCH   5   6
HETATM    6  C   UNL     1     -10.031  16.988  64.827  1.00  0.00     2.019 C  
BRANCH   6   7
HETATM    7  C   UNL     1     -10.910  16.624  66.045  1.00  0.00    -0.041 C  
BRANCH   7   8
HETATM    8  N   UNL     1     -10.213  15.919  67.138  1.00  0.00    -0.272 NA 
HETATM    9  C   UNL     1     -10.057  16.750  68.353  1.00  0.00    -0.285 C  
HETATM   10  C   UNL     1     -11.356  16.949  69.177  1.00  0.00     0.231 C  
HETATM   11  N   UNL     1     -12.026  15.691  69.592  1.00  0.00    -0.364 NA 
HETATM   12  C   UNL     1     -12.211  14.877  68.366  1.00  0.00    -0.018 C  
HETATM   13  C   UNL     1     -10.939  14.676  67.502  1.00  0.00    -0.298 C  
BRANCH  11  14
HETATM   14  C   UNL     1     -11.257  14.983  70.665  1.00  0.00    -0.242 C  
BRANCH  14  15
HETATM   15  C   UNL     1     -11.634  13.491  70.751  1.00  0.00     0.267 A  
HETATM   16  C   UNL     1     -12.730  13.088  71.536  1.00  0.00    -0.349 A  
HETATM   17  C   UNL     1     -10.973  12.510  69.989  1.00  0.00     0.612 A  
HETATM   18  C   UNL     1     -13.164  11.759  71.534  1.00  0.00    -0.292 A  
HETATM   19  C   UNL     1     -12.498  10.806  70.769  1.00  0.00    -0.481 A  
HETATM   20  C   UNL     1     -11.395  11.179  70.006  1.00  0.00    -0.326 A  
ENDBRANCH  14  15
BRANCH  14  21
HETATM   21  C   UNL     1      -9.737  15.196  70.571  1.00  0.00     0.655 A  
HETATM   22  C   UNL     1      -6.940  15.426  70.331  1.00  0.00     0.334 A  
HETATM   23 CL   UNL     1      -5.230  15.532  70.186  1.00  0.00    -0.115 Cl 
HETATM   24  C   UNL     1      -7.530  15.415  71.591  1.00  0.00     3.740 A  
HETATM   25  C   UNL     1      -9.118  15.228  69.306  1.00  0.00    -0.240 A  
HETATM   26  C   UNL     1      -8.918  15.292  71.710  1.00  0.00     4.972 A  
HETATM   27  C   UNL     1      -7.728  15.334  69.187  1.00  0.00    -0.200 A  
ENDBRANCH  14  21
ENDBRANCH  11  14
ENDBRANCH   7   8
ENDBRANCH   6   7
ENDBRANCH   5   6
ENDBRANCH   3   5
TORSDOF 7
ENDMDL
MODEL      211
REMARK 921   NORMALIZED FREE ENERGY PREDICTED BY IDOCK:   14.45 KCAL/MOL
REMARK 922        TOTAL FREE ENERGY PREDICTED BY IDOCK:   19.68 KCAL/MOL
REMARK 923 INTER-LIGAND FREE ENERGY PREDICTED BY IDOCK:    7.93 KCAL/MOL
REMARK 924 INTRA-LIGAND FREE ENERGY PREDICTED BY IDOCK:   11.74 KCAL/MOL
REMARK 927      BINDING AFFINITY PREDICTED BY RF-SCORE:    0.00 PKD
ROOT
HETATM    1  O   UNL     1     -12.572   9.240  70.977  1.00  0.00    -0.278 OA 
HETATM    2  C   UNL     1     -12.717   8.162  70.168  1.00  0.00     1.351 C  
HETATM    3  C   UNL     1     -12.528   8.508  68.699  1.00  0.00     5.039 C  
HETATM    4  O   UNL     1     -12.972   7.040  70.581  1.00  0.00    -0.120 OA 
ENDROOT
BRANCH   3   5
HETATM    5  O   UNL     1     -12.338   9.921  68.533  1.00  0.00     0.906 OA 
BRANCH   5   6
HETATM    6  C   UNL     1     -12.652  10.657  69.732  1.00  0.00    -0.023 C  
BRANCH   6   7
HETATM    7  C   UNL     1     -12.200  12.133  69.661  1.00  0.00    -0.120 C  
BRANCH   7   8
HETATM    8  N   UNL     1     -11.035  12.395  68.794  1.00  0.00    -0.240 NA 
HETATM    9  C   UNL     1     -10.353  11.156  68.355  1.00  0.00    -0.186 C  
HETATM   10  C   UNL     1     -11.107  10.349  67.266  1.00  0.00    -0.179 C  
HETATM   11  N   UNL     1     -11.440  11.120  66.042  1.00  0.00    -0.055 NA 
HETATM   12  C   UNL     1     -12.154  12.343  66.485  1.00  0.00    -0.105 C  
HETATM   13  C   UNL     1     -11.443  13.165  67.593  1.00  0.00    -0.324 C  
BRANCH  11  14
HETATM   14  C   UNL     1     -10.222  11.408  65.220  1.00  0.00    -0.270 C  
BRANCH  14  15
HETATM   15  C   UNL     1     -10.054  12.916  64.952  1.00  0.00    -0.229 A  
HETATM   16  C   UNL     1     -10.916  13.569  64.052  1.00  0.00    -0.164 A  
HETATM   17  C   UNL     1      -9.119  13.699  65.654  1.00  0.00     0.627 A  
HETATM   18  C   UNL     1     -10.861  14.957  63.884  1.00  0.00     1.332 A  
HETATM   19  C   UNL     1      -9.931  15.711  64.592  1.00  0.00     0.904 A  
HETATM   20  C   UNL     1      -9.052  15.082  65.468  1.00  0.00     0.542 A  
ENDBRANCH  14  15
BRANCH  14  21
HETATM   21  C   UNL     1      -8.940  10.769  65.781  1.00  0.00    -0.203 A  
HETATM   22  C   UNL     1      -6.678   9.571  66.957  1.00  0.00    -0.072 A  
HETATM   23 CL   UNL     1      -5.310   8.848  67.706  1.00  0.00    -0.035 Cl 
HETATM   24  C   UNL     1      -6.652  10.921  66.620  1.00  0.00    -0.120 A  
HETATM   25  C   UNL     1      -8.935   9.401  66.115  1.00  0.00    -0.197 A  
HETATM   26  C   UNL     1      -7.778  11.517  66.044  1.00  0.00     0.249 A  
HETATM   27  C   UNL     1      -7.815   8.807  66.706  1.00  0.00    -0.097 A  
ENDBRANCH  14  21
ENDBRANCH  11  14
ENDBRANCH   7   8
ENDBRANCH   6   7
ENDBRANCH   5   6
ENDBRANCH   3   5
TORSDOF 7
ENDMDL
MODEL      212
REMARK 921   NORMALIZED FREE ENERGY PREDICTED BY IDOCK:   14.54 KCAL/MOL
REMARK 922        TOTAL FREE ENERGY PREDICTED BY IDOCK:   19.81 KCAL/MOL
REMARK 923 INTER-LIGAND FREE ENERGY PREDICTED BY IDOCK:   11.41 KCAL/MOL
REMARK 924 INTRA-LIGAND FREE ENERGY PREDICTED BY IDOCK:    8.39 KCAL/MOL
REMARK 927      BINDING AFFINITY PREDICTED BY RF-SCORE:    0.00 PKD
ROOT
HETATM    1  O   UNL     1      -8.424  20.501  65.021  1.00  0.00     0.518 OA 
HETATM    2  C   UNL     1      -9.713  20.237  65.347  1.00  0.00     0.386 C  
HETATM    3  C   UNL     1      -9.852  18.983  66.197  1.00  0.00    -0.329 C  
HETATM    4  O   UNL     1     -10.653  20.933  64.992  1.00  0.00     0.798 OA 
ENDROOT
BRANCH   3   5
HETATM    5  O   UNL     1      -8.580  18.338  66.358  1.00  0.00    -0.303 OA 
BRANCH   5   6
HETATM    6  C   UNL     1      -8.306  17.401  65.297  1.00  0.00     2.057 C  
BRANCH   6   7
HETATM    7  C   UNL     1      -9.586  16.732  64.748  1.00  0.00     2.612 C  
BRANCH   7   8
HETATM    8  N   UNL     1     -10.250  15.789  65.669  1.00  0.00    -0.355 NA 
HETATM    9  C   UNL     1      -9.516  14.512  65.814  1.00  0.00    -0.123 C  
HETATM   10  C   UNL     1      -8.227  14.595  66.672  1.00  0.00     0.187 C  
HETATM   11  N   UNL     1      -8.426  15.141  68.038  1.00  0.00    -0.145 NA 
HETATM   12  C   UNL     1      -9.131  16.438  67.885  1.00  0.00    -0.201 C  
HETATM   13  C   UNL     1     -10.413  16.400  67.012  1.00  0.00    -0.291 C  
BRANCH  11  14
HETATM   14  C   UNL     1      -9.149  14.173  68.922  1.00  0.00     0.009 C  
BRANCH  14  15
HETATM   15  C   UNL     1     -10.599  13.941  68.454  1.00  0.00    -0.262 A  
HETATM   16  C   UNL     1     -11.666  14.533  69.154  1.00  0.00    -0.349 A  
HETATM   17  C   UNL     1     -10.897  13.227  67.279  1.00  0.00    -0.275 A  
HETATM   18  C   UNL     1     -12.978  14.436  68.680  1.00  0.00     1.593 A  
HETATM   19  C   UNL     1     -13.250  13.728  67.512  1.00  0.00     3.277 A  
HETATM   20  C   UNL     1     -12.212  13.114  66.818  1.00  0.00    -0.306 A  
ENDBRANCH  14  15
BRANCH  14  21
HETATM   21  C   UNL     1      -8.388  12.854  69.137  1.00  0.00     0.601 A  
HETATM   22  C   UNL     1      -7.003  10.467  69.701  1.00  0.00    -0.135 A  
HETATM   23 CL   UNL     1      -6.147   9.024  70.076  1.00  0.00    -0.036 Cl 
HETATM   24  C   UNL     1      -6.357  11.503  69.035  1.00  0.00    -0.069 A  
HETATM   25  C   UNL     1      -9.025  11.784  69.795  1.00  0.00     1.851 A  
HETATM   26  C   UNL     1      -7.042  12.692  68.762  1.00  0.00    -0.087 A  
HETATM   27  C   UNL     1      -8.335  10.602  70.083  1.00  0.00     0.792 A  
ENDBRANCH  14  21
ENDBRANCH  11  14
ENDBRANCH   7   8
ENDBRANCH   6   7
ENDBRANCH   5   6
ENDBRANCH   3   5
TORSDOF 7
ENDMDL
MODEL      213
REMARK 921   NORMALIZED FREE ENERGY PREDICTED BY IDOCK:   15.19 KCAL/MOL
REMARK 922        TOTAL FREE ENERGY PREDICTED BY IDOCK:   20.73 KCAL/MOL
REMARK 923 INTER-LIGAND FREE ENERGY PREDICTED BY IDOCK:    2.46 KCAL/MOL
REMARK 924 INTRA-LIGAND FREE ENERGY PREDICTED BY IDOCK:   18.27 KCAL/MOL
REMARK 927      BINDING AFFINITY PREDICTED BY RF-SCORE:    0.00 PKD
ROOT
HETATM    1  O   UNL     1     -11.104  17.458  63.910  1.00  0.00     0.597 OA 
HETATM    2  C   UNL     1     -10.576  16.908  65.032  1.00  0.00     0.024 C  
HETATM    3  C   UNL     1     -11.072  15.490  65.273  1.00  0.00    -0.338 C  
HETATM    4  O   UNL     1      -9.791  17.494  65.763  1.00  0.00    -0.537 OA 
ENDROOT
BRANCH   3   5
HETATM    5  O   UNL     1     -12.058  15.127  64.295  1.00  0.00    -0.493 OA 
BRANCH   5   6
HETATM    6  C   UNL     1     -11.589  14.091  63.409  1.00  0.00     0.685 C  
BRANCH   6   7
HETATM    7  C   UNL     1     -11.794  12.673  63.988  1.00  0.00    -0.431 C  
BRANCH   7   8
HETATM    8  N   UNL     1     -10.993  12.359  65.187  1.00  0.00    -0.292 NA 
HETATM    9  C   UNL     1     -10.303  13.544  65.745  1.00  0.00    -0.292 C  
HETATM   10  C   UNL     1     -11.224  14.538  66.500  1.00  0.00    -0.344 C  
HETATM   11  N   UNL     1     -12.017  13.935  67.601  1.00  0.00    -0.381 NA 
HETATM   12  C   UNL     1     -12.733  12.769  67.028  1.00  0.00     1.369 C  
HETATM   13  C   UNL     1     -11.849  11.764  66.243  1.00  0.00     0.112 C  
BRANCH  11  14
HETATM   14  C   UNL     1     -11.156  13.584  68.776  1.00  0.00    -0.264 C  
BRANCH  14  15
HETATM   15  C   UNL     1     -11.961  13.556  70.089  1.00  0.00    -0.399 A  
HETATM   16  C   UNL     1     -11.287  13.535  71.325  1.00  0.00     1.757 A  
HETATM   17  C   UNL     1     -13.364  13.647  70.105  1.00  0.00     0.882 A  
HETATM   18  C   UNL     1     -11.993  13.631  72.528  1.00  0.00     1.217 A  
HETATM   19  C   UNL     1     -13.381  13.725  72.520  1.00  0.00    -0.656 A  
HETATM   20  C   UNL     1     -14.068  13.721  71.310  1.00  0.00     0.197 A  
ENDBRANCH  14  15
BRANCH  14  21
HETATM   21  C   UNL     1     -10.333  12.301  68.569  1.00  0.00    -0.234 A  
HETATM   22  C   UNL     1      -8.689  10.034  68.261  1.00  0.00    -0.119 A  
HETATM   23 CL   UNL     1      -7.658   8.671  68.073  1.00  0.00    -0.097 Cl 
HETATM   24  C   UNL     1      -9.176  10.696  67.138  1.00  0.00    -0.161 A  
HETATM   25  C   UNL     1      -9.841  11.603  69.690  1.00  0.00     0.916 A  
HETATM   26  C   UNL     1      -9.985  11.826  67.292  1.00  0.00    -0.208 A  
HETATM   27  C   UNL     1      -9.019  10.483  69.538  1.00  0.00    -0.054 A  
ENDBRANCH  14  21
ENDBRANCH  11  14
ENDBRANCH   7   8
ENDBRANCH   6   7
ENDBRANCH   5   6
ENDBRANCH   3   5
TORSDOF 7
ENDMDL
MODEL      214
REMARK 921   NORMALIZED FREE ENERGY PREDICTED BY IDOCK:   19.84 KCAL/MOL
REMARK 922        TOTAL FREE ENERGY PREDICTED BY IDOCK:   27.28 KCAL/MOL
REMARK 923 INTER-LIGAND FREE ENERGY PREDICTED BY IDOCK:    1.25 KCAL/MOL
REMARK 924 INTRA-LIGAND FREE ENERGY PREDICTED BY IDOCK:   26.03 KCAL/MOL
REMARK 927      BINDING AFFINITY PREDICTED BY RF-SCORE:    0.00 PKD
ROOT
HETATM    1  O   UNL     1     -11.593  12.940  67.127  1.00  0.00    -0.322 OA 
HETATM    2  C   UNL     1     -10.657  12.088  67.613  1.00  0.00    -0.210 C  
HETATM    3  C   UNL     1      -9.366  12.797  67.994  1.00  0.00    -0.213 C  
HETATM    4  O   UNL     1     -10.839  10.885  67.728  1.00  0.00    -0.218 OA 
ENDROOT
BRANCH   3   5
HETATM    5  O   UNL     1      -9.433  14.188  67.648  1.00  0.00    -0.203 OA 
BRANCH   5   6
HETATM    6  C   UNL     1      -9.184  15.044  68.780  1.00  0.00    -0.200 C  
BRANCH   6   7
HETATM    7  C   UNL     1      -8.974  14.253  70.091  1.00  0.00     1.716 C  
BRANCH   7   8
HETATM    8  N   UNL     1      -8.277  12.960  69.943  1.00  0.00     2.111 NA 
HETATM    9  C   UNL     1      -8.647  12.245  68.701  1.00  0.00     0.020 C  
HETATM   10  C   UNL     1      -8.036  12.835  67.403  1.00  0.00    -0.185 C  
HETATM   11  N   UNL     1      -6.556  12.955  67.413  1.00  0.00    -0.157 NA 
HETATM   12  C   UNL     1      -6.194  13.703  68.642  1.00  0.00    -0.088 C  
HETATM   13  C   UNL     1      -6.806  13.157  69.959  1.00  0.00     0.459 C  
BRANCH  11  14
HETATM   14  C   UNL     1      -5.892  11.617  67.314  1.00  0.00    -0.111 C  
BRANCH  14  15
HETATM   15  C   UNL     1      -5.958  10.844  68.645  1.00  0.00    -0.043 A  
HETATM   16  C   UNL     1      -6.443   9.523  68.666  1.00  0.00    -0.052 A  
HETATM   17  C   UNL     1      -5.457  11.380  69.845  1.00  0.00    -0.075 A  
HETATM   18  C   UNL     1      -6.401   8.761  69.838  1.00  0.00    -0.037 A  
HETATM   19  C   UNL     1      -5.896   9.311  71.013  1.00  0.00    -0.060 A  
HETATM   20  C   UNL     1      -5.436  10.624  71.020  1.00  0.00    -0.088 A  
ENDBRANCH  14  15
BRANCH  14  21
HETATM   21  C   UNL     1      -6.386  10.775  66.125  1.00  0.00    -0.134 A  
HETATM   22  C   UNL     1      -7.316   9.381  63.861  1.00  0.00    -0.105 A  
HETATM   23 CL   UNL     1      -7.901   8.558  62.470  1.00  0.00    -0.134 Cl 
HETATM   24  C   UNL     1      -8.043   9.343  65.047  1.00  0.00    -0.129 A  
HETATM   25  C   UNL     1      -5.658  10.783  64.919  1.00  0.00    -0.046 A  
HETATM   26  C   UNL     1      -7.585  10.042  66.168  1.00  0.00    -0.109 A  
HETATM   27  C   UNL     1      -6.124  10.098  63.792  1.00  0.00    -0.138 A  
ENDBRANCH  14  21
ENDBRANCH  11  14
ENDBRANCH   7   8
ENDBRANCH   6   7
ENDBRANCH   5   6
ENDBRANCH   3   5
TORSDOF 7
ENDMDL
MODEL      215
REMARK 921   NORMALIZED FREE ENERGY PREDICTED BY IDOCK:   20.22 KCAL/MOL
REMARK 922        TOTAL FREE ENERGY PREDICTED BY IDOCK:   27.82 KCAL/MOL
REMARK 923 INTER-LIGAND FREE ENERGY PREDICTED BY IDOCK:    4.70 KCAL/MOL
REMARK 924 INTRA-LIGAND FREE ENERGY PREDICTED BY IDOCK:   23.12 KCAL/MOL
REMARK 927      BINDING AFFINITY PREDICTED BY RF-SCORE:    0.00 PKD
ROOT
HETATM    1  O   UNL     1      -9.411  19.539  66.134  1.00  0.00    -0.365 OA 
HETATM    2  C   UNL     1      -9.572  18.775  67.243  1.00  0.00    -0.303 C  
HETATM    3  C   UNL     1      -8.251  18.446  67.921  1.00  0.00    -0.260 C  
HETATM    4  O   UNL     1     -10.663  18.395  67.644  1.00  0.00    -0.423 OA 
ENDROOT
BRANCH   3   5
HETATM    5  O   UNL     1      -7.150  18.953  67.152  1.00  0.00    -0.203 OA 
BRANCH   5   6
HETATM    6  C   UNL     1      -6.512  20.078  67.789  1.00  0.00    -0.233 C  
BRANCH   6   7
HETATM    7  C   UNL     1      -7.021  20.314  69.229  1.00  0.00    -0.040 C  
BRANCH   7   8
HETATM    8  N   UNL     1      -7.321  19.092  70.000  1.00  0.00     0.370 NA 
HETATM    9  C   UNL     1      -8.272  18.193  69.309  1.00  0.00     0.245 C  
HETATM   10  C   UNL     1      -7.674  17.409  68.111  1.00  0.00    -0.221 C  
HETATM   11  N   UNL     1      -6.470  16.603  68.438  1.00  0.00    -0.132 NA 
HETATM   12  C   UNL     1      -5.506  17.517  69.099  1.00  0.00    -0.177 C  
HETATM   13  C   UNL     1      -6.075  18.338  70.286  1.00  0.00     0.019 C  
BRANCH  11  14
HETATM   14  C   UNL     1      -6.815  15.403  69.265  1.00  0.00    -0.157 C  
BRANCH  14  15
HETATM   15  C   UNL     1      -8.281  15.433  69.737  1.00  0.00    -0.018 A  
HETATM   16  C   UNL     1      -9.323  15.304  68.800  1.00  0.00    -0.210 A  
HETATM   17  C   UNL     1      -8.624  15.491  71.100  1.00  0.00     3.430 A  
HETATM   18  C   UNL     1     -10.655  15.208  69.216  1.00  0.00    -0.253 A  
HETATM   19  C   UNL     1     -10.971  15.264  70.570  1.00  0.00    -0.318 A  
HETATM   20  C   UNL     1      -9.957  15.417  71.511  1.00  0.00     1.977 A  
ENDBRANCH  14  15
BRANCH  14  21
HETATM   21  C   UNL     1      -6.446  14.070  68.591  1.00  0.00    -0.091 A  
HETATM   22  C   UNL     1      -5.922  11.637  67.272  1.00  0.00    -0.112 A  
HETATM   23 CL   UNL     1      -5.637  10.148  66.462  1.00  0.00    -0.045 Cl 
HETATM   24  C   UNL     1      -6.117  11.651  68.649  1.00  0.00    -0.051 A  
HETATM   25  C   UNL     1      -6.228  14.032  67.200  1.00  0.00     0.729 A  
HETATM   26  C   UNL     1      -6.386  12.858  69.303  1.00  0.00    -0.108 A  
HETATM   27  C   UNL     1      -5.977  12.823  66.543  1.00  0.00     1.649 A  
ENDBRANCH  14  21
ENDBRANCH  11  14
ENDBRANCH   7   8
ENDBRANCH   6   7
ENDBRANCH   5   6
ENDBRANCH   3   5
TORSDOF 7
ENDMDL
MODEL      216
REMARK 921   NORMALIZED FREE ENERGY PREDICTED BY IDOCK:   26.29 KCAL/MOL
REMARK 922        TOTAL FREE ENERGY PREDICTED BY IDOCK:   36.37 KCAL/MOL
REMARK 923 INTER-LIGAND FREE ENERGY PREDICTED BY IDOCK:   23.33 KCAL/MOL
REMARK 924 INTRA-LIGAND FREE ENERGY PREDICTED BY IDOCK:   13.04 KCAL/MOL
REMARK 927      BINDING AFFINITY PREDICTED BY RF-SCORE:    0.00 PKD
ROOT
HETATM    1  O   UNL     1     -12.846   9.177  70.658  1.00  0.00     0.042 OA 
HETATM    2  C   UNL     1     -13.208   8.189  69.803  1.00  0.00     3.494 C  
HETATM    3  C   UNL     1     -13.391   8.691  68.378  1.00  0.00    13.426 C  
HETATM    4  O   UNL     1     -13.370   7.028  70.147  1.00  0.00     0.988 OA 
ENDROOT
BRANCH   3   5
HETATM    5  O   UNL     1     -13.225  10.115  68.320  1.00  0.00     4.457 OA 
BRANCH   5   6
HETATM    6  C   UNL     1     -13.482  10.747  69.590  1.00  0.00     1.720 C  
BRANCH   6   7
HETATM    7  C   UNL     1     -12.934  12.190  69.659  1.00  0.00     1.133 C  
BRANCH   7   8
HETATM    8  N   UNL     1     -11.693  12.431  68.898  1.00  0.00    -0.310 NA 
HETATM    9  C   UNL     1     -10.516  11.752  69.485  1.00  0.00     0.290 C  
HETATM   10  C   UNL     1     -10.472  10.218  69.262  1.00  0.00    -0.228 C  
HETATM   11  N   UNL     1     -10.555   9.795  67.842  1.00  0.00    -0.244 NA 
HETATM   12  C   UNL     1     -11.756  10.451  67.267  1.00  0.00     1.068 C  
HETATM   13  C   UNL     1     -11.849  11.983  67.492  1.00  0.00    -0.205 C  
BRANCH  11  14
HETATM   14  C   UNL     1      -9.294  10.106  67.096  1.00  0.00    -0.153 C  
BRANCH  14  15
HETATM   15  C   UNL     1      -9.565  10.963  65.844  1.00  0.00    -0.257 A  
HETATM   16  C   UNL     1     -10.133  10.373  64.699  1.00  0.00    -0.378 A  
HETATM   17  C   UNL     1      -9.351  12.353  65.831  1.00  0.00    -0.066 A  
HETATM   18  C   UNL     1     -10.499  11.152  63.597  1.00  0.00    -0.438 A  
HETATM   19  C   UNL     1     -10.282  12.526  63.608  1.00  0.00    -0.310 A  
HETATM   20  C   UNL     1      -9.697  13.126  64.719  1.00  0.00     0.116 A  
ENDBRANCH  14  15
BRANCH  14  21
HETATM   21  C   UNL     1      -8.190  10.705  67.984  1.00  0.00    -0.113 A  
HETATM   22  C   UNL     1      -6.290  11.832  69.730  1.00  0.00    -0.125 A  
HETATM   23 CL   UNL     1      -5.155  12.540  70.811  1.00  0.00    -0.117 Cl 
HETATM   24  C   UNL     1      -6.574  12.455  68.519  1.00  0.00    -0.073 A  
HETATM   25  C   UNL     1      -7.871  10.084  69.207  1.00  0.00    -0.125 A  
HETATM   26  C   UNL     1      -7.524  11.899  67.656  1.00  0.00    -0.127 A  
HETATM   27  C   UNL     1      -6.934  10.648  70.079  1.00  0.00    -0.131 A  
ENDBRANCH  14  21
ENDBRANCH  11  14
ENDBRANCH   7   8
ENDBRANCH   6   7
ENDBRANCH   5   6
ENDBRANCH   3   5
TORSDOF 7
ENDMDL
MODEL      217
REMARK 921   NORMALIZED FREE ENERGY PREDICTED BY IDOCK:   26.98 KCAL/MOL
REMARK 922        TOTAL FREE ENERGY PREDICTED BY IDOCK:   37.33 KCAL/MOL
REMARK 923 INTER-LIGAND FREE ENERGY PREDICTED BY IDOCK:   19.33 KCAL/MOL
REMARK 924 INTRA-LIGAND FREE ENERGY PREDICTED BY IDOCK:   18.00 KCAL/MOL
REMARK 927      BINDING AFFINITY PREDICTED BY RF-SCORE:    0.00 PKD
ROOT
HETATM    1  O   UNL     1      -7.214  10.760  65.294  1.00  0.00    -0.034 OA 
HETATM    2  C   UNL     1      -6.208   9.931  64.920  1.00  0.00    -0.105 C  
HETATM    3  C   UNL     1      -5.909  10.013  63.431  1.00  0.00    -0.125 C  
HETATM    4  O   UNL     1      -5.613   9.201  65.700  1.00  0.00    -0.044 OA 
ENDROOT
BRANCH   3   5
HETATM    5  O   UNL     1      -6.843  10.886  62.776  1.00  0.00     0.004 OA 
BRANCH   5   6
HETATM    6  C   UNL     1      -7.147  12.051  63.568  1.00  0.00     4.359 C  
BRANCH   6   7
HETATM    7  C   UNL     1      -5.959  12.500  64.449  1.00  0.00     8.558 C  
BRANCH   7   8
HETATM    8  N   UNL     1      -6.327  13.123  65.735  1.00  0.00     4.898 NA 
HETATM    9  C   UNL     1      -7.787  13.305  65.891  1.00  0.00     2.844 C  
HETATM   10  C   UNL     1      -8.578  12.002  66.182  1.00  0.00     0.112 C  
HETATM   11  N   UNL     1      -8.105  11.241  67.366  1.00  0.00    -0.130 NA 
HETATM   12  C   UNL     1      -6.647  11.031  67.187  1.00  0.00    -0.089 C  
HETATM   13  C   UNL     1      -5.825  12.308  66.870  1.00  0.00     0.085 C  
BRANCH  11  14
HETATM   14  C   UNL     1      -8.453  11.936  68.646  1.00  0.00    -0.045 C  
BRANCH  14  15
HETATM   15  C   UNL     1      -7.241  12.035  69.592  1.00  0.00     0.369 A  
HETATM   16  C   UNL     1      -6.702  13.295  69.912  1.00  0.00     0.200 A  
HETATM   17  C   UNL     1      -6.702  10.906  70.235  1.00  0.00     0.010 A  
HETATM   18  C   UNL     1      -5.681  13.420  70.860  1.00  0.00    -0.180 A  
HETATM   19  C   UNL     1      -5.166  12.289  71.486  1.00  0.00    -0.026 A  
HETATM   20  C   UNL     1      -5.668  11.031  71.166  1.00  0.00     0.082 A  
ENDBRANCH  14  15
BRANCH  14  21
HETATM   21  C   UNL     1      -9.144  13.294  68.438  1.00  0.00    -0.137 A  
HETATM   22  C   UNL     1     -10.350  15.830  68.213  1.00  0.00    -0.239 A  
HETATM   23 CL   UNL     1     -11.087  17.379  68.110  1.00  0.00    -0.154 Cl 
HETATM   24  C   UNL     1     -11.142  14.687  68.272  1.00  0.00    -0.283 A  
HETATM   25  C   UNL     1      -8.363  14.464  68.358  1.00  0.00    -0.155 A  
HETATM   26  C   UNL     1     -10.542  13.429  68.392  1.00  0.00    -0.259 A  
HETATM   27  C   UNL     1      -8.962  15.724  68.255  1.00  0.00    -0.182 A  
ENDBRANCH  14  21
ENDBRANCH  11  14
ENDBRANCH   7   8
ENDBRANCH   6   7
ENDBRANCH   5   6
ENDBRANCH   3   5
TORSDOF 7
ENDMDL
MODEL      218
REMARK 921   NORMALIZED FREE ENERGY PREDICTED BY IDOCK:   35.74 KCAL/MOL
REMARK 922        TOTAL FREE ENERGY PREDICTED BY IDOCK:   49.68 KCAL/MOL
REMARK 923 INTER-LIGAND FREE ENERGY PREDICTED BY IDOCK:   43.11 KCAL/MOL
REMARK 924 INTRA-LIGAND FREE ENERGY PREDICTED BY IDOCK:    6.56 KCAL/MOL
REMARK 927      BINDING AFFINITY PREDICTED BY RF-SCORE:    0.00 PKD
ROOT
HETATM    1  O   UNL     1      -9.195   2.344  69.189  1.00  0.00    -0.115 OA 
HETATM    2  C   UNL     1      -9.948   2.422  70.314  1.00  0.00     0.418 C  
HETATM    3  C   UNL     1      -9.789   3.755  71.029  1.00  0.00    -0.134 C  
HETATM    4  O   UNL     1     -10.669   1.515  70.704  1.00  0.00     0.915 OA 
ENDROOT
BRANCH   3   5
HETATM    5  O   UNL     1      -8.799   4.563  70.376  1.00  0.00    -0.083 OA 
BRANCH   5   6
HETATM    6  C   UNL     1      -9.390   5.572  69.533  1.00  0.00    -0.130 C  
BRANCH   6   7
HETATM    7  C   UNL     1      -8.361   6.615  69.042  1.00  0.00    -0.120 C  
BRANCH   7   8
HETATM    8  N   UNL     1      -8.392   7.912  69.746  1.00  0.00    -0.125 NA 
HETATM    9  C   UNL     1      -8.803   9.033  68.870  1.00  0.00    -0.139 C  
HETATM   10  C   UNL     1     -10.315   9.070  68.526  1.00  0.00    -0.203 C  
HETATM   11  N   UNL     1     -11.218   9.084  69.704  1.00  0.00    -0.063 NA 
HETATM   12  C   UNL     1     -10.826   7.938  70.561  1.00  0.00    -0.241 C  
HETATM   13  C   UNL     1      -9.315   7.852  70.907  1.00  0.00    -0.153 C  
BRANCH  11  14
HETATM   14  C   UNL     1     -11.179  10.400  70.418  1.00  0.00    -0.321 C  
BRANCH  14  15
HETATM   15  C   UNL     1     -10.011  10.475  71.419  1.00  0.00     3.419 A  
HETATM   16  C   UNL     1     -10.265  10.755  72.775  1.00  0.00    11.736 A  
HETATM   17  C   UNL     1      -8.688  10.177  71.045  1.00  0.00     1.699 A  
HETATM   18  C   UNL     1      -9.238  10.710  73.722  1.00  0.00    14.897 A  
HETATM   19  C   UNL     1      -7.936  10.408  73.330  1.00  0.00     8.418 A  
HETATM   20  C   UNL     1      -7.659  10.154  71.990  1.00  0.00     3.299 A  
ENDBRANCH  14  15
BRANCH  14  21
HETATM   21  C   UNL     1     -11.213  11.611  69.470  1.00  0.00    -0.282 A  
HETATM   22  C   UNL     1     -11.305  13.929  67.873  1.00  0.00    -0.292 A  
HETATM   23 CL   UNL     1     -11.380  15.360  66.922  1.00  0.00    -0.217 Cl 
HETATM   24  C   UNL     1     -12.283  12.950  67.731  1.00  0.00    -0.042 A  
HETATM   25  C   UNL     1     -10.225  12.608  69.582  1.00  0.00     1.056 A  
HETATM   26  C   UNL     1     -12.242  11.803  68.530  1.00  0.00     0.086 A  
HETATM   27  C   UNL     1     -10.275  13.764  68.795  1.00  0.00    -0.168 A  
ENDBRANCH  14  21
ENDBRANCH  11  14
ENDBRANCH   7   8
ENDBRANCH   6   7
ENDBRANCH   5   6
ENDBRANCH   3   5
TORSDOF 7
ENDMDL
MODEL      219
REMARK 921   NORMALIZED FREE ENERGY PREDICTED BY IDOCK:   38.81 KCAL/MOL
REMARK 922        TOTAL FREE ENERGY PREDICTED BY IDOCK:   54.01 KCAL/MOL
REMARK 923 INTER-LIGAND FREE ENERGY PREDICTED BY IDOCK:   39.71 KCAL/MOL
REMARK 924 INTRA-LIGAND FREE ENERGY PREDICTED BY IDOCK:   14.30 KCAL/MOL
REMARK 927      BINDING AFFINITY PREDICTED BY RF-SCORE:    0.00 PKD
ROOT
HETATM    1  O   UNL     1     -12.088  11.519  62.752  1.00  0.00     0.206 OA 
HETATM    2  C   UNL     1     -12.110  10.240  63.201  1.00  0.00     5.315 C  
HETATM    3  C   UNL     1     -12.841  10.102  64.528  1.00  0.00     9.651 C  
HETATM    4  O   UNL     1     -11.594   9.308  62.601  1.00  0.00     8.373 OA 
ENDROOT
BRANCH   3   5
HETATM    5  O   UNL     1     -13.243  11.389  65.019  1.00  0.00     1.968 OA 
BRANCH   5   6
HETATM    6  C   UNL     1     -12.752  12.465  64.195  1.00  0.00    -0.347 C  
BRANCH   6   7
HETATM    7  C   UNL     1     -13.026  13.857  64.807  1.00  0.00     0.065 C  
BRANCH   7   8
HETATM    8  N   UNL     1     -11.846  14.543  65.367  1.00  0.00    -0.356 NA 
HETATM    9  C   UNL     1     -12.203  15.638  66.297  1.00  0.00     1.159 C  
HETATM   10  C   UNL     1     -12.715  15.173  67.685  1.00  0.00     1.533 C  
HETATM   11  N   UNL     1     -11.793  14.266  68.414  1.00  0.00    -0.339 NA 
HETATM   12  C   UNL     1     -11.466  13.152  67.490  1.00  0.00    -0.328 C  
HETATM   13  C   UNL     1     -10.973  13.578  66.082  1.00  0.00    -0.284 C  
BRANCH  11  14
HETATM   14  C   UNL     1     -10.585  14.993  68.919  1.00  0.00    -0.242 C  
BRANCH  14  15
HETATM   15  C   UNL     1      -9.846  15.732  67.788  1.00  0.00    -0.224 A  
HETATM   16  C   UNL     1     -10.393  15.758  66.492  1.00  0.00    -0.298 A  
HETATM   17  C   UNL     1      -8.674  16.474  68.023  1.00  0.00    -0.189 A  
HETATM   18  C   UNL     1      -9.804  16.522  65.479  1.00  0.00    -0.059 A  
HETATM   19  C   UNL     1      -8.647  17.252  65.736  1.00  0.00     0.212 A  
HETATM   20  C   UNL     1      -8.075  17.218  67.004  1.00  0.00    -0.237 A  
ENDBRANCH  14  15
BRANCH  14  21
HETATM   21  C   UNL     1     -10.880  15.909  70.119  1.00  0.00    -0.359 A  
HETATM   22  C   UNL     1     -11.359  17.461  72.420  1.00  0.00     1.611 A  
HETATM   23 CL   UNL     1     -11.654  18.379  73.844  1.00  0.00     1.184 Cl 
HETATM   24  C   UNL     1     -12.428  17.021  71.646  1.00  0.00     3.009 A  
HETATM   25  C   UNL     1      -9.815  16.381  70.910  1.00  0.00     2.327 A  
HETATM   26  C   UNL     1     -12.190  16.243  70.508  1.00  0.00     0.273 A  
HETATM   27  C   UNL     1     -10.052  17.145  72.058  1.00  0.00     6.084 A  
ENDBRANCH  14  21
ENDBRANCH  11  14
ENDBRANCH   7   8
ENDBRANCH   6   7
ENDBRANCH   5   6
ENDBRANCH   3   5
TORSDOF 7
ENDMDL
MODEL      220
REMARK 921   NORMALIZED FREE ENERGY PREDICTED BY IDOCK:   45.26 KCAL/MOL
REMARK 922        TOTAL FREE ENERGY PREDICTED BY IDOCK:   63.10 KCAL/MOL
REMARK 923 INTER-LIGAND FREE ENERGY PREDICTED BY IDOCK:   43.52 KCAL/MOL
REMARK 924 INTRA-LIGAND FREE ENERGY PREDICTED BY IDOCK:   19.57 KCAL/MOL
REMARK 927      BINDING AFFINITY PREDICTED BY RF-SCORE:    0.00 PKD
ROOT
HETATM    1  O   UNL     1     -11.023  19.036  66.571  1.00  0.00    -0.266 OA 
HETATM    2  C   UNL     1     -10.072  18.196  66.091  1.00  0.00    -0.336 C  
HETATM    3  C   UNL     1     -10.559  17.387  64.899  1.00  0.00     0.673 C  
HETATM    4  O   UNL     1      -8.952  18.106  66.570  1.00  0.00    -0.276 OA 
ENDROOT
BRANCH   3   5
HETATM    5  O   UNL     1     -11.947  17.650  64.643  1.00  0.00     1.581 OA 
BRANCH   5   6
HETATM    6  C   UNL     1     -12.801  17.134  65.683  1.00  0.00     7.709 C  
BRANCH   6   7
HETATM    7  C   UNL     1     -12.070  16.141  66.615  1.00  0.00     1.607 C  
BRANCH   7   8
HETATM    8  N   UNL     1     -10.664  16.474  66.914  1.00  0.00    -0.235 NA 
HETATM    9  C   UNL     1     -10.521  17.371  68.083  1.00  0.00    -0.389 C  
HETATM   10  C   UNL     1     -10.755  16.692  69.457  1.00  0.00    -0.306 C  
HETATM   11  N   UNL     1      -9.906  15.502  69.714  1.00  0.00    -0.287 NA 
HETATM   12  C   UNL     1     -10.080  14.591  68.556  1.00  0.00    -0.242 C  
HETATM   13  C   UNL     1      -9.878  15.240  67.162  1.00  0.00    -0.224 C  
BRANCH  11  14
HETATM   14  C   UNL     1      -8.478  15.883  69.960  1.00  0.00     0.693 C  
BRANCH  14  15
HETATM   15  C   UNL     1      -7.627  15.775  68.681  1.00  0.00    -0.150 A  
HETATM   16  C   UNL     1      -7.635  14.584  67.931  1.00  0.00    -0.153 A  
HETATM   17  C   UNL     1      -6.903  16.869  68.173  1.00  0.00    -0.164 A  
HETATM   18  C   UNL     1      -6.967  14.504  66.705  1.00  0.00     1.765 A  
HETATM   19  C   UNL     1      -6.261  15.601  66.219  1.00  0.00     2.662 A  
HETATM   20  C   UNL     1      -6.218  16.779  66.958  1.00  0.00    -0.221 A  
ENDBRANCH  14  15
BRANCH  14  21
HETATM   21  C   UNL     1      -8.320  17.247  70.653  1.00  0.00     4.765 A  
HETATM   22  C   UNL     1      -7.969  19.808  71.771  1.00  0.00     2.903 A  
HETATM   23 CL   UNL     1      -7.730  21.378  72.430  1.00  0.00     4.743 Cl 
HETATM   24  C   UNL     1      -7.213  18.738  72.238  1.00  0.00     5.329 A  
HETATM   25  C   UNL     1      -9.086  18.343  70.210  1.00  0.00     2.547 A  
HETATM   26  C   UNL     1      -7.381  17.468  71.676  1.00  0.00     7.613 A  
HETATM   27  C   UNL     1      -8.906  19.617  70.759  1.00  0.00     2.183 A  
ENDBRANCH  14  21
ENDBRANCH  11  14
ENDBRANCH   7   8
ENDBRANCH   6   7
ENDBRANCH   5   6
ENDBRANCH   3   5
TORSDOF 7
ENDMDL
