MODEL        1
REMARK 921   NORMALIZED FREE ENERGY PREDICTED BY IDOCK:   -4.41 KCAL/MOL
REMARK 922        TOTAL FREE ENERGY PREDICTED BY IDOCK:   -9.96 KCAL/MOL
REMARK 923 INTER-LIGAND FREE ENERGY PREDICTED BY IDOCK:   -8.27 KCAL/MOL
REMARK 924 INTRA-LIGAND FREE ENERGY PREDICTED BY IDOCK:   -1.69 KCAL/MOL
REMARK 927      BINDING AFFINITY PREDICTED BY RF-SCORE:    0.00 PKD
ROOT
HETATM    1  C   UNL     1     -12.517  15.343  73.969  1.00  0.00    -0.780 C  
HETATM    2  C   UNL     1     -13.517  15.956  73.003  1.00  0.00    -0.653 C  
ENDROOT
BRANCH   2   3
HETATM    3  C   UNL     1     -13.981  14.931  71.974  1.00  0.00    -0.591 C  
BRANCH   3   4
HETATM    4  C   UNL     1     -12.898  14.670  70.933  1.00  0.00    -0.427 C  
BRANCH   4   5
HETATM    5  C   UNL     1     -12.538  13.189  70.892  1.00  0.00    -0.377 C  
BRANCH   5   6
HETATM    6  C   UNL     1     -13.367  12.406  71.900  1.00  0.00    -0.450 C  
BRANCH   6   7
HETATM    7  C   UNL     1     -13.057  10.917  71.809  1.00  0.00    -0.564 C  
BRANCH   7   8
HETATM    8  C   UNL     1     -12.259  10.622  70.548  1.00  0.00    -0.449 C  
BRANCH   8   9
HETATM    9  C   UNL     1     -11.110   9.673  70.850  1.00  0.00    -0.422 C  
BRANCH   9  10
HETATM   10  C   UNL     1     -10.264   9.469  69.601  1.00  0.00    -0.234 C  
BRANCH  10  11
HETATM   11  C   UNL     1     -11.048   9.854  68.359  1.00  0.00    -0.193 C  
BRANCH  11  12
HETATM   12  C   UNL     1     -10.106  10.196  67.212  1.00  0.00    -0.254 C  
BRANCH  12  13
HETATM   13  C   UNL     1     -10.654  11.388  66.447  1.00  0.00    -0.311 C  
BRANCH  13  14
HETATM   14  C   UNL     1     -11.596  12.227  67.304  1.00  0.00    -0.427 C  
BRANCH  14  15
HETATM   15  C   UNL     1     -12.046  13.498  66.580  1.00  0.00    -0.460 C  
BRANCH  15  16
HETATM   16  C   UNL     1     -11.496  14.761  67.250  1.00  0.00    -0.366 C  
BRANCH  16  17
HETATM   17  N   UNL     1     -10.484  15.531  66.393  1.00  0.00    -0.298 N  
HETATM   18  C   UNL     1      -9.105  14.895  66.458  1.00  0.00    -0.277 C  
HETATM   19  C   UNL     1     -10.395  16.952  66.960  1.00  0.00    -0.307 C  
HETATM   20  C   UNL     1     -10.949  15.627  64.944  1.00  0.00    -0.431 C  
ENDBRANCH  16  17
ENDBRANCH  15  16
ENDBRANCH  14  15
ENDBRANCH  13  14
ENDBRANCH  12  13
ENDBRANCH  11  12
ENDBRANCH  10  11
ENDBRANCH   9  10
ENDBRANCH   8   9
ENDBRANCH   7   8
ENDBRANCH   6   7
ENDBRANCH   5   6
ENDBRANCH   4   5
ENDBRANCH   3   4
ENDBRANCH   2   3
TORSDOF 15
ENDMDL
MODEL        2
REMARK 921   NORMALIZED FREE ENERGY PREDICTED BY IDOCK:   -4.38 KCAL/MOL
REMARK 922        TOTAL FREE ENERGY PREDICTED BY IDOCK:   -9.92 KCAL/MOL
REMARK 923 INTER-LIGAND FREE ENERGY PREDICTED BY IDOCK:   -8.49 KCAL/MOL
REMARK 924 INTRA-LIGAND FREE ENERGY PREDICTED BY IDOCK:   -1.43 KCAL/MOL
REMARK 927      BINDING AFFINITY PREDICTED BY RF-SCORE:    0.00 PKD
ROOT
HETATM    1  C   UNL     1     -11.066   6.164  69.239  1.00  0.00    -0.463 C  
HETATM    2  C   UNL     1     -10.683   7.560  69.701  1.00  0.00    -0.236 C  
ENDROOT
BRANCH   2   3
HETATM    3  C   UNL     1     -10.614   7.632  71.223  1.00  0.00    -0.237 C  
BRANCH   3   4
HETATM    4  C   UNL     1     -11.066   8.998  71.728  1.00  0.00    -0.444 C  
BRANCH   4   5
HETATM    5  C   UNL     1     -12.543   8.970  72.104  1.00  0.00    -0.461 C  
BRANCH   5   6
HETATM    6  C   UNL     1     -13.194  10.318  71.827  1.00  0.00    -0.534 C  
BRANCH   6   7
HETATM    7  C   UNL     1     -12.395  11.097  70.790  1.00  0.00    -0.504 C  
BRANCH   7   8
HETATM    8  C   UNL     1     -12.617  12.591  70.969  1.00  0.00    -0.350 C  
BRANCH   8   9
HETATM    9  C   UNL     1     -13.592  12.857  72.105  1.00  0.00    -0.589 C  
BRANCH   9  10
HETATM   10  C   UNL     1     -13.546  14.328  72.495  1.00  0.00    -0.620 C  
BRANCH  10  11
HETATM   11  C   UNL     1     -13.242  15.190  71.283  1.00  0.00    -0.536 C  
BRANCH  11  12
HETATM   12  C   UNL     1     -12.003  16.041  71.524  1.00  0.00    -0.539 C  
BRANCH  12  13
HETATM   13  C   UNL     1     -11.093  15.963  70.310  1.00  0.00    -0.381 C  
BRANCH  13  14
HETATM   14  C   UNL     1     -11.877  15.689  69.031  1.00  0.00    -0.379 C  
BRANCH  14  15
HETATM   15  C   UNL     1     -11.073  14.846  68.038  1.00  0.00    -0.301 C  
BRANCH  15  16
HETATM   16  C   UNL     1     -11.975  13.929  67.207  1.00  0.00    -0.411 C  
BRANCH  16  17
HETATM   17  N   UNL     1     -11.443  13.645  65.797  1.00  0.00    -0.310 N  
HETATM   18  C   UNL     1     -11.190  14.931  65.029  1.00  0.00    -0.404 C  
HETATM   19  C   UNL     1     -12.517  12.837  65.060  1.00  0.00    -0.506 C  
HETATM   20  C   UNL     1     -10.171  12.805  65.847  1.00  0.00    -0.287 C  
ENDBRANCH  16  17
ENDBRANCH  15  16
ENDBRANCH  14  15
ENDBRANCH  13  14
ENDBRANCH  12  13
ENDBRANCH  11  12
ENDBRANCH  10  11
ENDBRANCH   9  10
ENDBRANCH   8   9
ENDBRANCH   7   8
ENDBRANCH   6   7
ENDBRANCH   5   6
ENDBRANCH   4   5
ENDBRANCH   3   4
ENDBRANCH   2   3
TORSDOF 15
ENDMDL
MODEL        3
REMARK 921   NORMALIZED FREE ENERGY PREDICTED BY IDOCK:   -4.35 KCAL/MOL
REMARK 922        TOTAL FREE ENERGY PREDICTED BY IDOCK:   -9.86 KCAL/MOL
REMARK 923 INTER-LIGAND FREE ENERGY PREDICTED BY IDOCK:   -8.33 KCAL/MOL
REMARK 924 INTRA-LIGAND FREE ENERGY PREDICTED BY IDOCK:   -1.53 KCAL/MOL
REMARK 927      BINDING AFFINITY PREDICTED BY RF-SCORE:    0.00 PKD
ROOT
HETATM    1  C   UNL     1     -12.093  12.874  63.545  1.00  0.00    -0.633 C  
HETATM    2  C   UNL     1     -11.350  13.325  64.791  1.00  0.00    -0.350 C  
ENDROOT
BRANCH   2   3
HETATM    3  C   UNL     1     -12.310  13.521  65.959  1.00  0.00    -0.486 C  
BRANCH   3   4
HETATM    4  C   UNL     1     -11.741  12.928  67.244  1.00  0.00    -0.431 C  
BRANCH   4   5
HETATM    5  C   UNL     1     -11.222  11.515  66.999  1.00  0.00    -0.365 C  
BRANCH   5   6
HETATM    6  C   UNL     1     -11.304  10.684  68.272  1.00  0.00    -0.357 C  
BRANCH   6   7
HETATM    7  C   UNL     1     -11.923  11.495  69.403  1.00  0.00    -0.392 C  
BRANCH   7   8
HETATM    8  C   UNL     1     -12.373  10.573  70.526  1.00  0.00    -0.432 C  
BRANCH   8   9
HETATM    9  C   UNL     1     -13.003  11.372  71.656  1.00  0.00    -0.523 C  
BRANCH   9  10
HETATM   10  C   UNL     1     -12.926  12.860  71.346  1.00  0.00    -0.362 C  
BRANCH  10  11
HETATM   11  C   UNL     1     -13.641  13.664  72.417  1.00  0.00    -0.703 C  
BRANCH  11  12
HETATM   12  C   UNL     1     -13.539  15.156  72.128  1.00  0.00    -0.558 C  
BRANCH  12  13
HETATM   13  C   UNL     1     -12.928  15.364  70.754  1.00  0.00    -0.510 C  
BRANCH  13  14
HETATM   14  C   UNL     1     -11.565  16.043  70.836  1.00  0.00    -0.453 C  
BRANCH  14  15
HETATM   15  C   UNL     1     -10.696  15.728  69.617  1.00  0.00    -0.292 C  
BRANCH  15  16
HETATM   16  C   UNL     1     -10.943  16.712  68.470  1.00  0.00    -0.339 C  
BRANCH  16  17
HETATM   17  N   UNL     1      -9.700  17.006  67.622  1.00  0.00    -0.253 N  
HETATM   18  C   UNL     1      -8.594  17.632  68.457  1.00  0.00    -0.285 C  
HETATM   19  C   UNL     1     -10.115  18.004  66.535  1.00  0.00    -0.379 C  
HETATM   20  C   UNL     1      -9.188  15.744  66.937  1.00  0.00    -0.229 C  
ENDBRANCH  16  17
ENDBRANCH  15  16
ENDBRANCH  14  15
ENDBRANCH  13  14
ENDBRANCH  12  13
ENDBRANCH  11  12
ENDBRANCH  10  11
ENDBRANCH   9  10
ENDBRANCH   8   9
ENDBRANCH   7   8
ENDBRANCH   6   7
ENDBRANCH   5   6
ENDBRANCH   4   5
ENDBRANCH   3   4
ENDBRANCH   2   3
TORSDOF 15
ENDMDL
MODEL        4
REMARK 921   NORMALIZED FREE ENERGY PREDICTED BY IDOCK:   -4.30 KCAL/MOL
REMARK 922        TOTAL FREE ENERGY PREDICTED BY IDOCK:   -9.77 KCAL/MOL
REMARK 923 INTER-LIGAND FREE ENERGY PREDICTED BY IDOCK:   -8.04 KCAL/MOL
REMARK 924 INTRA-LIGAND FREE ENERGY PREDICTED BY IDOCK:   -1.73 KCAL/MOL
REMARK 927      BINDING AFFINITY PREDICTED BY RF-SCORE:    0.00 PKD
ROOT
HETATM    1  C   UNL     1     -12.532  15.521  74.112  1.00  0.00    -0.805 C  
HETATM    2  C   UNL     1     -13.465  15.960  72.997  1.00  0.00    -0.653 C  
ENDROOT
BRANCH   2   3
HETATM    3  C   UNL     1     -13.796  14.794  72.071  1.00  0.00    -0.548 C  
BRANCH   3   4
HETATM    4  C   UNL     1     -12.622  14.472  71.153  1.00  0.00    -0.406 C  
BRANCH   4   5
HETATM    5  C   UNL     1     -12.497  12.966  70.948  1.00  0.00    -0.383 C  
BRANCH   5   6
HETATM    6  C   UNL     1     -13.340  12.213  71.967  1.00  0.00    -0.470 C  
BRANCH   6   7
HETATM    7  C   UNL     1     -13.023  10.724  71.931  1.00  0.00    -0.524 C  
BRANCH   7   8
HETATM    8  C   UNL     1     -12.114  10.408  70.752  1.00  0.00    -0.463 C  
BRANCH   8   9
HETATM    9  C   UNL     1     -10.952   9.532  71.190  1.00  0.00    -0.438 C  
BRANCH   9  10
HETATM   10  C   UNL     1      -9.721   9.845  70.351  1.00  0.00    -0.151 C  
BRANCH  10  11
HETATM   11  C   UNL     1     -10.114  10.585  69.086  1.00  0.00    -0.240 C  
BRANCH  11  12
HETATM   12  C   UNL     1      -8.949  11.415  68.562  1.00  0.00    -0.158 C  
BRANCH  12  13
HETATM   13  C   UNL     1      -9.442  12.340  67.463  1.00  0.00    -0.182 C  
BRANCH  13  14
HETATM   14  C   UNL     1     -10.704  13.089  67.877  1.00  0.00    -0.249 C  
BRANCH  14  15
HETATM   15  C   UNL     1     -11.811  12.966  66.826  1.00  0.00    -0.452 C  
BRANCH  15  16
HETATM   16  C   UNL     1     -11.441  11.970  65.724  1.00  0.00    -0.320 C  
BRANCH  16  17
HETATM   17  N   UNL     1     -11.521  12.552  64.307  1.00  0.00    -0.338 N  
HETATM   18  C   UNL     1     -12.647  11.916  63.508  1.00  0.00    -0.459 C  
HETATM   19  C   UNL     1     -10.191  12.239  63.611  1.00  0.00    -0.403 C  
HETATM   20  C   UNL     1     -11.692  14.066  64.342  1.00  0.00    -0.397 C  
ENDBRANCH  16  17
ENDBRANCH  15  16
ENDBRANCH  14  15
ENDBRANCH  13  14
ENDBRANCH  12  13
ENDBRANCH  11  12
ENDBRANCH  10  11
ENDBRANCH   9  10
ENDBRANCH   8   9
ENDBRANCH   7   8
ENDBRANCH   6   7
ENDBRANCH   5   6
ENDBRANCH   4   5
ENDBRANCH   3   4
ENDBRANCH   2   3
TORSDOF 15
ENDMDL
MODEL        5
REMARK 921   NORMALIZED FREE ENERGY PREDICTED BY IDOCK:   -4.28 KCAL/MOL
REMARK 922        TOTAL FREE ENERGY PREDICTED BY IDOCK:   -9.73 KCAL/MOL
REMARK 923 INTER-LIGAND FREE ENERGY PREDICTED BY IDOCK:   -7.56 KCAL/MOL
REMARK 924 INTRA-LIGAND FREE ENERGY PREDICTED BY IDOCK:   -2.17 KCAL/MOL
REMARK 927      BINDING AFFINITY PREDICTED BY RF-SCORE:    0.00 PKD
ROOT
HETATM    1  C   UNL     1     -12.432  12.111  70.835  1.00  0.00    -0.374 C  
HETATM    2  C   UNL     1     -12.449  13.595  70.509  1.00  0.00    -0.394 C  
ENDROOT
BRANCH   2   3
HETATM    3  C   UNL     1     -11.427  13.928  69.426  1.00  0.00    -0.334 C  
BRANCH   3   4
HETATM    4  C   UNL     1     -11.769  13.227  68.116  1.00  0.00    -0.397 C  
BRANCH   4   5
HETATM    5  C   UNL     1     -10.642  12.288  67.699  1.00  0.00    -0.238 C  
BRANCH   5   6
HETATM    6  C   UNL     1     -11.169  10.876  67.486  1.00  0.00    -0.364 C  
BRANCH   6   7
HETATM    7  C   UNL     1     -10.207  10.068  66.623  1.00  0.00    -0.288 C  
BRANCH   7   8
HETATM    8  C   UNL     1      -9.557  10.964  65.580  1.00  0.00    -0.268 C  
BRANCH   8   9
HETATM    9  C   UNL     1     -10.182  10.737  64.213  1.00  0.00    -0.422 C  
BRANCH   9  10
HETATM   10  C   UNL     1     -10.536  12.073  63.575  1.00  0.00    -0.505 C  
BRANCH  10  11
HETATM   11  C   UNL     1     -11.984  12.430  63.856  1.00  0.00    -0.572 C  
BRANCH  11  12
HETATM   12  C   UNL     1     -12.083  13.797  64.520  1.00  0.00    -0.463 C  
BRANCH  12  13
HETATM   13  C   UNL     1     -10.688  14.360  64.728  1.00  0.00    -0.423 C  
BRANCH  13  14
HETATM   14  C   UNL     1     -10.724  15.827  65.145  1.00  0.00    -0.455 C  
BRANCH  14  15
HETATM   15  C   UNL     1      -9.831  16.097  66.358  1.00  0.00    -0.304 C  
BRANCH  15  16
HETATM   16  C   UNL     1     -10.447  17.137  67.298  1.00  0.00    -0.313 C  
BRANCH  16  17
HETATM   17  N   UNL     1      -9.714  18.484  67.303  1.00  0.00    -0.293 N  
HETATM   18  C   UNL     1      -9.768  19.141  68.672  1.00  0.00    -0.417 C  
HETATM   19  C   UNL     1     -10.428  19.394  66.296  1.00  0.00    -0.493 C  
HETATM   20  C   UNL     1      -8.266  18.326  66.854  1.00  0.00    -0.247 C  
ENDBRANCH  16  17
ENDBRANCH  15  16
ENDBRANCH  14  15
ENDBRANCH  13  14
ENDBRANCH  12  13
ENDBRANCH  11  12
ENDBRANCH  10  11
ENDBRANCH   9  10
ENDBRANCH   8   9
ENDBRANCH   7   8
ENDBRANCH   6   7
ENDBRANCH   5   6
ENDBRANCH   4   5
ENDBRANCH   3   4
ENDBRANCH   2   3
TORSDOF 15
ENDMDL
MODEL        6
REMARK 921   NORMALIZED FREE ENERGY PREDICTED BY IDOCK:   -4.28 KCAL/MOL
REMARK 922        TOTAL FREE ENERGY PREDICTED BY IDOCK:   -9.73 KCAL/MOL
REMARK 923 INTER-LIGAND FREE ENERGY PREDICTED BY IDOCK:   -7.46 KCAL/MOL
REMARK 924 INTRA-LIGAND FREE ENERGY PREDICTED BY IDOCK:   -2.27 KCAL/MOL
REMARK 927      BINDING AFFINITY PREDICTED BY RF-SCORE:    0.00 PKD
ROOT
HETATM    1  C   UNL     1     -11.452  14.498  65.278  1.00  0.00    -0.355 C  
HETATM    2  C   UNL     1     -12.577  13.478  65.275  1.00  0.00    -0.517 C  
ENDROOT
BRANCH   2   3
HETATM    3  C   UNL     1     -12.346  12.412  64.209  1.00  0.00    -0.544 C  
BRANCH   3   4
HETATM    4  C   UNL     1     -10.896  12.415  63.736  1.00  0.00    -0.500 C  
BRANCH   4   5
HETATM    5  C   UNL     1     -10.316  11.005  63.772  1.00  0.00    -0.427 C  
BRANCH   5   6
HETATM    6  C   UNL     1     -10.148  10.529  65.208  1.00  0.00    -0.369 C  
BRANCH   6   7
HETATM    7  C   UNL     1      -9.230  11.468  65.981  1.00  0.00    -0.229 C  
BRANCH   7   8
HETATM    8  C   UNL     1      -9.761  11.680  67.390  1.00  0.00    -0.186 C  
BRANCH   8   9
HETATM    9  C   UNL     1     -11.068  10.929  67.590  1.00  0.00    -0.376 C  
BRANCH   9  10
HETATM   10  C   UNL     1     -11.909  11.624  68.652  1.00  0.00    -0.370 C  
BRANCH  10  11
HETATM   11  C   UNL     1     -11.571  13.102  68.714  1.00  0.00    -0.348 C  
BRANCH  11  12
HETATM   12  C   UNL     1     -12.185  13.743  69.952  1.00  0.00    -0.383 C  
BRANCH  12  13
HETATM   13  C   UNL     1     -11.849  15.224  69.971  1.00  0.00    -0.365 C  
BRANCH  13  14
HETATM   14  C   UNL     1     -11.599  15.768  68.568  1.00  0.00    -0.367 C  
BRANCH  14  15
HETATM   15  C   UNL     1     -10.301  16.575  68.492  1.00  0.00    -0.289 C  
BRANCH  15  16
HETATM   16  C   UNL     1     -10.198  17.367  67.186  1.00  0.00    -0.323 C  
BRANCH  16  17
HETATM   17  N   UNL     1      -9.653  18.789  67.361  1.00  0.00    -0.302 N  
HETATM   18  C   UNL     1      -8.158  18.848  67.091  1.00  0.00    -0.264 C  
HETATM   19  C   UNL     1      -9.902  19.196  68.818  1.00  0.00    -0.439 C  
HETATM   20  C   UNL     1     -10.387  19.777  66.461  1.00  0.00    -0.506 C  
ENDBRANCH  16  17
ENDBRANCH  15  16
ENDBRANCH  14  15
ENDBRANCH  13  14
ENDBRANCH  12  13
ENDBRANCH  11  12
ENDBRANCH  10  11
ENDBRANCH   9  10
ENDBRANCH   8   9
ENDBRANCH   7   8
ENDBRANCH   6   7
ENDBRANCH   5   6
ENDBRANCH   4   5
ENDBRANCH   3   4
ENDBRANCH   2   3
TORSDOF 15
ENDMDL
MODEL        7
REMARK 921   NORMALIZED FREE ENERGY PREDICTED BY IDOCK:   -4.28 KCAL/MOL
REMARK 922        TOTAL FREE ENERGY PREDICTED BY IDOCK:   -9.72 KCAL/MOL
REMARK 923 INTER-LIGAND FREE ENERGY PREDICTED BY IDOCK:   -8.19 KCAL/MOL
REMARK 924 INTRA-LIGAND FREE ENERGY PREDICTED BY IDOCK:   -1.53 KCAL/MOL
REMARK 927      BINDING AFFINITY PREDICTED BY RF-SCORE:    0.00 PKD
ROOT
HETATM    1  C   UNL     1     -12.380  15.269  74.380  1.00  0.00    -0.710 C  
HETATM    2  C   UNL     1     -12.995  15.990  73.193  1.00  0.00    -0.627 C  
ENDROOT
BRANCH   2   3
HETATM    3  C   UNL     1     -12.035  16.010  72.008  1.00  0.00    -0.622 C  
BRANCH   3   4
HETATM    4  C   UNL     1     -12.637  15.295  70.803  1.00  0.00    -0.474 C  
BRANCH   4   5
HETATM    5  C   UNL     1     -12.961  13.845  71.145  1.00  0.00    -0.388 C  
BRANCH   5   6
HETATM    6  C   UNL     1     -12.093  12.894  70.333  1.00  0.00    -0.385 C  
BRANCH   6   7
HETATM    7  C   UNL     1     -11.391  13.639  69.205  1.00  0.00    -0.335 C  
BRANCH   7   8
HETATM    8  C   UNL     1     -11.886  13.139  67.856  1.00  0.00    -0.390 C  
BRANCH   8   9
HETATM    9  C   UNL     1     -11.127  11.891  67.435  1.00  0.00    -0.336 C  
BRANCH   9  10
HETATM   10  C   UNL     1     -11.056  11.815  65.916  1.00  0.00    -0.355 C  
BRANCH  10  11
HETATM   11  C   UNL     1     -12.269  12.482  65.293  1.00  0.00    -0.493 C  
BRANCH  11  12
HETATM   12  C   UNL     1     -11.844  13.497  64.241  1.00  0.00    -0.471 C  
BRANCH  12  13
HETATM   13  C   UNL     1     -10.536  14.145  64.663  1.00  0.00    -0.391 C  
BRANCH  13  14
HETATM   14  C   UNL     1     -10.740  15.581  65.133  1.00  0.00    -0.460 C  
BRANCH  14  15
HETATM   15  C   UNL     1      -9.892  15.904  66.365  1.00  0.00    -0.302 C  
BRANCH  15  16
HETATM   16  C   UNL     1      -9.600  17.403  66.479  1.00  0.00    -0.280 C  
BRANCH  16  17
HETATM   17  N   UNL     1      -9.280  17.869  67.905  1.00  0.00    -0.258 N  
HETATM   18  C   UNL     1     -10.382  17.478  68.876  1.00  0.00    -0.338 C  
HETATM   19  C   UNL     1      -9.178  19.398  67.872  1.00  0.00    -0.320 C  
HETATM   20  C   UNL     1      -7.942  17.314  68.379  1.00  0.00    -0.253 C  
ENDBRANCH  16  17
ENDBRANCH  15  16
ENDBRANCH  14  15
ENDBRANCH  13  14
ENDBRANCH  12  13
ENDBRANCH  11  12
ENDBRANCH  10  11
ENDBRANCH   9  10
ENDBRANCH   8   9
ENDBRANCH   7   8
ENDBRANCH   6   7
ENDBRANCH   5   6
ENDBRANCH   4   5
ENDBRANCH   3   4
ENDBRANCH   2   3
TORSDOF 15
ENDMDL
MODEL        8
REMARK 921   NORMALIZED FREE ENERGY PREDICTED BY IDOCK:   -4.27 KCAL/MOL
REMARK 922        TOTAL FREE ENERGY PREDICTED BY IDOCK:   -9.71 KCAL/MOL
REMARK 923 INTER-LIGAND FREE ENERGY PREDICTED BY IDOCK:   -7.96 KCAL/MOL
REMARK 924 INTRA-LIGAND FREE ENERGY PREDICTED BY IDOCK:   -1.75 KCAL/MOL
REMARK 927      BINDING AFFINITY PREDICTED BY RF-SCORE:    0.00 PKD
ROOT
HETATM    1  C   UNL     1     -11.267  10.547  70.102  1.00  0.00    -0.389 C  
HETATM    2  C   UNL     1     -12.001   9.950  71.291  1.00  0.00    -0.489 C  
ENDROOT
BRANCH   2   3
HETATM    3  C   UNL     1     -13.139  10.859  71.742  1.00  0.00    -0.564 C  
BRANCH   3   4
HETATM    4  C   UNL     1     -12.783  12.328  71.534  1.00  0.00    -0.339 C  
BRANCH   4   5
HETATM    5  C   UNL     1     -13.760  13.229  72.282  1.00  0.00    -0.686 C  
BRANCH   5   6
HETATM    6  C   UNL     1     -13.431  14.695  72.041  1.00  0.00    -0.476 C  
BRANCH   6   7
HETATM    7  C   UNL     1     -11.923  14.908  72.001  1.00  0.00    -0.428 C  
BRANCH   7   8
HETATM    8  C   UNL     1     -11.572  16.002  71.006  1.00  0.00    -0.472 C  
BRANCH   8   9
HETATM    9  C   UNL     1     -11.947  15.583  69.593  1.00  0.00    -0.380 C  
BRANCH   9  10
HETATM   10  C   UNL     1     -11.048  14.444  69.134  1.00  0.00    -0.290 C  
BRANCH  10  11
HETATM   11  C   UNL     1     -11.797  13.523  68.190  1.00  0.00    -0.400 C  
BRANCH  11  12
HETATM   12  C   UNL     1     -11.804  14.090  66.776  1.00  0.00    -0.450 C  
BRANCH  12  13
HETATM   13  C   UNL     1     -10.408  14.568  66.417  1.00  0.00    -0.296 C  
BRANCH  13  14
HETATM   14  C   UNL     1     -10.442  15.709  65.406  1.00  0.00    -0.435 C  
BRANCH  14  15
HETATM   15  C   UNL     1     -10.409  17.078  66.089  1.00  0.00    -0.326 C  
BRANCH  15  16
HETATM   16  C   UNL     1      -9.359  17.134  67.202  1.00  0.00    -0.245 C  
BRANCH  16  17
HETATM   17  N   UNL     1      -9.037  18.554  67.684  1.00  0.00    -0.279 N  
HETATM   18  C   UNL     1      -9.170  19.566  66.557  1.00  0.00    -0.365 C  
HETATM   19  C   UNL     1      -7.583  18.552  68.169  1.00  0.00    -0.274 C  
HETATM   20  C   UNL     1      -9.927  18.954  68.855  1.00  0.00    -0.378 C  
ENDBRANCH  16  17
ENDBRANCH  15  16
ENDBRANCH  14  15
ENDBRANCH  13  14
ENDBRANCH  12  13
ENDBRANCH  11  12
ENDBRANCH  10  11
ENDBRANCH   9  10
ENDBRANCH   8   9
ENDBRANCH   7   8
ENDBRANCH   6   7
ENDBRANCH   5   6
ENDBRANCH   4   5
ENDBRANCH   3   4
ENDBRANCH   2   3
TORSDOF 15
ENDMDL
MODEL        9
REMARK 921   NORMALIZED FREE ENERGY PREDICTED BY IDOCK:   -4.25 KCAL/MOL
REMARK 922        TOTAL FREE ENERGY PREDICTED BY IDOCK:   -9.67 KCAL/MOL
REMARK 923 INTER-LIGAND FREE ENERGY PREDICTED BY IDOCK:   -7.84 KCAL/MOL
REMARK 924 INTRA-LIGAND FREE ENERGY PREDICTED BY IDOCK:   -1.83 KCAL/MOL
REMARK 927      BINDING AFFINITY PREDICTED BY RF-SCORE:    0.00 PKD
ROOT
HETATM    1  C   UNL     1     -13.539  13.043  72.394  1.00  0.00    -0.628 C  
HETATM    2  C   UNL     1     -14.407  14.234  72.026  1.00  0.00    -0.629 C  
ENDROOT
BRANCH   2   3
HETATM    3  C   UNL     1     -13.566  15.361  71.437  1.00  0.00    -0.604 C  
BRANCH   3   4
HETATM    4  C   UNL     1     -12.599  14.832  70.383  1.00  0.00    -0.399 C  
BRANCH   4   5
HETATM    5  C   UNL     1     -11.188  15.350  70.639  1.00  0.00    -0.370 C  
BRANCH   5   6
HETATM    6  C   UNL     1     -10.396  15.416  69.341  1.00  0.00    -0.258 C  
BRANCH   6   7
HETATM    7  C   UNL     1     -11.334  15.488  68.143  1.00  0.00    -0.348 C  
BRANCH   7   8
HETATM    8  C   UNL     1     -10.536  15.662  66.860  1.00  0.00    -0.311 C  
BRANCH   8   9
HETATM    9  C   UNL     1     -11.132  14.825  65.739  1.00  0.00    -0.338 C  
BRANCH   9  10
HETATM   10  C   UNL     1     -12.146  13.843  66.308  1.00  0.00    -0.484 C  
BRANCH  10  11
HETATM   11  C   UNL     1     -11.747  12.417  65.979  1.00  0.00    -0.469 C  
BRANCH  11  12
HETATM   12  C   UNL     1     -10.668  11.925  66.935  1.00  0.00    -0.285 C  
BRANCH  12  13
HETATM   13  C   UNL     1     -11.260  10.893  67.878  1.00  0.00    -0.387 C  
BRANCH  13  14
HETATM   14  C   UNL     1     -11.915  11.543  69.093  1.00  0.00    -0.386 C  
BRANCH  14  15
HETATM   15  C   UNL     1     -11.617  10.774  70.382  1.00  0.00    -0.431 C  
BRANCH  15  16
HETATM   16  C   UNL     1     -11.140   9.347  70.097  1.00  0.00    -0.242 C  
BRANCH  16  17
HETATM   17  N   UNL     1     -11.489   8.342  71.201  1.00  0.00    -0.269 N  
HETATM   18  C   UNL     1     -10.386   8.257  72.243  1.00  0.00    -0.316 C  
HETATM   19  C   UNL     1     -11.641   6.969  70.536  1.00  0.00    -0.319 C  
HETATM   20  C   UNL     1     -12.814   8.693  71.868  1.00  0.00    -0.369 C  
ENDBRANCH  16  17
ENDBRANCH  15  16
ENDBRANCH  14  15
ENDBRANCH  13  14
ENDBRANCH  12  13
ENDBRANCH  11  12
ENDBRANCH  10  11
ENDBRANCH   9  10
ENDBRANCH   8   9
ENDBRANCH   7   8
ENDBRANCH   6   7
ENDBRANCH   5   6
ENDBRANCH   4   5
ENDBRANCH   3   4
ENDBRANCH   2   3
TORSDOF 15
ENDMDL
MODEL       10
REMARK 921   NORMALIZED FREE ENERGY PREDICTED BY IDOCK:   -4.23 KCAL/MOL
REMARK 922        TOTAL FREE ENERGY PREDICTED BY IDOCK:   -9.63 KCAL/MOL
REMARK 923 INTER-LIGAND FREE ENERGY PREDICTED BY IDOCK:   -7.32 KCAL/MOL
REMARK 924 INTRA-LIGAND FREE ENERGY PREDICTED BY IDOCK:   -2.31 KCAL/MOL
REMARK 927      BINDING AFFINITY PREDICTED BY RF-SCORE:    0.00 PKD
ROOT
HETATM    1  C   UNL     1      -8.923  14.027  66.866  1.00  0.00    -0.243 C  
HETATM    2  C   UNL     1      -9.974  14.188  67.951  1.00  0.00    -0.231 C  
ENDROOT
BRANCH   2   3
HETATM    3  C   UNL     1     -11.217  14.885  67.410  1.00  0.00    -0.343 C  
BRANCH   3   4
HETATM    4  C   UNL     1     -12.257  13.871  66.946  1.00  0.00    -0.415 C  
BRANCH   4   5
HETATM    5  C   UNL     1     -12.471  13.971  65.440  1.00  0.00    -0.520 C  
BRANCH   5   6
HETATM    6  C   UNL     1     -12.505  12.586  64.809  1.00  0.00    -0.532 C  
BRANCH   6   7
HETATM    7  C   UNL     1     -11.843  12.606  63.436  1.00  0.00    -0.594 C  
BRANCH   7   8
HETATM    8  C   UNL     1     -10.452  11.995  63.514  1.00  0.00    -0.505 C  
BRANCH   8   9
HETATM    9  C   UNL     1     -10.444  10.797  64.450  1.00  0.00    -0.344 C  
BRANCH   9  10
HETATM   10  C   UNL     1      -9.231  10.862  65.366  1.00  0.00    -0.231 C  
BRANCH  10  11
HETATM   11  C   UNL     1      -9.496  10.106  66.654  1.00  0.00    -0.211 C  
BRANCH  11  12
HETATM   12  C   UNL     1     -10.830  10.524  67.260  1.00  0.00    -0.338 C  
BRANCH  12  13
HETATM   13  C   UNL     1     -10.692  10.613  68.770  1.00  0.00    -0.249 C  
BRANCH  13  14
HETATM   14  C   UNL     1     -11.963  11.146  69.425  1.00  0.00    -0.420 C  
BRANCH  14  15
HETATM   15  C   UNL     1     -12.223  10.491  70.783  1.00  0.00    -0.468 C  
BRANCH  15  16
HETATM   16  C   UNL     1     -11.091   9.540  71.183  1.00  0.00    -0.379 C  
BRANCH  16  17
HETATM   17  N   UNL     1     -11.565   8.127  71.547  1.00  0.00    -0.265 N  
HETATM   18  C   UNL     1     -11.292   7.143  70.421  1.00  0.00    -0.289 C  
HETATM   19  C   UNL     1     -13.078   8.199  71.777  1.00  0.00    -0.345 C  
HETATM   20  C   UNL     1     -10.912   7.642  72.837  1.00  0.00    -0.400 C  
ENDBRANCH  16  17
ENDBRANCH  15  16
ENDBRANCH  14  15
ENDBRANCH  13  14
ENDBRANCH  12  13
ENDBRANCH  11  12
ENDBRANCH  10  11
ENDBRANCH   9  10
ENDBRANCH   8   9
ENDBRANCH   7   8
ENDBRANCH   6   7
ENDBRANCH   5   6
ENDBRANCH   4   5
ENDBRANCH   3   4
ENDBRANCH   2   3
TORSDOF 15
ENDMDL
MODEL       11
REMARK 921   NORMALIZED FREE ENERGY PREDICTED BY IDOCK:   -4.23 KCAL/MOL
REMARK 922        TOTAL FREE ENERGY PREDICTED BY IDOCK:   -9.63 KCAL/MOL
REMARK 923 INTER-LIGAND FREE ENERGY PREDICTED BY IDOCK:   -8.00 KCAL/MOL
REMARK 924 INTRA-LIGAND FREE ENERGY PREDICTED BY IDOCK:   -1.63 KCAL/MOL
REMARK 927      BINDING AFFINITY PREDICTED BY RF-SCORE:    0.00 PKD
ROOT
HETATM    1  C   UNL     1     -12.658  16.026  73.939  1.00  0.00    -0.730 C  
HETATM    2  C   UNL     1     -12.057  15.836  72.557  1.00  0.00    -0.591 C  
ENDROOT
BRANCH   2   3
HETATM    3  C   UNL     1     -13.071  15.219  71.600  1.00  0.00    -0.507 C  
BRANCH   3   4
HETATM    4  C   UNL     1     -12.715  13.769  71.285  1.00  0.00    -0.450 C  
BRANCH   4   5
HETATM    5  C   UNL     1     -13.548  12.815  72.133  1.00  0.00    -0.547 C  
BRANCH   5   6
HETATM    6  C   UNL     1     -13.165  11.369  71.850  1.00  0.00    -0.485 C  
BRANCH   6   7
HETATM    7  C   UNL     1     -12.885  11.170  70.365  1.00  0.00    -0.176 C  
BRANCH   7   8
HETATM    8  C   UNL     1     -11.587  10.400  70.174  1.00  0.00    -0.392 C  
BRANCH   8   9
HETATM    9  C   UNL     1     -11.050  10.595  68.765  1.00  0.00    -0.316 C  
BRANCH   9  10
HETATM   10  C   UNL     1     -11.771  11.752  68.090  1.00  0.00    -0.377 C  
BRANCH  10  11
HETATM   11  C   UNL     1     -11.012  12.204  66.856  1.00  0.00    -0.317 C  
BRANCH  11  12
HETATM   12  C   UNL     1     -10.918  13.724  66.808  1.00  0.00    -0.307 C  
BRANCH  12  13
HETATM   13  C   UNL     1     -10.832  14.269  68.223  1.00  0.00    -0.256 C  
BRANCH  13  14
HETATM   14  C   UNL     1     -11.470  15.650  68.338  1.00  0.00    -0.374 C  
BRANCH  14  15
HETATM   15  C   UNL     1     -10.419  16.761  68.400  1.00  0.00    -0.339 C  
BRANCH  15  16
HETATM   16  C   UNL     1     -10.238  17.451  67.046  1.00  0.00    -0.323 C  
BRANCH  16  17
HETATM   17  N   UNL     1      -9.672  18.873  67.142  1.00  0.00    -0.295 N  
HETATM   18  C   UNL     1      -8.197  18.909  66.773  1.00  0.00    -0.279 C  
HETATM   19  C   UNL     1      -9.822  19.326  68.598  1.00  0.00    -0.431 C  
HETATM   20  C   UNL     1     -10.456  19.840  66.262  1.00  0.00    -0.506 C  
ENDBRANCH  16  17
ENDBRANCH  15  16
ENDBRANCH  14  15
ENDBRANCH  13  14
ENDBRANCH  12  13
ENDBRANCH  11  12
ENDBRANCH  10  11
ENDBRANCH   9  10
ENDBRANCH   8   9
ENDBRANCH   7   8
ENDBRANCH   6   7
ENDBRANCH   5   6
ENDBRANCH   4   5
ENDBRANCH   3   4
ENDBRANCH   2   3
TORSDOF 15
ENDMDL
MODEL       12
REMARK 921   NORMALIZED FREE ENERGY PREDICTED BY IDOCK:   -4.23 KCAL/MOL
REMARK 922        TOTAL FREE ENERGY PREDICTED BY IDOCK:   -9.62 KCAL/MOL
REMARK 923 INTER-LIGAND FREE ENERGY PREDICTED BY IDOCK:   -7.94 KCAL/MOL
REMARK 924 INTRA-LIGAND FREE ENERGY PREDICTED BY IDOCK:   -1.68 KCAL/MOL
REMARK 927      BINDING AFFINITY PREDICTED BY RF-SCORE:    0.00 PKD
ROOT
HETATM    1  C   UNL     1     -12.289  13.887  66.430  1.00  0.00    -0.468 C  
HETATM    2  C   UNL     1     -10.799  13.589  66.417  1.00  0.00    -0.291 C  
ENDROOT
BRANCH   2   3
HETATM    3  C   UNL     1     -10.415  12.672  67.573  1.00  0.00    -0.229 C  
BRANCH   3   4
HETATM    4  C   UNL     1     -11.623  11.889  68.077  1.00  0.00    -0.401 C  
BRANCH   4   5
HETATM    5  C   UNL     1     -11.178  10.626  68.806  1.00  0.00    -0.337 C  
BRANCH   5   6
HETATM    6  C   UNL     1     -11.742  10.595  70.220  1.00  0.00    -0.433 C  
BRANCH   6   7
HETATM    7  C   UNL     1     -12.318  11.953  70.598  1.00  0.00    -0.405 C  
BRANCH   7   8
HETATM    8  C   UNL     1     -13.133  11.841  71.878  1.00  0.00    -0.482 C  
BRANCH   8   9
HETATM    9  C   UNL     1     -13.643  13.206  72.311  1.00  0.00    -0.677 C  
BRANCH   9  10
HETATM   10  C   UNL     1     -13.570  14.182  71.145  1.00  0.00    -0.254 C  
BRANCH  10  11
HETATM   11  C   UNL     1     -13.298  15.588  71.645  1.00  0.00    -0.585 C  
BRANCH  11  12
HETATM   12  C   UNL     1     -11.800  15.854  71.720  1.00  0.00    -0.579 C  
BRANCH  12  13
HETATM   13  C   UNL     1     -11.119  15.250  70.504  1.00  0.00    -0.335 C  
BRANCH  13  14
HETATM   14  C   UNL     1     -11.432  16.032  69.232  1.00  0.00    -0.350 C  
BRANCH  14  15
HETATM   15  C   UNL     1     -10.424  17.158  68.992  1.00  0.00    -0.321 C  
BRANCH  15  16
HETATM   16  C   UNL     1     -10.631  17.828  67.631  1.00  0.00    -0.379 C  
BRANCH  16  17
HETATM   17  N   UNL     1      -9.570  18.880  67.286  1.00  0.00    -0.302 N  
HETATM   18  C   UNL     1     -10.108  19.911  66.307  1.00  0.00    -0.502 C  
HETATM   19  C   UNL     1      -8.397  18.146  66.627  1.00  0.00    -0.263 C  
HETATM   20  C   UNL     1      -9.051  19.571  68.542  1.00  0.00    -0.352 C  
ENDBRANCH  16  17
ENDBRANCH  15  16
ENDBRANCH  14  15
ENDBRANCH  13  14
ENDBRANCH  12  13
ENDBRANCH  11  12
ENDBRANCH  10  11
ENDBRANCH   9  10
ENDBRANCH   8   9
ENDBRANCH   7   8
ENDBRANCH   6   7
ENDBRANCH   5   6
ENDBRANCH   4   5
ENDBRANCH   3   4
ENDBRANCH   2   3
TORSDOF 15
ENDMDL
MODEL       13
REMARK 921   NORMALIZED FREE ENERGY PREDICTED BY IDOCK:   -4.22 KCAL/MOL
REMARK 922        TOTAL FREE ENERGY PREDICTED BY IDOCK:   -9.61 KCAL/MOL
REMARK 923 INTER-LIGAND FREE ENERGY PREDICTED BY IDOCK:   -7.94 KCAL/MOL
REMARK 924 INTRA-LIGAND FREE ENERGY PREDICTED BY IDOCK:   -1.67 KCAL/MOL
REMARK 927      BINDING AFFINITY PREDICTED BY RF-SCORE:    0.00 PKD
ROOT
HETATM    1  C   UNL     1     -10.481  11.795  63.399  1.00  0.00    -0.485 C  
HETATM    2  C   UNL     1     -11.691  12.710  63.486  1.00  0.00    -0.604 C  
ENDROOT
BRANCH   2   3
HETATM    3  C   UNL     1     -12.559  12.353  64.688  1.00  0.00    -0.459 C  
BRANCH   3   4
HETATM    4  C   UNL     1     -12.553  13.476  65.721  1.00  0.00    -0.490 C  
BRANCH   4   5
HETATM    5  C   UNL     1     -11.611  13.141  66.873  1.00  0.00    -0.417 C  
BRANCH   5   6
HETATM    6  C   UNL     1     -11.474  11.634  67.035  1.00  0.00    -0.336 C  
BRANCH   6   7
HETATM    7  C   UNL     1     -11.587  11.241  68.503  1.00  0.00    -0.384 C  
BRANCH   7   8
HETATM    8  C   UNL     1     -11.765  12.479  69.368  1.00  0.00    -0.383 C  
BRANCH   8   9
HETATM    9  C   UNL     1     -12.363  12.112  70.716  1.00  0.00    -0.391 C  
BRANCH   9  10
HETATM   10  C   UNL     1     -12.871  13.364  71.417  1.00  0.00    -0.420 C  
BRANCH  10  11
HETATM   11  C   UNL     1     -12.673  14.583  70.536  1.00  0.00    -0.404 C  
BRANCH  11  12
HETATM   12  C   UNL     1     -11.645  15.528  71.145  1.00  0.00    -0.446 C  
BRANCH  12  13
HETATM   13  C   UNL     1     -10.680  15.987  70.066  1.00  0.00    -0.328 C  
BRANCH  13  14
HETATM   14  C   UNL     1     -11.373  16.143  68.716  1.00  0.00    -0.359 C  
BRANCH  14  15
HETATM   15  C   UNL     1     -10.446  16.761  67.667  1.00  0.00    -0.328 C  
BRANCH  15  16
HETATM   16  C   UNL     1      -9.179  17.345  68.299  1.00  0.00    -0.271 C  
BRANCH  16  17
HETATM   17  N   UNL     1      -8.964  18.834  68.002  1.00  0.00    -0.292 N  
HETATM   18  C   UNL     1      -7.655  19.334  68.590  1.00  0.00    -0.350 C  
HETATM   19  C   UNL     1     -10.118  19.600  68.657  1.00  0.00    -0.447 C  
HETATM   20  C   UNL     1      -9.004  19.108  66.503  1.00  0.00    -0.341 C  
ENDBRANCH  16  17
ENDBRANCH  15  16
ENDBRANCH  14  15
ENDBRANCH  13  14
ENDBRANCH  12  13
ENDBRANCH  11  12
ENDBRANCH  10  11
ENDBRANCH   9  10
ENDBRANCH   8   9
ENDBRANCH   7   8
ENDBRANCH   6   7
ENDBRANCH   5   6
ENDBRANCH   4   5
ENDBRANCH   3   4
ENDBRANCH   2   3
TORSDOF 15
ENDMDL
MODEL       14
REMARK 921   NORMALIZED FREE ENERGY PREDICTED BY IDOCK:   -4.21 KCAL/MOL
REMARK 922        TOTAL FREE ENERGY PREDICTED BY IDOCK:   -9.60 KCAL/MOL
REMARK 923 INTER-LIGAND FREE ENERGY PREDICTED BY IDOCK:   -7.56 KCAL/MOL
REMARK 924 INTRA-LIGAND FREE ENERGY PREDICTED BY IDOCK:   -2.03 KCAL/MOL
REMARK 927      BINDING AFFINITY PREDICTED BY RF-SCORE:    0.00 PKD
ROOT
HETATM    1  C   UNL     1     -12.611   9.445  71.709  1.00  0.00    -0.470 C  
HETATM    2  C   UNL     1     -12.893  10.937  71.660  1.00  0.00    -0.554 C  
ENDROOT
BRANCH   2   3
HETATM    3  C   UNL     1     -12.188  11.588  70.475  1.00  0.00    -0.469 C  
BRANCH   3   4
HETATM    4  C   UNL     1     -11.285  10.590  69.758  1.00  0.00    -0.361 C  
BRANCH   4   5
HETATM    5  C   UNL     1     -11.513  10.645  68.251  1.00  0.00    -0.318 C  
BRANCH   5   6
HETATM    6  C   UNL     1     -10.187  10.598  67.505  1.00  0.00    -0.236 C  
BRANCH   6   7
HETATM    7  C   UNL     1     -10.211   9.512  66.437  1.00  0.00    -0.302 C  
BRANCH   7   8
HETATM    8  C   UNL     1      -9.569  10.021  65.155  1.00  0.00    -0.356 C  
BRANCH   8   9
HETATM    9  C   UNL     1      -9.867  11.498  64.956  1.00  0.00    -0.294 C  
BRANCH   9  10
HETATM   10  C   UNL     1     -10.603  11.707  63.640  1.00  0.00    -0.493 C  
BRANCH  10  11
HETATM   11  C   UNL     1     -11.697  12.746  63.802  1.00  0.00    -0.562 C  
BRANCH  11  12
HETATM   12  C   UNL     1     -12.353  12.630  65.172  1.00  0.00    -0.547 C  
BRANCH  12  13
HETATM   13  C   UNL     1     -12.452  14.008  65.803  1.00  0.00    -0.523 C  
BRANCH  13  14
HETATM   14  C   UNL     1     -11.966  14.006  67.249  1.00  0.00    -0.448 C  
BRANCH  14  15
HETATM   15  C   UNL     1     -10.458  14.251  67.344  1.00  0.00    -0.264 C  
BRANCH  15  16
HETATM   16  C   UNL     1     -10.015  15.424  66.465  1.00  0.00    -0.268 C  
BRANCH  16  17
HETATM   17  N   UNL     1      -9.403  16.593  67.247  1.00  0.00    -0.227 N  
HETATM   18  C   UNL     1     -10.384  17.746  67.379  1.00  0.00    -0.369 C  
HETATM   19  C   UNL     1      -8.181  17.077  66.460  1.00  0.00    -0.279 C  
HETATM   20  C   UNL     1      -8.932  16.146  68.627  1.00  0.00    -0.221 C  
ENDBRANCH  16  17
ENDBRANCH  15  16
ENDBRANCH  14  15
ENDBRANCH  13  14
ENDBRANCH  12  13
ENDBRANCH  11  12
ENDBRANCH  10  11
ENDBRANCH   9  10
ENDBRANCH   8   9
ENDBRANCH   7   8
ENDBRANCH   6   7
ENDBRANCH   5   6
ENDBRANCH   4   5
ENDBRANCH   3   4
ENDBRANCH   2   3
TORSDOF 15
ENDMDL
MODEL       15
REMARK 921   NORMALIZED FREE ENERGY PREDICTED BY IDOCK:   -4.16 KCAL/MOL
REMARK 922        TOTAL FREE ENERGY PREDICTED BY IDOCK:   -9.51 KCAL/MOL
REMARK 923 INTER-LIGAND FREE ENERGY PREDICTED BY IDOCK:   -7.76 KCAL/MOL
REMARK 924 INTRA-LIGAND FREE ENERGY PREDICTED BY IDOCK:   -1.75 KCAL/MOL
REMARK 927      BINDING AFFINITY PREDICTED BY RF-SCORE:    0.00 PKD
ROOT
HETATM    1  C   UNL     1     -11.461  13.424  64.227  1.00  0.00    -0.429 C  
HETATM    2  C   UNL     1     -12.597  13.284  65.226  1.00  0.00    -0.528 C  
ENDROOT
BRANCH   2   3
HETATM    3  C   UNL     1     -12.254  13.976  66.542  1.00  0.00    -0.485 C  
BRANCH   3   4
HETATM    4  C   UNL     1     -10.938  14.739  66.434  1.00  0.00    -0.331 C  
BRANCH   4   5
HETATM    5  C   UNL     1     -10.258  14.833  67.795  1.00  0.00    -0.232 C  
BRANCH   5   6
HETATM    6  C   UNL     1     -11.291  14.977  68.904  1.00  0.00    -0.312 C  
BRANCH   6   7
HETATM    7  C   UNL     1     -10.694  15.705  70.102  1.00  0.00    -0.355 C  
BRANCH   7   8
HETATM    8  C   UNL     1     -11.783  16.042  71.109  1.00  0.00    -0.487 C  
BRANCH   8   9
HETATM    9  C   UNL     1     -13.082  15.339  70.749  1.00  0.00    -0.468 C  
BRANCH   9  10
HETATM   10  C   UNL     1     -13.906  15.095  72.005  1.00  0.00    -0.608 C  
BRANCH  10  11
HETATM   11  C   UNL     1     -14.004  13.608  72.296  1.00  0.00    -0.661 C  
BRANCH  11  12
HETATM   12  C   UNL     1     -12.921  12.841  71.548  1.00  0.00    -0.388 C  
BRANCH  12  13
HETATM   13  C   UNL     1     -13.136  11.349  71.741  1.00  0.00    -0.523 C  
BRANCH  13  14
HETATM   14  C   UNL     1     -12.529  10.537  70.601  1.00  0.00    -0.456 C  
BRANCH  14  15
HETATM   15  C   UNL     1     -11.554  11.369  69.764  1.00  0.00    -0.407 C  
BRANCH  15  16
HETATM   16  C   UNL     1     -11.555  10.940  68.294  1.00  0.00    -0.262 C  
BRANCH  16  17
HETATM   17  N   UNL     1     -10.225  10.343  67.819  1.00  0.00    -0.183 N  
HETATM   18  C   UNL     1      -9.656  11.121  66.643  1.00  0.00    -0.190 C  
HETATM   19  C   UNL     1     -10.507   8.907  67.363  1.00  0.00    -0.277 C  
HETATM   20  C   UNL     1      -9.208  10.289  68.953  1.00  0.00    -0.175 C  
ENDBRANCH  16  17
ENDBRANCH  15  16
ENDBRANCH  14  15
ENDBRANCH  13  14
ENDBRANCH  12  13
ENDBRANCH  11  12
ENDBRANCH  10  11
ENDBRANCH   9  10
ENDBRANCH   8   9
ENDBRANCH   7   8
ENDBRANCH   6   7
ENDBRANCH   5   6
ENDBRANCH   4   5
ENDBRANCH   3   4
ENDBRANCH   2   3
TORSDOF 15
ENDMDL
MODEL       16
REMARK 921   NORMALIZED FREE ENERGY PREDICTED BY IDOCK:   -4.16 KCAL/MOL
REMARK 922        TOTAL FREE ENERGY PREDICTED BY IDOCK:   -9.50 KCAL/MOL
REMARK 923 INTER-LIGAND FREE ENERGY PREDICTED BY IDOCK:   -7.32 KCAL/MOL
REMARK 924 INTRA-LIGAND FREE ENERGY PREDICTED BY IDOCK:   -2.17 KCAL/MOL
REMARK 927      BINDING AFFINITY PREDICTED BY RF-SCORE:    0.00 PKD
ROOT
HETATM    1  C   UNL     1     -14.110  15.313  72.094  1.00  0.00    -0.658 C  
HETATM    2  C   UNL     1     -13.918  13.807  72.127  1.00  0.00    -0.638 C  
ENDROOT
BRANCH   2   3
HETATM    3  C   UNL     1     -12.703  13.393  71.303  1.00  0.00    -0.424 C  
BRANCH   3   4
HETATM    4  C   UNL     1     -12.529  14.299  70.089  1.00  0.00    -0.393 C  
BRANCH   4   5
HETATM    5  C   UNL     1     -11.884  13.536  68.937  1.00  0.00    -0.384 C  
BRANCH   5   6
HETATM    6  C   UNL     1     -11.858  12.043  69.228  1.00  0.00    -0.377 C  
BRANCH   6   7
HETATM    7  C   UNL     1     -10.571  11.416  68.708  1.00  0.00    -0.235 C  
BRANCH   7   8
HETATM    8  C   UNL     1      -9.642  12.493  68.169  1.00  0.00    -0.215 C  
BRANCH   8   9
HETATM    9  C   UNL     1      -8.944  12.017  66.905  1.00  0.00    -0.199 C  
BRANCH   9  10
HETATM   10  C   UNL     1      -9.904  11.191  66.061  1.00  0.00    -0.270 C  
BRANCH  10  11
HETATM   11  C   UNL     1     -10.510  12.041  64.960  1.00  0.00    -0.327 C  
BRANCH  11  12
HETATM   12  C   UNL     1     -11.919  12.482  65.334  1.00  0.00    -0.492 C  
BRANCH  12  13
HETATM   13  C   UNL     1     -12.004  13.998  65.282  1.00  0.00    -0.384 C  
BRANCH  13  14
HETATM   14  C   UNL     1     -10.655  14.631  64.954  1.00  0.00    -0.446 C  
BRANCH  14  15
HETATM   15  C   UNL     1     -10.530  16.041  65.536  1.00  0.00    -0.426 C  
BRANCH  15  16
HETATM   16  C   UNL     1      -9.546  16.088  66.708  1.00  0.00    -0.232 C  
BRANCH  16  17
HETATM   17  N   UNL     1      -9.550  17.419  67.471  1.00  0.00    -0.253 N  
HETATM   18  C   UNL     1      -8.218  17.668  68.159  1.00  0.00    -0.257 C  
HETATM   19  C   UNL     1     -10.644  17.327  68.541  1.00  0.00    -0.350 C  
HETATM   20  C   UNL     1      -9.889  18.583  66.547  1.00  0.00    -0.363 C  
ENDBRANCH  16  17
ENDBRANCH  15  16
ENDBRANCH  14  15
ENDBRANCH  13  14
ENDBRANCH  12  13
ENDBRANCH  11  12
ENDBRANCH  10  11
ENDBRANCH   9  10
ENDBRANCH   8   9
ENDBRANCH   7   8
ENDBRANCH   6   7
ENDBRANCH   5   6
ENDBRANCH   4   5
ENDBRANCH   3   4
ENDBRANCH   2   3
TORSDOF 15
ENDMDL
MODEL       17
REMARK 921   NORMALIZED FREE ENERGY PREDICTED BY IDOCK:   -4.15 KCAL/MOL
REMARK 922        TOTAL FREE ENERGY PREDICTED BY IDOCK:   -9.48 KCAL/MOL
REMARK 923 INTER-LIGAND FREE ENERGY PREDICTED BY IDOCK:   -7.28 KCAL/MOL
REMARK 924 INTRA-LIGAND FREE ENERGY PREDICTED BY IDOCK:   -2.21 KCAL/MOL
REMARK 927      BINDING AFFINITY PREDICTED BY RF-SCORE:    0.00 PKD
ROOT
HETATM    1  C   UNL     1      -9.488  19.365  66.287  1.00  0.00    -0.422 C  
HETATM    2  C   UNL     1      -9.897  18.026  66.878  1.00  0.00    -0.330 C  
ENDROOT
BRANCH   2   3
HETATM    3  C   UNL     1      -8.758  17.016  66.783  1.00  0.00    -0.272 C  
BRANCH   3   4
HETATM    4  C   UNL     1      -9.209  15.748  66.066  1.00  0.00    -0.379 C  
BRANCH   4   5
HETATM    5  C   UNL     1     -10.729  15.711  65.944  1.00  0.00    -0.336 C  
BRANCH   5   6
HETATM    6  C   UNL     1     -11.158  14.715  64.877  1.00  0.00    -0.409 C  
BRANCH   6   7
HETATM    7  C   UNL     1     -12.523  14.125  65.210  1.00  0.00    -0.474 C  
BRANCH   7   8
HETATM    8  C   UNL     1     -12.517  12.621  64.984  1.00  0.00    -0.556 C  
BRANCH   8   9
HETATM    9  C   UNL     1     -11.157  12.160  64.485  1.00  0.00    -0.375 C  
BRANCH   9  10
HETATM   10  C   UNL     1     -10.589  11.107  65.425  1.00  0.00    -0.291 C  
BRANCH  10  11
HETATM   11  C   UNL     1     -10.972  11.414  66.861  1.00  0.00    -0.355 C  
BRANCH  11  12
HETATM   12  C   UNL     1      -9.782  11.975  67.629  1.00  0.00    -0.187 C  
BRANCH  12  13
HETATM   13  C   UNL     1     -10.217  13.204  68.407  1.00  0.00    -0.247 C  
BRANCH  13  14
HETATM   14  C   UNL     1     -11.704  13.163  68.747  1.00  0.00    -0.363 C  
BRANCH  14  15
HETATM   15  C   UNL     1     -12.152  14.419  69.498  1.00  0.00    -0.366 C  
BRANCH  15  16
HETATM   16  C   UNL     1     -11.751  14.375  70.974  1.00  0.00    -0.194 C  
BRANCH  16  17
HETATM   17  N   UNL     1     -12.937  14.256  71.939  1.00  0.00    -0.333 N  
HETATM   18  C   UNL     1     -12.563  14.719  73.338  1.00  0.00    -0.435 C  
HETATM   19  C   UNL     1     -13.326  12.775  72.002  1.00  0.00    -0.466 C  
HETATM   20  C   UNL     1     -14.141  15.041  71.432  1.00  0.00    -0.487 C  
ENDBRANCH  16  17
ENDBRANCH  15  16
ENDBRANCH  14  15
ENDBRANCH  13  14
ENDBRANCH  12  13
ENDBRANCH  11  12
ENDBRANCH  10  11
ENDBRANCH   9  10
ENDBRANCH   8   9
ENDBRANCH   7   8
ENDBRANCH   6   7
ENDBRANCH   5   6
ENDBRANCH   4   5
ENDBRANCH   3   4
ENDBRANCH   2   3
TORSDOF 15
ENDMDL
MODEL       18
REMARK 921   NORMALIZED FREE ENERGY PREDICTED BY IDOCK:   -4.12 KCAL/MOL
REMARK 922        TOTAL FREE ENERGY PREDICTED BY IDOCK:   -9.42 KCAL/MOL
REMARK 923 INTER-LIGAND FREE ENERGY PREDICTED BY IDOCK:   -7.72 KCAL/MOL
REMARK 924 INTRA-LIGAND FREE ENERGY PREDICTED BY IDOCK:   -1.70 KCAL/MOL
REMARK 927      BINDING AFFINITY PREDICTED BY RF-SCORE:    0.00 PKD
ROOT
HETATM    1  C   UNL     1     -13.894  14.436  72.646  1.00  0.00    -0.480 C  
HETATM    2  C   UNL     1     -13.306  15.319  71.559  1.00  0.00    -0.559 C  
ENDROOT
BRANCH   2   3
HETATM    3  C   UNL     1     -11.909  15.797  71.940  1.00  0.00    -0.568 C  
BRANCH   3   4
HETATM    4  C   UNL     1     -11.045  16.009  70.701  1.00  0.00    -0.352 C  
BRANCH   4   5
HETATM    5  C   UNL     1     -11.840  15.711  69.434  1.00  0.00    -0.391 C  
BRANCH   5   6
HETATM    6  C   UNL     1     -10.933  15.735  68.212  1.00  0.00    -0.325 C  
BRANCH   6   7
HETATM    7  C   UNL     1     -11.141  14.486  67.365  1.00  0.00    -0.320 C  
BRANCH   7   8
HETATM    8  C   UNL     1     -12.035  13.497  68.097  1.00  0.00    -0.376 C  
BRANCH   8   9
HETATM    9  C   UNL     1     -11.627  12.067  67.779  1.00  0.00    -0.400 C  
BRANCH   9  10
HETATM   10  C   UNL     1     -11.750  11.203  69.026  1.00  0.00    -0.408 C  
BRANCH  10  11
HETATM   11  C   UNL     1     -12.002  12.066  70.248  1.00  0.00    -0.398 C  
BRANCH  11  12
HETATM   12  C   UNL     1     -12.835  11.313  71.278  1.00  0.00    -0.491 C  
BRANCH  12  13
HETATM   13  C   UNL     1     -12.312   9.893  71.408  1.00  0.00    -0.498 C  
BRANCH  13  14
HETATM   14  C   UNL     1     -13.425   8.909  71.755  1.00  0.00    -0.447 C  
BRANCH  14  15
HETATM   15  C   UNL     1     -12.979   7.456  71.570  1.00  0.00    -0.421 C  
BRANCH  15  16
HETATM   16  C   UNL     1     -11.616   7.192  72.213  1.00  0.00    -0.271 C  
BRANCH  16  17
HETATM   17  N   UNL     1     -10.642   6.421  71.314  1.00  0.00    -0.223 N  
HETATM   18  C   UNL     1      -9.317   7.154  71.173  1.00  0.00    -0.157 C  
HETATM   19  C   UNL     1     -11.290   6.311  69.929  1.00  0.00    -0.434 C  
HETATM   20  C   UNL     1     -10.406   5.009  71.840  1.00  0.00    -0.204 C  
ENDBRANCH  16  17
ENDBRANCH  15  16
ENDBRANCH  14  15
ENDBRANCH  13  14
ENDBRANCH  12  13
ENDBRANCH  11  12
ENDBRANCH  10  11
ENDBRANCH   9  10
ENDBRANCH   8   9
ENDBRANCH   7   8
ENDBRANCH   6   7
ENDBRANCH   5   6
ENDBRANCH   4   5
ENDBRANCH   3   4
ENDBRANCH   2   3
TORSDOF 15
ENDMDL
MODEL       19
REMARK 921   NORMALIZED FREE ENERGY PREDICTED BY IDOCK:   -4.10 KCAL/MOL
REMARK 922        TOTAL FREE ENERGY PREDICTED BY IDOCK:   -9.38 KCAL/MOL
REMARK 923 INTER-LIGAND FREE ENERGY PREDICTED BY IDOCK:   -7.23 KCAL/MOL
REMARK 924 INTRA-LIGAND FREE ENERGY PREDICTED BY IDOCK:   -2.15 KCAL/MOL
REMARK 927      BINDING AFFINITY PREDICTED BY RF-SCORE:    0.00 PKD
ROOT
HETATM    1  C   UNL     1     -12.754  15.396  73.686  1.00  0.00    -0.713 C  
HETATM    2  C   UNL     1     -13.900  15.832  72.790  1.00  0.00    -0.600 C  
ENDROOT
BRANCH   2   3
HETATM    3  C   UNL     1     -14.328  14.701  71.861  1.00  0.00    -0.656 C  
BRANCH   3   4
HETATM    4  C   UNL     1     -13.604  13.404  72.207  1.00  0.00    -0.703 C  
BRANCH   4   5
HETATM    5  C   UNL     1     -12.691  12.976  71.063  1.00  0.00    -0.347 C  
BRANCH   5   6
HETATM    6  C   UNL     1     -12.396  14.152  70.143  1.00  0.00    -0.413 C  
BRANCH   6   7
HETATM    7  C   UNL     1     -11.062  14.795  70.504  1.00  0.00    -0.131 C  
BRANCH   7   8
HETATM    8  C   UNL     1     -10.689  15.847  69.472  1.00  0.00    -0.288 C  
BRANCH   8   9
HETATM    9  C   UNL     1     -11.549  15.706  68.226  1.00  0.00    -0.326 C  
BRANCH   9  10
HETATM   10  C   UNL     1     -10.689  15.858  66.980  1.00  0.00    -0.292 C  
BRANCH  10  11
HETATM   11  C   UNL     1     -10.947  14.718  66.013  1.00  0.00    -0.328 C  
BRANCH  11  12
HETATM   12  C   UNL     1     -12.098  13.848  66.501  1.00  0.00    -0.484 C  
BRANCH  12  13
HETATM   13  C   UNL     1     -11.672  12.390  66.483  1.00  0.00    -0.443 C  
BRANCH  13  14
HETATM   14  C   UNL     1     -10.208  12.222  66.874  1.00  0.00    -0.229 C  
BRANCH  14  15
HETATM   15  C   UNL     1     -10.047  11.914  68.365  1.00  0.00    -0.206 C  
BRANCH  15  16
HETATM   16  C   UNL     1     -10.948  10.759  68.808  1.00  0.00    -0.247 C  
BRANCH  16  17
HETATM   17  N   UNL     1     -10.201   9.440  69.040  1.00  0.00    -0.198 N  
HETATM   18  C   UNL     1     -10.802   8.658  70.197  1.00  0.00    -0.233 C  
HETATM   19  C   UNL     1      -8.751   9.793  69.390  1.00  0.00    -0.174 C  
HETATM   20  C   UNL     1     -10.189   8.584  67.778  1.00  0.00    -0.225 C  
ENDBRANCH  16  17
ENDBRANCH  15  16
ENDBRANCH  14  15
ENDBRANCH  13  14
ENDBRANCH  12  13
ENDBRANCH  11  12
ENDBRANCH  10  11
ENDBRANCH   9  10
ENDBRANCH   8   9
ENDBRANCH   7   8
ENDBRANCH   6   7
ENDBRANCH   5   6
ENDBRANCH   4   5
ENDBRANCH   3   4
ENDBRANCH   2   3
TORSDOF 15
ENDMDL
MODEL       20
REMARK 921   NORMALIZED FREE ENERGY PREDICTED BY IDOCK:   -4.09 KCAL/MOL
REMARK 922        TOTAL FREE ENERGY PREDICTED BY IDOCK:   -9.37 KCAL/MOL
REMARK 923 INTER-LIGAND FREE ENERGY PREDICTED BY IDOCK:   -7.93 KCAL/MOL
REMARK 924 INTRA-LIGAND FREE ENERGY PREDICTED BY IDOCK:   -1.44 KCAL/MOL
REMARK 927      BINDING AFFINITY PREDICTED BY RF-SCORE:    0.00 PKD
ROOT
HETATM    1  C   UNL     1     -11.953  12.157  63.517  1.00  0.00    -0.619 C  
HETATM    2  C   UNL     1     -10.671  12.899  63.855  1.00  0.00    -0.390 C  
ENDROOT
BRANCH   2   3
HETATM    3  C   UNL     1     -10.651  13.315  65.322  1.00  0.00    -0.325 C  
BRANCH   3   4
HETATM    4  C   UNL     1     -12.044  13.714  65.797  1.00  0.00    -0.463 C  
BRANCH   4   5
HETATM    5  C   UNL     1     -12.140  13.624  67.316  1.00  0.00    -0.385 C  
BRANCH   5   6
HETATM    6  C   UNL     1     -11.315  14.721  67.974  1.00  0.00    -0.332 C  
BRANCH   6   7
HETATM    7  C   UNL     1     -11.956  15.164  69.283  1.00  0.00    -0.322 C  
BRANCH   7   8
HETATM    8  C   UNL     1     -10.888  15.378  70.345  1.00  0.00    -0.333 C  
BRANCH   8   9
HETATM    9  C   UNL     1     -11.496  15.977  71.604  1.00  0.00    -0.443 C  
BRANCH   9  10
HETATM   10  C   UNL     1     -12.955  15.563  71.723  1.00  0.00    -0.528 C  
BRANCH  10  11
HETATM   11  C   UNL     1     -13.110  14.445  72.737  1.00  0.00    -0.595 C  
BRANCH  11  12
HETATM   12  C   UNL     1     -14.000  13.338  72.187  1.00  0.00    -0.471 C  
BRANCH  12  13
HETATM   13  C   UNL     1     -13.192  12.057  72.061  1.00  0.00    -0.481 C  
BRANCH  13  14
HETATM   14  C   UNL     1     -12.470  11.973  70.720  1.00  0.00    -0.372 C  
BRANCH  14  15
HETATM   15  C   UNL     1     -12.132  10.528  70.344  1.00  0.00    -0.418 C  
BRANCH  15  16
HETATM   16  C   UNL     1     -11.489   9.771  71.509  1.00  0.00    -0.323 C  
BRANCH  16  17
HETATM   17  N   UNL     1     -11.970   8.322  71.651  1.00  0.00    -0.288 N  
HETATM   18  C   UNL     1     -11.273   7.617  72.803  1.00  0.00    -0.377 C  
HETATM   19  C   UNL     1     -11.618   7.595  70.348  1.00  0.00    -0.119 C  
HETATM   20  C   UNL     1     -13.482   8.259  71.836  1.00  0.00    -0.346 C  
ENDBRANCH  16  17
ENDBRANCH  15  16
ENDBRANCH  14  15
ENDBRANCH  13  14
ENDBRANCH  12  13
ENDBRANCH  11  12
ENDBRANCH  10  11
ENDBRANCH   9  10
ENDBRANCH   8   9
ENDBRANCH   7   8
ENDBRANCH   6   7
ENDBRANCH   5   6
ENDBRANCH   4   5
ENDBRANCH   3   4
ENDBRANCH   2   3
TORSDOF 15
ENDMDL
MODEL       21
REMARK 921   NORMALIZED FREE ENERGY PREDICTED BY IDOCK:   -4.06 KCAL/MOL
REMARK 922        TOTAL FREE ENERGY PREDICTED BY IDOCK:   -9.31 KCAL/MOL
REMARK 923 INTER-LIGAND FREE ENERGY PREDICTED BY IDOCK:   -8.07 KCAL/MOL
REMARK 924 INTRA-LIGAND FREE ENERGY PREDICTED BY IDOCK:   -1.24 KCAL/MOL
REMARK 927      BINDING AFFINITY PREDICTED BY RF-SCORE:    0.00 PKD
ROOT
HETATM    1  C   UNL     1     -13.163  15.809  73.131  1.00  0.00    -0.694 C  
HETATM    2  C   UNL     1     -14.036  15.157  72.072  1.00  0.00    -0.629 C  
ENDROOT
BRANCH   2   3
HETATM    3  C   UNL     1     -14.111  13.648  72.278  1.00  0.00    -0.602 C  
BRANCH   3   4
HETATM    4  C   UNL     1     -12.925  12.946  71.627  1.00  0.00    -0.410 C  
BRANCH   4   5
HETATM    5  C   UNL     1     -13.083  11.432  71.714  1.00  0.00    -0.523 C  
BRANCH   5   6
HETATM    6  C   UNL     1     -12.456  10.755  70.503  1.00  0.00    -0.447 C  
BRANCH   6   7
HETATM    7  C   UNL     1     -11.835  11.789  69.572  1.00  0.00    -0.402 C  
BRANCH   7   8
HETATM    8  C   UNL     1     -11.316  11.116  68.311  1.00  0.00    -0.365 C  
BRANCH   8   9
HETATM    9  C   UNL     1     -10.953   9.666  68.587  1.00  0.00    -0.152 C  
BRANCH   9  10
HETATM   10  C   UNL     1     -10.293   9.053  67.360  1.00  0.00    -0.335 C  
BRANCH  10  11
HETATM   11  C   UNL     1      -9.692  10.136  66.483  1.00  0.00    -0.252 C  
BRANCH  11  12
HETATM   12  C   UNL     1      -9.079   9.534  65.226  1.00  0.00    -0.276 C  
BRANCH  12  13
HETATM   13  C   UNL     1      -9.376  10.433  64.038  1.00  0.00    -0.321 C  
BRANCH  13  14
HETATM   14  C   UNL     1     -10.737  11.111  64.167  1.00  0.00    -0.415 C  
BRANCH  14  15
HETATM   15  C   UNL     1     -10.678  12.588  63.770  1.00  0.00    -0.483 C  
BRANCH  15  16
HETATM   16  C   UNL     1     -10.267  13.478  64.946  1.00  0.00    -0.329 C  
BRANCH  16  17
HETATM   17  N   UNL     1     -11.289  14.568  65.289  1.00  0.00    -0.339 N  
HETATM   18  C   UNL     1     -11.837  14.392  66.696  1.00  0.00    -0.398 C  
HETATM   19  C   UNL     1     -12.448  14.435  64.294  1.00  0.00    -0.272 C  
HETATM   20  C   UNL     1     -10.686  15.959  65.131  1.00  0.00    -0.429 C  
ENDBRANCH  16  17
ENDBRANCH  15  16
ENDBRANCH  14  15
ENDBRANCH  13  14
ENDBRANCH  12  13
ENDBRANCH  11  12
ENDBRANCH  10  11
ENDBRANCH   9  10
ENDBRANCH   8   9
ENDBRANCH   7   8
ENDBRANCH   6   7
ENDBRANCH   5   6
ENDBRANCH   4   5
ENDBRANCH   3   4
ENDBRANCH   2   3
TORSDOF 15
ENDMDL
MODEL       22
REMARK 921   NORMALIZED FREE ENERGY PREDICTED BY IDOCK:   -4.05 KCAL/MOL
REMARK 922        TOTAL FREE ENERGY PREDICTED BY IDOCK:   -9.30 KCAL/MOL
REMARK 923 INTER-LIGAND FREE ENERGY PREDICTED BY IDOCK:   -7.29 KCAL/MOL
REMARK 924 INTRA-LIGAND FREE ENERGY PREDICTED BY IDOCK:   -2.01 KCAL/MOL
REMARK 927      BINDING AFFINITY PREDICTED BY RF-SCORE:    0.00 PKD
ROOT
HETATM    1  C   UNL     1      -7.215  19.821  66.207  1.00  0.00    -0.276 C  
HETATM    2  C   UNL     1      -8.297  19.991  67.260  1.00  0.00    -0.381 C  
ENDROOT
BRANCH   2   3
HETATM    3  C   UNL     1      -9.631  20.354  66.618  1.00  0.00    -0.480 C  
BRANCH   3   4
HETATM    4  C   UNL     1     -10.543  19.135  66.520  1.00  0.00    -0.523 C  
BRANCH   4   5
HETATM    5  C   UNL     1     -10.489  18.319  67.807  1.00  0.00    -0.430 C  
BRANCH   5   6
HETATM    6  C   UNL     1     -10.512  16.829  67.500  1.00  0.00    -0.319 C  
BRANCH   6   7
HETATM    7  C   UNL     1      -9.284  16.427  66.694  1.00  0.00    -0.279 C  
BRANCH   7   8
HETATM    8  C   UNL     1      -9.674  15.455  65.590  1.00  0.00    -0.366 C  
BRANCH   8   9
HETATM    9  C   UNL     1     -11.134  15.634  65.209  1.00  0.00    -0.310 C  
BRANCH   9  10
HETATM   10  C   UNL     1     -11.634  14.398  64.475  1.00  0.00    -0.393 C  
BRANCH  10  11
HETATM   11  C   UNL     1     -10.783  13.191  64.825  1.00  0.00    -0.381 C  
BRANCH  11  12
HETATM   12  C   UNL     1     -11.556  12.226  65.715  1.00  0.00    -0.443 C  
BRANCH  12  13
HETATM   13  C   UNL     1     -11.084  12.375  67.150  1.00  0.00    -0.328 C  
BRANCH  13  14
HETATM   14  C   UNL     1     -12.030  13.246  67.971  1.00  0.00    -0.351 C  
BRANCH  14  15
HETATM   15  C   UNL     1     -11.398  13.685  69.294  1.00  0.00    -0.323 C  
BRANCH  15  16
HETATM   16  C   UNL     1     -12.234  13.244  70.499  1.00  0.00    -0.340 C  
BRANCH  16  17
HETATM   17  N   UNL     1     -12.701  14.400  71.390  1.00  0.00    -0.322 N  
HETATM   18  C   UNL     1     -13.656  15.322  70.649  1.00  0.00    -0.131 C  
HETATM   19  C   UNL     1     -11.456  15.202  71.786  1.00  0.00    -0.380 C  
HETATM   20  C   UNL     1     -13.356  13.883  72.666  1.00  0.00    -0.538 C  
ENDBRANCH  16  17
ENDBRANCH  15  16
ENDBRANCH  14  15
ENDBRANCH  13  14
ENDBRANCH  12  13
ENDBRANCH  11  12
ENDBRANCH  10  11
ENDBRANCH   9  10
ENDBRANCH   8   9
ENDBRANCH   7   8
ENDBRANCH   6   7
ENDBRANCH   5   6
ENDBRANCH   4   5
ENDBRANCH   3   4
ENDBRANCH   2   3
TORSDOF 15
ENDMDL
MODEL       23
REMARK 921   NORMALIZED FREE ENERGY PREDICTED BY IDOCK:   -4.04 KCAL/MOL
REMARK 922        TOTAL FREE ENERGY PREDICTED BY IDOCK:   -9.28 KCAL/MOL
REMARK 923 INTER-LIGAND FREE ENERGY PREDICTED BY IDOCK:   -7.08 KCAL/MOL
REMARK 924 INTRA-LIGAND FREE ENERGY PREDICTED BY IDOCK:   -2.20 KCAL/MOL
REMARK 927      BINDING AFFINITY PREDICTED BY RF-SCORE:    0.00 PKD
ROOT
HETATM    1  C   UNL     1     -10.949   6.738  66.971  1.00  0.00    -0.439 C  
HETATM    2  C   UNL     1     -10.557   7.156  68.378  1.00  0.00    -0.223 C  
ENDROOT
BRANCH   2   3
HETATM    3  C   UNL     1     -11.178   6.228  69.416  1.00  0.00    -0.489 C  
BRANCH   3   4
HETATM    4  C   UNL     1     -10.672   6.556  70.817  1.00  0.00    -0.290 C  
BRANCH   4   5
HETATM    5  C   UNL     1      -9.950   7.899  70.827  1.00  0.00    -0.192 C  
BRANCH   5   6
HETATM    6  C   UNL     1     -10.542   8.820  71.885  1.00  0.00    -0.425 C  
BRANCH   6   7
HETATM    7  C   UNL     1     -11.860   8.260  72.407  1.00  0.00    -0.461 C  
BRANCH   7   8
HETATM    8  C   UNL     1     -12.927   9.344  72.412  1.00  0.00    -0.427 C  
BRANCH   8   9
HETATM    9  C   UNL     1     -13.080   9.952  71.028  1.00  0.00    -0.406 C  
BRANCH   9  10
HETATM   10  C   UNL     1     -12.895  11.461  71.101  1.00  0.00    -0.440 C  
BRANCH  10  11
HETATM   11  C   UNL     1     -11.834  11.915  70.115  1.00  0.00    -0.390 C  
BRANCH  11  12
HETATM   12  C   UNL     1     -11.562  10.831  69.080  1.00  0.00    -0.370 C  
BRANCH  12  13
HETATM   13  C   UNL     1     -10.128  10.949  68.591  1.00  0.00    -0.200 C  
BRANCH  13  14
HETATM   14  C   UNL     1     -10.018  10.691  67.091  1.00  0.00    -0.234 C  
BRANCH  14  15
HETATM   15  C   UNL     1     -11.057  11.487  66.298  1.00  0.00    -0.321 C  
BRANCH  15  16
HETATM   16  C   UNL     1     -10.440  12.717  65.625  1.00  0.00    -0.275 C  
BRANCH  16  17
HETATM   17  N   UNL     1     -11.192  14.023  65.906  1.00  0.00    -0.305 N  
HETATM   18  C   UNL     1     -12.570  14.019  65.265  1.00  0.00    -0.470 C  
HETATM   19  C   UNL     1     -10.371  15.163  65.292  1.00  0.00    -0.396 C  
HETATM   20  C   UNL     1     -11.312  14.279  67.404  1.00  0.00    -0.332 C  
ENDBRANCH  16  17
ENDBRANCH  15  16
ENDBRANCH  14  15
ENDBRANCH  13  14
ENDBRANCH  12  13
ENDBRANCH  11  12
ENDBRANCH  10  11
ENDBRANCH   9  10
ENDBRANCH   8   9
ENDBRANCH   7   8
ENDBRANCH   6   7
ENDBRANCH   5   6
ENDBRANCH   4   5
ENDBRANCH   3   4
ENDBRANCH   2   3
TORSDOF 15
ENDMDL
MODEL       24
REMARK 921   NORMALIZED FREE ENERGY PREDICTED BY IDOCK:   -4.04 KCAL/MOL
REMARK 922        TOTAL FREE ENERGY PREDICTED BY IDOCK:   -9.28 KCAL/MOL
REMARK 923 INTER-LIGAND FREE ENERGY PREDICTED BY IDOCK:   -7.75 KCAL/MOL
REMARK 924 INTRA-LIGAND FREE ENERGY PREDICTED BY IDOCK:   -1.54 KCAL/MOL
REMARK 927      BINDING AFFINITY PREDICTED BY RF-SCORE:    0.00 PKD
ROOT
HETATM    1  C   UNL     1     -11.378   8.820  71.918  1.00  0.00    -0.431 C  
HETATM    2  C   UNL     1     -11.107   9.840  70.825  1.00  0.00    -0.415 C  
ENDROOT
BRANCH   2   3
HETATM    3  C   UNL     1     -12.378  10.600  70.459  1.00  0.00    -0.448 C  
BRANCH   3   4
HETATM    4  C   UNL     1     -12.953  11.323  71.672  1.00  0.00    -0.537 C  
BRANCH   4   5
HETATM    5  C   UNL     1     -13.095  12.815  71.391  1.00  0.00    -0.318 C  
BRANCH   5   6
HETATM    6  C   UNL     1     -14.021  13.468  72.408  1.00  0.00    -0.638 C  
BRANCH   6   7
HETATM    7  C   UNL     1     -13.962  14.986  72.289  1.00  0.00    -0.611 C  
BRANCH   7   8
HETATM    8  C   UNL     1     -13.218  15.386  71.024  1.00  0.00    -0.560 C  
BRANCH   8   9
HETATM    9  C   UNL     1     -11.877  16.016  71.367  1.00  0.00    -0.531 C  
BRANCH   9  10
HETATM   10  C   UNL     1     -10.865  15.709  70.273  1.00  0.00    -0.366 C  
BRANCH  10  11
HETATM   11  C   UNL     1     -11.498  15.866  68.903  1.00  0.00    -0.386 C  
BRANCH  11  12
HETATM   12  C   UNL     1     -11.039  14.756  67.967  1.00  0.00    -0.294 C  
BRANCH  12  13
HETATM   13  C   UNL     1     -12.028  13.606  68.023  1.00  0.00    -0.385 C  
BRANCH  13  14
HETATM   14  C   UNL     1     -11.782  12.591  66.912  1.00  0.00    -0.447 C  
BRANCH  14  15
HETATM   15  C   UNL     1     -10.620  11.652  67.243  1.00  0.00    -0.265 C  
BRANCH  15  16
HETATM   16  C   UNL     1      -9.498  11.745  66.205  1.00  0.00    -0.224 C  
BRANCH  16  17
HETATM   17  N   UNL     1      -9.278  10.454  65.409  1.00  0.00    -0.179 N  
HETATM   18  C   UNL     1      -9.746   9.235  66.186  1.00  0.00    -0.279 C  
HETATM   19  C   UNL     1      -7.771  10.324  65.158  1.00  0.00    -0.136 C  
HETATM   20  C   UNL     1      -9.979  10.514  64.056  1.00  0.00    -0.297 C  
ENDBRANCH  16  17
ENDBRANCH  15  16
ENDBRANCH  14  15
ENDBRANCH  13  14
ENDBRANCH  12  13
ENDBRANCH  11  12
ENDBRANCH  10  11
ENDBRANCH   9  10
ENDBRANCH   8   9
ENDBRANCH   7   8
ENDBRANCH   6   7
ENDBRANCH   5   6
ENDBRANCH   4   5
ENDBRANCH   3   4
ENDBRANCH   2   3
TORSDOF 15
ENDMDL
MODEL       25
REMARK 921   NORMALIZED FREE ENERGY PREDICTED BY IDOCK:   -4.03 KCAL/MOL
REMARK 922        TOTAL FREE ENERGY PREDICTED BY IDOCK:   -9.26 KCAL/MOL
REMARK 923 INTER-LIGAND FREE ENERGY PREDICTED BY IDOCK:   -8.12 KCAL/MOL
REMARK 924 INTRA-LIGAND FREE ENERGY PREDICTED BY IDOCK:   -1.14 KCAL/MOL
REMARK 927      BINDING AFFINITY PREDICTED BY RF-SCORE:    0.00 PKD
ROOT
HETATM    1  C   UNL     1     -11.061   7.688  72.963  1.00  0.00    -0.437 C  
HETATM    2  C   UNL     1     -12.106   8.539  72.263  1.00  0.00    -0.455 C  
ENDROOT
BRANCH   2   3
HETATM    3  C   UNL     1     -11.655   8.910  70.854  1.00  0.00    -0.331 C  
BRANCH   3   4
HETATM    4  C   UNL     1     -11.651  10.422  70.659  1.00  0.00    -0.440 C  
BRANCH   4   5
HETATM    5  C   UNL     1     -12.856  11.056  71.346  1.00  0.00    -0.548 C  
BRANCH   5   6
HETATM    6  C   UNL     1     -12.840  12.568  71.173  1.00  0.00    -0.303 C  
BRANCH   6   7
HETATM    7  C   UNL     1     -13.629  13.244  72.287  1.00  0.00    -0.703 C  
BRANCH   7   8
HETATM    8  C   UNL     1     -13.184  14.690  72.443  1.00  0.00    -0.496 C  
BRANCH   8   9
HETATM    9  C   UNL     1     -13.167  15.395  71.097  1.00  0.00    -0.583 C  
BRANCH   9  10
HETATM   10  C   UNL     1     -11.776  15.946  70.817  1.00  0.00    -0.433 C  
BRANCH  10  11
HETATM   11  C   UNL     1     -11.348  15.615  69.399  1.00  0.00    -0.332 C  
BRANCH  11  12
HETATM   12  C   UNL     1     -10.189  16.501  68.964  1.00  0.00    -0.285 C  
BRANCH  12  13
HETATM   13  C   UNL     1      -9.592  15.957  67.678  1.00  0.00    -0.221 C  
BRANCH  13  14
HETATM   14  C   UNL     1     -10.233  16.585  66.445  1.00  0.00    -0.324 C  
BRANCH  14  15
HETATM   15  C   UNL     1     -10.683  15.527  65.434  1.00  0.00    -0.422 C  
BRANCH  15  16
HETATM   16  C   UNL     1     -10.248  14.120  65.851  1.00  0.00    -0.319 C  
BRANCH  16  17
HETATM   17  N   UNL     1     -11.394  13.101  65.896  1.00  0.00    -0.304 N  
HETATM   18  C   UNL     1     -11.185  11.986  64.885  1.00  0.00    -0.320 C  
HETATM   19  C   UNL     1     -12.683  13.850  65.539  1.00  0.00    -0.499 C  
HETATM   20  C   UNL     1     -11.557  12.517  67.295  1.00  0.00    -0.367 C  
ENDBRANCH  16  17
ENDBRANCH  15  16
ENDBRANCH  14  15
ENDBRANCH  13  14
ENDBRANCH  12  13
ENDBRANCH  11  12
ENDBRANCH  10  11
ENDBRANCH   9  10
ENDBRANCH   8   9
ENDBRANCH   7   8
ENDBRANCH   6   7
ENDBRANCH   5   6
ENDBRANCH   4   5
ENDBRANCH   3   4
ENDBRANCH   2   3
TORSDOF 15
ENDMDL
MODEL       26
REMARK 921   NORMALIZED FREE ENERGY PREDICTED BY IDOCK:   -4.03 KCAL/MOL
REMARK 922        TOTAL FREE ENERGY PREDICTED BY IDOCK:   -9.25 KCAL/MOL
REMARK 923 INTER-LIGAND FREE ENERGY PREDICTED BY IDOCK:   -7.15 KCAL/MOL
REMARK 924 INTRA-LIGAND FREE ENERGY PREDICTED BY IDOCK:   -2.10 KCAL/MOL
REMARK 927      BINDING AFFINITY PREDICTED BY RF-SCORE:    0.00 PKD
ROOT
HETATM    1  C   UNL     1      -8.926  10.943  62.531  1.00  0.00    -0.360 C  
HETATM    2  C   UNL     1     -10.046  11.077  63.549  1.00  0.00    -0.428 C  
ENDROOT
BRANCH   2   3
HETATM    3  C   UNL     1     -10.827  12.369  63.334  1.00  0.00    -0.417 C  
BRANCH   3   4
HETATM    4  C   UNL     1     -12.319  12.153  63.566  1.00  0.00    -0.682 C  
BRANCH   4   5
HETATM    5  C   UNL     1     -12.738  12.707  64.923  1.00  0.00    -0.450 C  
BRANCH   5   6
HETATM    6  C   UNL     1     -12.318  14.164  65.063  1.00  0.00    -0.452 C  
BRANCH   6   7
HETATM    7  C   UNL     1     -11.880  14.462  66.491  1.00  0.00    -0.406 C  
BRANCH   7   8
HETATM    8  C   UNL     1     -10.415  14.870  66.518  1.00  0.00    -0.297 C  
BRANCH   8   9
HETATM    9  C   UNL     1      -9.516  13.652  66.386  1.00  0.00    -0.248 C  
BRANCH   9  10
HETATM   10  C   UNL     1      -8.776  13.409  67.694  1.00  0.00    -0.198 C  
BRANCH  10  11
HETATM   11  C   UNL     1      -9.109  12.034  68.245  1.00  0.00    -0.190 C  
BRANCH  11  12
HETATM   12  C   UNL     1     -10.193  11.366  67.409  1.00  0.00    -0.221 C  
BRANCH  12  13
HETATM   13  C   UNL     1     -11.335  10.937  68.313  1.00  0.00    -0.374 C  
BRANCH  13  14
HETATM   14  C   UNL     1     -11.056  11.269  69.776  1.00  0.00    -0.238 C  
BRANCH  14  15
HETATM   15  C   UNL     1     -12.195  12.073  70.406  1.00  0.00    -0.379 C  
BRANCH  15  16
HETATM   16  C   UNL     1     -11.952  13.581  70.305  1.00  0.00    -0.316 C  
BRANCH  16  17
HETATM   17  N   UNL     1     -12.672  14.402  71.382  1.00  0.00    -0.322 N  
HETATM   18  C   UNL     1     -13.705  15.335  70.771  1.00  0.00    -0.189 C  
HETATM   19  C   UNL     1     -11.612  15.247  72.097  1.00  0.00    -0.444 C  
HETATM   20  C   UNL     1     -13.331  13.496  72.416  1.00  0.00    -0.540 C  
ENDBRANCH  16  17
ENDBRANCH  15  16
ENDBRANCH  14  15
ENDBRANCH  13  14
ENDBRANCH  12  13
ENDBRANCH  11  12
ENDBRANCH  10  11
ENDBRANCH   9  10
ENDBRANCH   8   9
ENDBRANCH   7   8
ENDBRANCH   6   7
ENDBRANCH   5   6
ENDBRANCH   4   5
ENDBRANCH   3   4
ENDBRANCH   2   3
TORSDOF 15
ENDMDL
MODEL       27
REMARK 921   NORMALIZED FREE ENERGY PREDICTED BY IDOCK:   -4.02 KCAL/MOL
REMARK 922        TOTAL FREE ENERGY PREDICTED BY IDOCK:   -9.24 KCAL/MOL
REMARK 923 INTER-LIGAND FREE ENERGY PREDICTED BY IDOCK:   -7.55 KCAL/MOL
REMARK 924 INTRA-LIGAND FREE ENERGY PREDICTED BY IDOCK:   -1.68 KCAL/MOL
REMARK 927      BINDING AFFINITY PREDICTED BY RF-SCORE:    0.00 PKD
ROOT
HETATM    1  C   UNL     1     -12.659  15.298  73.631  1.00  0.00    -0.712 C  
HETATM    2  C   UNL     1     -13.668  15.525  72.519  1.00  0.00    -0.668 C  
ENDROOT
BRANCH   2   3
HETATM    3  C   UNL     1     -13.526  14.470  71.427  1.00  0.00    -0.445 C  
BRANCH   3   4
HETATM    4  C   UNL     1     -12.081  14.365  70.951  1.00  0.00    -0.414 C  
BRANCH   4   5
HETATM    5  C   UNL     1     -11.958  14.828  69.503  1.00  0.00    -0.351 C  
BRANCH   5   6
HETATM    6  C   UNL     1     -11.925  13.636  68.558  1.00  0.00    -0.396 C  
BRANCH   6   7
HETATM    7  C   UNL     1     -10.556  12.966  68.586  1.00  0.00    -0.256 C  
BRANCH   7   8
HETATM    8  C   UNL     1     -10.711  11.454  68.628  1.00  0.00    -0.241 C  
BRANCH   8   9
HETATM    9  C   UNL     1     -12.031  11.067  69.275  1.00  0.00    -0.410 C  
BRANCH   9  10
HETATM   10  C   UNL     1     -11.789  10.576  70.695  1.00  0.00    -0.458 C  
BRANCH  10  11
HETATM   11  C   UNL     1     -13.025  10.789  71.550  1.00  0.00    -0.562 C  
BRANCH  11  12
HETATM   12  C   UNL     1     -13.462   9.482  72.200  1.00  0.00    -0.535 C  
BRANCH  12  13
HETATM   13  C   UNL     1     -12.297   8.508  72.209  1.00  0.00    -0.450 C  
BRANCH  13  14
HETATM   14  C   UNL     1     -12.687   7.151  71.632  1.00  0.00    -0.415 C  
BRANCH  14  15
HETATM   15  C   UNL     1     -11.491   6.201  71.548  1.00  0.00    -0.325 C  
BRANCH  15  16
HETATM   16  C   UNL     1     -10.184   6.953  71.278  1.00  0.00    -0.198 C  
BRANCH  16  17
HETATM   17  N   UNL     1      -9.593   6.693  69.887  1.00  0.00    -0.155 N  
HETATM   18  C   UNL     1     -10.057   7.736  68.883  1.00  0.00    -0.195 C  
HETATM   19  C   UNL     1     -10.091   5.318  69.429  1.00  0.00    -0.241 C  
HETATM   20  C   UNL     1      -8.069   6.654  69.935  1.00  0.00    -0.125 C  
ENDBRANCH  16  17
ENDBRANCH  15  16
ENDBRANCH  14  15
ENDBRANCH  13  14
ENDBRANCH  12  13
ENDBRANCH  11  12
ENDBRANCH  10  11
ENDBRANCH   9  10
ENDBRANCH   8   9
ENDBRANCH   7   8
ENDBRANCH   6   7
ENDBRANCH   5   6
ENDBRANCH   4   5
ENDBRANCH   3   4
ENDBRANCH   2   3
TORSDOF 15
ENDMDL
MODEL       28
REMARK 921   NORMALIZED FREE ENERGY PREDICTED BY IDOCK:   -4.01 KCAL/MOL
REMARK 922        TOTAL FREE ENERGY PREDICTED BY IDOCK:   -9.22 KCAL/MOL
REMARK 923 INTER-LIGAND FREE ENERGY PREDICTED BY IDOCK:   -7.52 KCAL/MOL
REMARK 924 INTRA-LIGAND FREE ENERGY PREDICTED BY IDOCK:   -1.70 KCAL/MOL
REMARK 927      BINDING AFFINITY PREDICTED BY RF-SCORE:    0.00 PKD
ROOT
HETATM    1  C   UNL     1     -11.169  10.801  67.709  1.00  0.00    -0.385 C  
HETATM    2  C   UNL     1     -10.520   9.460  67.410  1.00  0.00    -0.343 C  
ENDROOT
BRANCH   2   3
HETATM    3  C   UNL     1      -9.620   9.551  66.182  1.00  0.00    -0.302 C  
BRANCH   3   4
HETATM    4  C   UNL     1      -9.772  10.900  65.489  1.00  0.00    -0.282 C  
BRANCH   4   5
HETATM    5  C   UNL     1      -9.251  10.831  64.058  1.00  0.00    -0.252 C  
BRANCH   5   6
HETATM    6  C   UNL     1     -10.005  11.805  63.163  1.00  0.00    -0.373 C  
BRANCH   6   7
HETATM    7  C   UNL     1     -11.508  11.682  63.383  1.00  0.00    -0.360 C  
BRANCH   7   8
HETATM    8  C   UNL     1     -12.100  13.038  63.737  1.00  0.00    -0.574 C  
BRANCH   8   9
HETATM    9  C   UNL     1     -12.771  12.992  65.100  1.00  0.00    -0.461 C  
BRANCH   9  10
HETATM   10  C   UNL     1     -12.287  14.154  65.957  1.00  0.00    -0.470 C  
BRANCH  10  11
HETATM   11  C   UNL     1     -10.781  14.303  65.848  1.00  0.00    -0.304 C  
BRANCH  11  12
HETATM   12  C   UNL     1     -10.247  15.198  66.958  1.00  0.00    -0.262 C  
BRANCH  12  13
HETATM   13  C   UNL     1     -10.451  14.516  68.300  1.00  0.00    -0.242 C  
BRANCH  13  14
HETATM   14  C   UNL     1     -11.461  15.262  69.167  1.00  0.00    -0.330 C  
BRANCH  14  15
HETATM   15  C   UNL     1     -11.913  14.423  70.365  1.00  0.00    -0.395 C  
BRANCH  15  16
HETATM   16  C   UNL     1     -11.850  15.218  71.672  1.00  0.00    -0.388 C  
BRANCH  16  17
HETATM   17  N   UNL     1     -13.004  14.921  72.638  1.00  0.00    -0.378 N  
HETATM   18  C   UNL     1     -13.432  13.465  72.560  1.00  0.00    -0.536 C  
HETATM   19  C   UNL     1     -14.187  15.801  72.218  1.00  0.00    -0.330 C  
HETATM   20  C   UNL     1     -12.630  15.282  74.071  1.00  0.00    -0.552 C  
ENDBRANCH  16  17
ENDBRANCH  15  16
ENDBRANCH  14  15
ENDBRANCH  13  14
ENDBRANCH  12  13
ENDBRANCH  11  12
ENDBRANCH  10  11
ENDBRANCH   9  10
ENDBRANCH   8   9
ENDBRANCH   7   8
ENDBRANCH   6   7
ENDBRANCH   5   6
ENDBRANCH   4   5
ENDBRANCH   3   4
ENDBRANCH   2   3
TORSDOF 15
ENDMDL
MODEL       29
REMARK 921   NORMALIZED FREE ENERGY PREDICTED BY IDOCK:   -4.01 KCAL/MOL
REMARK 922        TOTAL FREE ENERGY PREDICTED BY IDOCK:   -9.22 KCAL/MOL
REMARK 923 INTER-LIGAND FREE ENERGY PREDICTED BY IDOCK:   -7.41 KCAL/MOL
REMARK 924 INTRA-LIGAND FREE ENERGY PREDICTED BY IDOCK:   -1.81 KCAL/MOL
REMARK 927      BINDING AFFINITY PREDICTED BY RF-SCORE:    0.00 PKD
ROOT
HETATM    1  C   UNL     1     -10.358  18.893  66.163  1.00  0.00    -0.517 C  
HETATM    2  C   UNL     1     -10.321  17.425  66.553  1.00  0.00    -0.312 C  
ENDROOT
BRANCH   2   3
HETATM    3  C   UNL     1     -10.565  16.532  65.342  1.00  0.00    -0.293 C  
BRANCH   3   4
HETATM    4  C   UNL     1     -11.051  15.151  65.768  1.00  0.00    -0.330 C  
BRANCH   4   5
HETATM    5  C   UNL     1     -11.875  14.505  64.660  1.00  0.00    -0.462 C  
BRANCH   5   6
HETATM    6  C   UNL     1     -12.659  13.315  65.195  1.00  0.00    -0.512 C  
BRANCH   6   7
HETATM    7  C   UNL     1     -12.610  12.153  64.212  1.00  0.00    -0.432 C  
BRANCH   7   8
HETATM    8  C   UNL     1     -11.195  11.970  63.685  1.00  0.00    -0.528 C  
BRANCH   8   9
HETATM    9  C   UNL     1     -10.475  10.871  64.451  1.00  0.00    -0.403 C  
BRANCH   9  10
HETATM   10  C   UNL     1      -9.334  11.466  65.263  1.00  0.00    -0.192 C  
BRANCH  10  11
HETATM   11  C   UNL     1      -9.784  11.752  66.683  1.00  0.00    -0.219 C  
BRANCH  11  12
HETATM   12  C   UNL     1     -10.788  10.706  67.151  1.00  0.00    -0.328 C  
BRANCH  12  13
HETATM   13  C   UNL     1     -11.861  11.377  67.992  1.00  0.00    -0.273 C  
BRANCH  13  14
HETATM   14  C   UNL     1     -11.302  11.901  69.311  1.00  0.00    -0.338 C  
BRANCH  14  15
HETATM   15  C   UNL     1     -11.841  13.294  69.645  1.00  0.00    -0.391 C  
BRANCH  15  16
HETATM   16  C   UNL     1     -12.547  13.321  71.004  1.00  0.00    -0.324 C  
BRANCH  16  17
HETATM   17  N   UNL     1     -12.885  14.731  71.502  1.00  0.00    -0.311 N  
HETATM   18  C   UNL     1     -14.388  14.956  71.555  1.00  0.00    -0.539 C  
HETATM   19  C   UNL     1     -12.277  15.724  70.506  1.00  0.00    -0.363 C  
HETATM   20  C   UNL     1     -12.267  14.994  72.871  1.00  0.00    -0.344 C  
ENDBRANCH  16  17
ENDBRANCH  15  16
ENDBRANCH  14  15
ENDBRANCH  13  14
ENDBRANCH  12  13
ENDBRANCH  11  12
ENDBRANCH  10  11
ENDBRANCH   9  10
ENDBRANCH   8   9
ENDBRANCH   7   8
ENDBRANCH   6   7
ENDBRANCH   5   6
ENDBRANCH   4   5
ENDBRANCH   3   4
ENDBRANCH   2   3
TORSDOF 15
ENDMDL
MODEL       30
REMARK 921   NORMALIZED FREE ENERGY PREDICTED BY IDOCK:   -4.01 KCAL/MOL
REMARK 922        TOTAL FREE ENERGY PREDICTED BY IDOCK:   -9.21 KCAL/MOL
REMARK 923 INTER-LIGAND FREE ENERGY PREDICTED BY IDOCK:   -7.97 KCAL/MOL
REMARK 924 INTRA-LIGAND FREE ENERGY PREDICTED BY IDOCK:   -1.25 KCAL/MOL
REMARK 927      BINDING AFFINITY PREDICTED BY RF-SCORE:    0.00 PKD
ROOT
HETATM    1  C   UNL     1     -10.975   7.720  72.929  1.00  0.00    -0.467 C  
HETATM    2  C   UNL     1     -12.148   8.443  72.289  1.00  0.00    -0.456 C  
ENDROOT
BRANCH   2   3
HETATM    3  C   UNL     1     -11.775   8.976  70.910  1.00  0.00    -0.327 C  
BRANCH   3   4
HETATM    4  C   UNL     1     -11.683  10.499  70.918  1.00  0.00    -0.431 C  
BRANCH   4   5
HETATM    5  C   UNL     1     -12.858  11.104  71.679  1.00  0.00    -0.524 C  
BRANCH   5   6
HETATM    6  C   UNL     1     -12.954  12.600  71.418  1.00  0.00    -0.353 C  
BRANCH   6   7
HETATM    7  C   UNL     1     -13.874  13.264  72.436  1.00  0.00    -0.630 C  
BRANCH   7   8
HETATM    8  C   UNL     1     -13.347  14.644  72.800  1.00  0.00    -0.593 C  
BRANCH   8   9
HETATM    9  C   UNL     1     -13.117  15.477  71.550  1.00  0.00    -0.573 C  
BRANCH   9  10
HETATM   10  C   UNL     1     -11.726  16.094  71.586  1.00  0.00    -0.558 C  
BRANCH  10  11
HETATM   11  C   UNL     1     -10.966  15.767  70.314  1.00  0.00    -0.368 C  
BRANCH  11  12
HETATM   12  C   UNL     1     -11.920  15.305  69.220  1.00  0.00    -0.327 C  
BRANCH  12  13
HETATM   13  C   UNL     1     -11.297  15.574  67.861  1.00  0.00    -0.309 C  
BRANCH  13  14
HETATM   14  C   UNL     1      -9.872  15.036  67.773  1.00  0.00    -0.220 C  
BRANCH  14  15
HETATM   15  C   UNL     1      -8.956  15.975  66.985  1.00  0.00    -0.236 C  
BRANCH  15  16
HETATM   16  C   UNL     1      -9.668  17.273  66.596  1.00  0.00    -0.288 C  
BRANCH  16  17
HETATM   17  N   UNL     1      -9.101  18.524  67.280  1.00  0.00    -0.274 N  
HETATM   18  C   UNL     1      -7.895  18.187  68.141  1.00  0.00    -0.280 C  
HETATM   19  C   UNL     1     -10.203  19.089  68.182  1.00  0.00    -0.396 C  
HETATM   20  C   UNL     1      -8.732  19.592  66.256  1.00  0.00    -0.359 C  
ENDBRANCH  16  17
ENDBRANCH  15  16
ENDBRANCH  14  15
ENDBRANCH  13  14
ENDBRANCH  12  13
ENDBRANCH  11  12
ENDBRANCH  10  11
ENDBRANCH   9  10
ENDBRANCH   8   9
ENDBRANCH   7   8
ENDBRANCH   6   7
ENDBRANCH   5   6
ENDBRANCH   4   5
ENDBRANCH   3   4
ENDBRANCH   2   3
TORSDOF 15
ENDMDL
MODEL       31
REMARK 921   NORMALIZED FREE ENERGY PREDICTED BY IDOCK:   -4.01 KCAL/MOL
REMARK 922        TOTAL FREE ENERGY PREDICTED BY IDOCK:   -9.21 KCAL/MOL
REMARK 923 INTER-LIGAND FREE ENERGY PREDICTED BY IDOCK:   -7.75 KCAL/MOL
REMARK 924 INTRA-LIGAND FREE ENERGY PREDICTED BY IDOCK:   -1.46 KCAL/MOL
REMARK 927      BINDING AFFINITY PREDICTED BY RF-SCORE:    0.00 PKD
ROOT
HETATM    1  C   UNL     1      -9.879  18.211  66.317  1.00  0.00    -0.311 C  
HETATM    2  C   UNL     1      -9.310  17.464  67.511  1.00  0.00    -0.233 C  
ENDROOT
BRANCH   2   3
HETATM    3  C   UNL     1     -10.295  17.463  68.675  1.00  0.00    -0.364 C  
BRANCH   3   4
HETATM    4  C   UNL     1     -10.956  16.097  68.833  1.00  0.00    -0.324 C  
BRANCH   4   5
HETATM    5  C   UNL     1     -10.558  15.457  70.158  1.00  0.00    -0.314 C  
BRANCH   5   6
HETATM    6  C   UNL     1     -11.615  15.721  71.221  1.00  0.00    -0.499 C  
BRANCH   6   7
HETATM    7  C   UNL     1     -13.013  15.537  70.644  1.00  0.00    -0.425 C  
BRANCH   7   8
HETATM    8  C   UNL     1     -13.993  15.168  71.748  1.00  0.00    -0.627 C  
BRANCH   8   9
HETATM    9  C   UNL     1     -13.396  14.113  72.665  1.00  0.00    -0.638 C  
BRANCH   9  10
HETATM   10  C   UNL     1     -13.652  12.725  72.095  1.00  0.00    -0.547 C  
BRANCH  10  11
HETATM   11  C   UNL     1     -12.495  12.291  71.214  1.00  0.00    -0.281 C  
BRANCH  11  12
HETATM   12  C   UNL     1     -12.687  10.856  70.740  1.00  0.00    -0.431 C  
BRANCH  12  13
HETATM   13  C   UNL     1     -11.832  10.613  69.508  1.00  0.00    -0.345 C  
BRANCH  13  14
HETATM   14  C   UNL     1     -11.175  11.897  69.011  1.00  0.00    -0.316 C  
BRANCH  14  15
HETATM   15  C   UNL     1     -11.752  12.351  67.669  1.00  0.00    -0.412 C  
BRANCH  15  16
HETATM   16  C   UNL     1     -10.707  13.073  66.814  1.00  0.00    -0.262 C  
BRANCH  16  17
HETATM   17  N   UNL     1     -11.181  13.394  65.391  1.00  0.00    -0.286 N  
HETATM   18  C   UNL     1     -12.534  12.765  65.101  1.00  0.00    -0.501 C  
HETATM   19  C   UNL     1     -10.149  12.804  64.423  1.00  0.00    -0.249 C  
HETATM   20  C   UNL     1     -11.242  14.900  65.157  1.00  0.00    -0.386 C  
ENDBRANCH  16  17
ENDBRANCH  15  16
ENDBRANCH  14  15
ENDBRANCH  13  14
ENDBRANCH  12  13
ENDBRANCH  11  12
ENDBRANCH  10  11
ENDBRANCH   9  10
ENDBRANCH   8   9
ENDBRANCH   7   8
ENDBRANCH   6   7
ENDBRANCH   5   6
ENDBRANCH   4   5
ENDBRANCH   3   4
ENDBRANCH   2   3
TORSDOF 15
ENDMDL
MODEL       32
REMARK 921   NORMALIZED FREE ENERGY PREDICTED BY IDOCK:   -4.00 KCAL/MOL
REMARK 922        TOTAL FREE ENERGY PREDICTED BY IDOCK:   -9.20 KCAL/MOL
REMARK 923 INTER-LIGAND FREE ENERGY PREDICTED BY IDOCK:   -7.88 KCAL/MOL
REMARK 924 INTRA-LIGAND FREE ENERGY PREDICTED BY IDOCK:   -1.32 KCAL/MOL
REMARK 927      BINDING AFFINITY PREDICTED BY RF-SCORE:    0.00 PKD
ROOT
HETATM    1  C   UNL     1     -11.144   6.267  68.716  1.00  0.00    -0.424 C  
HETATM    2  C   UNL     1     -10.342   5.501  69.754  1.00  0.00    -0.366 C  
ENDROOT
BRANCH   2   3
HETATM    3  C   UNL     1     -10.663   5.990  71.163  1.00  0.00    -0.323 C  
BRANCH   3   4
HETATM    4  C   UNL     1     -11.852   6.945  71.154  1.00  0.00    -0.395 C  
BRANCH   4   5
HETATM    5  C   UNL     1     -11.692   8.013  72.230  1.00  0.00    -0.428 C  
BRANCH   5   6
HETATM    6  C   UNL     1     -10.978   9.236  71.672  1.00  0.00    -0.433 C  
BRANCH   6   7
HETATM    7  C   UNL     1     -11.851   9.944  70.643  1.00  0.00    -0.386 C  
BRANCH   7   8
HETATM    8  C   UNL     1     -13.006  10.654  71.332  1.00  0.00    -0.545 C  
BRANCH   8   9
HETATM    9  C   UNL     1     -12.721  12.141  71.462  1.00  0.00    -0.348 C  
BRANCH   9  10
HETATM   10  C   UNL     1     -13.855  12.824  72.214  1.00  0.00    -0.395 C  
BRANCH  10  11
HETATM   11  C   UNL     1     -13.396  14.159  72.770  1.00  0.00    -0.618 C  
BRANCH  11  12
HETATM   12  C   UNL     1     -13.293  15.198  71.662  1.00  0.00    -0.521 C  
BRANCH  12  13
HETATM   13  C   UNL     1     -11.939  15.883  71.736  1.00  0.00    -0.573 C  
BRANCH  13  14
HETATM   14  C   UNL     1     -11.059  15.531  70.541  1.00  0.00    -0.369 C  
BRANCH  14  15
HETATM   15  C   UNL     1     -11.861  14.868  69.418  1.00  0.00    -0.356 C  
BRANCH  15  16
HETATM   16  C   UNL     1     -11.125  14.931  68.078  1.00  0.00    -0.295 C  
BRANCH  16  17
HETATM   17  N   UNL     1     -10.585  13.578  67.599  1.00  0.00    -0.239 N  
HETATM   18  C   UNL     1      -9.218  13.284  68.194  1.00  0.00    -0.212 C  
HETATM   19  C   UNL     1     -10.448  13.656  66.074  1.00  0.00    -0.300 C  
HETATM   20  C   UNL     1     -11.555  12.449  67.929  1.00  0.00    -0.356 C  
ENDBRANCH  16  17
ENDBRANCH  15  16
ENDBRANCH  14  15
ENDBRANCH  13  14
ENDBRANCH  12  13
ENDBRANCH  11  12
ENDBRANCH  10  11
ENDBRANCH   9  10
ENDBRANCH   8   9
ENDBRANCH   7   8
ENDBRANCH   6   7
ENDBRANCH   5   6
ENDBRANCH   4   5
ENDBRANCH   3   4
ENDBRANCH   2   3
TORSDOF 15
ENDMDL
MODEL       33
REMARK 921   NORMALIZED FREE ENERGY PREDICTED BY IDOCK:   -4.00 KCAL/MOL
REMARK 922        TOTAL FREE ENERGY PREDICTED BY IDOCK:   -9.19 KCAL/MOL
REMARK 923 INTER-LIGAND FREE ENERGY PREDICTED BY IDOCK:   -7.32 KCAL/MOL
REMARK 924 INTRA-LIGAND FREE ENERGY PREDICTED BY IDOCK:   -1.87 KCAL/MOL
REMARK 927      BINDING AFFINITY PREDICTED BY RF-SCORE:    0.00 PKD
ROOT
HETATM    1  C   UNL     1      -9.200   8.414  66.692  1.00  0.00    -0.226 C  
HETATM    2  C   UNL     1     -10.582   7.821  66.905  1.00  0.00    -0.347 C  
ENDROOT
BRANCH   2   3
HETATM    3  C   UNL     1     -10.607   6.924  68.138  1.00  0.00    -0.262 C  
BRANCH   3   4
HETATM    4  C   UNL     1      -9.693   7.469  69.231  1.00  0.00    -0.163 C  
BRANCH   4   5
HETATM    5  C   UNL     1     -10.275   7.181  70.611  1.00  0.00    -0.205 C  
BRANCH   5   6
HETATM    6  C   UNL     1     -11.687   6.624  70.494  1.00  0.00    -0.453 C  
BRANCH   6   7
HETATM    7  C   UNL     1     -12.469   6.869  71.779  1.00  0.00    -0.397 C  
BRANCH   7   8
HETATM    8  C   UNL     1     -13.878   7.341  71.455  1.00  0.00    -0.463 C  
BRANCH   8   9
HETATM    9  C   UNL     1     -14.106   8.750  71.978  1.00  0.00    -0.508 C  
BRANCH   9  10
HETATM   10  C   UNL     1     -12.812   9.548  71.900  1.00  0.00    -0.508 C  
BRANCH  10  11
HETATM   11  C   UNL     1     -13.108  11.024  71.713  1.00  0.00    -0.554 C  
BRANCH  11  12
HETATM   12  C   UNL     1     -12.220  11.620  70.629  1.00  0.00    -0.461 C  
BRANCH  12  13
HETATM   13  C   UNL     1     -11.618  10.499  69.798  1.00  0.00    -0.368 C  
BRANCH  13  14
HETATM   14  C   UNL     1     -11.529  10.872  68.322  1.00  0.00    -0.376 C  
BRANCH  14  15
HETATM   15  C   UNL     1     -10.621  12.083  68.093  1.00  0.00    -0.233 C  
BRANCH  15  16
HETATM   16  C   UNL     1     -10.619  12.524  66.627  1.00  0.00    -0.237 C  
BRANCH  16  17
HETATM   17  N   UNL     1     -11.225  13.913  66.394  1.00  0.00    -0.310 N  
HETATM   18  C   UNL     1     -11.612  14.577  67.705  1.00  0.00    -0.378 C  
HETATM   19  C   UNL     1     -12.490  13.723  65.549  1.00  0.00    -0.512 C  
HETATM   20  C   UNL     1     -10.267  14.809  65.616  1.00  0.00    -0.358 C  
ENDBRANCH  16  17
ENDBRANCH  15  16
ENDBRANCH  14  15
ENDBRANCH  13  14
ENDBRANCH  12  13
ENDBRANCH  11  12
ENDBRANCH  10  11
ENDBRANCH   9  10
ENDBRANCH   8   9
ENDBRANCH   7   8
ENDBRANCH   6   7
ENDBRANCH   5   6
ENDBRANCH   4   5
ENDBRANCH   3   4
ENDBRANCH   2   3
TORSDOF 15
ENDMDL
MODEL       34
REMARK 921   NORMALIZED FREE ENERGY PREDICTED BY IDOCK:   -3.98 KCAL/MOL
REMARK 922        TOTAL FREE ENERGY PREDICTED BY IDOCK:   -9.17 KCAL/MOL
REMARK 923 INTER-LIGAND FREE ENERGY PREDICTED BY IDOCK:   -8.13 KCAL/MOL
REMARK 924 INTRA-LIGAND FREE ENERGY PREDICTED BY IDOCK:   -1.04 KCAL/MOL
REMARK 927      BINDING AFFINITY PREDICTED BY RF-SCORE:    0.00 PKD
ROOT
HETATM    1  C   UNL     1      -9.037   9.880  64.041  1.00  0.00    -0.300 C  
HETATM    2  C   UNL     1     -10.226  10.745  64.422  1.00  0.00    -0.432 C  
ENDROOT
BRANCH   2   3
HETATM    3  C   UNL     1     -10.370  11.926  63.467  1.00  0.00    -0.495 C  
BRANCH   3   4
HETATM    4  C   UNL     1     -11.787  12.489  63.502  1.00  0.00    -0.616 C  
BRANCH   4   5
HETATM    5  C   UNL     1     -12.327  12.497  64.927  1.00  0.00    -0.539 C  
BRANCH   5   6
HETATM    6  C   UNL     1     -12.805  13.890  65.314  1.00  0.00    -0.437 C  
BRANCH   6   7
HETATM    7  C   UNL     1     -12.189  14.319  66.640  1.00  0.00    -0.411 C  
BRANCH   7   8
HETATM    8  C   UNL     1     -11.748  13.100  67.435  1.00  0.00    -0.419 C  
BRANCH   8   9
HETATM    9  C   UNL     1     -11.415  13.485  68.867  1.00  0.00    -0.348 C  
BRANCH   9  10
HETATM   10  C   UNL     1     -11.798  12.353  69.811  1.00  0.00    -0.387 C  
BRANCH  10  11
HETATM   11  C   UNL     1     -12.531  12.897  71.023  1.00  0.00    -0.374 C  
BRANCH  11  12
HETATM   12  C   UNL     1     -13.041  11.761  71.900  1.00  0.00    -0.482 C  
BRANCH  12  13
HETATM   13  C   UNL     1     -12.673  10.431  71.266  1.00  0.00    -0.536 C  
BRANCH  13  14
HETATM   14  C   UNL     1     -13.148   9.251  72.108  1.00  0.00    -0.520 C  
BRANCH  14  15
HETATM   15  C   UNL     1     -12.001   8.295  72.449  1.00  0.00    -0.447 C  
BRANCH  15  16
HETATM   16  C   UNL     1     -12.078   7.001  71.635  1.00  0.00    -0.347 C  
BRANCH  16  17
HETATM   17  N   UNL     1     -10.827   6.719  70.794  1.00  0.00    -0.239 N  
HETATM   18  C   UNL     1     -11.192   6.332  69.370  1.00  0.00    -0.420 C  
HETATM   19  C   UNL     1     -10.094   5.542  71.448  1.00  0.00    -0.201 C  
HETATM   20  C   UNL     1      -9.886   7.918  70.787  1.00  0.00    -0.180 C  
ENDBRANCH  16  17
ENDBRANCH  15  16
ENDBRANCH  14  15
ENDBRANCH  13  14
ENDBRANCH  12  13
ENDBRANCH  11  12
ENDBRANCH  10  11
ENDBRANCH   9  10
ENDBRANCH   8   9
ENDBRANCH   7   8
ENDBRANCH   6   7
ENDBRANCH   5   6
ENDBRANCH   4   5
ENDBRANCH   3   4
ENDBRANCH   2   3
TORSDOF 15
ENDMDL
MODEL       35
REMARK 921   NORMALIZED FREE ENERGY PREDICTED BY IDOCK:   -3.98 KCAL/MOL
REMARK 922        TOTAL FREE ENERGY PREDICTED BY IDOCK:   -9.17 KCAL/MOL
REMARK 923 INTER-LIGAND FREE ENERGY PREDICTED BY IDOCK:   -7.16 KCAL/MOL
REMARK 924 INTRA-LIGAND FREE ENERGY PREDICTED BY IDOCK:   -2.00 KCAL/MOL
REMARK 927      BINDING AFFINITY PREDICTED BY RF-SCORE:    0.00 PKD
ROOT
HETATM    1  C   UNL     1     -10.276  16.044  65.524  1.00  0.00    -0.389 C  
HETATM    2  C   UNL     1     -10.581  14.556  65.553  1.00  0.00    -0.364 C  
ENDROOT
BRANCH   2   3
HETATM    3  C   UNL     1     -11.984  14.297  66.092  1.00  0.00    -0.422 C  
BRANCH   3   4
HETATM    4  C   UNL     1     -12.732  13.298  65.215  1.00  0.00    -0.474 C  
BRANCH   4   5
HETATM    5  C   UNL     1     -12.159  13.289  63.802  1.00  0.00    -0.546 C  
BRANCH   5   6
HETATM    6  C   UNL     1     -11.908  11.863  63.333  1.00  0.00    -0.512 C  
BRANCH   6   7
HETATM    7  C   UNL     1     -10.447  11.481  63.536  1.00  0.00    -0.486 C  
BRANCH   7   8
HETATM    8  C   UNL     1     -10.299  10.608  64.772  1.00  0.00    -0.353 C  
BRANCH   8   9
HETATM    9  C   UNL     1      -9.116  11.062  65.613  1.00  0.00    -0.223 C  
BRANCH   9  10
HETATM   10  C   UNL     1      -9.552  11.261  67.058  1.00  0.00    -0.197 C  
BRANCH  10  11
HETATM   11  C   UNL     1     -10.921  10.648  67.289  1.00  0.00    -0.348 C  
BRANCH  11  12
HETATM   12  C   UNL     1     -11.755  11.526  68.214  1.00  0.00    -0.371 C  
BRANCH  12  13
HETATM   13  C   UNL     1     -11.270  11.355  69.643  1.00  0.00    -0.301 C  
BRANCH  13  14
HETATM   14  C   UNL     1     -12.237  10.517  70.473  1.00  0.00    -0.435 C  
BRANCH  14  15
HETATM   15  C   UNL     1     -11.518   9.394  71.225  1.00  0.00    -0.433 C  
BRANCH  15  16
HETATM   16  C   UNL     1     -10.763   8.463  70.273  1.00  0.00    -0.234 C  
BRANCH  16  17
HETATM   17  N   UNL     1     -10.621   7.026  70.788  1.00  0.00    -0.216 N  
HETATM   18  C   UNL     1      -9.166   6.671  71.050  1.00  0.00    -0.160 C  
HETATM   19  C   UNL     1     -11.163   6.095  69.698  1.00  0.00    -0.418 C  
HETATM   20  C   UNL     1     -11.449   6.809  72.050  1.00  0.00    -0.282 C  
ENDBRANCH  16  17
ENDBRANCH  15  16
ENDBRANCH  14  15
ENDBRANCH  13  14
ENDBRANCH  12  13
ENDBRANCH  11  12
ENDBRANCH  10  11
ENDBRANCH   9  10
ENDBRANCH   8   9
ENDBRANCH   7   8
ENDBRANCH   6   7
ENDBRANCH   5   6
ENDBRANCH   4   5
ENDBRANCH   3   4
ENDBRANCH   2   3
TORSDOF 15
ENDMDL
MODEL       36
REMARK 921   NORMALIZED FREE ENERGY PREDICTED BY IDOCK:   -3.96 KCAL/MOL
REMARK 922        TOTAL FREE ENERGY PREDICTED BY IDOCK:   -9.13 KCAL/MOL
REMARK 923 INTER-LIGAND FREE ENERGY PREDICTED BY IDOCK:   -7.61 KCAL/MOL
REMARK 924 INTRA-LIGAND FREE ENERGY PREDICTED BY IDOCK:   -1.51 KCAL/MOL
REMARK 927      BINDING AFFINITY PREDICTED BY RF-SCORE:    0.00 PKD
ROOT
HETATM    1  C   UNL     1     -11.224  12.209  65.344  1.00  0.00    -0.381 C  
HETATM    2  C   UNL     1     -11.460  11.733  66.767  1.00  0.00    -0.352 C  
ENDROOT
BRANCH   2   3
HETATM    3  C   UNL     1     -11.866  12.892  67.671  1.00  0.00    -0.400 C  
BRANCH   3   4
HETATM    4  C   UNL     1     -11.989  14.189  66.877  1.00  0.00    -0.479 C  
BRANCH   4   5
HETATM    5  C   UNL     1     -11.147  15.290  67.515  1.00  0.00    -0.324 C  
BRANCH   5   6
HETATM    6  C   UNL     1     -10.907  14.998  68.989  1.00  0.00    -0.242 C  
BRANCH   6   7
HETATM    7  C   UNL     1     -11.000  16.277  69.812  1.00  0.00    -0.354 C  
BRANCH   7   8
HETATM    8  C   UNL     1     -11.700  16.001  71.134  1.00  0.00    -0.487 C  
BRANCH   8   9
HETATM    9  C   UNL     1     -13.072  15.390  70.898  1.00  0.00    -0.528 C  
BRANCH   9  10
HETATM   10  C   UNL     1     -13.730  15.062  72.231  1.00  0.00    -0.574 C  
BRANCH  10  11
HETATM   11  C   UNL     1     -13.731  13.563  72.468  1.00  0.00    -0.664 C  
BRANCH  11  12
HETATM   12  C   UNL     1     -13.129  12.828  71.278  1.00  0.00    -0.245 C  
BRANCH  12  13
HETATM   13  C   UNL     1     -12.952  11.361  71.627  1.00  0.00    -0.523 C  
BRANCH  13  14
HETATM   14  C   UNL     1     -12.363  10.568  70.465  1.00  0.00    -0.432 C  
BRANCH  14  15
HETATM   15  C   UNL     1     -11.087   9.825  70.869  1.00  0.00    -0.428 C  
BRANCH  15  16
HETATM   16  C   UNL     1     -11.092   8.376  70.376  1.00  0.00    -0.231 C  
BRANCH  16  17
HETATM   17  N   UNL     1     -10.469   7.381  71.363  1.00  0.00    -0.203 N  
HETATM   18  C   UNL     1     -11.452   6.284  71.741  1.00  0.00    -0.301 C  
HETATM   19  C   UNL     1     -10.100   8.164  72.628  1.00  0.00    -0.309 C  
HETATM   20  C   UNL     1      -9.193   6.768  70.796  1.00  0.00    -0.158 C  
ENDBRANCH  16  17
ENDBRANCH  15  16
ENDBRANCH  14  15
ENDBRANCH  13  14
ENDBRANCH  12  13
ENDBRANCH  11  12
ENDBRANCH  10  11
ENDBRANCH   9  10
ENDBRANCH   8   9
ENDBRANCH   7   8
ENDBRANCH   6   7
ENDBRANCH   5   6
ENDBRANCH   4   5
ENDBRANCH   3   4
ENDBRANCH   2   3
TORSDOF 15
ENDMDL
MODEL       37
REMARK 921   NORMALIZED FREE ENERGY PREDICTED BY IDOCK:   -3.96 KCAL/MOL
REMARK 922        TOTAL FREE ENERGY PREDICTED BY IDOCK:   -9.13 KCAL/MOL
REMARK 923 INTER-LIGAND FREE ENERGY PREDICTED BY IDOCK:   -7.44 KCAL/MOL
REMARK 924 INTRA-LIGAND FREE ENERGY PREDICTED BY IDOCK:   -1.69 KCAL/MOL
REMARK 927      BINDING AFFINITY PREDICTED BY RF-SCORE:    0.00 PKD
ROOT
HETATM    1  C   UNL     1     -11.787   6.993  71.574  1.00  0.00    -0.351 C  
HETATM    2  C   UNL     1     -11.757   8.362  72.233  1.00  0.00    -0.453 C  
ENDROOT
BRANCH   2   3
HETATM    3  C   UNL     1     -13.089   9.083  72.053  1.00  0.00    -0.474 C  
BRANCH   3   4
HETATM    4  C   UNL     1     -12.890  10.445  71.396  1.00  0.00    -0.556 C  
BRANCH   4   5
HETATM    5  C   UNL     1     -11.555  10.497  70.660  1.00  0.00    -0.445 C  
BRANCH   5   6
HETATM    6  C   UNL     1     -11.573  11.580  69.590  1.00  0.00    -0.403 C  
BRANCH   6   7
HETATM    7  C   UNL     1     -11.906  10.983  68.229  1.00  0.00    -0.221 C  
BRANCH   7   8
HETATM    8  C   UNL     1     -10.653  10.413  67.583  1.00  0.00    -0.304 C  
BRANCH   8   9
HETATM    9  C   UNL     1      -9.661  11.520  67.265  1.00  0.00    -0.197 C  
BRANCH   9  10
HETATM   10  C   UNL     1      -9.273  11.462  65.795  1.00  0.00    -0.223 C  
BRANCH  10  11
HETATM   11  C   UNL     1     -10.471  11.087  64.942  1.00  0.00    -0.371 C  
BRANCH  11  12
HETATM   12  C   UNL     1     -11.086  12.324  64.302  1.00  0.00    -0.401 C  
BRANCH  12  13
HETATM   13  C   UNL     1     -12.442  12.596  64.931  1.00  0.00    -0.564 C  
BRANCH  13  14
HETATM   14  C   UNL     1     -12.551  14.029  65.445  1.00  0.00    -0.529 C  
BRANCH  14  15
HETATM   15  C   UNL     1     -12.122  14.143  66.910  1.00  0.00    -0.466 C  
BRANCH  15  16
HETATM   16  C   UNL     1     -10.825  14.944  67.063  1.00  0.00    -0.315 C  
BRANCH  16  17
HETATM   17  N   UNL     1     -10.706  15.686  68.399  1.00  0.00    -0.261 N  
HETATM   18  C   UNL     1     -11.962  15.522  69.240  1.00  0.00    -0.316 C  
HETATM   19  C   UNL     1     -10.523  17.174  68.079  1.00  0.00    -0.369 C  
HETATM   20  C   UNL     1      -9.485  15.217  69.183  1.00  0.00    -0.221 C  
ENDBRANCH  16  17
ENDBRANCH  15  16
ENDBRANCH  14  15
ENDBRANCH  13  14
ENDBRANCH  12  13
ENDBRANCH  11  12
ENDBRANCH  10  11
ENDBRANCH   9  10
ENDBRANCH   8   9
ENDBRANCH   7   8
ENDBRANCH   6   7
ENDBRANCH   5   6
ENDBRANCH   4   5
ENDBRANCH   3   4
ENDBRANCH   2   3
TORSDOF 15
ENDMDL
MODEL       38
REMARK 921   NORMALIZED FREE ENERGY PREDICTED BY IDOCK:   -3.94 KCAL/MOL
REMARK 922        TOTAL FREE ENERGY PREDICTED BY IDOCK:   -9.10 KCAL/MOL
REMARK 923 INTER-LIGAND FREE ENERGY PREDICTED BY IDOCK:   -7.09 KCAL/MOL
REMARK 924 INTRA-LIGAND FREE ENERGY PREDICTED BY IDOCK:   -2.01 KCAL/MOL
REMARK 927      BINDING AFFINITY PREDICTED BY RF-SCORE:    0.00 PKD
ROOT
HETATM    1  C   UNL     1     -10.108  10.063  65.343  1.00  0.00    -0.317 C  
HETATM    2  C   UNL     1      -9.673  11.080  64.301  1.00  0.00    -0.333 C  
ENDROOT
BRANCH   2   3
HETATM    3  C   UNL     1     -10.878  11.673  63.580  1.00  0.00    -0.497 C  
BRANCH   3   4
HETATM    4  C   UNL     1     -11.954  12.104  64.571  1.00  0.00    -0.415 C  
BRANCH   4   5
HETATM    5  C   UNL     1     -11.786  13.573  64.941  1.00  0.00    -0.402 C  
BRANCH   5   6
HETATM    6  C   UNL     1     -11.810  13.754  66.453  1.00  0.00    -0.434 C  
BRANCH   6   7
HETATM    7  C   UNL     1     -10.402  13.663  67.026  1.00  0.00    -0.260 C  
BRANCH   7   8
HETATM    8  C   UNL     1     -10.404  12.826  68.296  1.00  0.00    -0.248 C  
BRANCH   8   9
HETATM    9  C   UNL     1     -11.827  12.542  68.750  1.00  0.00    -0.347 C  
BRANCH   9  10
HETATM   10  C   UNL     1     -11.811  11.667  69.995  1.00  0.00    -0.435 C  
BRANCH  10  11
HETATM   11  C   UNL     1     -12.521  12.361  71.142  1.00  0.00    -0.323 C  
BRANCH  11  12
HETATM   12  C   UNL     1     -12.824  13.811  70.790  1.00  0.00    -0.302 C  
BRANCH  12  13
HETATM   13  C   UNL     1     -12.284  14.719  71.881  1.00  0.00    -0.415 C  
BRANCH  13  14
HETATM   14  C   UNL     1     -11.862  16.077  71.331  1.00  0.00    -0.531 C  
BRANCH  14  15
HETATM   15  C   UNL     1     -10.720  15.953  70.319  1.00  0.00    -0.313 C  
BRANCH  15  16
HETATM   16  C   UNL     1     -11.090  16.562  68.964  1.00  0.00    -0.284 C  
BRANCH  16  17
HETATM   17  N   UNL     1      -9.930  17.283  68.268  1.00  0.00    -0.295 N  
HETATM   18  C   UNL     1      -8.585  16.807  68.792  1.00  0.00    -0.255 C  
HETATM   19  C   UNL     1     -10.073  18.778  68.575  1.00  0.00    -0.392 C  
HETATM   20  C   UNL     1      -9.997  17.103  66.755  1.00  0.00    -0.291 C  
ENDBRANCH  16  17
ENDBRANCH  15  16
ENDBRANCH  14  15
ENDBRANCH  13  14
ENDBRANCH  12  13
ENDBRANCH  11  12
ENDBRANCH  10  11
ENDBRANCH   9  10
ENDBRANCH   8   9
ENDBRANCH   7   8
ENDBRANCH   6   7
ENDBRANCH   5   6
ENDBRANCH   4   5
ENDBRANCH   3   4
ENDBRANCH   2   3
TORSDOF 15
ENDMDL
MODEL       39
REMARK 921   NORMALIZED FREE ENERGY PREDICTED BY IDOCK:   -3.94 KCAL/MOL
REMARK 922        TOTAL FREE ENERGY PREDICTED BY IDOCK:   -9.09 KCAL/MOL
REMARK 923 INTER-LIGAND FREE ENERGY PREDICTED BY IDOCK:   -7.10 KCAL/MOL
REMARK 924 INTRA-LIGAND FREE ENERGY PREDICTED BY IDOCK:   -1.99 KCAL/MOL
REMARK 927      BINDING AFFINITY PREDICTED BY RF-SCORE:    0.00 PKD
ROOT
HETATM    1  C   UNL     1     -11.907  12.939  69.817  1.00  0.00    -0.380 C  
HETATM    2  C   UNL     1     -12.327  14.399  69.792  1.00  0.00    -0.333 C  
ENDROOT
BRANCH   2   3
HETATM    3  C   UNL     1     -11.776  15.105  68.558  1.00  0.00    -0.347 C  
BRANCH   3   4
HETATM    4  C   UNL     1     -11.949  14.245  67.311  1.00  0.00    -0.439 C  
BRANCH   4   5
HETATM    5  C   UNL     1     -11.071  14.761  66.176  1.00  0.00    -0.339 C  
BRANCH   5   6
HETATM    6  C   UNL     1     -11.682  14.418  64.825  1.00  0.00    -0.420 C  
BRANCH   6   7
HETATM    7  C   UNL     1     -12.513  13.144  64.919  1.00  0.00    -0.490 C  
BRANCH   7   8
HETATM    8  C   UNL     1     -12.268  12.265  63.702  1.00  0.00    -0.665 C  
BRANCH   8   9
HETATM    9  C   UNL     1     -10.779  12.027  63.504  1.00  0.00    -0.513 C  
BRANCH   9  10
HETATM   10  C   UNL     1     -10.326  10.844  64.348  1.00  0.00    -0.430 C  
BRANCH  10  11
HETATM   11  C   UNL     1      -9.197  11.255  65.275  1.00  0.00    -0.191 C  
BRANCH  11  12
HETATM   12  C   UNL     1      -9.720  11.506  66.683  1.00  0.00    -0.221 C  
BRANCH  12  13
HETATM   13  C   UNL     1     -10.870  10.557  66.972  1.00  0.00    -0.288 C  
BRANCH  13  14
HETATM   14  C   UNL     1     -10.446   9.416  67.891  1.00  0.00    -0.296 C  
BRANCH  14  15
HETATM   15  C   UNL     1     -11.000   9.588  69.307  1.00  0.00    -0.167 C  
BRANCH  15  16
HETATM   16  C   UNL     1     -10.410   8.562  70.278  1.00  0.00    -0.205 C  
BRANCH  16  17
HETATM   17  N   UNL     1     -11.343   8.195  71.439  1.00  0.00    -0.252 N  
HETATM   18  C   UNL     1     -12.222   7.005  71.091  1.00  0.00    -0.382 C  
HETATM   19  C   UNL     1     -12.243   9.408  71.701  1.00  0.00    -0.390 C  
HETATM   20  C   UNL     1     -10.553   7.910  72.712  1.00  0.00    -0.353 C  
ENDBRANCH  16  17
ENDBRANCH  15  16
ENDBRANCH  14  15
ENDBRANCH  13  14
ENDBRANCH  12  13
ENDBRANCH  11  12
ENDBRANCH  10  11
ENDBRANCH   9  10
ENDBRANCH   8   9
ENDBRANCH   7   8
ENDBRANCH   6   7
ENDBRANCH   5   6
ENDBRANCH   4   5
ENDBRANCH   3   4
ENDBRANCH   2   3
TORSDOF 15
ENDMDL
MODEL       40
REMARK 921   NORMALIZED FREE ENERGY PREDICTED BY IDOCK:   -3.93 KCAL/MOL
REMARK 922        TOTAL FREE ENERGY PREDICTED BY IDOCK:   -9.07 KCAL/MOL
REMARK 923 INTER-LIGAND FREE ENERGY PREDICTED BY IDOCK:   -7.19 KCAL/MOL
REMARK 924 INTRA-LIGAND FREE ENERGY PREDICTED BY IDOCK:   -1.89 KCAL/MOL
REMARK 927      BINDING AFFINITY PREDICTED BY RF-SCORE:    0.00 PKD
ROOT
HETATM    1  C   UNL     1     -10.944  10.444  67.471  1.00  0.00    -0.358 C  
HETATM    2  C   UNL     1     -10.240   9.331  66.714  1.00  0.00    -0.325 C  
ENDROOT
BRANCH   2   3
HETATM    3  C   UNL     1      -9.801   9.802  65.332  1.00  0.00    -0.365 C  
BRANCH   3   4
HETATM    4  C   UNL     1     -10.092  11.287  65.141  1.00  0.00    -0.326 C  
BRANCH   4   5
HETATM    5  C   UNL     1     -10.424  11.587  63.683  1.00  0.00    -0.483 C  
BRANCH   5   6
HETATM    6  C   UNL     1     -11.630  12.510  63.585  1.00  0.00    -0.580 C  
BRANCH   6   7
HETATM    7  C   UNL     1     -12.445  12.467  64.872  1.00  0.00    -0.524 C  
BRANCH   7   8
HETATM    8  C   UNL     1     -12.723  13.879  65.365  1.00  0.00    -0.525 C  
BRANCH   8   9
HETATM    9  C   UNL     1     -12.200  14.066  66.780  1.00  0.00    -0.439 C  
BRANCH   9  10
HETATM   10  C   UNL     1     -10.830  14.730  66.743  1.00  0.00    -0.316 C  
BRANCH  10  11
HETATM   11  C   UNL     1      -9.850  13.975  67.622  1.00  0.00    -0.233 C  
BRANCH  11  12
HETATM   12  C   UNL     1      -8.417  14.384  67.306  1.00  0.00    -0.229 C  
BRANCH  12  13
HETATM   13  C   UNL     1      -8.426  15.662  66.485  1.00  0.00    -0.311 C  
BRANCH  13  14
HETATM   14  C   UNL     1      -7.116  16.431  66.620  1.00  0.00    -0.175 C  
BRANCH  14  15
HETATM   15  C   UNL     1      -7.315  17.936  66.424  1.00  0.00    -0.300 C  
BRANCH  15  16
HETATM   16  C   UNL     1      -8.780  18.345  66.604  1.00  0.00    -0.286 C  
BRANCH  16  17
HETATM   17  N   UNL     1      -9.100  18.920  67.989  1.00  0.00    -0.296 N  
HETATM   18  C   UNL     1     -10.015  17.996  68.776  1.00  0.00    -0.374 C  
HETATM   19  C   UNL     1      -9.823  20.254  67.772  1.00  0.00    -0.393 C  
HETATM   20  C   UNL     1      -7.826  19.195  68.780  1.00  0.00    -0.348 C  
ENDBRANCH  16  17
ENDBRANCH  15  16
ENDBRANCH  14  15
ENDBRANCH  13  14
ENDBRANCH  12  13
ENDBRANCH  11  12
ENDBRANCH  10  11
ENDBRANCH   9  10
ENDBRANCH   8   9
ENDBRANCH   7   8
ENDBRANCH   6   7
ENDBRANCH   5   6
ENDBRANCH   4   5
ENDBRANCH   3   4
ENDBRANCH   2   3
TORSDOF 15
ENDMDL
MODEL       41
REMARK 921   NORMALIZED FREE ENERGY PREDICTED BY IDOCK:   -3.92 KCAL/MOL
REMARK 922        TOTAL FREE ENERGY PREDICTED BY IDOCK:   -9.06 KCAL/MOL
REMARK 923 INTER-LIGAND FREE ENERGY PREDICTED BY IDOCK:   -6.93 KCAL/MOL
REMARK 924 INTRA-LIGAND FREE ENERGY PREDICTED BY IDOCK:   -2.13 KCAL/MOL
REMARK 927      BINDING AFFINITY PREDICTED BY RF-SCORE:    0.00 PKD
ROOT
HETATM    1  C   UNL     1      -9.400  10.823  63.155  1.00  0.00    -0.336 C  
HETATM    2  C   UNL     1     -10.484  11.184  64.156  1.00  0.00    -0.442 C  
ENDROOT
BRANCH   2   3
HETATM    3  C   UNL     1     -11.340  12.337  63.642  1.00  0.00    -0.547 C  
BRANCH   3   4
HETATM    4  C   UNL     1     -12.609  12.491  64.474  1.00  0.00    -0.503 C  
BRANCH   4   5
HETATM    5  C   UNL     1     -12.739  13.919  64.995  1.00  0.00    -0.372 C  
BRANCH   5   6
HETATM    6  C   UNL     1     -11.551  14.762  64.554  1.00  0.00    -0.366 C  
BRANCH   6   7
HETATM    7  C   UNL     1     -10.878  15.412  65.757  1.00  0.00    -0.349 C  
BRANCH   7   8
HETATM    8  C   UNL     1      -9.594  14.673  66.103  1.00  0.00    -0.336 C  
BRANCH   8   9
HETATM    9  C   UNL     1      -9.846  13.642  67.192  1.00  0.00    -0.242 C  
BRANCH   9  10
HETATM   10  C   UNL     1     -10.916  14.147  68.149  1.00  0.00    -0.264 C  
BRANCH  10  11
HETATM   11  C   UNL     1     -11.872  13.028  68.516  1.00  0.00    -0.360 C  
BRANCH  11  12
HETATM   12  C   UNL     1     -11.470  11.729  67.831  1.00  0.00    -0.387 C  
BRANCH  12  13
HETATM   13  C   UNL     1     -11.461  10.602  68.850  1.00  0.00    -0.334 C  
BRANCH  13  14
HETATM   14  C   UNL     1     -12.123  11.018  70.160  1.00  0.00    -0.438 C  
BRANCH  14  15
HETATM   15  C   UNL     1     -12.815   9.839  70.848  1.00  0.00    -0.314 C  
BRANCH  15  16
HETATM   16  C   UNL     1     -12.073   9.404  72.115  1.00  0.00    -0.223 C  
BRANCH  16  17
HETATM   17  N   UNL     1     -11.133   8.210  71.908  1.00  0.00    -0.266 N  
HETATM   18  C   UNL     1      -9.744   8.663  71.489  1.00  0.00    -0.263 C  
HETATM   19  C   UNL     1     -11.727   7.352  70.784  1.00  0.00    -0.276 C  
HETATM   20  C   UNL     1     -11.048   7.350  73.164  1.00  0.00    -0.309 C  
ENDBRANCH  16  17
ENDBRANCH  15  16
ENDBRANCH  14  15
ENDBRANCH  13  14
ENDBRANCH  12  13
ENDBRANCH  11  12
ENDBRANCH  10  11
ENDBRANCH   9  10
ENDBRANCH   8   9
ENDBRANCH   7   8
ENDBRANCH   6   7
ENDBRANCH   5   6
ENDBRANCH   4   5
ENDBRANCH   3   4
ENDBRANCH   2   3
TORSDOF 15
ENDMDL
MODEL       42
REMARK 921   NORMALIZED FREE ENERGY PREDICTED BY IDOCK:   -3.91 KCAL/MOL
REMARK 922        TOTAL FREE ENERGY PREDICTED BY IDOCK:   -9.03 KCAL/MOL
REMARK 923 INTER-LIGAND FREE ENERGY PREDICTED BY IDOCK:   -7.85 KCAL/MOL
REMARK 924 INTRA-LIGAND FREE ENERGY PREDICTED BY IDOCK:   -1.18 KCAL/MOL
REMARK 927      BINDING AFFINITY PREDICTED BY RF-SCORE:    0.00 PKD
ROOT
HETATM    1  C   UNL     1     -11.481   6.408  70.069  1.00  0.00    -0.496 C  
HETATM    2  C   UNL     1     -11.926   6.912  71.431  1.00  0.00    -0.393 C  
ENDROOT
BRANCH   2   3
HETATM    3  C   UNL     1     -13.326   7.513  71.360  1.00  0.00    -0.370 C  
BRANCH   3   4
HETATM    4  C   UNL     1     -13.361   8.897  72.001  1.00  0.00    -0.471 C  
BRANCH   4   5
HETATM    5  C   UNL     1     -12.174   9.734  71.538  1.00  0.00    -0.493 C  
BRANCH   5   6
HETATM    6  C   UNL     1     -12.636  11.103  71.057  1.00  0.00    -0.503 C  
BRANCH   6   7
HETATM    7  C   UNL     1     -11.854  11.529  69.821  1.00  0.00    -0.429 C  
BRANCH   7   8
HETATM    8  C   UNL     1     -11.805  13.047  69.727  1.00  0.00    -0.381 C  
BRANCH   8   9
HETATM    9  C   UNL     1     -11.680  13.491  68.278  1.00  0.00    -0.394 C  
BRANCH   9  10
HETATM   10  C   UNL     1     -11.410  12.287  67.387  1.00  0.00    -0.389 C  
BRANCH  10  11
HETATM   11  C   UNL     1     -12.048  12.481  66.024  1.00  0.00    -0.390 C  
BRANCH  11  12
HETATM   12  C   UNL     1     -12.385  13.948  65.790  1.00  0.00    -0.518 C  
BRANCH  12  13
HETATM   13  C   UNL     1     -11.642  14.447  64.563  1.00  0.00    -0.393 C  
BRANCH  13  14
HETATM   14  C   UNL     1     -10.870  15.731  64.852  1.00  0.00    -0.433 C  
BRANCH  14  15
HETATM   15  C   UNL     1      -9.780  15.517  65.905  1.00  0.00    -0.392 C  
BRANCH  15  16
HETATM   16  C   UNL     1      -9.067  16.824  66.261  1.00  0.00    -0.285 C  
BRANCH  16  17
HETATM   17  N   UNL     1      -9.219  17.236  67.731  1.00  0.00    -0.236 N  
HETATM   18  C   UNL     1      -9.004  16.056  68.664  1.00  0.00    -0.210 C  
HETATM   19  C   UNL     1     -10.652  17.749  67.914  1.00  0.00    -0.382 C  
HETATM   20  C   UNL     1      -8.262  18.368  68.088  1.00  0.00    -0.287 C  
ENDBRANCH  16  17
ENDBRANCH  15  16
ENDBRANCH  14  15
ENDBRANCH  13  14
ENDBRANCH  12  13
ENDBRANCH  11  12
ENDBRANCH  10  11
ENDBRANCH   9  10
ENDBRANCH   8   9
ENDBRANCH   7   8
ENDBRANCH   6   7
ENDBRANCH   5   6
ENDBRANCH   4   5
ENDBRANCH   3   4
ENDBRANCH   2   3
TORSDOF 15
ENDMDL
MODEL       43
REMARK 921   NORMALIZED FREE ENERGY PREDICTED BY IDOCK:   -3.90 KCAL/MOL
REMARK 922        TOTAL FREE ENERGY PREDICTED BY IDOCK:   -9.02 KCAL/MOL
REMARK 923 INTER-LIGAND FREE ENERGY PREDICTED BY IDOCK:   -7.57 KCAL/MOL
REMARK 924 INTRA-LIGAND FREE ENERGY PREDICTED BY IDOCK:   -1.45 KCAL/MOL
REMARK 927      BINDING AFFINITY PREDICTED BY RF-SCORE:    0.00 PKD
ROOT
HETATM    1  C   UNL     1     -11.229   5.430  72.609  1.00  0.00    -0.333 C  
HETATM    2  C   UNL     1     -10.807   6.699  71.888  1.00  0.00    -0.267 C  
ENDROOT
BRANCH   2   3
HETATM    3  C   UNL     1     -11.138   7.935  72.718  1.00  0.00    -0.462 C  
BRANCH   3   4
HETATM    4  C   UNL     1     -12.140   8.829  71.995  1.00  0.00    -0.447 C  
BRANCH   4   5
HETATM    5  C   UNL     1     -11.420   9.814  71.081  1.00  0.00    -0.472 C  
BRANCH   5   6
HETATM    6  C   UNL     1     -12.326  10.987  70.735  1.00  0.00    -0.496 C  
BRANCH   6   7
HETATM    7  C   UNL     1     -13.192  11.368  71.930  1.00  0.00    -0.485 C  
BRANCH   7   8
HETATM    8  C   UNL     1     -13.326  12.880  72.022  1.00  0.00    -0.579 C  
BRANCH   8   9
HETATM    9  C   UNL     1     -12.525  13.558  70.922  1.00  0.00    -0.448 C  
BRANCH   9  10
HETATM   10  C   UNL     1     -12.695  15.068  71.012  1.00  0.00    -0.432 C  
BRANCH  10  11
HETATM   11  C   UNL     1     -11.586  15.773  70.253  1.00  0.00    -0.377 C  
BRANCH  11  12
HETATM   12  C   UNL     1     -10.934  14.830  69.250  1.00  0.00    -0.275 C  
BRANCH  12  13
HETATM   13  C   UNL     1     -11.138  15.368  67.845  1.00  0.00    -0.323 C  
BRANCH  13  14
HETATM   14  C   UNL     1     -11.999  14.435  66.999  1.00  0.00    -0.424 C  
BRANCH  14  15
HETATM   15  C   UNL     1     -11.818  12.970  67.403  1.00  0.00    -0.411 C  
BRANCH  15  16
HETATM   16  C   UNL     1     -11.604  12.065  66.186  1.00  0.00    -0.304 C  
BRANCH  16  17
HETATM   17  N   UNL     1     -10.337  11.205  66.265  1.00  0.00    -0.242 N  
HETATM   18  C   UNL     1      -9.122  12.038  66.640  1.00  0.00    -0.205 C  
HETATM   19  C   UNL     1     -10.107  10.604  64.874  1.00  0.00    -0.335 C  
HETATM   20  C   UNL     1     -10.510  10.057  67.253  1.00  0.00    -0.254 C  
ENDBRANCH  16  17
ENDBRANCH  15  16
ENDBRANCH  14  15
ENDBRANCH  13  14
ENDBRANCH  12  13
ENDBRANCH  11  12
ENDBRANCH  10  11
ENDBRANCH   9  10
ENDBRANCH   8   9
ENDBRANCH   7   8
ENDBRANCH   6   7
ENDBRANCH   5   6
ENDBRANCH   4   5
ENDBRANCH   3   4
ENDBRANCH   2   3
TORSDOF 15
ENDMDL
MODEL       44
REMARK 921   NORMALIZED FREE ENERGY PREDICTED BY IDOCK:   -3.90 KCAL/MOL
REMARK 922        TOTAL FREE ENERGY PREDICTED BY IDOCK:   -9.02 KCAL/MOL
REMARK 923 INTER-LIGAND FREE ENERGY PREDICTED BY IDOCK:   -7.64 KCAL/MOL
REMARK 924 INTRA-LIGAND FREE ENERGY PREDICTED BY IDOCK:   -1.38 KCAL/MOL
REMARK 927      BINDING AFFINITY PREDICTED BY RF-SCORE:    0.00 PKD
ROOT
HETATM    1  C   UNL     1     -10.728  14.469  68.983  1.00  0.00    -0.258 C  
HETATM    2  C   UNL     1     -11.910  15.393  69.217  1.00  0.00    -0.365 C  
ENDROOT
BRANCH   2   3
HETATM    3  C   UNL     1     -11.985  15.823  70.679  1.00  0.00    -0.426 C  
BRANCH   3   4
HETATM    4  C   UNL     1     -13.288  15.357  71.321  1.00  0.00    -0.598 C  
BRANCH   4   5
HETATM    5  C   UNL     1     -13.004  14.438  72.504  1.00  0.00    -0.501 C  
BRANCH   5   6
HETATM    6  C   UNL     1     -13.642  13.073  72.290  1.00  0.00    -0.643 C  
BRANCH   6   7
HETATM    7  C   UNL     1     -12.860  12.271  71.257  1.00  0.00    -0.337 C  
BRANCH   7   8
HETATM    8  C   UNL     1     -12.993  10.782  71.537  1.00  0.00    -0.562 C  
BRANCH   8   9
HETATM    9  C   UNL     1     -12.108   9.978  70.598  1.00  0.00    -0.381 C  
BRANCH   9  10
HETATM   10  C   UNL     1     -10.964   9.345  71.377  1.00  0.00    -0.443 C  
BRANCH  10  11
HETATM   11  C   UNL     1      -9.741   9.186  70.492  1.00  0.00    -0.287 C  
BRANCH  11  12
HETATM   12  C   UNL     1     -10.103   8.469  69.197  1.00  0.00    -0.207 C  
BRANCH  12  13
HETATM   13  C   UNL     1      -9.600   9.279  68.015  1.00  0.00    -0.161 C  
BRANCH  13  14
HETATM   14  C   UNL     1     -10.734   9.671  67.073  1.00  0.00    -0.225 C  
BRANCH  14  15
HETATM   15  C   UNL     1     -10.430  10.972  66.325  1.00  0.00    -0.310 C  
BRANCH  15  16
HETATM   16  C   UNL     1     -11.539  12.010  66.514  1.00  0.00    -0.314 C  
BRANCH  16  17
HETATM   17  N   UNL     1     -11.681  12.990  65.343  1.00  0.00    -0.345 N  
HETATM   18  C   UNL     1     -12.553  14.178  65.716  1.00  0.00    -0.447 C  
HETATM   19  C   UNL     1     -12.353  12.232  64.193  1.00  0.00    -0.451 C  
HETATM   20  C   UNL     1     -10.317  13.472  64.859  1.00  0.00    -0.377 C  
ENDBRANCH  16  17
ENDBRANCH  15  16
ENDBRANCH  14  15
ENDBRANCH  13  14
ENDBRANCH  12  13
ENDBRANCH  11  12
ENDBRANCH  10  11
ENDBRANCH   9  10
ENDBRANCH   8   9
ENDBRANCH   7   8
ENDBRANCH   6   7
ENDBRANCH   5   6
ENDBRANCH   4   5
ENDBRANCH   3   4
ENDBRANCH   2   3
TORSDOF 15
ENDMDL
MODEL       45
REMARK 921   NORMALIZED FREE ENERGY PREDICTED BY IDOCK:   -3.90 KCAL/MOL
REMARK 922        TOTAL FREE ENERGY PREDICTED BY IDOCK:   -9.02 KCAL/MOL
REMARK 923 INTER-LIGAND FREE ENERGY PREDICTED BY IDOCK:   -7.20 KCAL/MOL
REMARK 924 INTRA-LIGAND FREE ENERGY PREDICTED BY IDOCK:   -1.82 KCAL/MOL
REMARK 927      BINDING AFFINITY PREDICTED BY RF-SCORE:    0.00 PKD
ROOT
HETATM    1  C   UNL     1     -10.746  19.478  65.760  1.00  0.00    -0.490 C  
HETATM    2  C   UNL     1      -9.521  19.962  66.516  1.00  0.00    -0.516 C  
ENDROOT
BRANCH   2   3
HETATM    3  C   UNL     1      -9.842  20.185  67.990  1.00  0.00    -0.498 C  
BRANCH   3   4
HETATM    4  C   UNL     1      -9.868  18.864  68.752  1.00  0.00    -0.461 C  
BRANCH   4   5
HETATM    5  C   UNL     1      -8.656  18.012  68.392  1.00  0.00    -0.298 C  
BRANCH   5   6
HETATM    6  C   UNL     1      -9.087  16.612  67.978  1.00  0.00    -0.218 C  
BRANCH   6   7
HETATM    7  C   UNL     1     -10.575  16.410  68.236  1.00  0.00    -0.318 C  
BRANCH   7   8
HETATM    8  C   UNL     1     -11.153  15.423  67.234  1.00  0.00    -0.302 C  
BRANCH   8   9
HETATM    9  C   UNL     1     -10.657  15.729  65.831  1.00  0.00    -0.350 C  
BRANCH   9  10
HETATM   10  C   UNL     1     -11.473  14.949  64.810  1.00  0.00    -0.410 C  
BRANCH  10  11
HETATM   11  C   UNL     1     -12.442  14.013  65.507  1.00  0.00    -0.533 C  
BRANCH  11  12
HETATM   12  C   UNL     1     -12.455  12.648  64.830  1.00  0.00    -0.564 C  
BRANCH  12  13
HETATM   13  C   UNL     1     -11.752  12.744  63.487  1.00  0.00    -0.597 C  
BRANCH  13  14
HETATM   14  C   UNL     1     -10.744  11.616  63.293  1.00  0.00    -0.404 C  
BRANCH  14  15
HETATM   15  C   UNL     1     -10.490  10.848  64.592  1.00  0.00    -0.384 C  
BRANCH  15  16
HETATM   16  C   UNL     1      -8.993  10.677  64.868  1.00  0.00    -0.199 C  
BRANCH  16  17
HETATM   17  N   UNL     1      -8.584  11.005  66.309  1.00  0.00    -0.164 N  
HETATM   18  C   UNL     1      -7.076  10.946  66.485  1.00  0.00    -0.139 C  
HETATM   19  C   UNL     1      -9.224   9.948  67.217  1.00  0.00    -0.138 C  
HETATM   20  C   UNL     1      -9.108  12.373  66.733  1.00  0.00    -0.212 C  
ENDBRANCH  16  17
ENDBRANCH  15  16
ENDBRANCH  14  15
ENDBRANCH  13  14
ENDBRANCH  12  13
ENDBRANCH  11  12
ENDBRANCH  10  11
ENDBRANCH   9  10
ENDBRANCH   8   9
ENDBRANCH   7   8
ENDBRANCH   6   7
ENDBRANCH   5   6
ENDBRANCH   4   5
ENDBRANCH   3   4
ENDBRANCH   2   3
TORSDOF 15
ENDMDL
MODEL       46
REMARK 921   NORMALIZED FREE ENERGY PREDICTED BY IDOCK:   -3.90 KCAL/MOL
REMARK 922        TOTAL FREE ENERGY PREDICTED BY IDOCK:   -9.02 KCAL/MOL
REMARK 923 INTER-LIGAND FREE ENERGY PREDICTED BY IDOCK:   -7.47 KCAL/MOL
REMARK 924 INTRA-LIGAND FREE ENERGY PREDICTED BY IDOCK:   -1.55 KCAL/MOL
REMARK 927      BINDING AFFINITY PREDICTED BY RF-SCORE:    0.00 PKD
ROOT
HETATM    1  C   UNL     1     -14.191  15.199  71.921  1.00  0.00    -0.676 C  
HETATM    2  C   UNL     1     -12.892  15.525  71.204  1.00  0.00    -0.551 C  
ENDROOT
BRANCH   2   3
HETATM    3  C   UNL     1     -12.230  14.259  70.671  1.00  0.00    -0.427 C  
BRANCH   3   4
HETATM    4  C   UNL     1     -11.663  14.483  69.273  1.00  0.00    -0.350 C  
BRANCH   4   5
HETATM    5  C   UNL     1     -11.097  13.184  68.708  1.00  0.00    -0.309 C  
BRANCH   5   6
HETATM    6  C   UNL     1     -11.908  12.722  67.506  1.00  0.00    -0.402 C  
BRANCH   6   7
HETATM    7  C   UNL     1     -11.880  13.774  66.404  1.00  0.00    -0.434 C  
BRANCH   7   8
HETATM    8  C   UNL     1     -12.783  13.355  65.254  1.00  0.00    -0.481 C  
BRANCH   8   9
HETATM    9  C   UNL     1     -12.003  13.305  63.950  1.00  0.00    -0.541 C  
BRANCH   9  10
HETATM   10  C   UNL     1     -11.600  11.870  63.642  1.00  0.00    -0.559 C  
BRANCH  10  11
HETATM   11  C   UNL     1     -10.100  11.772  63.436  1.00  0.00    -0.470 C  
BRANCH  11  12
HETATM   12  C   UNL     1      -9.542  10.528  64.116  1.00  0.00    -0.369 C  
BRANCH  12  13
HETATM   13  C   UNL     1     -10.212  10.349  65.468  1.00  0.00    -0.316 C  
BRANCH  13  14
HETATM   14  C   UNL     1      -9.191  10.264  66.599  1.00  0.00    -0.179 C  
BRANCH  14  15
HETATM   15  C   UNL     1      -9.631   9.288  67.692  1.00  0.00    -0.172 C  
BRANCH  15  16
HETATM   16  C   UNL     1      -9.427   9.871  69.093  1.00  0.00    -0.196 C  
BRANCH  16  17
HETATM   17  N   UNL     1     -10.209   9.141  70.191  1.00  0.00    -0.193 N  
HETATM   18  C   UNL     1     -11.360   9.988  70.710  1.00  0.00    -0.360 C  
HETATM   19  C   UNL     1      -9.236   8.879  71.346  1.00  0.00    -0.258 C  
HETATM   20  C   UNL     1     -10.730   7.796  69.696  1.00  0.00    -0.223 C  
ENDBRANCH  16  17
ENDBRANCH  15  16
ENDBRANCH  14  15
ENDBRANCH  13  14
ENDBRANCH  12  13
ENDBRANCH  11  12
ENDBRANCH  10  11
ENDBRANCH   9  10
ENDBRANCH   8   9
ENDBRANCH   7   8
ENDBRANCH   6   7
ENDBRANCH   5   6
ENDBRANCH   4   5
ENDBRANCH   3   4
ENDBRANCH   2   3
TORSDOF 15
ENDMDL
MODEL       47
REMARK 921   NORMALIZED FREE ENERGY PREDICTED BY IDOCK:   -3.90 KCAL/MOL
REMARK 922        TOTAL FREE ENERGY PREDICTED BY IDOCK:   -9.01 KCAL/MOL
REMARK 923 INTER-LIGAND FREE ENERGY PREDICTED BY IDOCK:   -7.16 KCAL/MOL
REMARK 924 INTRA-LIGAND FREE ENERGY PREDICTED BY IDOCK:   -1.86 KCAL/MOL
REMARK 927      BINDING AFFINITY PREDICTED BY RF-SCORE:    0.00 PKD
ROOT
HETATM    1  C   UNL     1     -10.449   5.596  70.594  1.00  0.00    -0.340 C  
HETATM    2  C   UNL     1     -11.714   6.378  70.283  1.00  0.00    -0.389 C  
ENDROOT
BRANCH   2   3
HETATM    3  C   UNL     1     -12.278   7.028  71.542  1.00  0.00    -0.407 C  
BRANCH   3   4
HETATM    4  C   UNL     1     -13.726   7.458  71.335  1.00  0.00    -0.419 C  
BRANCH   4   5
HETATM    5  C   UNL     1     -14.002   8.778  72.046  1.00  0.00    -0.511 C  
BRANCH   5   6
HETATM    6  C   UNL     1     -12.752   9.647  72.071  1.00  0.00    -0.470 C  
BRANCH   6   7
HETATM    7  C   UNL     1     -13.036  11.013  71.457  1.00  0.00    -0.553 C  
BRANCH   7   8
HETATM    8  C   UNL     1     -11.989  11.344  70.405  1.00  0.00    -0.465 C  
BRANCH   8   9
HETATM    9  C   UNL     1     -10.889  10.294  70.393  1.00  0.00    -0.320 C  
BRANCH   9  10
HETATM   10  C   UNL     1     -10.496   9.970  68.959  1.00  0.00    -0.233 C  
BRANCH  10  11
HETATM   11  C   UNL     1     -11.437  10.652  67.983  1.00  0.00    -0.289 C  
BRANCH  11  12
HETATM   12  C   UNL     1     -10.678  11.146  66.758  1.00  0.00    -0.326 C  
BRANCH  12  13
HETATM   13  C   UNL     1     -10.586  12.661  66.798  1.00  0.00    -0.254 C  
BRANCH  13  14
HETATM   14  C   UNL     1     -11.878  13.295  67.303  1.00  0.00    -0.421 C  
BRANCH  14  15
HETATM   15  C   UNL     1     -11.638  14.684  67.899  1.00  0.00    -0.373 C  
BRANCH  15  16
HETATM   16  C   UNL     1     -10.176  14.884  68.307  1.00  0.00    -0.225 C  
BRANCH  16  17
HETATM   17  N   UNL     1      -9.569  16.206  67.823  1.00  0.00    -0.222 N  
HETATM   18  C   UNL     1      -8.930  16.054  66.452  1.00  0.00    -0.319 C  
HETATM   19  C   UNL     1      -8.482  16.604  68.828  1.00  0.00    -0.255 C  
HETATM   20  C   UNL     1     -10.615  17.315  67.793  1.00  0.00    -0.367 C  
ENDBRANCH  16  17
ENDBRANCH  15  16
ENDBRANCH  14  15
ENDBRANCH  13  14
ENDBRANCH  12  13
ENDBRANCH  11  12
ENDBRANCH  10  11
ENDBRANCH   9  10
ENDBRANCH   8   9
ENDBRANCH   7   8
ENDBRANCH   6   7
ENDBRANCH   5   6
ENDBRANCH   4   5
ENDBRANCH   3   4
ENDBRANCH   2   3
TORSDOF 15
ENDMDL
MODEL       48
REMARK 921   NORMALIZED FREE ENERGY PREDICTED BY IDOCK:   -3.89 KCAL/MOL
REMARK 922        TOTAL FREE ENERGY PREDICTED BY IDOCK:   -9.00 KCAL/MOL
REMARK 923 INTER-LIGAND FREE ENERGY PREDICTED BY IDOCK:   -8.08 KCAL/MOL
REMARK 924 INTRA-LIGAND FREE ENERGY PREDICTED BY IDOCK:   -0.92 KCAL/MOL
REMARK 927      BINDING AFFINITY PREDICTED BY RF-SCORE:    0.00 PKD
ROOT
HETATM    1  C   UNL     1      -9.633  19.404  66.435  1.00  0.00    -0.443 C  
HETATM    2  C   UNL     1     -10.756  19.046  67.392  1.00  0.00    -0.559 C  
ENDROOT
BRANCH   2   3
HETATM    3  C   UNL     1     -10.350  17.894  68.306  1.00  0.00    -0.389 C  
BRANCH   3   4
HETATM    4  C   UNL     1     -10.823  16.557  67.745  1.00  0.00    -0.304 C  
BRANCH   4   5
HETATM    5  C   UNL     1     -11.563  15.758  68.812  1.00  0.00    -0.401 C  
BRANCH   5   6
HETATM    6  C   UNL     1     -10.847  15.857  70.151  1.00  0.00    -0.359 C  
BRANCH   6   7
HETATM    7  C   UNL     1     -11.852  15.955  71.292  1.00  0.00    -0.502 C  
BRANCH   7   8
HETATM    8  C   UNL     1     -13.158  15.281  70.900  1.00  0.00    -0.523 C  
BRANCH   8   9
HETATM    9  C   UNL     1     -13.979  14.943  72.135  1.00  0.00    -0.598 C  
BRANCH   9  10
HETATM   10  C   UNL     1     -13.696  13.512  72.570  1.00  0.00    -0.664 C  
BRANCH  10  11
HETATM   11  C   UNL     1     -13.028  12.737  71.450  1.00  0.00    -0.359 C  
BRANCH  11  12
HETATM   12  C   UNL     1     -13.087  11.240  71.719  1.00  0.00    -0.527 C  
BRANCH  12  13
HETATM   13  C   UNL     1     -12.626  10.486  70.484  1.00  0.00    -0.423 C  
BRANCH  13  14
HETATM   14  C   UNL     1     -11.107  10.363  70.429  1.00  0.00    -0.371 C  
BRANCH  14  15
HETATM   15  C   UNL     1     -10.663   9.048  69.785  1.00  0.00    -0.233 C  
BRANCH  15  16
HETATM   16  C   UNL     1     -10.127   8.058  70.822  1.00  0.00    -0.192 C  
BRANCH  16  17
HETATM   17  N   UNL     1     -10.938   6.761  70.924  1.00  0.00    -0.248 N  
HETATM   18  C   UNL     1     -10.135   5.653  71.586  1.00  0.00    -0.195 C  
HETATM   19  C   UNL     1     -11.284   6.326  69.495  1.00  0.00    -0.430 C  
HETATM   20  C   UNL     1     -12.244   6.985  71.679  1.00  0.00    -0.357 C  
ENDBRANCH  16  17
ENDBRANCH  15  16
ENDBRANCH  14  15
ENDBRANCH  13  14
ENDBRANCH  12  13
ENDBRANCH  11  12
ENDBRANCH  10  11
ENDBRANCH   9  10
ENDBRANCH   8   9
ENDBRANCH   7   8
ENDBRANCH   6   7
ENDBRANCH   5   6
ENDBRANCH   4   5
ENDBRANCH   3   4
ENDBRANCH   2   3
TORSDOF 15
ENDMDL
MODEL       49
REMARK 921   NORMALIZED FREE ENERGY PREDICTED BY IDOCK:   -3.89 KCAL/MOL
REMARK 922        TOTAL FREE ENERGY PREDICTED BY IDOCK:   -8.99 KCAL/MOL
REMARK 923 INTER-LIGAND FREE ENERGY PREDICTED BY IDOCK:   -6.43 KCAL/MOL
REMARK 924 INTRA-LIGAND FREE ENERGY PREDICTED BY IDOCK:   -2.56 KCAL/MOL
REMARK 927      BINDING AFFINITY PREDICTED BY RF-SCORE:    0.00 PKD
ROOT
HETATM    1  C   UNL     1     -11.895  12.513  69.394  1.00  0.00    -0.368 C  
HETATM    2  C   UNL     1     -11.968  13.561  68.296  1.00  0.00    -0.377 C  
ENDROOT
BRANCH   2   3
HETATM    3  C   UNL     1     -12.032  12.908  66.920  1.00  0.00    -0.402 C  
BRANCH   3   4
HETATM    4  C   UNL     1     -12.339  13.938  65.838  1.00  0.00    -0.517 C  
BRANCH   4   5
HETATM    5  C   UNL     1     -12.160  13.330  64.451  1.00  0.00    -0.471 C  
BRANCH   5   6
HETATM    6  C   UNL     1     -10.764  12.742  64.298  1.00  0.00    -0.419 C  
BRANCH   6   7
HETATM    7  C   UNL     1     -10.817  11.428  63.529  1.00  0.00    -0.430 C  
BRANCH   7   8
HETATM    8  C   UNL     1      -9.744  10.478  64.038  1.00  0.00    -0.383 C  
BRANCH   8   9
HETATM    9  C   UNL     1      -9.945  10.181  65.515  1.00  0.00    -0.363 C  
BRANCH   9  10
HETATM   10  C   UNL     1      -8.682  10.526  66.291  1.00  0.00    -0.159 C  
BRANCH  10  11
HETATM   11  C   UNL     1      -9.011  10.801  67.747  1.00  0.00    -0.137 C  
BRANCH  11  12
HETATM   12  C   UNL     1      -8.346  12.089  68.216  1.00  0.00    -0.163 C  
BRANCH  12  13
HETATM   13  C   UNL     1      -8.414  13.125  67.108  1.00  0.00    -0.173 C  
BRANCH  13  14
HETATM   14  C   UNL     1      -8.297  14.545  67.651  1.00  0.00    -0.188 C  
BRANCH  14  15
HETATM   15  C   UNL     1      -8.848  15.580  66.666  1.00  0.00    -0.325 C  
BRANCH  15  16
HETATM   16  C   UNL     1      -9.784  16.577  67.353  1.00  0.00    -0.246 C  
BRANCH  16  17
HETATM   17  N   UNL     1      -9.408  18.046  67.121  1.00  0.00    -0.255 N  
HETATM   18  C   UNL     1     -10.404  18.736  66.204  1.00  0.00    -0.448 C  
HETATM   19  C   UNL     1      -8.031  18.062  66.447  1.00  0.00    -0.262 C  
HETATM   20  C   UNL     1      -9.299  18.802  68.440  1.00  0.00    -0.343 C  
ENDBRANCH  16  17
ENDBRANCH  15  16
ENDBRANCH  14  15
ENDBRANCH  13  14
ENDBRANCH  12  13
ENDBRANCH  11  12
ENDBRANCH  10  11
ENDBRANCH   9  10
ENDBRANCH   8   9
ENDBRANCH   7   8
ENDBRANCH   6   7
ENDBRANCH   5   6
ENDBRANCH   4   5
ENDBRANCH   3   4
ENDBRANCH   2   3
TORSDOF 15
ENDMDL
MODEL       50
REMARK 921   NORMALIZED FREE ENERGY PREDICTED BY IDOCK:   -3.89 KCAL/MOL
REMARK 922        TOTAL FREE ENERGY PREDICTED BY IDOCK:   -8.99 KCAL/MOL
REMARK 923 INTER-LIGAND FREE ENERGY PREDICTED BY IDOCK:   -7.52 KCAL/MOL
REMARK 924 INTRA-LIGAND FREE ENERGY PREDICTED BY IDOCK:   -1.47 KCAL/MOL
REMARK 927      BINDING AFFINITY PREDICTED BY RF-SCORE:    0.00 PKD
ROOT
HETATM    1  C   UNL     1     -11.254   6.515  69.429  1.00  0.00    -0.418 C  
HETATM    2  C   UNL     1     -11.479   6.477  70.931  1.00  0.00    -0.408 C  
ENDROOT
BRANCH   2   3
HETATM    3  C   UNL     1     -12.585   7.443  71.342  1.00  0.00    -0.405 C  
BRANCH   3   4
HETATM    4  C   UNL     1     -12.012   8.806  71.717  1.00  0.00    -0.418 C  
BRANCH   4   5
HETATM    5  C   UNL     1     -13.025   9.910  71.436  1.00  0.00    -0.504 C  
BRANCH   5   6
HETATM    6  C   UNL     1     -12.355  11.091  70.748  1.00  0.00    -0.496 C  
BRANCH   6   7
HETATM    7  C   UNL     1     -11.436  10.612  69.632  1.00  0.00    -0.361 C  
BRANCH   7   8
HETATM    8  C   UNL     1     -11.784  11.310  68.326  1.00  0.00    -0.344 C  
BRANCH   8   9
HETATM    9  C   UNL     1     -11.454  12.792  68.405  1.00  0.00    -0.349 C  
BRANCH   9  10
HETATM   10  C   UNL     1     -12.002  13.512  67.181  1.00  0.00    -0.426 C  
BRANCH  10  11
HETATM   11  C   UNL     1     -11.011  14.549  66.686  1.00  0.00    -0.321 C  
BRANCH  11  12
HETATM   12  C   UNL     1     -10.885  14.494  65.170  1.00  0.00    -0.407 C  
BRANCH  12  13
HETATM   13  C   UNL     1     -12.179  13.965  64.575  1.00  0.00    -0.451 C  
BRANCH  13  14
HETATM   14  C   UNL     1     -11.923  12.865  63.549  1.00  0.00    -0.629 C  
BRANCH  14  15
HETATM   15  C   UNL     1     -10.562  12.196  63.758  1.00  0.00    -0.482 C  
BRANCH  15  16
HETATM   16  C   UNL     1     -10.661  10.982  64.686  1.00  0.00    -0.299 C  
BRANCH  16  17
HETATM   17  N   UNL     1      -9.308  10.496  65.220  1.00  0.00    -0.197 N  
HETATM   18  C   UNL     1      -8.303  10.305  64.096  1.00  0.00    -0.161 C  
HETATM   19  C   UNL     1      -9.546   9.141  65.898  1.00  0.00    -0.273 C  
HETATM   20  C   UNL     1      -8.751  11.456  66.265  1.00  0.00    -0.173 C  
ENDBRANCH  16  17
ENDBRANCH  15  16
ENDBRANCH  14  15
ENDBRANCH  13  14
ENDBRANCH  12  13
ENDBRANCH  11  12
ENDBRANCH  10  11
ENDBRANCH   9  10
ENDBRANCH   8   9
ENDBRANCH   7   8
ENDBRANCH   6   7
ENDBRANCH   5   6
ENDBRANCH   4   5
ENDBRANCH   3   4
ENDBRANCH   2   3
TORSDOF 15
ENDMDL
MODEL       51
REMARK 921   NORMALIZED FREE ENERGY PREDICTED BY IDOCK:   -3.88 KCAL/MOL
REMARK 922        TOTAL FREE ENERGY PREDICTED BY IDOCK:   -8.98 KCAL/MOL
REMARK 923 INTER-LIGAND FREE ENERGY PREDICTED BY IDOCK:   -7.29 KCAL/MOL
REMARK 924 INTRA-LIGAND FREE ENERGY PREDICTED BY IDOCK:   -1.70 KCAL/MOL
REMARK 927      BINDING AFFINITY PREDICTED BY RF-SCORE:    0.00 PKD
ROOT
HETATM    1  C   UNL     1      -9.177   8.337  67.633  1.00  0.00    -0.150 C  
HETATM    2  C   UNL     1     -10.503   8.032  66.956  1.00  0.00    -0.410 C  
ENDROOT
BRANCH   2   3
HETATM    3  C   UNL     1     -11.037   6.671  67.389  1.00  0.00    -0.398 C  
BRANCH   3   4
HETATM    4  C   UNL     1     -10.281   6.147  68.606  1.00  0.00    -0.220 C  
BRANCH   4   5
HETATM    5  C   UNL     1     -11.216   6.015  69.803  1.00  0.00    -0.440 C  
BRANCH   5   6
HETATM    6  C   UNL     1     -10.424   5.968  71.102  1.00  0.00    -0.284 C  
BRANCH   6   7
HETATM    7  C   UNL     1     -11.339   6.199  72.298  1.00  0.00    -0.346 C  
BRANCH   7   8
HETATM    8  C   UNL     1     -11.563   7.689  72.509  1.00  0.00    -0.382 C  
BRANCH   8   9
HETATM    9  C   UNL     1     -10.295   8.470  72.204  1.00  0.00    -0.409 C  
BRANCH   9  10
HETATM   10  C   UNL     1     -10.580   9.531  71.150  1.00  0.00    -0.388 C  
BRANCH  10  11
HETATM   11  C   UNL     1     -11.955  10.136  71.363  1.00  0.00    -0.447 C  
BRANCH  11  12
HETATM   12  C   UNL     1     -12.229  11.225  70.335  1.00  0.00    -0.453 C  
BRANCH  12  13
HETATM   13  C   UNL     1     -11.309  11.036  69.141  1.00  0.00    -0.348 C  
BRANCH  13  14
HETATM   14  C   UNL     1     -11.426  12.187  68.147  1.00  0.00    -0.375 C  
BRANCH  14  15
HETATM   15  C   UNL     1     -10.945  11.785  66.751  1.00  0.00    -0.336 C  
BRANCH  15  16
HETATM   16  C   UNL     1     -11.929  12.222  65.661  1.00  0.00    -0.306 C  
BRANCH  16  17
HETATM   17  N   UNL     1     -11.263  12.893  64.454  1.00  0.00    -0.331 N  
HETATM   18  C   UNL     1     -12.262  13.137  63.334  1.00  0.00    -0.444 C  
HETATM   19  C   UNL     1     -10.179  11.939  63.942  1.00  0.00    -0.389 C  
HETATM   20  C   UNL     1     -10.592  14.203  64.852  1.00  0.00    -0.430 C  
ENDBRANCH  16  17
ENDBRANCH  15  16
ENDBRANCH  14  15
ENDBRANCH  13  14
ENDBRANCH  12  13
ENDBRANCH  11  12
ENDBRANCH  10  11
ENDBRANCH   9  10
ENDBRANCH   8   9
ENDBRANCH   7   8
ENDBRANCH   6   7
ENDBRANCH   5   6
ENDBRANCH   4   5
ENDBRANCH   3   4
ENDBRANCH   2   3
TORSDOF 15
ENDMDL
MODEL       52
REMARK 921   NORMALIZED FREE ENERGY PREDICTED BY IDOCK:   -3.87 KCAL/MOL
REMARK 922        TOTAL FREE ENERGY PREDICTED BY IDOCK:   -8.96 KCAL/MOL
REMARK 923 INTER-LIGAND FREE ENERGY PREDICTED BY IDOCK:   -7.49 KCAL/MOL
REMARK 924 INTRA-LIGAND FREE ENERGY PREDICTED BY IDOCK:   -1.48 KCAL/MOL
REMARK 927      BINDING AFFINITY PREDICTED BY RF-SCORE:    0.00 PKD
ROOT
HETATM    1  C   UNL     1     -13.809   8.687  71.724  1.00  0.00    -0.472 C  
HETATM    2  C   UNL     1     -13.229  10.056  72.031  1.00  0.00    -0.545 C  
ENDROOT
BRANCH   2   3
HETATM    3  C   UNL     1     -11.997  10.332  71.176  1.00  0.00    -0.472 C  
BRANCH   3   4
HETATM    4  C   UNL     1     -12.391  10.865  69.803  1.00  0.00    -0.326 C  
BRANCH   4   5
HETATM    5  C   UNL     1     -11.679  12.183  69.513  1.00  0.00    -0.402 C  
BRANCH   5   6
HETATM    6  C   UNL     1     -11.855  12.579  68.054  1.00  0.00    -0.382 C  
BRANCH   6   7
HETATM    7  C   UNL     1     -11.803  14.094  67.900  1.00  0.00    -0.405 C  
BRANCH   7   8
HETATM    8  C   UNL     1     -11.545  14.467  66.448  1.00  0.00    -0.383 C  
BRANCH   8   9
HETATM    9  C   UNL     1     -12.581  13.827  65.537  1.00  0.00    -0.551 C  
BRANCH   9  10
HETATM   10  C   UNL     1     -12.063  13.793  64.106  1.00  0.00    -0.478 C  
BRANCH  10  11
HETATM   11  C   UNL     1     -12.009  12.365  63.595  1.00  0.00    -0.626 C  
BRANCH  11  12
HETATM   12  C   UNL     1     -10.566  11.910  63.418  1.00  0.00    -0.485 C  
BRANCH  12  13
HETATM   13  C   UNL     1     -10.265  10.791  64.399  1.00  0.00    -0.432 C  
BRANCH  13  14
HETATM   14  C   UNL     1      -9.607  11.314  65.672  1.00  0.00    -0.260 C  
BRANCH  14  15
HETATM   15  C   UNL     1      -9.219  10.178  66.622  1.00  0.00    -0.181 C  
BRANCH  15  16
HETATM   16  C   UNL     1      -9.817   8.839  66.183  1.00  0.00    -0.227 C  
BRANCH  16  17
HETATM   17  N   UNL     1      -9.829   7.772  67.284  1.00  0.00    -0.172 N  
HETATM   18  C   UNL     1     -10.020   8.393  68.658  1.00  0.00    -0.184 C  
HETATM   19  C   UNL     1      -8.467   7.068  67.251  1.00  0.00    -0.121 C  
HETATM   20  C   UNL     1     -10.908   6.726  67.027  1.00  0.00    -0.383 C  
ENDBRANCH  16  17
ENDBRANCH  15  16
ENDBRANCH  14  15
ENDBRANCH  13  14
ENDBRANCH  12  13
ENDBRANCH  11  12
ENDBRANCH  10  11
ENDBRANCH   9  10
ENDBRANCH   8   9
ENDBRANCH   7   8
ENDBRANCH   6   7
ENDBRANCH   5   6
ENDBRANCH   4   5
ENDBRANCH   3   4
ENDBRANCH   2   3
TORSDOF 15
ENDMDL
MODEL       53
REMARK 921   NORMALIZED FREE ENERGY PREDICTED BY IDOCK:   -3.86 KCAL/MOL
REMARK 922        TOTAL FREE ENERGY PREDICTED BY IDOCK:   -8.94 KCAL/MOL
REMARK 923 INTER-LIGAND FREE ENERGY PREDICTED BY IDOCK:   -7.35 KCAL/MOL
REMARK 924 INTRA-LIGAND FREE ENERGY PREDICTED BY IDOCK:   -1.59 KCAL/MOL
REMARK 927      BINDING AFFINITY PREDICTED BY RF-SCORE:    0.00 PKD
ROOT
HETATM    1  C   UNL     1     -10.346  19.697  66.032  1.00  0.00    -0.620 C  
HETATM    2  C   UNL     1     -10.858  19.206  67.376  1.00  0.00    -0.533 C  
ENDROOT
BRANCH   2   3
HETATM    3  C   UNL     1      -9.810  19.408  68.466  1.00  0.00    -0.509 C  
BRANCH   3   4
HETATM    4  C   UNL     1      -8.811  18.257  68.486  1.00  0.00    -0.322 C  
BRANCH   4   5
HETATM    5  C   UNL     1      -9.532  16.917  68.388  1.00  0.00    -0.258 C  
BRANCH   5   6
HETATM    6  C   UNL     1      -8.654  15.882  67.698  1.00  0.00    -0.172 C  
BRANCH   6   7
HETATM    7  C   UNL     1      -8.950  15.838  66.204  1.00  0.00    -0.372 C  
BRANCH   7   8
HETATM    8  C   UNL     1     -10.450  15.753  65.967  1.00  0.00    -0.350 C  
BRANCH   8   9
HETATM    9  C   UNL     1     -10.766  14.727  64.890  1.00  0.00    -0.438 C  
BRANCH   9  10
HETATM   10  C   UNL     1     -11.783  13.722  65.412  1.00  0.00    -0.346 C  
BRANCH  10  11
HETATM   11  C   UNL     1     -12.022  13.931  66.896  1.00  0.00    -0.467 C  
BRANCH  11  12
HETATM   12  C   UNL     1     -11.818  12.631  67.663  1.00  0.00    -0.390 C  
BRANCH  12  13
HETATM   13  C   UNL     1     -11.261  12.940  69.042  1.00  0.00    -0.320 C  
BRANCH  13  14
HETATM   14  C   UNL     1     -12.038  12.222  70.141  1.00  0.00    -0.364 C  
BRANCH  14  15
HETATM   15  C   UNL     1     -12.032  10.705  69.946  1.00  0.00    -0.385 C  
BRANCH  15  16
HETATM   16  C   UNL     1     -10.979  10.022  70.823  1.00  0.00    -0.305 C  
BRANCH  16  17
HETATM   17  N   UNL     1     -11.482   8.757  71.529  1.00  0.00    -0.282 N  
HETATM   18  C   UNL     1     -10.486   8.267  72.568  1.00  0.00    -0.336 C  
HETATM   19  C   UNL     1     -11.645   7.672  70.459  1.00  0.00    -0.175 C  
HETATM   20  C   UNL     1     -12.842   8.991  72.177  1.00  0.00    -0.410 C  
ENDBRANCH  16  17
ENDBRANCH  15  16
ENDBRANCH  14  15
ENDBRANCH  13  14
ENDBRANCH  12  13
ENDBRANCH  11  12
ENDBRANCH  10  11
ENDBRANCH   9  10
ENDBRANCH   8   9
ENDBRANCH   7   8
ENDBRANCH   6   7
ENDBRANCH   5   6
ENDBRANCH   4   5
ENDBRANCH   3   4
ENDBRANCH   2   3
TORSDOF 15
ENDMDL
MODEL       54
REMARK 921   NORMALIZED FREE ENERGY PREDICTED BY IDOCK:   -3.86 KCAL/MOL
REMARK 922        TOTAL FREE ENERGY PREDICTED BY IDOCK:   -8.94 KCAL/MOL
REMARK 923 INTER-LIGAND FREE ENERGY PREDICTED BY IDOCK:   -7.59 KCAL/MOL
REMARK 924 INTRA-LIGAND FREE ENERGY PREDICTED BY IDOCK:   -1.34 KCAL/MOL
REMARK 927      BINDING AFFINITY PREDICTED BY RF-SCORE:    0.00 PKD
ROOT
HETATM    1  C   UNL     1     -12.501  15.464  74.131  1.00  0.00    -0.785 C  
HETATM    2  C   UNL     1     -13.502  15.389  72.991  1.00  0.00    -0.604 C  
ENDROOT
BRANCH   2   3
HETATM    3  C   UNL     1     -13.449  14.028  72.306  1.00  0.00    -0.597 C  
BRANCH   3   4
HETATM    4  C   UNL     1     -12.694  14.109  70.983  1.00  0.00    -0.433 C  
BRANCH   4   5
HETATM    5  C   UNL     1     -12.378  15.559  70.632  1.00  0.00    -0.462 C  
BRANCH   5   6
HETATM    6  C   UNL     1     -11.759  15.654  69.245  1.00  0.00    -0.388 C  
BRANCH   6   7
HETATM    7  C   UNL     1     -10.624  16.670  69.233  1.00  0.00    -0.343 C  
BRANCH   7   8
HETATM    8  C   UNL     1     -10.491  17.293  67.851  1.00  0.00    -0.382 C  
BRANCH   8   9
HETATM    9  C   UNL     1      -9.203  16.841  67.181  1.00  0.00    -0.233 C  
BRANCH   9  10
HETATM   10  C   UNL     1      -9.506  16.286  65.796  1.00  0.00    -0.229 C  
BRANCH  10  11
HETATM   11  C   UNL     1      -9.971  14.845  65.891  1.00  0.00    -0.357 C  
BRANCH  11  12
HETATM   12  C   UNL     1     -11.113  14.581  64.918  1.00  0.00    -0.401 C  
BRANCH  12  13
HETATM   13  C   UNL     1     -12.262  13.918  65.656  1.00  0.00    -0.477 C  
BRANCH  13  14
HETATM   14  C   UNL     1     -11.796  13.243  66.942  1.00  0.00    -0.446 C  
BRANCH  14  15
HETATM   15  C   UNL     1     -11.605  11.736  66.759  1.00  0.00    -0.287 C  
BRANCH  15  16
HETATM   16  C   UNL     1     -10.151  11.314  66.983  1.00  0.00    -0.206 C  
BRANCH  16  17
HETATM   17  N   UNL     1      -9.581  10.425  65.870  1.00  0.00    -0.193 N  
HETATM   18  C   UNL     1      -8.081  10.616  65.721  1.00  0.00    -0.158 C  
HETATM   19  C   UNL     1     -10.260  10.844  64.561  1.00  0.00    -0.356 C  
HETATM   20  C   UNL     1      -9.901   8.956  66.120  1.00  0.00    -0.256 C  
ENDBRANCH  16  17
ENDBRANCH  15  16
ENDBRANCH  14  15
ENDBRANCH  13  14
ENDBRANCH  12  13
ENDBRANCH  11  12
ENDBRANCH  10  11
ENDBRANCH   9  10
ENDBRANCH   8   9
ENDBRANCH   7   8
ENDBRANCH   6   7
ENDBRANCH   5   6
ENDBRANCH   4   5
ENDBRANCH   3   4
ENDBRANCH   2   3
TORSDOF 15
ENDMDL
MODEL       55
REMARK 921   NORMALIZED FREE ENERGY PREDICTED BY IDOCK:   -3.85 KCAL/MOL
REMARK 922        TOTAL FREE ENERGY PREDICTED BY IDOCK:   -8.92 KCAL/MOL
REMARK 923 INTER-LIGAND FREE ENERGY PREDICTED BY IDOCK:   -6.37 KCAL/MOL
REMARK 924 INTRA-LIGAND FREE ENERGY PREDICTED BY IDOCK:   -2.56 KCAL/MOL
REMARK 927      BINDING AFFINITY PREDICTED BY RF-SCORE:    0.00 PKD
ROOT
HETATM    1  C   UNL     1     -12.648  11.977  63.509  1.00  0.00    -0.625 C  
HETATM    2  C   UNL     1     -11.244  11.562  63.916  1.00  0.00    -0.439 C  
ENDROOT
BRANCH   2   3
HETATM    3  C   UNL     1     -10.371  12.782  64.188  1.00  0.00    -0.401 C  
BRANCH   3   4
HETATM    4  C   UNL     1     -11.221  14.032  64.387  1.00  0.00    -0.318 C  
BRANCH   4   5
HETATM    5  C   UNL     1     -11.049  14.580  65.799  1.00  0.00    -0.324 C  
BRANCH   5   6
HETATM    6  C   UNL     1     -12.177  14.103  66.702  1.00  0.00    -0.450 C  
BRANCH   6   7
HETATM    7  C   UNL     1     -11.626  13.600  68.031  1.00  0.00    -0.368 C  
BRANCH   7   8
HETATM    8  C   UNL     1     -11.803  12.093  68.137  1.00  0.00    -0.362 C  
BRANCH   8   9
HETATM    9  C   UNL     1     -10.563  11.370  67.635  1.00  0.00    -0.240 C  
BRANCH   9  10
HETATM   10  C   UNL     1      -9.313  12.038  68.190  1.00  0.00    -0.199 C  
BRANCH  10  11
HETATM   11  C   UNL     1      -8.212  12.055  67.145  1.00  0.00    -0.181 C  
BRANCH  11  12
HETATM   12  C   UNL     1      -7.242  13.201  67.403  1.00  0.00    -0.119 C  
BRANCH  12  13
HETATM   13  C   UNL     1      -8.017  14.426  67.857  1.00  0.00    -0.150 C  
BRANCH  13  14
HETATM   14  C   UNL     1      -7.730  15.637  66.975  1.00  0.00    -0.257 C  
BRANCH  14  15
HETATM   15  C   UNL     1      -7.989  16.953  67.712  1.00  0.00    -0.188 C  
BRANCH  15  16
HETATM   16  C   UNL     1      -8.574  18.021  66.783  1.00  0.00    -0.255 C  
BRANCH  16  17
HETATM   17  N   UNL     1      -9.911  18.599  67.263  1.00  0.00    -0.315 N  
HETATM   18  C   UNL     1     -10.771  17.534  67.924  1.00  0.00    -0.339 C  
HETATM   19  C   UNL     1     -10.650  19.125  66.027  1.00  0.00    -0.442 C  
HETATM   20  C   UNL     1      -9.696  19.767  68.219  1.00  0.00    -0.395 C  
ENDBRANCH  16  17
ENDBRANCH  15  16
ENDBRANCH  14  15
ENDBRANCH  13  14
ENDBRANCH  12  13
ENDBRANCH  11  12
ENDBRANCH  10  11
ENDBRANCH   9  10
ENDBRANCH   8   9
ENDBRANCH   7   8
ENDBRANCH   6   7
ENDBRANCH   5   6
ENDBRANCH   4   5
ENDBRANCH   3   4
ENDBRANCH   2   3
TORSDOF 15
ENDMDL
MODEL       56
REMARK 921   NORMALIZED FREE ENERGY PREDICTED BY IDOCK:   -3.85 KCAL/MOL
REMARK 922        TOTAL FREE ENERGY PREDICTED BY IDOCK:   -8.92 KCAL/MOL
REMARK 923 INTER-LIGAND FREE ENERGY PREDICTED BY IDOCK:   -7.40 KCAL/MOL
REMARK 924 INTRA-LIGAND FREE ENERGY PREDICTED BY IDOCK:   -1.52 KCAL/MOL
REMARK 927      BINDING AFFINITY PREDICTED BY RF-SCORE:    0.00 PKD
ROOT
HETATM    1  C   UNL     1     -12.713  15.149  73.603  1.00  0.00    -0.683 C  
HETATM    2  C   UNL     1     -13.806  15.551  72.627  1.00  0.00    -0.654 C  
ENDROOT
BRANCH   2   3
HETATM    3  C   UNL     1     -13.637  14.834  71.292  1.00  0.00    -0.480 C  
BRANCH   3   4
HETATM    4  C   UNL     1     -12.166  14.742  70.901  1.00  0.00    -0.384 C  
BRANCH   4   5
HETATM    5  C   UNL     1     -11.938  15.348  69.521  1.00  0.00    -0.358 C  
BRANCH   5   6
HETATM    6  C   UNL     1     -11.795  14.255  68.471  1.00  0.00    -0.382 C  
BRANCH   6   7
HETATM    7  C   UNL     1     -10.498  13.481  68.675  1.00  0.00    -0.242 C  
BRANCH   7   8
HETATM    8  C   UNL     1     -10.731  11.995  68.449  1.00  0.00    -0.255 C  
BRANCH   8   9
HETATM    9  C   UNL     1     -12.021  11.547  69.117  1.00  0.00    -0.386 C  
BRANCH   9  10
HETATM   10  C   UNL     1     -11.717  10.944  70.482  1.00  0.00    -0.441 C  
BRANCH  10  11
HETATM   11  C   UNL     1     -12.903  11.114  71.414  1.00  0.00    -0.544 C  
BRANCH  11  12
HETATM   12  C   UNL     1     -13.247   9.795  72.094  1.00  0.00    -0.530 C  
BRANCH  12  13
HETATM   13  C   UNL     1     -12.048   8.865  72.027  1.00  0.00    -0.442 C  
BRANCH  13  14
HETATM   14  C   UNL     1     -12.453   7.446  71.639  1.00  0.00    -0.381 C  
BRANCH  14  15
HETATM   15  C   UNL     1     -11.664   6.394  72.423  1.00  0.00    -0.286 C  
BRANCH  15  16
HETATM   16  C   UNL     1     -10.751   7.032  73.473  1.00  0.00    -0.332 C  
BRANCH  16  17
HETATM   17  N   UNL     1      -9.269   6.668  73.313  1.00  0.00    -0.127 N  
HETATM   18  C   UNL     1      -8.812   5.711  74.402  1.00  0.00    -0.121 C  
HETATM   19  C   UNL     1      -8.466   7.968  73.435  1.00  0.00    -0.235 C  
HETATM   20  C   UNL     1      -8.994   6.069  71.939  1.00  0.00    -0.138 C  
ENDBRANCH  16  17
ENDBRANCH  15  16
ENDBRANCH  14  15
ENDBRANCH  13  14
ENDBRANCH  12  13
ENDBRANCH  11  12
ENDBRANCH  10  11
ENDBRANCH   9  10
ENDBRANCH   8   9
ENDBRANCH   7   8
ENDBRANCH   6   7
ENDBRANCH   5   6
ENDBRANCH   4   5
ENDBRANCH   3   4
ENDBRANCH   2   3
TORSDOF 15
ENDMDL
MODEL       57
REMARK 921   NORMALIZED FREE ENERGY PREDICTED BY IDOCK:   -3.85 KCAL/MOL
REMARK 922        TOTAL FREE ENERGY PREDICTED BY IDOCK:   -8.92 KCAL/MOL
REMARK 923 INTER-LIGAND FREE ENERGY PREDICTED BY IDOCK:   -7.19 KCAL/MOL
REMARK 924 INTRA-LIGAND FREE ENERGY PREDICTED BY IDOCK:   -1.73 KCAL/MOL
REMARK 927      BINDING AFFINITY PREDICTED BY RF-SCORE:    0.00 PKD
ROOT
HETATM    1  C   UNL     1      -9.034   9.551  70.339  1.00  0.00    -0.291 C  
HETATM    2  C   UNL     1      -9.760   9.304  69.027  1.00  0.00    -0.162 C  
ENDROOT
BRANCH   2   3
HETATM    3  C   UNL     1     -10.351   7.898  68.986  1.00  0.00    -0.223 C  
BRANCH   3   4
HETATM    4  C   UNL     1     -10.441   7.300  70.386  1.00  0.00    -0.232 C  
BRANCH   4   5
HETATM    5  C   UNL     1     -11.745   6.528  70.557  1.00  0.00    -0.438 C  
BRANCH   5   6
HETATM    6  C   UNL     1     -12.539   7.068  71.737  1.00  0.00    -0.388 C  
BRANCH   6   7
HETATM    7  C   UNL     1     -11.892   8.333  72.286  1.00  0.00    -0.451 C  
BRANCH   7   8
HETATM    8  C   UNL     1     -12.879   9.489  72.247  1.00  0.00    -0.426 C  
BRANCH   8   9
HETATM    9  C   UNL     1     -12.919  10.115  70.862  1.00  0.00    -0.432 C  
BRANCH   9  10
HETATM   10  C   UNL     1     -12.414  11.550  70.926  1.00  0.00    -0.464 C  
BRANCH  10  11
HETATM   11  C   UNL     1     -13.163  12.330  71.990  1.00  0.00    -0.508 C  
BRANCH  11  12
HETATM   12  C   UNL     1     -12.827  13.813  71.908  1.00  0.00    -0.400 C  
BRANCH  12  13
HETATM   13  C   UNL     1     -12.889  14.265  70.460  1.00  0.00    -0.336 C  
BRANCH  13  14
HETATM   14  C   UNL     1     -11.666  15.090  70.070  1.00  0.00    -0.345 C  
BRANCH  14  15
HETATM   15  C   UNL     1     -11.783  15.648  68.650  1.00  0.00    -0.364 C  
BRANCH  15  16
HETATM   16  C   UNL     1     -10.532  15.354  67.818  1.00  0.00    -0.266 C  
BRANCH  16  17
HETATM   17  N   UNL     1     -10.825  14.682  66.471  1.00  0.00    -0.309 N  
HETATM   18  C   UNL     1     -10.737  15.674  65.323  1.00  0.00    -0.425 C  
HETATM   19  C   UNL     1     -12.255  14.135  66.536  1.00  0.00    -0.433 C  
HETATM   20  C   UNL     1      -9.881  13.510  66.224  1.00  0.00    -0.299 C  
ENDBRANCH  16  17
ENDBRANCH  15  16
ENDBRANCH  14  15
ENDBRANCH  13  14
ENDBRANCH  12  13
ENDBRANCH  11  12
ENDBRANCH  10  11
ENDBRANCH   9  10
ENDBRANCH   8   9
ENDBRANCH   7   8
ENDBRANCH   6   7
ENDBRANCH   5   6
ENDBRANCH   4   5
ENDBRANCH   3   4
ENDBRANCH   2   3
TORSDOF 15
ENDMDL
MODEL       58
REMARK 921   NORMALIZED FREE ENERGY PREDICTED BY IDOCK:   -3.85 KCAL/MOL
REMARK 922        TOTAL FREE ENERGY PREDICTED BY IDOCK:   -8.92 KCAL/MOL
REMARK 923 INTER-LIGAND FREE ENERGY PREDICTED BY IDOCK:   -7.32 KCAL/MOL
REMARK 924 INTRA-LIGAND FREE ENERGY PREDICTED BY IDOCK:   -1.60 KCAL/MOL
REMARK 927      BINDING AFFINITY PREDICTED BY RF-SCORE:    0.00 PKD
ROOT
HETATM    1  C   UNL     1     -13.606  13.975  72.370  1.00  0.00    -0.658 C  
HETATM    2  C   UNL     1     -13.295  12.511  72.108  1.00  0.00    -0.540 C  
ENDROOT
BRANCH   2   3
HETATM    3  C   UNL     1     -12.460  12.348  70.842  1.00  0.00    -0.367 C  
BRANCH   3   4
HETATM    4  C   UNL     1     -12.407  10.888  70.405  1.00  0.00    -0.436 C  
BRANCH   4   5
HETATM    5  C   UNL     1     -12.516   9.962  71.611  1.00  0.00    -0.507 C  
BRANCH   5   6
HETATM    6  C   UNL     1     -11.278   9.084  71.729  1.00  0.00    -0.448 C  
BRANCH   6   7
HETATM    7  C   UNL     1     -11.651   7.693  72.225  1.00  0.00    -0.370 C  
BRANCH   7   8
HETATM    8  C   UNL     1     -11.888   6.760  71.047  1.00  0.00    -0.427 C  
BRANCH   8   9
HETATM    9  C   UNL     1     -10.770   5.736  70.941  1.00  0.00    -0.333 C  
BRANCH   9  10
HETATM   10  C   UNL     1     -10.474   5.441  69.477  1.00  0.00    -0.343 C  
BRANCH  10  11
HETATM   11  C   UNL     1     -10.894   6.608  68.604  1.00  0.00    -0.319 C  
BRANCH  11  12
HETATM   12  C   UNL     1      -9.683   7.244  67.934  1.00  0.00    -0.161 C  
BRANCH  12  13
HETATM   13  C   UNL     1      -9.631   8.721  68.281  1.00  0.00    -0.160 C  
BRANCH  13  14
HETATM   14  C   UNL     1     -10.727   9.510  67.571  1.00  0.00    -0.311 C  
BRANCH  14  15
HETATM   15  C   UNL     1     -10.162  10.711  66.808  1.00  0.00    -0.284 C  
BRANCH  15  16
HETATM   16  C   UNL     1     -11.267  11.669  66.356  1.00  0.00    -0.287 C  
BRANCH  16  17
HETATM   17  N   UNL     1     -10.853  13.146  66.365  1.00  0.00    -0.285 N  
HETATM   18  C   UNL     1     -11.930  14.021  66.985  1.00  0.00    -0.438 C  
HETATM   19  C   UNL     1     -10.657  13.572  64.905  1.00  0.00    -0.397 C  
HETATM   20  C   UNL     1      -9.531  13.343  67.097  1.00  0.00    -0.244 C  
ENDBRANCH  16  17
ENDBRANCH  15  16
ENDBRANCH  14  15
ENDBRANCH  13  14
ENDBRANCH  12  13
ENDBRANCH  11  12
ENDBRANCH  10  11
ENDBRANCH   9  10
ENDBRANCH   8   9
ENDBRANCH   7   8
ENDBRANCH   6   7
ENDBRANCH   5   6
ENDBRANCH   4   5
ENDBRANCH   3   4
ENDBRANCH   2   3
TORSDOF 15
ENDMDL
MODEL       59
REMARK 921   NORMALIZED FREE ENERGY PREDICTED BY IDOCK:   -3.85 KCAL/MOL
REMARK 922        TOTAL FREE ENERGY PREDICTED BY IDOCK:   -8.91 KCAL/MOL
REMARK 923 INTER-LIGAND FREE ENERGY PREDICTED BY IDOCK:   -7.16 KCAL/MOL
REMARK 924 INTRA-LIGAND FREE ENERGY PREDICTED BY IDOCK:   -1.75 KCAL/MOL
REMARK 927      BINDING AFFINITY PREDICTED BY RF-SCORE:    0.00 PKD
ROOT
HETATM    1  C   UNL     1      -7.453  20.347  66.809  1.00  0.00    -0.329 C  
HETATM    2  C   UNL     1      -8.824  20.163  67.436  1.00  0.00    -0.440 C  
ENDROOT
BRANCH   2   3
HETATM    3  C   UNL     1      -9.911  20.114  66.368  1.00  0.00    -0.573 C  
BRANCH   3   4
HETATM    4  C   UNL     1     -10.479  18.705  66.227  1.00  0.00    -0.468 C  
BRANCH   4   5
HETATM    5  C   UNL     1     -10.438  17.973  67.564  1.00  0.00    -0.408 C  
BRANCH   5   6
HETATM    6  C   UNL     1     -10.174  16.489  67.357  1.00  0.00    -0.287 C  
BRANCH   6   7
HETATM    7  C   UNL     1      -9.651  16.228  65.950  1.00  0.00    -0.336 C  
BRANCH   7   8
HETATM    8  C   UNL     1     -10.423  15.086  65.306  1.00  0.00    -0.428 C  
BRANCH   8   9
HETATM    9  C   UNL     1     -11.489  14.557  66.252  1.00  0.00    -0.358 C  
BRANCH   9  10
HETATM   10  C   UNL     1     -12.567  13.829  65.464  1.00  0.00    -0.551 C  
BRANCH  10  11
HETATM   11  C   UNL     1     -12.188  13.745  63.997  1.00  0.00    -0.429 C  
BRANCH  11  12
HETATM   12  C   UNL     1     -12.183  12.297  63.523  1.00  0.00    -0.669 C  
BRANCH  12  13
HETATM   13  C   UNL     1     -10.761  11.765  63.541  1.00  0.00    -0.501 C  
BRANCH  13  14
HETATM   14  C   UNL     1     -10.512  10.850  64.736  1.00  0.00    -0.373 C  
BRANCH  14  15
HETATM   15  C   UNL     1      -9.141  11.099  65.369  1.00  0.00    -0.193 C  
BRANCH  15  16
HETATM   16  C   UNL     1      -8.998  10.387  66.717  1.00  0.00    -0.140 C  
BRANCH  16  17
HETATM   17  N   UNL     1      -8.953  11.336  67.921  1.00  0.00    -0.142 N  
HETATM   18  C   UNL     1     -10.331  11.521  68.534  1.00  0.00    -0.210 C  
HETATM   19  C   UNL     1      -8.457  12.694  67.413  1.00  0.00    -0.186 C  
HETATM   20  C   UNL     1      -7.972  10.839  68.977  1.00  0.00    -0.137 C  
ENDBRANCH  16  17
ENDBRANCH  15  16
ENDBRANCH  14  15
ENDBRANCH  13  14
ENDBRANCH  12  13
ENDBRANCH  11  12
ENDBRANCH  10  11
ENDBRANCH   9  10
ENDBRANCH   8   9
ENDBRANCH   7   8
ENDBRANCH   6   7
ENDBRANCH   5   6
ENDBRANCH   4   5
ENDBRANCH   3   4
ENDBRANCH   2   3
TORSDOF 15
ENDMDL
MODEL       60
REMARK 921   NORMALIZED FREE ENERGY PREDICTED BY IDOCK:   -3.84 KCAL/MOL
REMARK 922        TOTAL FREE ENERGY PREDICTED BY IDOCK:   -8.91 KCAL/MOL
REMARK 923 INTER-LIGAND FREE ENERGY PREDICTED BY IDOCK:   -7.07 KCAL/MOL
REMARK 924 INTRA-LIGAND FREE ENERGY PREDICTED BY IDOCK:   -1.83 KCAL/MOL
REMARK 927      BINDING AFFINITY PREDICTED BY RF-SCORE:    0.00 PKD
ROOT
HETATM    1  C   UNL     1      -9.123   7.337  69.739  1.00  0.00    -0.141 C  
HETATM    2  C   UNL     1     -10.286   6.980  68.829  1.00  0.00    -0.196 C  
ENDROOT
BRANCH   2   3
HETATM    3  C   UNL     1     -11.445   6.394  69.629  1.00  0.00    -0.446 C  
BRANCH   3   4
HETATM    4  C   UNL     1     -11.056   6.190  71.089  1.00  0.00    -0.360 C  
BRANCH   4   5
HETATM    5  C   UNL     1     -12.151   6.709  72.015  1.00  0.00    -0.353 C  
BRANCH   5   6
HETATM    6  C   UNL     1     -11.874   8.150  72.419  1.00  0.00    -0.448 C  
BRANCH   6   7
HETATM    7  C   UNL     1     -13.145   8.986  72.327  1.00  0.00    -0.508 C  
BRANCH   7   8
HETATM    8  C   UNL     1     -12.875  10.271  71.559  1.00  0.00    -0.557 C  
BRANCH   8   9
HETATM    9  C   UNL     1     -11.581  10.162  70.768  1.00  0.00    -0.445 C  
BRANCH   9  10
HETATM   10  C   UNL     1     -11.750  10.816  69.405  1.00  0.00    -0.378 C  
BRANCH  10  11
HETATM   11  C   UNL     1     -10.573  10.482  68.506  1.00  0.00    -0.234 C  
BRANCH  11  12
HETATM   12  C   UNL     1     -11.011  10.412  67.049  1.00  0.00    -0.222 C  
BRANCH  12  13
HETATM   13  C   UNL     1     -10.627  11.701  66.343  1.00  0.00    -0.299 C  
BRANCH  13  14
HETATM   14  C   UNL     1     -11.792  12.282  65.548  1.00  0.00    -0.420 C  
BRANCH  14  15
HETATM   15  C   UNL     1     -12.083  13.732  65.939  1.00  0.00    -0.464 C  
BRANCH  15  16
HETATM   16  C   UNL     1     -12.010  13.940  67.454  1.00  0.00    -0.401 C  
BRANCH  16  17
HETATM   17  N   UNL     1     -10.989  14.998  67.889  1.00  0.00    -0.281 N  
HETATM   18  C   UNL     1      -9.738  14.358  68.469  1.00  0.00    -0.225 C  
HETATM   19  C   UNL     1     -11.652  15.850  68.978  1.00  0.00    -0.389 C  
HETATM   20  C   UNL     1     -10.619  15.917  66.730  1.00  0.00    -0.309 C  
ENDBRANCH  16  17
ENDBRANCH  15  16
ENDBRANCH  14  15
ENDBRANCH  13  14
ENDBRANCH  12  13
ENDBRANCH  11  12
ENDBRANCH  10  11
ENDBRANCH   9  10
ENDBRANCH   8   9
ENDBRANCH   7   8
ENDBRANCH   6   7
ENDBRANCH   5   6
ENDBRANCH   4   5
ENDBRANCH   3   4
ENDBRANCH   2   3
TORSDOF 15
ENDMDL
MODEL       61
REMARK 921   NORMALIZED FREE ENERGY PREDICTED BY IDOCK:   -3.84 KCAL/MOL
REMARK 922        TOTAL FREE ENERGY PREDICTED BY IDOCK:   -8.89 KCAL/MOL
REMARK 923 INTER-LIGAND FREE ENERGY PREDICTED BY IDOCK:   -7.01 KCAL/MOL
REMARK 924 INTRA-LIGAND FREE ENERGY PREDICTED BY IDOCK:   -1.88 KCAL/MOL
REMARK 927      BINDING AFFINITY PREDICTED BY RF-SCORE:    0.00 PKD
ROOT
HETATM    1  C   UNL     1     -12.668  10.870  71.283  1.00  0.00    -0.542 C  
HETATM    2  C   UNL     1     -13.256   9.718  72.079  1.00  0.00    -0.557 C  
ENDROOT
BRANCH   2   3
HETATM    3  C   UNL     1     -12.380   8.474  71.971  1.00  0.00    -0.423 C  
BRANCH   3   4
HETATM    4  C   UNL     1     -10.906   8.850  71.854  1.00  0.00    -0.433 C  
BRANCH   4   5
HETATM    5  C   UNL     1     -10.041   7.601  71.728  1.00  0.00    -0.210 C  
BRANCH   5   6
HETATM    6  C   UNL     1     -10.906   6.349  71.692  1.00  0.00    -0.291 C  
BRANCH   6   7
HETATM    7  C   UNL     1     -10.651   5.557  70.416  1.00  0.00    -0.350 C  
BRANCH   7   8
HETATM    8  C   UNL     1     -11.326   6.234  69.233  1.00  0.00    -0.411 C  
BRANCH   8   9
HETATM    9  C   UNL     1     -10.450   6.147  67.993  1.00  0.00    -0.284 C  
BRANCH   9  10
HETATM   10  C   UNL     1     -10.467   7.476  67.251  1.00  0.00    -0.391 C  
BRANCH  10  11
HETATM   11  C   UNL     1      -9.837   8.566  68.098  1.00  0.00    -0.192 C  
BRANCH  11  12
HETATM   12  C   UNL     1     -10.774   9.760  68.224  1.00  0.00    -0.277 C  
BRANCH  12  13
HETATM   13  C   UNL     1      -9.958  11.022  68.446  1.00  0.00    -0.194 C  
BRANCH  13  14
HETATM   14  C   UNL     1     -10.835  12.269  68.464  1.00  0.00    -0.267 C  
BRANCH  14  15
HETATM   15  C   UNL     1     -11.657  12.407  67.180  1.00  0.00    -0.435 C  
BRANCH  15  16
HETATM   16  C   UNL     1     -10.771  12.694  65.965  1.00  0.00    -0.269 C  
BRANCH  16  17
HETATM   17  N   UNL     1     -11.440  13.571  64.899  1.00  0.00    -0.323 N  
HETATM   18  C   UNL     1     -10.737  14.911  64.761  1.00  0.00    -0.341 C  
HETATM   19  C   UNL     1     -12.882  13.820  65.354  1.00  0.00    -0.410 C  
HETATM   20  C   UNL     1     -11.485  12.861  63.550  1.00  0.00    -0.412 C  
ENDBRANCH  16  17
ENDBRANCH  15  16
ENDBRANCH  14  15
ENDBRANCH  13  14
ENDBRANCH  12  13
ENDBRANCH  11  12
ENDBRANCH  10  11
ENDBRANCH   9  10
ENDBRANCH   8   9
ENDBRANCH   7   8
ENDBRANCH   6   7
ENDBRANCH   5   6
ENDBRANCH   4   5
ENDBRANCH   3   4
ENDBRANCH   2   3
TORSDOF 15
ENDMDL
MODEL       62
REMARK 921   NORMALIZED FREE ENERGY PREDICTED BY IDOCK:   -3.84 KCAL/MOL
REMARK 922        TOTAL FREE ENERGY PREDICTED BY IDOCK:   -8.89 KCAL/MOL
REMARK 923 INTER-LIGAND FREE ENERGY PREDICTED BY IDOCK:   -7.22 KCAL/MOL
REMARK 924 INTRA-LIGAND FREE ENERGY PREDICTED BY IDOCK:   -1.67 KCAL/MOL
REMARK 927      BINDING AFFINITY PREDICTED BY RF-SCORE:    0.00 PKD
ROOT
HETATM    1  C   UNL     1     -10.520  19.595  65.912  1.00  0.00    -0.591 C  
HETATM    2  C   UNL     1      -9.962  20.378  67.088  1.00  0.00    -0.568 C  
ENDROOT
BRANCH   2   3
HETATM    3  C   UNL     1     -10.115  19.595  68.388  1.00  0.00    -0.557 C  
BRANCH   3   4
HETATM    4  C   UNL     1      -9.374  18.264  68.317  1.00  0.00    -0.320 C  
BRANCH   4   5
HETATM    5  C   UNL     1     -10.215  17.147  68.927  1.00  0.00    -0.332 C  
BRANCH   5   6
HETATM    6  C   UNL     1     -10.826  16.278  67.838  1.00  0.00    -0.330 C  
BRANCH   6   7
HETATM    7  C   UNL     1      -9.839  16.076  66.695  1.00  0.00    -0.273 C  
BRANCH   7   8
HETATM    8  C   UNL     1     -10.583  15.926  65.377  1.00  0.00    -0.439 C  
BRANCH   8   9
HETATM    9  C   UNL     1     -10.632  14.468  64.951  1.00  0.00    -0.450 C  
BRANCH   9  10
HETATM   10  C   UNL     1     -12.049  13.932  65.098  1.00  0.00    -0.415 C  
BRANCH  10  11
HETATM   11  C   UNL     1     -12.039  12.595  65.818  1.00  0.00    -0.484 C  
BRANCH  11  12
HETATM   12  C   UNL     1     -11.598  12.766  67.266  1.00  0.00    -0.420 C  
BRANCH  12  13
HETATM   13  C   UNL     1     -10.374  11.906  67.525  1.00  0.00    -0.219 C  
BRANCH  13  14
HETATM   14  C   UNL     1     -10.414  10.607  66.726  1.00  0.00    -0.303 C  
BRANCH  14  15
HETATM   15  C   UNL     1     -10.514   9.380  67.636  1.00  0.00    -0.328 C  
BRANCH  15  16
HETATM   16  C   UNL     1      -9.675   9.544  68.907  1.00  0.00    -0.164 C  
BRANCH  16  17
HETATM   17  N   UNL     1     -10.361   9.024  70.177  1.00  0.00    -0.200 N  
HETATM   18  C   UNL     1     -11.491   9.942  70.613  1.00  0.00    -0.334 C  
HETATM   19  C   UNL     1      -9.302   8.991  71.285  1.00  0.00    -0.254 C  
HETATM   20  C   UNL     1     -10.884   7.606  69.979  1.00  0.00    -0.243 C  
ENDBRANCH  16  17
ENDBRANCH  15  16
ENDBRANCH  14  15
ENDBRANCH  13  14
ENDBRANCH  12  13
ENDBRANCH  11  12
ENDBRANCH  10  11
ENDBRANCH   9  10
ENDBRANCH   8   9
ENDBRANCH   7   8
ENDBRANCH   6   7
ENDBRANCH   5   6
ENDBRANCH   4   5
ENDBRANCH   3   4
ENDBRANCH   2   3
TORSDOF 15
ENDMDL
MODEL       63
REMARK 921   NORMALIZED FREE ENERGY PREDICTED BY IDOCK:   -3.83 KCAL/MOL
REMARK 922        TOTAL FREE ENERGY PREDICTED BY IDOCK:   -8.89 KCAL/MOL
REMARK 923 INTER-LIGAND FREE ENERGY PREDICTED BY IDOCK:   -7.86 KCAL/MOL
REMARK 924 INTRA-LIGAND FREE ENERGY PREDICTED BY IDOCK:   -1.02 KCAL/MOL
REMARK 927      BINDING AFFINITY PREDICTED BY RF-SCORE:    0.00 PKD
ROOT
HETATM    1  C   UNL     1      -9.663  19.728  66.752  1.00  0.00    -0.512 C  
HETATM    2  C   UNL     1     -10.713  18.936  67.512  1.00  0.00    -0.509 C  
ENDROOT
BRANCH   2   3
HETATM    3  C   UNL     1     -10.062  17.973  68.500  1.00  0.00    -0.399 C  
BRANCH   3   4
HETATM    4  C   UNL     1     -10.832  16.659  68.572  1.00  0.00    -0.356 C  
BRANCH   4   5
HETATM    5  C   UNL     1     -10.618  15.985  69.923  1.00  0.00    -0.314 C  
BRANCH   5   6
HETATM    6  C   UNL     1     -11.950  15.728  70.613  1.00  0.00    -0.426 C  
BRANCH   6   7
HETATM    7  C   UNL     1     -11.907  16.207  72.059  1.00  0.00    -0.615 C  
BRANCH   7   8
HETATM    8  C   UNL     1     -12.868  15.394  72.912  1.00  0.00    -0.550 C  
BRANCH   8   9
HETATM    9  C   UNL     1     -13.970  14.792  72.053  1.00  0.00    -0.582 C  
BRANCH   9  10
HETATM   10  C   UNL     1     -14.099  13.303  72.344  1.00  0.00    -0.460 C  
BRANCH  10  11
HETATM   11  C   UNL     1     -12.918  12.545  71.768  1.00  0.00    -0.419 C  
BRANCH  11  12
HETATM   12  C   UNL     1     -13.151  11.042  71.849  1.00  0.00    -0.525 C  
BRANCH  12  13
HETATM   13  C   UNL     1     -12.124  10.325  70.990  1.00  0.00    -0.487 C  
BRANCH  13  14
HETATM   14  C   UNL     1     -12.234  10.726  69.522  1.00  0.00    -0.292 C  
BRANCH  14  15
HETATM   15  C   UNL     1     -10.903  11.245  68.972  1.00  0.00    -0.268 C  
BRANCH  15  16
HETATM   16  C   UNL     1     -10.922  11.357  67.445  1.00  0.00    -0.273 C  
BRANCH  16  17
HETATM   17  N   UNL     1      -9.806  12.238  66.871  1.00  0.00    -0.206 N  
HETATM   18  C   UNL     1     -10.291  13.035  65.671  1.00  0.00    -0.285 C  
HETATM   19  C   UNL     1      -8.678  11.305  66.416  1.00  0.00    -0.180 C  
HETATM   20  C   UNL     1      -9.245  13.178  67.932  1.00  0.00    -0.207 C  
ENDBRANCH  16  17
ENDBRANCH  15  16
ENDBRANCH  14  15
ENDBRANCH  13  14
ENDBRANCH  12  13
ENDBRANCH  11  12
ENDBRANCH  10  11
ENDBRANCH   9  10
ENDBRANCH   8   9
ENDBRANCH   7   8
ENDBRANCH   6   7
ENDBRANCH   5   6
ENDBRANCH   4   5
ENDBRANCH   3   4
ENDBRANCH   2   3
TORSDOF 15
ENDMDL
MODEL       64
REMARK 921   NORMALIZED FREE ENERGY PREDICTED BY IDOCK:   -3.83 KCAL/MOL
REMARK 922        TOTAL FREE ENERGY PREDICTED BY IDOCK:   -8.89 KCAL/MOL
REMARK 923 INTER-LIGAND FREE ENERGY PREDICTED BY IDOCK:   -7.47 KCAL/MOL
REMARK 924 INTRA-LIGAND FREE ENERGY PREDICTED BY IDOCK:   -1.42 KCAL/MOL
REMARK 927      BINDING AFFINITY PREDICTED BY RF-SCORE:    0.00 PKD
ROOT
HETATM    1  C   UNL     1     -11.978  10.945  70.475  1.00  0.00    -0.466 C  
HETATM    2  C   UNL     1     -12.814  10.591  71.693  1.00  0.00    -0.581 C  
ENDROOT
BRANCH   2   3
HETATM    3  C   UNL     1     -12.675   9.113  72.040  1.00  0.00    -0.473 C  
BRANCH   3   4
HETATM    4  C   UNL     1     -11.733   8.408  71.070  1.00  0.00    -0.296 C  
BRANCH   4   5
HETATM    5  C   UNL     1     -12.034   6.914  71.017  1.00  0.00    -0.422 C  
BRANCH   5   6
HETATM    6  C   UNL     1     -11.363   6.272  69.811  1.00  0.00    -0.506 C  
BRANCH   6   7
HETATM    7  C   UNL     1     -10.624   7.319  68.987  1.00  0.00    -0.214 C  
BRANCH   7   8
HETATM    8  C   UNL     1     -10.755   7.010  67.504  1.00  0.00    -0.352 C  
BRANCH   8   9
HETATM    9  C   UNL     1     -10.282   8.187  66.666  1.00  0.00    -0.329 C  
BRANCH   9  10
HETATM   10  C   UNL     1     -10.568   9.492  67.396  1.00  0.00    -0.337 C  
BRANCH  10  11
HETATM   11  C   UNL     1     -10.550  10.658  66.426  1.00  0.00    -0.240 C  
BRANCH  11  12
HETATM   12  C   UNL     1     -10.024  10.220  65.065  1.00  0.00    -0.393 C  
BRANCH  12  13
HETATM   13  C   UNL     1     -10.282  11.317  64.047  1.00  0.00    -0.403 C  
BRANCH  13  14
HETATM   14  C   UNL     1     -11.630  11.994  64.273  1.00  0.00    -0.435 C  
BRANCH  14  15
HETATM   15  C   UNL     1     -11.491  13.512  64.406  1.00  0.00    -0.422 C  
BRANCH  15  16
HETATM   16  C   UNL     1     -11.895  14.001  65.800  1.00  0.00    -0.383 C  
BRANCH  16  17
HETATM   17  N   UNL     1     -10.898  14.980  66.430  1.00  0.00    -0.322 N  
HETATM   18  C   UNL     1     -11.439  15.569  67.723  1.00  0.00    -0.243 C  
HETATM   19  C   UNL     1     -10.681  16.119  65.428  1.00  0.00    -0.358 C  
HETATM   20  C   UNL     1      -9.552  14.309  66.682  1.00  0.00    -0.289 C  
ENDBRANCH  16  17
ENDBRANCH  15  16
ENDBRANCH  14  15
ENDBRANCH  13  14
ENDBRANCH  12  13
ENDBRANCH  11  12
ENDBRANCH  10  11
ENDBRANCH   9  10
ENDBRANCH   8   9
ENDBRANCH   7   8
ENDBRANCH   6   7
ENDBRANCH   5   6
ENDBRANCH   4   5
ENDBRANCH   3   4
ENDBRANCH   2   3
TORSDOF 15
ENDMDL
MODEL       65
REMARK 921   NORMALIZED FREE ENERGY PREDICTED BY IDOCK:   -3.83 KCAL/MOL
REMARK 922        TOTAL FREE ENERGY PREDICTED BY IDOCK:   -8.89 KCAL/MOL
REMARK 923 INTER-LIGAND FREE ENERGY PREDICTED BY IDOCK:   -7.21 KCAL/MOL
REMARK 924 INTRA-LIGAND FREE ENERGY PREDICTED BY IDOCK:   -1.67 KCAL/MOL
REMARK 927      BINDING AFFINITY PREDICTED BY RF-SCORE:    0.00 PKD
ROOT
HETATM    1  C   UNL     1     -11.027   6.558  68.112  1.00  0.00    -0.365 C  
HETATM    2  C   UNL     1     -11.063   6.042  69.541  1.00  0.00    -0.468 C  
ENDROOT
BRANCH   2   3
HETATM    3  C   UNL     1      -9.711   5.465  69.948  1.00  0.00    -0.249 C  
BRANCH   3   4
HETATM    4  C   UNL     1      -9.883   4.252  70.856  1.00  0.00    -0.259 C  
BRANCH   4   5
HETATM    5  C   UNL     1      -9.515   4.600  72.294  1.00  0.00    -0.182 C  
BRANCH   5   6
HETATM    6  C   UNL     1     -10.708   5.202  73.023  1.00  0.00    -0.308 C  
BRANCH   6   7
HETATM    7  C   UNL     1     -10.303   6.475  73.755  1.00  0.00    -0.346 C  
BRANCH   7   8
HETATM    8  C   UNL     1     -10.898   7.692  73.063  1.00  0.00    -0.457 C  
BRANCH   8   9
HETATM    9  C   UNL     1      -9.827   8.451  72.297  1.00  0.00    -0.383 C  
BRANCH   9  10
HETATM   10  C   UNL     1     -10.464   9.255  71.172  1.00  0.00    -0.401 C  
BRANCH  10  11
HETATM   11  C   UNL     1     -11.971   9.309  71.346  1.00  0.00    -0.424 C  
BRANCH  11  12
HETATM   12  C   UNL     1     -12.516  10.663  70.909  1.00  0.00    -0.495 C  
BRANCH  12  13
HETATM   13  C   UNL     1     -11.931  11.030  69.557  1.00  0.00    -0.413 C  
BRANCH  13  14
HETATM   14  C   UNL     1     -11.776  12.539  69.397  1.00  0.00    -0.383 C  
BRANCH  14  15
HETATM   15  C   UNL     1     -10.862  12.898  68.223  1.00  0.00    -0.263 C  
BRANCH  15  16
HETATM   16  C   UNL     1     -11.413  12.379  66.892  1.00  0.00    -0.360 C  
BRANCH  16  17
HETATM   17  N   UNL     1     -11.327  13.394  65.745  1.00  0.00    -0.302 N  
HETATM   18  C   UNL     1     -10.655  12.792  64.521  1.00  0.00    -0.360 C  
HETATM   19  C   UNL     1     -10.477  14.570  66.240  1.00  0.00    -0.301 C  
HETATM   20  C   UNL     1     -12.706  13.928  65.376  1.00  0.00    -0.490 C  
ENDBRANCH  16  17
ENDBRANCH  15  16
ENDBRANCH  14  15
ENDBRANCH  13  14
ENDBRANCH  12  13
ENDBRANCH  11  12
ENDBRANCH  10  11
ENDBRANCH   9  10
ENDBRANCH   8   9
ENDBRANCH   7   8
ENDBRANCH   6   7
ENDBRANCH   5   6
ENDBRANCH   4   5
ENDBRANCH   3   4
ENDBRANCH   2   3
TORSDOF 15
ENDMDL
MODEL       66
REMARK 921   NORMALIZED FREE ENERGY PREDICTED BY IDOCK:   -3.83 KCAL/MOL
REMARK 922        TOTAL FREE ENERGY PREDICTED BY IDOCK:   -8.88 KCAL/MOL
REMARK 923 INTER-LIGAND FREE ENERGY PREDICTED BY IDOCK:   -6.82 KCAL/MOL
REMARK 924 INTRA-LIGAND FREE ENERGY PREDICTED BY IDOCK:   -2.05 KCAL/MOL
REMARK 927      BINDING AFFINITY PREDICTED BY RF-SCORE:    0.00 PKD
ROOT
HETATM    1  C   UNL     1     -10.266   5.835  68.967  1.00  0.00    -0.282 C  
HETATM    2  C   UNL     1     -11.383   6.353  69.857  1.00  0.00    -0.500 C  
ENDROOT
BRANCH   2   3
HETATM    3  C   UNL     1     -10.870   6.649  71.262  1.00  0.00    -0.279 C  
BRANCH   3   4
HETATM    4  C   UNL     1     -11.995   7.148  72.163  1.00  0.00    -0.304 C  
BRANCH   4   5
HETATM    5  C   UNL     1     -13.340   7.042  71.452  1.00  0.00    -0.335 C  
BRANCH   5   6
HETATM    6  C   UNL     1     -14.287   8.134  71.928  1.00  0.00    -0.566 C  
BRANCH   6   7
HETATM    7  C   UNL     1     -13.530   9.435  72.167  1.00  0.00    -0.543 C  
BRANCH   7   8
HETATM    8  C   UNL     1     -13.351  10.187  70.857  1.00  0.00    -0.272 C  
BRANCH   8   9
HETATM    9  C   UNL     1     -11.932  10.720  70.734  1.00  0.00    -0.464 C  
BRANCH   9  10
HETATM   10  C   UNL     1     -11.269  10.146  69.490  1.00  0.00    -0.288 C  
BRANCH  10  11
HETATM   11  C   UNL     1      -9.832   9.758  69.785  1.00  0.00    -0.262 C  
BRANCH  11  12
HETATM   12  C   UNL     1      -9.137   9.261  68.523  1.00  0.00    -0.132 C  
BRANCH  12  13
HETATM   13  C   UNL     1      -9.456  10.197  67.370  1.00  0.00    -0.175 C  
BRANCH  13  14
HETATM   14  C   UNL     1      -9.809   9.431  66.099  1.00  0.00    -0.356 C  
BRANCH  14  15
HETATM   15  C   UNL     1     -10.321  10.360  64.996  1.00  0.00    -0.249 C  
BRANCH  15  16
HETATM   16  C   UNL     1      -9.982  11.826  65.284  1.00  0.00    -0.253 C  
BRANCH  16  17
HETATM   17  N   UNL     1     -11.182  12.774  65.177  1.00  0.00    -0.285 N  
HETATM   18  C   UNL     1     -10.740  14.199  64.886  1.00  0.00    -0.428 C  
HETATM   19  C   UNL     1     -11.901  12.753  66.531  1.00  0.00    -0.405 C  
HETATM   20  C   UNL     1     -12.166  12.302  64.112  1.00  0.00    -0.446 C  
ENDBRANCH  16  17
ENDBRANCH  15  16
ENDBRANCH  14  15
ENDBRANCH  13  14
ENDBRANCH  12  13
ENDBRANCH  11  12
ENDBRANCH  10  11
ENDBRANCH   9  10
ENDBRANCH   8   9
ENDBRANCH   7   8
ENDBRANCH   6   7
ENDBRANCH   5   6
ENDBRANCH   4   5
ENDBRANCH   3   4
ENDBRANCH   2   3
TORSDOF 15
ENDMDL
MODEL       67
REMARK 921   NORMALIZED FREE ENERGY PREDICTED BY IDOCK:   -3.83 KCAL/MOL
REMARK 922        TOTAL FREE ENERGY PREDICTED BY IDOCK:   -8.87 KCAL/MOL
REMARK 923 INTER-LIGAND FREE ENERGY PREDICTED BY IDOCK:   -7.37 KCAL/MOL
REMARK 924 INTRA-LIGAND FREE ENERGY PREDICTED BY IDOCK:   -1.51 KCAL/MOL
REMARK 927      BINDING AFFINITY PREDICTED BY RF-SCORE:    0.00 PKD
ROOT
HETATM    1  C   UNL     1     -10.553  11.236  63.802  1.00  0.00    -0.455 C  
HETATM    2  C   UNL     1     -10.403  10.894  65.274  1.00  0.00    -0.334 C  
ENDROOT
BRANCH   2   3
HETATM    3  C   UNL     1     -11.215  11.850  66.143  1.00  0.00    -0.387 C  
BRANCH   3   4
HETATM    4  C   UNL     1     -12.228  12.624  65.306  1.00  0.00    -0.532 C  
BRANCH   4   5
HETATM    5  C   UNL     1     -12.115  14.120  65.575  1.00  0.00    -0.421 C  
BRANCH   5   6
HETATM    6  C   UNL     1     -10.686  14.495  65.942  1.00  0.00    -0.308 C  
BRANCH   6   7
HETATM    7  C   UNL     1     -10.407  15.952  65.597  1.00  0.00    -0.413 C  
BRANCH   7   8
HETATM    8  C   UNL     1      -9.752  16.656  66.775  1.00  0.00    -0.271 C  
BRANCH   8   9
HETATM    9  C   UNL     1     -10.735  16.805  67.925  1.00  0.00    -0.347 C  
BRANCH   9  10
HETATM   10  C   UNL     1     -10.184  16.125  69.171  1.00  0.00    -0.255 C  
BRANCH  10  11
HETATM   11  C   UNL     1     -11.317  15.614  70.042  1.00  0.00    -0.341 C  
BRANCH  11  12
HETATM   12  C   UNL     1     -12.037  14.455  69.365  1.00  0.00    -0.338 C  
BRANCH  12  13
HETATM   13  C   UNL     1     -12.279  13.350  70.378  1.00  0.00    -0.415 C  
BRANCH  13  14
HETATM   14  C   UNL     1     -11.815  11.993  69.859  1.00  0.00    -0.405 C  
BRANCH  14  15
HETATM   15  C   UNL     1     -12.295  10.846  70.751  1.00  0.00    -0.487 C  
BRANCH  15  16
HETATM   16  C   UNL     1     -11.227   9.761  70.909  1.00  0.00    -0.359 C  
BRANCH  16  17
HETATM   17  N   UNL     1     -11.727   8.490  71.606  1.00  0.00    -0.287 N  
HETATM   18  C   UNL     1     -13.069   8.721  72.284  1.00  0.00    -0.409 C  
HETATM   19  C   UNL     1     -10.695   8.122  72.678  1.00  0.00    -0.351 C  
HETATM   20  C   UNL     1     -11.828   7.327  70.626  1.00  0.00    -0.252 C  
ENDBRANCH  16  17
ENDBRANCH  15  16
ENDBRANCH  14  15
ENDBRANCH  13  14
ENDBRANCH  12  13
ENDBRANCH  11  12
ENDBRANCH  10  11
ENDBRANCH   9  10
ENDBRANCH   8   9
ENDBRANCH   7   8
ENDBRANCH   6   7
ENDBRANCH   5   6
ENDBRANCH   4   5
ENDBRANCH   3   4
ENDBRANCH   2   3
TORSDOF 15
ENDMDL
MODEL       68
REMARK 921   NORMALIZED FREE ENERGY PREDICTED BY IDOCK:   -3.82 KCAL/MOL
REMARK 922        TOTAL FREE ENERGY PREDICTED BY IDOCK:   -8.86 KCAL/MOL
REMARK 923 INTER-LIGAND FREE ENERGY PREDICTED BY IDOCK:   -7.85 KCAL/MOL
REMARK 924 INTRA-LIGAND FREE ENERGY PREDICTED BY IDOCK:   -1.01 KCAL/MOL
REMARK 927      BINDING AFFINITY PREDICTED BY RF-SCORE:    0.00 PKD
ROOT
HETATM    1  C   UNL     1     -10.400  10.898  64.228  1.00  0.00    -0.436 C  
HETATM    2  C   UNL     1     -11.056  11.970  63.377  1.00  0.00    -0.476 C  
ENDROOT
BRANCH   2   3
HETATM    3  C   UNL     1     -12.199  12.644  64.130  1.00  0.00    -0.532 C  
BRANCH   3   4
HETATM    4  C   UNL     1     -12.013  12.512  65.638  1.00  0.00    -0.492 C  
BRANCH   4   5
HETATM    5  C   UNL     1     -12.404  13.807  66.343  1.00  0.00    -0.460 C  
BRANCH   5   6
HETATM    6  C   UNL     1     -11.169  14.631  66.677  1.00  0.00    -0.349 C  
BRANCH   6   7
HETATM    7  C   UNL     1     -11.353  15.359  68.003  1.00  0.00    -0.345 C  
BRANCH   7   8
HETATM    8  C   UNL     1     -11.815  14.387  69.077  1.00  0.00    -0.358 C  
BRANCH   8   9
HETATM    9  C   UNL     1     -12.388  15.137  70.269  1.00  0.00    -0.398 C  
BRANCH   9  10
HETATM   10  C   UNL     1     -12.675  14.164  71.404  1.00  0.00    -0.439 C  
BRANCH  10  11
HETATM   11  C   UNL     1     -12.595  12.732  70.910  1.00  0.00    -0.342 C  
BRANCH  11  12
HETATM   12  C   UNL     1     -13.198  11.775  71.931  1.00  0.00    -0.468 C  
BRANCH  12  13
HETATM   13  C   UNL     1     -12.887  10.344  71.527  1.00  0.00    -0.569 C  
BRANCH  13  14
HETATM   14  C   UNL     1     -11.620  10.257  70.681  1.00  0.00    -0.435 C  
BRANCH  14  15
HETATM   15  C   UNL     1     -10.606   9.275  71.272  1.00  0.00    -0.417 C  
BRANCH  15  16
HETATM   16  C   UNL     1     -11.266   8.287  72.239  1.00  0.00    -0.374 C  
BRANCH  16  17
HETATM   17  N   UNL     1     -10.431   7.030  72.510  1.00  0.00    -0.207 N  
HETATM   18  C   UNL     1      -9.408   6.794  71.411  1.00  0.00    -0.157 C  
HETATM   19  C   UNL     1     -11.396   5.840  72.542  1.00  0.00    -0.307 C  
HETATM   20  C   UNL     1      -9.735   7.112  73.865  1.00  0.00    -0.293 C  
ENDBRANCH  16  17
ENDBRANCH  15  16
ENDBRANCH  14  15
ENDBRANCH  13  14
ENDBRANCH  12  13
ENDBRANCH  11  12
ENDBRANCH  10  11
ENDBRANCH   9  10
ENDBRANCH   8   9
ENDBRANCH   7   8
ENDBRANCH   6   7
ENDBRANCH   5   6
ENDBRANCH   4   5
ENDBRANCH   3   4
ENDBRANCH   2   3
TORSDOF 15
ENDMDL
MODEL       69
REMARK 921   NORMALIZED FREE ENERGY PREDICTED BY IDOCK:   -3.82 KCAL/MOL
REMARK 922        TOTAL FREE ENERGY PREDICTED BY IDOCK:   -8.86 KCAL/MOL
REMARK 923 INTER-LIGAND FREE ENERGY PREDICTED BY IDOCK:   -7.14 KCAL/MOL
REMARK 924 INTRA-LIGAND FREE ENERGY PREDICTED BY IDOCK:   -1.73 KCAL/MOL
REMARK 927      BINDING AFFINITY PREDICTED BY RF-SCORE:    0.00 PKD
ROOT
HETATM    1  C   UNL     1     -10.598  19.561  66.036  1.00  0.00    -0.589 C  
HETATM    2  C   UNL     1     -10.550  19.113  67.487  1.00  0.00    -0.567 C  
ENDROOT
BRANCH   2   3
HETATM    3  C   UNL     1     -10.409  17.598  67.587  1.00  0.00    -0.368 C  
BRANCH   3   4
HETATM    4  C   UNL     1      -9.644  17.039  66.392  1.00  0.00    -0.301 C  
BRANCH   4   5
HETATM    5  C   UNL     1     -10.359  15.819  65.820  1.00  0.00    -0.390 C  
BRANCH   5   6
HETATM    6  C   UNL     1      -9.662  14.536  66.251  1.00  0.00    -0.330 C  
BRANCH   6   7
HETATM    7  C   UNL     1     -10.444  13.850  67.364  1.00  0.00    -0.263 C  
BRANCH   7   8
HETATM    8  C   UNL     1     -11.888  13.636  66.938  1.00  0.00    -0.451 C  
BRANCH   8   9
HETATM    9  C   UNL     1     -12.000  12.443  66.002  1.00  0.00    -0.419 C  
BRANCH   9  10
HETATM   10  C   UNL     1     -12.769  12.837  64.749  1.00  0.00    -0.469 C  
BRANCH  10  11
HETATM   11  C   UNL     1     -12.104  12.260  63.513  1.00  0.00    -0.649 C  
BRANCH  11  12
HETATM   12  C   UNL     1     -10.589  12.254  63.670  1.00  0.00    -0.501 C  
BRANCH  12  13
HETATM   13  C   UNL     1     -10.061  10.852  63.417  1.00  0.00    -0.398 C  
BRANCH  13  14
HETATM   14  C   UNL     1      -8.835  10.545  64.270  1.00  0.00    -0.209 C  
BRANCH  14  15
HETATM   15  C   UNL     1      -9.157   9.567  65.402  1.00  0.00    -0.273 C  
BRANCH  15  16
HETATM   16  C   UNL     1      -9.162  10.258  66.768  1.00  0.00    -0.157 C  
BRANCH  16  17
HETATM   17  N   UNL     1      -9.714   9.388  67.904  1.00  0.00    -0.148 N  
HETATM   18  C   UNL     1      -8.594   8.763  68.719  1.00  0.00    -0.137 C  
HETATM   19  C   UNL     1     -10.535   8.265  67.260  1.00  0.00    -0.303 C  
HETATM   20  C   UNL     1     -10.639  10.190  68.813  1.00  0.00    -0.213 C  
ENDBRANCH  16  17
ENDBRANCH  15  16
ENDBRANCH  14  15
ENDBRANCH  13  14
ENDBRANCH  12  13
ENDBRANCH  11  12
ENDBRANCH  10  11
ENDBRANCH   9  10
ENDBRANCH   8   9
ENDBRANCH   7   8
ENDBRANCH   6   7
ENDBRANCH   5   6
ENDBRANCH   4   5
ENDBRANCH   3   4
ENDBRANCH   2   3
TORSDOF 15
ENDMDL
MODEL       70
REMARK 921   NORMALIZED FREE ENERGY PREDICTED BY IDOCK:   -3.80 KCAL/MOL
REMARK 922        TOTAL FREE ENERGY PREDICTED BY IDOCK:   -8.83 KCAL/MOL
REMARK 923 INTER-LIGAND FREE ENERGY PREDICTED BY IDOCK:   -7.35 KCAL/MOL
REMARK 924 INTRA-LIGAND FREE ENERGY PREDICTED BY IDOCK:   -1.48 KCAL/MOL
REMARK 927      BINDING AFFINITY PREDICTED BY RF-SCORE:    0.00 PKD
ROOT
HETATM    1  C   UNL     1     -12.733  13.886  65.442  1.00  0.00    -0.525 C  
HETATM    2  C   UNL     1     -11.460  13.091  65.681  1.00  0.00    -0.365 C  
ENDROOT
BRANCH   2   3
HETATM    3  C   UNL     1     -11.685  12.001  66.723  1.00  0.00    -0.339 C  
BRANCH   3   4
HETATM    4  C   UNL     1     -10.616  10.917  66.622  1.00  0.00    -0.305 C  
BRANCH   4   5
HETATM    5  C   UNL     1     -10.793   9.883  67.728  1.00  0.00    -0.321 C  
BRANCH   5   6
HETATM    6  C   UNL     1     -10.160  10.368  69.024  1.00  0.00    -0.227 C  
BRANCH   6   7
HETATM    7  C   UNL     1     -11.112  10.164  70.196  1.00  0.00    -0.378 C  
BRANCH   7   8
HETATM    8  C   UNL     1     -11.948  11.415  70.419  1.00  0.00    -0.465 C  
BRANCH   8   9
HETATM    9  C   UNL     1     -13.032  11.159  71.453  1.00  0.00    -0.506 C  
BRANCH   9  10
HETATM   10  C   UNL     1     -13.340  12.442  72.211  1.00  0.00    -0.427 C  
BRANCH  10  11
HETATM   11  C   UNL     1     -13.019  13.655  71.357  1.00  0.00    -0.427 C  
BRANCH  11  12
HETATM   12  C   UNL     1     -12.422  14.770  72.205  1.00  0.00    -0.408 C  
BRANCH  12  13
HETATM   13  C   UNL     1     -11.439  15.570  71.368  1.00  0.00    -0.478 C  
BRANCH  13  14
HETATM   14  C   UNL     1     -11.783  15.514  69.883  1.00  0.00    -0.368 C  
BRANCH  14  15
HETATM   15  C   UNL     1     -10.528  15.512  69.007  1.00  0.00    -0.231 C  
BRANCH  15  16
HETATM   16  C   UNL     1     -10.786  16.154  67.641  1.00  0.00    -0.318 C  
BRANCH  16  17
HETATM   17  N   UNL     1      -9.690  17.131  67.195  1.00  0.00    -0.254 N  
HETATM   18  C   UNL     1     -10.263  18.262  66.357  1.00  0.00    -0.403 C  
HETATM   19  C   UNL     1      -8.697  16.340  66.336  1.00  0.00    -0.319 C  
HETATM   20  C   UNL     1      -8.935  17.696  68.393  1.00  0.00    -0.280 C  
ENDBRANCH  16  17
ENDBRANCH  15  16
ENDBRANCH  14  15
ENDBRANCH  13  14
ENDBRANCH  12  13
ENDBRANCH  11  12
ENDBRANCH  10  11
ENDBRANCH   9  10
ENDBRANCH   8   9
ENDBRANCH   7   8
ENDBRANCH   6   7
ENDBRANCH   5   6
ENDBRANCH   4   5
ENDBRANCH   3   4
ENDBRANCH   2   3
TORSDOF 15
ENDMDL
MODEL       71
REMARK 921   NORMALIZED FREE ENERGY PREDICTED BY IDOCK:   -3.79 KCAL/MOL
REMARK 922        TOTAL FREE ENERGY PREDICTED BY IDOCK:   -8.80 KCAL/MOL
REMARK 923 INTER-LIGAND FREE ENERGY PREDICTED BY IDOCK:   -6.45 KCAL/MOL
REMARK 924 INTRA-LIGAND FREE ENERGY PREDICTED BY IDOCK:   -2.35 KCAL/MOL
REMARK 927      BINDING AFFINITY PREDICTED BY RF-SCORE:    0.00 PKD
ROOT
HETATM    1  C   UNL     1     -12.252  13.282  63.409  1.00  0.00    -0.476 C  
HETATM    2  C   UNL     1     -11.664  11.883  63.479  1.00  0.00    -0.550 C  
ENDROOT
BRANCH   2   3
HETATM    3  C   UNL     1     -10.153  11.935  63.682  1.00  0.00    -0.450 C  
BRANCH   3   4
HETATM    4  C   UNL     1      -9.574  10.534  63.848  1.00  0.00    -0.363 C  
BRANCH   4   5
HETATM    5  C   UNL     1      -9.580  10.121  65.316  1.00  0.00    -0.338 C  
BRANCH   5   6
HETATM    6  C   UNL     1      -8.206  10.327  65.938  1.00  0.00    -0.148 C  
BRANCH   6   7
HETATM    7  C   UNL     1      -8.284  11.311  67.099  1.00  0.00    -0.149 C  
BRANCH   7   8
HETATM    8  C   UNL     1      -9.275  10.816  68.141  1.00  0.00    -0.151 C  
BRANCH   8   9
HETATM    9  C   UNL     1     -10.200  11.941  68.579  1.00  0.00    -0.221 C  
BRANCH   9  10
HETATM   10  C   UNL     1     -11.547  11.805  67.884  1.00  0.00    -0.377 C  
BRANCH  10  11
HETATM   11  C   UNL     1     -11.802  12.998  66.981  1.00  0.00    -0.437 C  
BRANCH  11  12
HETATM   12  C   UNL     1     -10.924  14.176  67.382  1.00  0.00    -0.306 C  
BRANCH  12  13
HETATM   13  C   UNL     1     -10.403  14.865  66.133  1.00  0.00    -0.312 C  
BRANCH  13  14
HETATM   14  C   UNL     1      -8.917  15.191  66.244  1.00  0.00    -0.274 C  
BRANCH  14  15
HETATM   15  C   UNL     1      -8.648  16.689  66.088  1.00  0.00    -0.324 C  
BRANCH  15  16
HETATM   16  C   UNL     1      -8.350  17.358  67.433  1.00  0.00    -0.205 C  
BRANCH  16  17
HETATM   17  N   UNL     1      -9.507  18.203  67.979  1.00  0.00    -0.277 N  
HETATM   18  C   UNL     1     -10.446  18.642  66.867  1.00  0.00    -0.402 C  
HETATM   19  C   UNL     1      -8.895  19.451  68.624  1.00  0.00    -0.373 C  
HETATM   20  C   UNL     1     -10.283  17.447  69.052  1.00  0.00    -0.317 C  
ENDBRANCH  16  17
ENDBRANCH  15  16
ENDBRANCH  14  15
ENDBRANCH  13  14
ENDBRANCH  12  13
ENDBRANCH  11  12
ENDBRANCH  10  11
ENDBRANCH   9  10
ENDBRANCH   8   9
ENDBRANCH   7   8
ENDBRANCH   6   7
ENDBRANCH   5   6
ENDBRANCH   4   5
ENDBRANCH   3   4
ENDBRANCH   2   3
TORSDOF 15
ENDMDL
MODEL       72
REMARK 921   NORMALIZED FREE ENERGY PREDICTED BY IDOCK:   -3.77 KCAL/MOL
REMARK 922        TOTAL FREE ENERGY PREDICTED BY IDOCK:   -8.77 KCAL/MOL
REMARK 923 INTER-LIGAND FREE ENERGY PREDICTED BY IDOCK:   -7.29 KCAL/MOL
REMARK 924 INTRA-LIGAND FREE ENERGY PREDICTED BY IDOCK:   -1.48 KCAL/MOL
REMARK 927      BINDING AFFINITY PREDICTED BY RF-SCORE:    0.00 PKD
ROOT
HETATM    1  C   UNL     1     -10.169  19.750  66.089  1.00  0.00    -0.618 C  
HETATM    2  C   UNL     1     -10.116  20.387  67.467  1.00  0.00    -0.495 C  
ENDROOT
BRANCH   2   3
HETATM    3  C   UNL     1      -9.862  19.338  68.544  1.00  0.00    -0.498 C  
BRANCH   3   4
HETATM    4  C   UNL     1      -8.700  18.428  68.160  1.00  0.00    -0.318 C  
BRANCH   4   5
HETATM    5  C   UNL     1      -9.052  16.967  68.422  1.00  0.00    -0.256 C  
BRANCH   5   6
HETATM    6  C   UNL     1     -10.558  16.792  68.553  1.00  0.00    -0.354 C  
BRANCH   6   7
HETATM    7  C   UNL     1     -10.894  15.898  69.740  1.00  0.00    -0.328 C  
BRANCH   7   8
HETATM    8  C   UNL     1     -12.378  15.565  69.745  1.00  0.00    -0.261 C  
BRANCH   8   9
HETATM    9  C   UNL     1     -12.903  15.473  71.168  1.00  0.00    -0.551 C  
BRANCH   9  10
HETATM   10  C   UNL     1     -12.364  14.219  71.841  1.00  0.00    -0.329 C  
BRANCH  10  11
HETATM   11  C   UNL     1     -13.118  12.993  71.360  1.00  0.00    -0.336 C  
BRANCH  11  12
HETATM   12  C   UNL     1     -12.167  11.996  70.709  1.00  0.00    -0.382 C  
BRANCH  12  13
HETATM   13  C   UNL     1     -12.128  12.241  69.211  1.00  0.00    -0.219 C  
BRANCH  13  14
HETATM   14  C   UNL     1     -10.699  12.388  68.697  1.00  0.00    -0.260 C  
BRANCH  14  15
HETATM   15  C   UNL     1     -10.639  12.374  67.168  1.00  0.00    -0.247 C  
BRANCH  15  16
HETATM   16  C   UNL     1     -11.892  12.993  66.542  1.00  0.00    -0.403 C  
BRANCH  16  17
HETATM   17  N   UNL     1     -11.758  13.290  65.044  1.00  0.00    -0.321 N  
HETATM   18  C   UNL     1     -12.396  14.621  64.683  1.00  0.00    -0.375 C  
HETATM   19  C   UNL     1     -12.494  12.175  64.291  1.00  0.00    -0.363 C  
HETATM   20  C   UNL     1     -10.298  13.272  64.606  1.00  0.00    -0.375 C  
ENDBRANCH  16  17
ENDBRANCH  15  16
ENDBRANCH  14  15
ENDBRANCH  13  14
ENDBRANCH  12  13
ENDBRANCH  11  12
ENDBRANCH  10  11
ENDBRANCH   9  10
ENDBRANCH   8   9
ENDBRANCH   7   8
ENDBRANCH   6   7
ENDBRANCH   5   6
ENDBRANCH   4   5
ENDBRANCH   3   4
ENDBRANCH   2   3
TORSDOF 15
ENDMDL
MODEL       73
REMARK 921   NORMALIZED FREE ENERGY PREDICTED BY IDOCK:   -3.76 KCAL/MOL
REMARK 922        TOTAL FREE ENERGY PREDICTED BY IDOCK:   -8.76 KCAL/MOL
REMARK 923 INTER-LIGAND FREE ENERGY PREDICTED BY IDOCK:   -7.11 KCAL/MOL
REMARK 924 INTRA-LIGAND FREE ENERGY PREDICTED BY IDOCK:   -1.65 KCAL/MOL
REMARK 927      BINDING AFFINITY PREDICTED BY RF-SCORE:    0.00 PKD
ROOT
HETATM    1  C   UNL     1      -9.819  20.115  66.631  1.00  0.00    -0.588 C  
HETATM    2  C   UNL     1     -10.800  19.122  67.231  1.00  0.00    -0.529 C  
ENDROOT
BRANCH   2   3
HETATM    3  C   UNL     1     -10.070  17.912  67.804  1.00  0.00    -0.350 C  
BRANCH   3   4
HETATM    4  C   UNL     1      -9.423  17.086  66.697  1.00  0.00    -0.279 C  
BRANCH   4   5
HETATM    5  C   UNL     1      -9.647  15.597  66.936  1.00  0.00    -0.244 C  
BRANCH   5   6
HETATM    6  C   UNL     1     -10.031  14.897  65.640  1.00  0.00    -0.389 C  
BRANCH   6   7
HETATM    7  C   UNL     1     -11.085  15.700  64.888  1.00  0.00    -0.414 C  
BRANCH   7   8
HETATM    8  C   UNL     1     -12.187  14.780  64.384  1.00  0.00    -0.447 C  
BRANCH   8   9
HETATM    9  C   UNL     1     -12.548  13.747  65.439  1.00  0.00    -0.534 C  
BRANCH   9  10
HETATM   10  C   UNL     1     -12.525  12.352  64.829  1.00  0.00    -0.480 C  
BRANCH  10  11
HETATM   11  C   UNL     1     -11.842  12.376  63.474  1.00  0.00    -0.605 C  
BRANCH  11  12
HETATM   12  C   UNL     1     -10.455  11.752  63.558  1.00  0.00    -0.500 C  
BRANCH  12  13
HETATM   13  C   UNL     1     -10.398  10.807  64.745  1.00  0.00    -0.380 C  
BRANCH  13  14
HETATM   14  C   UNL     1      -9.150  11.036  65.593  1.00  0.00    -0.223 C  
BRANCH  14  15
HETATM   15  C   UNL     1      -9.446  10.911  67.089  1.00  0.00    -0.178 C  
BRANCH  15  16
HETATM   16  C   UNL     1     -10.366   9.725  67.391  1.00  0.00    -0.240 C  
BRANCH  16  17
HETATM   17  N   UNL     1     -10.233   9.181  68.819  1.00  0.00    -0.204 N  
HETATM   18  C   UNL     1     -10.576   7.702  68.884  1.00  0.00    -0.159 C  
HETATM   19  C   UNL     1     -11.226   9.952  69.695  1.00  0.00    -0.208 C  
HETATM   20  C   UNL     1      -8.831   9.419  69.370  1.00  0.00    -0.159 C  
ENDBRANCH  16  17
ENDBRANCH  15  16
ENDBRANCH  14  15
ENDBRANCH  13  14
ENDBRANCH  12  13
ENDBRANCH  11  12
ENDBRANCH  10  11
ENDBRANCH   9  10
ENDBRANCH   8   9
ENDBRANCH   7   8
ENDBRANCH   6   7
ENDBRANCH   5   6
ENDBRANCH   4   5
ENDBRANCH   3   4
ENDBRANCH   2   3
TORSDOF 15
ENDMDL
MODEL       74
REMARK 921   NORMALIZED FREE ENERGY PREDICTED BY IDOCK:   -3.76 KCAL/MOL
REMARK 922        TOTAL FREE ENERGY PREDICTED BY IDOCK:   -8.75 KCAL/MOL
REMARK 923 INTER-LIGAND FREE ENERGY PREDICTED BY IDOCK:   -7.15 KCAL/MOL
REMARK 924 INTRA-LIGAND FREE ENERGY PREDICTED BY IDOCK:   -1.60 KCAL/MOL
REMARK 927      BINDING AFFINITY PREDICTED BY RF-SCORE:    0.00 PKD
ROOT
HETATM    1  C   UNL     1     -12.654  13.959  65.669  1.00  0.00    -0.553 C  
HETATM    2  C   UNL     1     -12.048  12.569  65.582  1.00  0.00    -0.464 C  
ENDROOT
BRANCH   2   3
HETATM    3  C   UNL     1     -11.563  12.097  66.948  1.00  0.00    -0.408 C  
BRANCH   3   4
HETATM    4  C   UNL     1     -11.819  13.156  68.016  1.00  0.00    -0.398 C  
BRANCH   4   5
HETATM    5  C   UNL     1     -11.876  12.520  69.401  1.00  0.00    -0.368 C  
BRANCH   5   6
HETATM    6  C   UNL     1     -12.033  11.010  69.293  1.00  0.00    -0.410 C  
BRANCH   6   7
HETATM    7  C   UNL     1     -11.497  10.323  70.543  1.00  0.00    -0.427 C  
BRANCH   7   8
HETATM    8  C   UNL     1     -12.615  10.125  71.555  1.00  0.00    -0.537 C  
BRANCH   8   9
HETATM    9  C   UNL     1     -12.773   8.653  71.899  1.00  0.00    -0.413 C  
BRANCH   9  10
HETATM   10  C   UNL     1     -11.472   8.111  72.474  1.00  0.00    -0.470 C  
BRANCH  10  11
HETATM   11  C   UNL     1     -11.203   6.711  71.953  1.00  0.00    -0.302 C  
BRANCH  11  12
HETATM   12  C   UNL     1     -11.758   6.544  70.545  1.00  0.00    -0.438 C  
BRANCH  12  13
HETATM   13  C   UNL     1     -10.642   6.747  69.535  1.00  0.00    -0.265 C  
BRANCH  13  14
HETATM   14  C   UNL     1     -10.899   5.978  68.243  1.00  0.00    -0.366 C  
BRANCH  14  15
HETATM   15  C   UNL     1     -10.697   6.856  67.006  1.00  0.00    -0.432 C  
BRANCH  15  16
HETATM   16  C   UNL     1     -10.522   8.331  67.377  1.00  0.00    -0.283 C  
BRANCH  16  17
HETATM   17  N   UNL     1      -9.182   8.930  66.934  1.00  0.00    -0.142 N  
HETATM   18  C   UNL     1      -8.092   7.872  66.879  1.00  0.00    -0.115 C  
HETATM   19  C   UNL     1      -8.788   9.984  67.974  1.00  0.00    -0.125 C  
HETATM   20  C   UNL     1      -9.308   9.624  65.582  1.00  0.00    -0.237 C  
ENDBRANCH  16  17
ENDBRANCH  15  16
ENDBRANCH  14  15
ENDBRANCH  13  14
ENDBRANCH  12  13
ENDBRANCH  11  12
ENDBRANCH  10  11
ENDBRANCH   9  10
ENDBRANCH   8   9
ENDBRANCH   7   8
ENDBRANCH   6   7
ENDBRANCH   5   6
ENDBRANCH   4   5
ENDBRANCH   3   4
ENDBRANCH   2   3
TORSDOF 15
ENDMDL
MODEL       75
REMARK 921   NORMALIZED FREE ENERGY PREDICTED BY IDOCK:   -3.76 KCAL/MOL
REMARK 922        TOTAL FREE ENERGY PREDICTED BY IDOCK:   -8.75 KCAL/MOL
REMARK 923 INTER-LIGAND FREE ENERGY PREDICTED BY IDOCK:   -6.83 KCAL/MOL
REMARK 924 INTRA-LIGAND FREE ENERGY PREDICTED BY IDOCK:   -1.92 KCAL/MOL
REMARK 927      BINDING AFFINITY PREDICTED BY RF-SCORE:    0.00 PKD
ROOT
HETATM    1  C   UNL     1     -11.055   4.741  72.923  1.00  0.00    -0.301 C  
HETATM    2  C   UNL     1      -9.937   4.724  71.895  1.00  0.00    -0.252 C  
ENDROOT
BRANCH   2   3
HETATM    3  C   UNL     1     -10.428   5.235  70.544  1.00  0.00    -0.312 C  
BRANCH   3   4
HETATM    4  C   UNL     1      -9.274   5.784  69.713  1.00  0.00    -0.161 C  
BRANCH   4   5
HETATM    5  C   UNL     1      -8.695   7.038  70.359  1.00  0.00    -0.147 C  
BRANCH   5   6
HETATM    6  C   UNL     1      -9.716   8.167  70.351  1.00  0.00    -0.179 C  
BRANCH   6   7
HETATM    7  C   UNL     1      -9.750   8.869  71.703  1.00  0.00    -0.379 C  
BRANCH   7   8
HETATM    8  C   UNL     1     -10.905   8.343  72.540  1.00  0.00    -0.375 C  
BRANCH   8   9
HETATM    9  C   UNL     1     -12.183   8.290  71.718  1.00  0.00    -0.367 C  
BRANCH   9  10
HETATM   10  C   UNL     1     -13.210   9.256  72.293  1.00  0.00    -0.535 C  
BRANCH  10  11
HETATM   11  C   UNL     1     -13.009  10.647  71.721  1.00  0.00    -0.577 C  
BRANCH  11  12
HETATM   12  C   UNL     1     -12.848  10.590  70.207  1.00  0.00    -0.192 C  
BRANCH  12  13
HETATM   13  C   UNL     1     -11.754  11.552  69.779  1.00  0.00    -0.426 C  
BRANCH  13  14
HETATM   14  C   UNL     1     -11.388  11.376  68.308  1.00  0.00    -0.354 C  
BRANCH  14  15
HETATM   15  C   UNL     1     -11.411  12.707  67.552  1.00  0.00    -0.397 C  
BRANCH  15  16
HETATM   16  C   UNL     1     -11.897  12.534  66.110  1.00  0.00    -0.397 C  
BRANCH  16  17
HETATM   17  N   UNL     1     -11.253  13.508  65.115  1.00  0.00    -0.302 N  
HETATM   18  C   UNL     1     -10.234  14.405  65.797  1.00  0.00    -0.337 C  
HETATM   19  C   UNL     1     -12.374  14.385  64.546  1.00  0.00    -0.418 C  
HETATM   20  C   UNL     1     -10.601  12.761  63.956  1.00  0.00    -0.416 C  
ENDBRANCH  16  17
ENDBRANCH  15  16
ENDBRANCH  14  15
ENDBRANCH  13  14
ENDBRANCH  12  13
ENDBRANCH  11  12
ENDBRANCH  10  11
ENDBRANCH   9  10
ENDBRANCH   8   9
ENDBRANCH   7   8
ENDBRANCH   6   7
ENDBRANCH   5   6
ENDBRANCH   4   5
ENDBRANCH   3   4
ENDBRANCH   2   3
TORSDOF 15
ENDMDL
MODEL       76
REMARK 921   NORMALIZED FREE ENERGY PREDICTED BY IDOCK:   -3.75 KCAL/MOL
REMARK 922        TOTAL FREE ENERGY PREDICTED BY IDOCK:   -8.74 KCAL/MOL
REMARK 923 INTER-LIGAND FREE ENERGY PREDICTED BY IDOCK:   -7.01 KCAL/MOL
REMARK 924 INTRA-LIGAND FREE ENERGY PREDICTED BY IDOCK:   -1.72 KCAL/MOL
REMARK 927      BINDING AFFINITY PREDICTED BY RF-SCORE:    0.00 PKD
ROOT
HETATM    1  C   UNL     1      -9.484  11.054  62.977  1.00  0.00    -0.379 C  
HETATM    2  C   UNL     1     -10.671  11.230  63.910  1.00  0.00    -0.451 C  
ENDROOT
BRANCH   2   3
HETATM    3  C   UNL     1     -11.486  12.461  63.529  1.00  0.00    -0.561 C  
BRANCH   3   4
HETATM    4  C   UNL     1     -12.531  12.778  64.594  1.00  0.00    -0.525 C  
BRANCH   4   5
HETATM    5  C   UNL     1     -12.320  14.181  65.153  1.00  0.00    -0.460 C  
BRANCH   5   6
HETATM    6  C   UNL     1     -11.758  14.118  66.566  1.00  0.00    -0.414 C  
BRANCH   6   7
HETATM    7  C   UNL     1     -12.022  12.752  67.188  1.00  0.00    -0.351 C  
BRANCH   7   8
HETATM    8  C   UNL     1     -11.172  12.570  68.437  1.00  0.00    -0.313 C  
BRANCH   8   9
HETATM    9  C   UNL     1      -9.989  11.659  68.152  1.00  0.00    -0.198 C  
BRANCH   9  10
HETATM   10  C   UNL     1     -10.468  10.382  67.475  1.00  0.00    -0.292 C  
BRANCH  10  11
HETATM   11  C   UNL     1      -9.290   9.596  66.930  1.00  0.00    -0.183 C  
BRANCH  11  12
HETATM   12  C   UNL     1      -9.687   8.151  66.657  1.00  0.00    -0.318 C  
BRANCH  12  13
HETATM   13  C   UNL     1     -10.842   7.765  67.563  1.00  0.00    -0.182 C  
BRANCH  13  14
HETATM   14  C   UNL     1     -10.725   6.323  68.048  1.00  0.00    -0.369 C  
BRANCH  14  15
HETATM   15  C   UNL     1     -11.086   6.188  69.529  1.00  0.00    -0.490 C  
BRANCH  15  16
HETATM   16  C   UNL     1     -10.383   7.245  70.385  1.00  0.00    -0.208 C  
BRANCH  16  17
HETATM   17  N   UNL     1     -11.307   7.955  71.382  1.00  0.00    -0.247 N  
HETATM   18  C   UNL     1     -11.572   9.393  70.968  1.00  0.00    -0.330 C  
HETATM   19  C   UNL     1     -10.595   7.960  72.740  1.00  0.00    -0.353 C  
HETATM   20  C   UNL     1     -12.625   7.205  71.542  1.00  0.00    -0.390 C  
ENDBRANCH  16  17
ENDBRANCH  15  16
ENDBRANCH  14  15
ENDBRANCH  13  14
ENDBRANCH  12  13
ENDBRANCH  11  12
ENDBRANCH  10  11
ENDBRANCH   9  10
ENDBRANCH   8   9
ENDBRANCH   7   8
ENDBRANCH   6   7
ENDBRANCH   5   6
ENDBRANCH   4   5
ENDBRANCH   3   4
ENDBRANCH   2   3
TORSDOF 15
ENDMDL
MODEL       77
REMARK 921   NORMALIZED FREE ENERGY PREDICTED BY IDOCK:   -3.75 KCAL/MOL
REMARK 922        TOTAL FREE ENERGY PREDICTED BY IDOCK:   -8.72 KCAL/MOL
REMARK 923 INTER-LIGAND FREE ENERGY PREDICTED BY IDOCK:   -6.68 KCAL/MOL
REMARK 924 INTRA-LIGAND FREE ENERGY PREDICTED BY IDOCK:   -2.04 KCAL/MOL
REMARK 927      BINDING AFFINITY PREDICTED BY RF-SCORE:    0.00 PKD
ROOT
HETATM    1  C   UNL     1     -11.793  11.995  69.515  1.00  0.00    -0.390 C  
HETATM    2  C   UNL     1     -12.195  11.352  70.831  1.00  0.00    -0.447 C  
ENDROOT
BRANCH   2   3
HETATM    3  C   UNL     1     -13.059  10.118  70.596  1.00  0.00    -0.274 C  
BRANCH   3   4
HETATM    4  C   UNL     1     -13.297   9.359  71.897  1.00  0.00    -0.508 C  
BRANCH   4   5
HETATM    5  C   UNL     1     -12.660   7.975  71.836  1.00  0.00    -0.359 C  
BRANCH   5   6
HETATM    6  C   UNL     1     -11.381   7.935  72.660  1.00  0.00    -0.468 C  
BRANCH   6   7
HETATM    7  C   UNL     1     -10.176   7.663  71.768  1.00  0.00    -0.225 C  
BRANCH   7   8
HETATM    8  C   UNL     1      -9.609   8.971  71.237  1.00  0.00    -0.361 C  
BRANCH   8   9
HETATM    9  C   UNL     1      -9.116   8.802  69.809  1.00  0.00    -0.151 C  
BRANCH   9  10
HETATM   10  C   UNL     1     -10.148   8.042  68.989  1.00  0.00    -0.206 C  
BRANCH  10  11
HETATM   11  C   UNL     1     -10.774   8.950  67.948  1.00  0.00    -0.185 C  
BRANCH  11  12
HETATM   12  C   UNL     1      -9.739   9.386  66.920  1.00  0.00    -0.242 C  
BRANCH  12  13
HETATM   13  C   UNL     1     -10.085  10.775  66.412  1.00  0.00    -0.278 C  
BRANCH  13  14
HETATM   14  C   UNL     1     -10.328  10.784  64.906  1.00  0.00    -0.369 C  
BRANCH  14  15
HETATM   15  C   UNL     1     -10.767  12.163  64.408  1.00  0.00    -0.366 C  
BRANCH  15  16
HETATM   16  C   UNL     1     -10.287  13.283  65.334  1.00  0.00    -0.306 C  
BRANCH  16  17
HETATM   17  N   UNL     1     -11.368  14.317  65.674  1.00  0.00    -0.312 N  
HETATM   18  C   UNL     1     -12.757  13.794  65.348  1.00  0.00    -0.472 C  
HETATM   19  C   UNL     1     -11.098  15.557  64.814  1.00  0.00    -0.407 C  
HETATM   20  C   UNL     1     -11.293  14.732  67.139  1.00  0.00    -0.356 C  
ENDBRANCH  16  17
ENDBRANCH  15  16
ENDBRANCH  14  15
ENDBRANCH  13  14
ENDBRANCH  12  13
ENDBRANCH  11  12
ENDBRANCH  10  11
ENDBRANCH   9  10
ENDBRANCH   8   9
ENDBRANCH   7   8
ENDBRANCH   6   7
ENDBRANCH   5   6
ENDBRANCH   4   5
ENDBRANCH   3   4
ENDBRANCH   2   3
TORSDOF 15
ENDMDL
MODEL       78
REMARK 921   NORMALIZED FREE ENERGY PREDICTED BY IDOCK:   -3.74 KCAL/MOL
REMARK 922        TOTAL FREE ENERGY PREDICTED BY IDOCK:   -8.71 KCAL/MOL
REMARK 923 INTER-LIGAND FREE ENERGY PREDICTED BY IDOCK:   -6.65 KCAL/MOL
REMARK 924 INTRA-LIGAND FREE ENERGY PREDICTED BY IDOCK:   -2.06 KCAL/MOL
REMARK 927      BINDING AFFINITY PREDICTED BY RF-SCORE:    0.00 PKD
ROOT
HETATM    1  C   UNL     1     -10.849   5.031  73.710  1.00  0.00    -0.366 C  
HETATM    2  C   UNL     1     -10.236   6.263  74.352  1.00  0.00    -0.339 C  
ENDROOT
BRANCH   2   3
HETATM    3  C   UNL     1      -8.909   6.620  73.692  1.00  0.00    -0.143 C  
BRANCH   3   4
HETATM    4  C   UNL     1      -8.877   8.090  73.285  1.00  0.00    -0.330 C  
BRANCH   4   5
HETATM    5  C   UNL     1      -8.434   8.236  71.833  1.00  0.00    -0.214 C  
BRANCH   5   6
HETATM    6  C   UNL     1      -8.665   6.941  71.067  1.00  0.00    -0.136 C  
BRANCH   6   7
HETATM    7  C   UNL     1      -9.396   7.213  69.759  1.00  0.00    -0.146 C  
BRANCH   7   8
HETATM    8  C   UNL     1     -10.762   7.821  70.037  1.00  0.00    -0.245 C  
BRANCH   8   9
HETATM    9  C   UNL     1     -11.701   6.782  70.629  1.00  0.00    -0.440 C  
BRANCH   9  10
HETATM   10  C   UNL     1     -12.694   7.454  71.567  1.00  0.00    -0.409 C  
BRANCH  10  11
HETATM   11  C   UNL     1     -12.178   8.813  72.002  1.00  0.00    -0.447 C  
BRANCH  11  12
HETATM   12  C   UNL     1     -13.231   9.889  71.770  1.00  0.00    -0.535 C  
BRANCH  12  13
HETATM   13  C   UNL     1     -12.626  11.019  70.956  1.00  0.00    -0.512 C  
BRANCH  13  14
HETATM   14  C   UNL     1     -12.917  12.383  71.575  1.00  0.00    -0.385 C  
BRANCH  14  15
HETATM   15  C   UNL     1     -12.375  13.527  70.716  1.00  0.00    -0.440 C  
BRANCH  15  16
HETATM   16  C   UNL     1     -11.919  13.038  69.338  1.00  0.00    -0.281 C  
BRANCH  16  17
HETATM   17  N   UNL     1     -11.423  14.157  68.413  1.00  0.00    -0.283 N  
HETATM   18  C   UNL     1     -12.158  14.144  67.083  1.00  0.00    -0.397 C  
HETATM   19  C   UNL     1      -9.934  13.904  68.151  1.00  0.00    -0.240 C  
HETATM   20  C   UNL     1     -11.561  15.522  69.077  1.00  0.00    -0.365 C  
ENDBRANCH  16  17
ENDBRANCH  15  16
ENDBRANCH  14  15
ENDBRANCH  13  14
ENDBRANCH  12  13
ENDBRANCH  11  12
ENDBRANCH  10  11
ENDBRANCH   9  10
ENDBRANCH   8   9
ENDBRANCH   7   8
ENDBRANCH   6   7
ENDBRANCH   5   6
ENDBRANCH   4   5
ENDBRANCH   3   4
ENDBRANCH   2   3
TORSDOF 15
ENDMDL
MODEL       79
REMARK 921   NORMALIZED FREE ENERGY PREDICTED BY IDOCK:   -3.74 KCAL/MOL
REMARK 922        TOTAL FREE ENERGY PREDICTED BY IDOCK:   -8.71 KCAL/MOL
REMARK 923 INTER-LIGAND FREE ENERGY PREDICTED BY IDOCK:   -6.42 KCAL/MOL
REMARK 924 INTRA-LIGAND FREE ENERGY PREDICTED BY IDOCK:   -2.30 KCAL/MOL
REMARK 927      BINDING AFFINITY PREDICTED BY RF-SCORE:    0.00 PKD
ROOT
HETATM    1  C   UNL     1     -12.517  12.484  64.900  1.00  0.00    -0.524 C  
HETATM    2  C   UNL     1     -12.510  13.888  65.480  1.00  0.00    -0.541 C  
ENDROOT
BRANCH   2   3
HETATM    3  C   UNL     1     -12.150  14.918  64.414  1.00  0.00    -0.417 C  
BRANCH   3   4
HETATM    4  C   UNL     1     -10.994  15.801  64.874  1.00  0.00    -0.443 C  
BRANCH   4   5
HETATM    5  C   UNL     1     -10.090  15.043  65.839  1.00  0.00    -0.343 C  
BRANCH   5   6
HETATM    6  C   UNL     1      -9.492  15.989  66.871  1.00  0.00    -0.242 C  
BRANCH   6   7
HETATM    7  C   UNL     1     -10.585  16.817  67.536  1.00  0.00    -0.309 C  
BRANCH   7   8
HETATM    8  C   UNL     1     -11.383  15.956  68.503  1.00  0.00    -0.374 C  
BRANCH   8   9
HETATM    9  C   UNL     1     -10.603  15.726  69.787  1.00  0.00    -0.312 C  
BRANCH   9  10
HETATM   10  C   UNL     1     -11.474  14.998  70.801  1.00  0.00    -0.335 C  
BRANCH  10  11
HETATM   11  C   UNL     1     -12.476  14.103  70.094  1.00  0.00    -0.391 C  
BRANCH  11  12
HETATM   12  C   UNL     1     -12.004  12.655  70.100  1.00  0.00    -0.375 C  
BRANCH  12  13
HETATM   13  C   UNL     1     -11.897  12.154  68.670  1.00  0.00    -0.358 C  
BRANCH  13  14
HETATM   14  C   UNL     1     -10.483  12.310  68.119  1.00  0.00    -0.228 C  
BRANCH  14  15
HETATM   15  C   UNL     1     -10.018  11.056  67.376  1.00  0.00    -0.209 C  
BRANCH  15  16
HETATM   16  C   UNL     1      -9.041  11.391  66.246  1.00  0.00    -0.202 C  
BRANCH  16  17
HETATM   17  N   UNL     1      -8.808  10.240  65.261  1.00  0.00    -0.170 N  
HETATM   18  C   UNL     1      -9.382  10.557  63.890  1.00  0.00    -0.275 C  
HETATM   19  C   UNL     1      -9.531   9.009  65.820  1.00  0.00    -0.236 C  
HETATM   20  C   UNL     1      -7.325   9.905  65.145  1.00  0.00    -0.133 C  
ENDBRANCH  16  17
ENDBRANCH  15  16
ENDBRANCH  14  15
ENDBRANCH  13  14
ENDBRANCH  12  13
ENDBRANCH  11  12
ENDBRANCH  10  11
ENDBRANCH   9  10
ENDBRANCH   8   9
ENDBRANCH   7   8
ENDBRANCH   6   7
ENDBRANCH   5   6
ENDBRANCH   4   5
ENDBRANCH   3   4
ENDBRANCH   2   3
TORSDOF 15
ENDMDL
MODEL       80
REMARK 921   NORMALIZED FREE ENERGY PREDICTED BY IDOCK:   -3.74 KCAL/MOL
REMARK 922        TOTAL FREE ENERGY PREDICTED BY IDOCK:   -8.71 KCAL/MOL
REMARK 923 INTER-LIGAND FREE ENERGY PREDICTED BY IDOCK:   -6.87 KCAL/MOL
REMARK 924 INTRA-LIGAND FREE ENERGY PREDICTED BY IDOCK:   -1.84 KCAL/MOL
REMARK 927      BINDING AFFINITY PREDICTED BY RF-SCORE:    0.00 PKD
ROOT
HETATM    1  C   UNL     1      -8.819   9.449  70.398  1.00  0.00    -0.290 C  
HETATM    2  C   UNL     1      -9.923   8.879  71.271  1.00  0.00    -0.358 C  
ENDROOT
BRANCH   2   3
HETATM    3  C   UNL     1     -10.724   7.822  70.519  1.00  0.00    -0.238 C  
BRANCH   3   4
HETATM    4  C   UNL     1     -12.094   7.615  71.157  1.00  0.00    -0.322 C  
BRANCH   4   5
HETATM    5  C   UNL     1     -12.424   8.762  72.105  1.00  0.00    -0.460 C  
BRANCH   5   6
HETATM    6  C   UNL     1     -13.316   9.787  71.420  1.00  0.00    -0.449 C  
BRANCH   6   7
HETATM    7  C   UNL     1     -12.794  11.198  71.660  1.00  0.00    -0.524 C  
BRANCH   7   8
HETATM    8  C   UNL     1     -11.964  11.661  70.472  1.00  0.00    -0.413 C  
BRANCH   8   9
HETATM    9  C   UNL     1     -12.334  10.879  69.222  1.00  0.00    -0.107 C  
BRANCH   9  10
HETATM   10  C   UNL     1     -11.261  11.063  68.158  1.00  0.00    -0.364 C  
BRANCH  10  11
HETATM   11  C   UNL     1     -10.512  12.365  68.378  1.00  0.00    -0.245 C  
BRANCH  11  12
HETATM   12  C   UNL     1     -10.702  13.303  67.193  1.00  0.00    -0.264 C  
BRANCH  12  13
HETATM   13  C   UNL     1     -11.892  14.211  67.455  1.00  0.00    -0.447 C  
BRANCH  13  14
HETATM   14  C   UNL     1     -11.520  15.390  68.348  1.00  0.00    -0.365 C  
BRANCH  14  15
HETATM   15  C   UNL     1     -10.551  16.349  67.653  1.00  0.00    -0.313 C  
BRANCH  15  16
HETATM   16  C   UNL     1     -10.281  17.597  68.498  1.00  0.00    -0.386 C  
BRANCH  16  17
HETATM   17  N   UNL     1      -9.557  18.718  67.741  1.00  0.00    -0.304 N  
HETATM   18  C   UNL     1      -8.432  19.313  68.571  1.00  0.00    -0.366 C  
HETATM   19  C   UNL     1     -10.589  19.815  67.457  1.00  0.00    -0.408 C  
HETATM   20  C   UNL     1      -9.016  18.220  66.405  1.00  0.00    -0.243 C  
ENDBRANCH  16  17
ENDBRANCH  15  16
ENDBRANCH  14  15
ENDBRANCH  13  14
ENDBRANCH  12  13
ENDBRANCH  11  12
ENDBRANCH  10  11
ENDBRANCH   9  10
ENDBRANCH   8   9
ENDBRANCH   7   8
ENDBRANCH   6   7
ENDBRANCH   5   6
ENDBRANCH   4   5
ENDBRANCH   3   4
ENDBRANCH   2   3
TORSDOF 15
ENDMDL
MODEL       81
REMARK 921   NORMALIZED FREE ENERGY PREDICTED BY IDOCK:   -3.74 KCAL/MOL
REMARK 922        TOTAL FREE ENERGY PREDICTED BY IDOCK:   -8.71 KCAL/MOL
REMARK 923 INTER-LIGAND FREE ENERGY PREDICTED BY IDOCK:   -6.73 KCAL/MOL
REMARK 924 INTRA-LIGAND FREE ENERGY PREDICTED BY IDOCK:   -1.98 KCAL/MOL
REMARK 927      BINDING AFFINITY PREDICTED BY RF-SCORE:    0.00 PKD
ROOT
HETATM    1  C   UNL     1      -7.037  16.026  67.147  1.00  0.00    -0.248 C  
HETATM    2  C   UNL     1      -6.546  17.460  67.047  1.00  0.00    -0.212 C  
ENDROOT
BRANCH   2   3
HETATM    3  C   UNL     1      -6.885  18.060  65.687  1.00  0.00    -0.201 C  
BRANCH   3   4
HETATM    4  C   UNL     1      -7.305  19.520  65.820  1.00  0.00    -0.297 C  
BRANCH   4   5
HETATM    5  C   UNL     1      -7.183  19.984  67.267  1.00  0.00    -0.286 C  
BRANCH   5   6
HETATM    6  C   UNL     1      -8.548  20.005  67.942  1.00  0.00    -0.309 C  
BRANCH   6   7
HETATM    7  C   UNL     1      -9.640  20.339  66.933  1.00  0.00    -0.564 C  
BRANCH   7   8
HETATM    8  C   UNL     1     -10.781  19.339  67.043  1.00  0.00    -0.565 C  
BRANCH   8   9
HETATM    9  C   UNL     1     -10.397  18.185  67.955  1.00  0.00    -0.410 C  
BRANCH   9  10
HETATM   10  C   UNL     1     -10.577  16.863  67.222  1.00  0.00    -0.270 C  
BRANCH  10  11
HETATM   11  C   UNL     1     -10.410  17.057  65.727  1.00  0.00    -0.275 C  
BRANCH  11  12
HETATM   12  C   UNL     1     -11.011  15.886  64.961  1.00  0.00    -0.426 C  
BRANCH  12  13
HETATM   13  C   UNL     1     -11.449  14.812  65.942  1.00  0.00    -0.319 C  
BRANCH  13  14
HETATM   14  C   UNL     1     -12.562  13.940  65.370  1.00  0.00    -0.538 C  
BRANCH  14  15
HETATM   15  C   UNL     1     -12.097  12.500  65.139  1.00  0.00    -0.503 C  
BRANCH  15  16
HETATM   16  C   UNL     1     -11.350  11.941  66.353  1.00  0.00    -0.339 C  
BRANCH  16  17
HETATM   17  N   UNL     1     -10.135  11.077  65.993  1.00  0.00    -0.238 N  
HETATM   18  C   UNL     1     -10.207   9.713  66.661  1.00  0.00    -0.232 C  
HETATM   19  C   UNL     1      -8.889  11.807  66.505  1.00  0.00    -0.183 C  
HETATM   20  C   UNL     1     -10.002  10.915  64.483  1.00  0.00    -0.317 C  
ENDBRANCH  16  17
ENDBRANCH  15  16
ENDBRANCH  14  15
ENDBRANCH  13  14
ENDBRANCH  12  13
ENDBRANCH  11  12
ENDBRANCH  10  11
ENDBRANCH   9  10
ENDBRANCH   8   9
ENDBRANCH   7   8
ENDBRANCH   6   7
ENDBRANCH   5   6
ENDBRANCH   4   5
ENDBRANCH   3   4
ENDBRANCH   2   3
TORSDOF 15
ENDMDL
MODEL       82
REMARK 921   NORMALIZED FREE ENERGY PREDICTED BY IDOCK:   -3.74 KCAL/MOL
REMARK 922        TOTAL FREE ENERGY PREDICTED BY IDOCK:   -8.70 KCAL/MOL
REMARK 923 INTER-LIGAND FREE ENERGY PREDICTED BY IDOCK:   -6.72 KCAL/MOL
REMARK 924 INTRA-LIGAND FREE ENERGY PREDICTED BY IDOCK:   -1.99 KCAL/MOL
REMARK 927      BINDING AFFINITY PREDICTED BY RF-SCORE:    0.00 PKD
ROOT
HETATM    1  C   UNL     1     -12.279  14.972  64.441  1.00  0.00    -0.353 C  
HETATM    2  C   UNL     1     -12.897  13.864  65.276  1.00  0.00    -0.437 C  
ENDROOT
BRANCH   2   3
HETATM    3  C   UNL     1     -12.406  12.495  64.817  1.00  0.00    -0.544 C  
BRANCH   3   4
HETATM    4  C   UNL     1     -11.677  12.594  63.480  1.00  0.00    -0.604 C  
BRANCH   4   5
HETATM    5  C   UNL     1     -10.278  11.997  63.585  1.00  0.00    -0.470 C  
BRANCH   5   6
HETATM    6  C   UNL     1     -10.280  10.779  64.499  1.00  0.00    -0.428 C  
BRANCH   6   7
HETATM    7  C   UNL     1      -9.122  10.847  65.486  1.00  0.00    -0.221 C  
BRANCH   7   8
HETATM    8  C   UNL     1      -8.812   9.461  66.029  1.00  0.00    -0.185 C  
BRANCH   8   9
HETATM    9  C   UNL     1      -8.932   9.439  67.545  1.00  0.00    -0.130 C  
BRANCH   9  10
HETATM   10  C   UNL     1     -10.391   9.278  67.947  1.00  0.00    -0.279 C  
BRANCH  10  11
HETATM   11  C   UNL     1     -10.787  10.345  68.951  1.00  0.00    -0.273 C  
BRANCH  11  12
HETATM   12  C   UNL     1     -11.704  11.377  68.308  1.00  0.00    -0.359 C  
BRANCH  12  13
HETATM   13  C   UNL     1     -11.098  12.760  68.466  1.00  0.00    -0.300 C  
BRANCH  13  14
HETATM   14  C   UNL     1     -12.138  13.790  68.894  1.00  0.00    -0.348 C  
BRANCH  14  15
HETATM   15  C   UNL     1     -11.680  15.220  68.601  1.00  0.00    -0.367 C  
BRANCH  15  16
HETATM   16  C   UNL     1     -10.518  15.253  67.604  1.00  0.00    -0.263 C  
BRANCH  16  17
HETATM   17  N   UNL     1      -9.602  16.473  67.756  1.00  0.00    -0.230 N  
HETATM   18  C   UNL     1     -10.405  17.751  67.943  1.00  0.00    -0.386 C  
HETATM   19  C   UNL     1      -8.786  16.594  66.464  1.00  0.00    -0.282 C  
HETATM   20  C   UNL     1      -8.629  16.291  68.915  1.00  0.00    -0.260 C  
ENDBRANCH  16  17
ENDBRANCH  15  16
ENDBRANCH  14  15
ENDBRANCH  13  14
ENDBRANCH  12  13
ENDBRANCH  11  12
ENDBRANCH  10  11
ENDBRANCH   9  10
ENDBRANCH   8   9
ENDBRANCH   7   8
ENDBRANCH   6   7
ENDBRANCH   5   6
ENDBRANCH   4   5
ENDBRANCH   3   4
ENDBRANCH   2   3
TORSDOF 15
ENDMDL
MODEL       83
REMARK 921   NORMALIZED FREE ENERGY PREDICTED BY IDOCK:   -3.73 KCAL/MOL
REMARK 922        TOTAL FREE ENERGY PREDICTED BY IDOCK:   -8.70 KCAL/MOL
REMARK 923 INTER-LIGAND FREE ENERGY PREDICTED BY IDOCK:   -7.02 KCAL/MOL
REMARK 924 INTRA-LIGAND FREE ENERGY PREDICTED BY IDOCK:   -1.68 KCAL/MOL
REMARK 927      BINDING AFFINITY PREDICTED BY RF-SCORE:    0.00 PKD
ROOT
HETATM    1  C   UNL     1     -12.767  10.938  71.525  1.00  0.00    -0.533 C  
HETATM    2  C   UNL     1     -13.274   9.511  71.406  1.00  0.00    -0.448 C  
ENDROOT
BRANCH   2   3
HETATM    3  C   UNL     1     -12.435   8.560  72.253  1.00  0.00    -0.448 C  
BRANCH   3   4
HETATM    4  C   UNL     1     -11.354   7.888  71.414  1.00  0.00    -0.285 C  
BRANCH   4   5
HETATM    5  C   UNL     1     -11.853   6.557  70.860  1.00  0.00    -0.391 C  
BRANCH   5   6
HETATM    6  C   UNL     1     -11.235   6.276  69.498  1.00  0.00    -0.500 C  
BRANCH   6   7
HETATM    7  C   UNL     1     -10.341   7.432  69.065  1.00  0.00    -0.214 C  
BRANCH   7   8
HETATM    8  C   UNL     1     -10.406   7.611  67.557  1.00  0.00    -0.326 C  
BRANCH   8   9
HETATM    9  C   UNL     1     -10.383   9.087  67.190  1.00  0.00    -0.342 C  
BRANCH   9  10
HETATM   10  C   UNL     1     -10.693   9.931  68.418  1.00  0.00    -0.271 C  
BRANCH  10  11
HETATM   11  C   UNL     1     -11.531  11.137  68.036  1.00  0.00    -0.366 C  
BRANCH  11  12
HETATM   12  C   UNL     1     -10.843  12.428  68.459  1.00  0.00    -0.270 C  
BRANCH  12  13
HETATM   13  C   UNL     1     -11.888  13.509  68.678  1.00  0.00    -0.404 C  
BRANCH  13  14
HETATM   14  C   UNL     1     -11.758  14.152  70.055  1.00  0.00    -0.358 C  
BRANCH  14  15
HETATM   15  C   UNL     1     -11.118  15.540  69.978  1.00  0.00    -0.326 C  
BRANCH  15  16
HETATM   16  C   UNL     1     -11.411  16.229  68.643  1.00  0.00    -0.333 C  
BRANCH  16  17
HETATM   17  N   UNL     1     -10.179  16.865  67.987  1.00  0.00    -0.295 N  
HETATM   18  C   UNL     1     -10.108  16.536  66.505  1.00  0.00    -0.299 C  
HETATM   19  C   UNL     1      -8.942  16.279  68.677  1.00  0.00    -0.232 C  
HETATM   20  C   UNL     1     -10.163  18.376  68.190  1.00  0.00    -0.384 C  
ENDBRANCH  16  17
ENDBRANCH  15  16
ENDBRANCH  14  15
ENDBRANCH  13  14
ENDBRANCH  12  13
ENDBRANCH  11  12
ENDBRANCH  10  11
ENDBRANCH   9  10
ENDBRANCH   8   9
ENDBRANCH   7   8
ENDBRANCH   6   7
ENDBRANCH   5   6
ENDBRANCH   4   5
ENDBRANCH   3   4
ENDBRANCH   2   3
TORSDOF 15
ENDMDL
MODEL       84
REMARK 921   NORMALIZED FREE ENERGY PREDICTED BY IDOCK:   -3.72 KCAL/MOL
REMARK 922        TOTAL FREE ENERGY PREDICTED BY IDOCK:   -8.68 KCAL/MOL
REMARK 923 INTER-LIGAND FREE ENERGY PREDICTED BY IDOCK:   -7.01 KCAL/MOL
REMARK 924 INTRA-LIGAND FREE ENERGY PREDICTED BY IDOCK:   -1.67 KCAL/MOL
REMARK 927      BINDING AFFINITY PREDICTED BY RF-SCORE:    0.00 PKD
ROOT
HETATM    1  C   UNL     1      -9.578   9.546  65.687  1.00  0.00    -0.346 C  
HETATM    2  C   UNL     1     -10.504   9.668  66.885  1.00  0.00    -0.282 C  
ENDROOT
BRANCH   2   3
HETATM    3  C   UNL     1     -10.208   8.584  67.916  1.00  0.00    -0.273 C  
BRANCH   3   4
HETATM    4  C   UNL     1     -10.585   7.205  67.387  1.00  0.00    -0.372 C  
BRANCH   4   5
HETATM    5  C   UNL     1     -10.645   6.191  68.523  1.00  0.00    -0.327 C  
BRANCH   5   6
HETATM    6  C   UNL     1     -11.631   6.639  69.593  1.00  0.00    -0.305 C  
BRANCH   6   7
HETATM    7  C   UNL     1     -11.008   6.525  70.979  1.00  0.00    -0.314 C  
BRANCH   7   8
HETATM    8  C   UNL     1     -11.903   7.189  72.014  1.00  0.00    -0.333 C  
BRANCH   8   9
HETATM    9  C   UNL     1     -13.333   7.281  71.507  1.00  0.00    -0.435 C  
BRANCH   9  10
HETATM   10  C   UNL     1     -13.962   8.590  71.964  1.00  0.00    -0.494 C  
BRANCH  10  11
HETATM   11  C   UNL     1     -12.947   9.716  71.906  1.00  0.00    -0.527 C  
BRANCH  11  12
HETATM   12  C   UNL     1     -12.975  10.398  70.544  1.00  0.00    -0.280 C  
BRANCH  12  13
HETATM   13  C   UNL     1     -11.643  11.084  70.295  1.00  0.00    -0.414 C  
BRANCH  13  14
HETATM   14  C   UNL     1     -11.827  12.513  69.792  1.00  0.00    -0.380 C  
BRANCH  14  15
HETATM   15  C   UNL     1     -11.067  12.759  68.486  1.00  0.00    -0.300 C  
BRANCH  15  16
HETATM   16  C   UNL     1     -11.922  13.511  67.463  1.00  0.00    -0.346 C  
BRANCH  16  17
HETATM   17  N   UNL     1     -11.124  14.082  66.284  1.00  0.00    -0.304 N  
HETATM   18  C   UNL     1      -9.909  13.225  65.969  1.00  0.00    -0.263 C  
HETATM   19  C   UNL     1     -10.644  15.479  66.693  1.00  0.00    -0.307 C  
HETATM   20  C   UNL     1     -11.999  14.226  65.044  1.00  0.00    -0.410 C  
ENDBRANCH  16  17
ENDBRANCH  15  16
ENDBRANCH  14  15
ENDBRANCH  13  14
ENDBRANCH  12  13
ENDBRANCH  11  12
ENDBRANCH  10  11
ENDBRANCH   9  10
ENDBRANCH   8   9
ENDBRANCH   7   8
ENDBRANCH   6   7
ENDBRANCH   5   6
ENDBRANCH   4   5
ENDBRANCH   3   4
ENDBRANCH   2   3
TORSDOF 15
ENDMDL
MODEL       85
REMARK 921   NORMALIZED FREE ENERGY PREDICTED BY IDOCK:   -3.72 KCAL/MOL
REMARK 922        TOTAL FREE ENERGY PREDICTED BY IDOCK:   -8.68 KCAL/MOL
REMARK 923 INTER-LIGAND FREE ENERGY PREDICTED BY IDOCK:   -6.41 KCAL/MOL
REMARK 924 INTRA-LIGAND FREE ENERGY PREDICTED BY IDOCK:   -2.27 KCAL/MOL
REMARK 927      BINDING AFFINITY PREDICTED BY RF-SCORE:    0.00 PKD
ROOT
HETATM    1  C   UNL     1      -6.628  17.826  67.714  1.00  0.00    -0.193 C  
HETATM    2  C   UNL     1      -6.970  18.073  66.255  1.00  0.00    -0.299 C  
ENDROOT
BRANCH   2   3
HETATM    3  C   UNL     1      -8.050  19.142  66.121  1.00  0.00    -0.277 C  
BRANCH   3   4
HETATM    4  C   UNL     1      -8.670  19.468  67.475  1.00  0.00    -0.355 C  
BRANCH   4   5
HETATM    5  C   UNL     1     -10.115  18.986  67.534  1.00  0.00    -0.447 C  
BRANCH   5   6
HETATM    6  C   UNL     1     -10.267  17.866  68.555  1.00  0.00    -0.393 C  
BRANCH   6   7
HETATM    7  C   UNL     1     -10.747  16.587  67.880  1.00  0.00    -0.337 C  
BRANCH   7   8
HETATM    8  C   UNL     1      -9.564  15.683  67.566  1.00  0.00    -0.224 C  
BRANCH   8   9
HETATM    9  C   UNL     1      -9.475  15.416  66.072  1.00  0.00    -0.381 C  
BRANCH   9  10
HETATM   10  C   UNL     1     -10.707  15.972  65.371  1.00  0.00    -0.399 C  
BRANCH  10  11
HETATM   11  C   UNL     1     -11.451  14.865  64.647  1.00  0.00    -0.380 C  
BRANCH  11  12
HETATM   12  C   UNL     1     -12.356  14.106  65.609  1.00  0.00    -0.473 C  
BRANCH  12  13
HETATM   13  C   UNL     1     -12.198  12.613  65.378  1.00  0.00    -0.517 C  
BRANCH  13  14
HETATM   14  C   UNL     1     -10.919  12.073  66.010  1.00  0.00    -0.346 C  
BRANCH  14  15
HETATM   15  C   UNL     1     -11.055  11.916  67.526  1.00  0.00    -0.332 C  
BRANCH  15  16
HETATM   16  C   UNL     1      -9.821  11.252  68.143  1.00  0.00    -0.183 C  
BRANCH  16  17
HETATM   17  N   UNL     1     -10.143  10.044  69.031  1.00  0.00    -0.189 N  
HETATM   18  C   UNL     1     -10.638   8.865  68.208  1.00  0.00    -0.152 C  
HETATM   19  C   UNL     1     -11.257  10.470  69.994  1.00  0.00    -0.315 C  
HETATM   20  C   UNL     1      -8.932   9.632  69.861  1.00  0.00    -0.221 C  
ENDBRANCH  16  17
ENDBRANCH  15  16
ENDBRANCH  14  15
ENDBRANCH  13  14
ENDBRANCH  12  13
ENDBRANCH  11  12
ENDBRANCH  10  11
ENDBRANCH   9  10
ENDBRANCH   8   9
ENDBRANCH   7   8
ENDBRANCH   6   7
ENDBRANCH   5   6
ENDBRANCH   4   5
ENDBRANCH   3   4
ENDBRANCH   2   3
TORSDOF 15
ENDMDL
MODEL       86
REMARK 921   NORMALIZED FREE ENERGY PREDICTED BY IDOCK:   -3.72 KCAL/MOL
REMARK 922        TOTAL FREE ENERGY PREDICTED BY IDOCK:   -8.68 KCAL/MOL
REMARK 923 INTER-LIGAND FREE ENERGY PREDICTED BY IDOCK:   -6.88 KCAL/MOL
REMARK 924 INTRA-LIGAND FREE ENERGY PREDICTED BY IDOCK:   -1.80 KCAL/MOL
REMARK 927      BINDING AFFINITY PREDICTED BY RF-SCORE:    0.00 PKD
ROOT
HETATM    1  C   UNL     1      -9.820   8.287  66.360  1.00  0.00    -0.283 C  
HETATM    2  C   UNL     1      -8.781   9.309  65.931  1.00  0.00    -0.179 C  
ENDROOT
BRANCH   2   3
HETATM    3  C   UNL     1      -9.193   9.995  64.633  1.00  0.00    -0.310 C  
BRANCH   3   4
HETATM    4  C   UNL     1     -10.408  10.892  64.848  1.00  0.00    -0.371 C  
BRANCH   4   5
HETATM    5  C   UNL     1     -10.616  11.811  63.650  1.00  0.00    -0.496 C  
BRANCH   5   6
HETATM    6  C   UNL     1     -12.064  12.273  63.571  1.00  0.00    -0.649 C  
BRANCH   6   7
HETATM    7  C   UNL     1     -12.602  12.592  64.960  1.00  0.00    -0.504 C  
BRANCH   7   8
HETATM    8  C   UNL     1     -12.536  14.089  65.219  1.00  0.00    -0.495 C  
BRANCH   8   9
HETATM    9  C   UNL     1     -11.422  14.416  66.200  1.00  0.00    -0.357 C  
BRANCH   9  10
HETATM   10  C   UNL     1     -11.916  14.231  67.628  1.00  0.00    -0.400 C  
BRANCH  10  11
HETATM   11  C   UNL     1     -10.771  13.832  68.539  1.00  0.00    -0.274 C  
BRANCH  11  12
HETATM   12  C   UNL     1     -10.150  12.518  68.082  1.00  0.00    -0.225 C  
BRANCH  12  13
HETATM   13  C   UNL     1     -10.679  11.384  68.942  1.00  0.00    -0.248 C  
BRANCH  13  14
HETATM   14  C   UNL     1      -9.557  10.474  69.432  1.00  0.00    -0.170 C  
BRANCH  14  15
HETATM   15  C   UNL     1     -10.095   9.291  70.241  1.00  0.00    -0.262 C  
BRANCH  15  16
HETATM   16  C   UNL     1     -11.541   9.517  70.689  1.00  0.00    -0.283 C  
BRANCH  16  17
HETATM   17  N   UNL     1     -12.063   8.459  71.668  1.00  0.00    -0.297 N  
HETATM   18  C   UNL     1     -11.036   8.144  72.744  1.00  0.00    -0.337 C  
HETATM   19  C   UNL     1     -12.331   7.184  70.860  1.00  0.00    -0.292 C  
HETATM   20  C   UNL     1     -13.375   8.898  72.308  1.00  0.00    -0.449 C  
ENDBRANCH  16  17
ENDBRANCH  15  16
ENDBRANCH  14  15
ENDBRANCH  13  14
ENDBRANCH  12  13
ENDBRANCH  11  12
ENDBRANCH  10  11
ENDBRANCH   9  10
ENDBRANCH   8   9
ENDBRANCH   7   8
ENDBRANCH   6   7
ENDBRANCH   5   6
ENDBRANCH   4   5
ENDBRANCH   3   4
ENDBRANCH   2   3
TORSDOF 15
ENDMDL
MODEL       87
REMARK 921   NORMALIZED FREE ENERGY PREDICTED BY IDOCK:   -3.72 KCAL/MOL
REMARK 922        TOTAL FREE ENERGY PREDICTED BY IDOCK:   -8.68 KCAL/MOL
REMARK 923 INTER-LIGAND FREE ENERGY PREDICTED BY IDOCK:   -7.29 KCAL/MOL
REMARK 924 INTRA-LIGAND FREE ENERGY PREDICTED BY IDOCK:   -1.39 KCAL/MOL
REMARK 927      BINDING AFFINITY PREDICTED BY RF-SCORE:    0.00 PKD
ROOT
HETATM    1  C   UNL     1     -12.089  13.051  63.550  1.00  0.00    -0.617 C  
HETATM    2  C   UNL     1     -11.329  11.751  63.750  1.00  0.00    -0.524 C  
ENDROOT
BRANCH   2   3
HETATM    3  C   UNL     1     -10.422  11.831  64.974  1.00  0.00    -0.332 C  
BRANCH   3   4
HETATM    4  C   UNL     1      -9.877  10.455  65.343  1.00  0.00    -0.347 C  
BRANCH   4   5
HETATM    5  C   UNL     1     -10.124  10.158  66.818  1.00  0.00    -0.277 C  
BRANCH   5   6
HETATM    6  C   UNL     1     -10.883  11.301  67.478  1.00  0.00    -0.292 C  
BRANCH   6   7
HETATM    7  C   UNL     1     -10.466  11.452  68.935  1.00  0.00    -0.219 C  
BRANCH   7   8
HETATM    8  C   UNL     1     -10.536  10.108  69.644  1.00  0.00    -0.282 C  
BRANCH   8   9
HETATM    9  C   UNL     1     -11.663  10.096  70.664  1.00  0.00    -0.425 C  
BRANCH   9  10
HETATM   10  C   UNL     1     -12.511  11.351  70.515  1.00  0.00    -0.381 C  
BRANCH  10  11
HETATM   11  C   UNL     1     -13.130  11.736  71.846  1.00  0.00    -0.482 C  
BRANCH  11  12
HETATM   12  C   UNL     1     -13.195  13.251  71.992  1.00  0.00    -0.541 C  
BRANCH  12  13
HETATM   13  C   UNL     1     -12.840  13.902  70.666  1.00  0.00    -0.291 C  
BRANCH  13  14
HETATM   14  C   UNL     1     -12.904  15.424  70.747  1.00  0.00    -0.524 C  
BRANCH  14  15
HETATM   15  C   UNL     1     -11.524  16.063  70.573  1.00  0.00    -0.409 C  
BRANCH  15  16
HETATM   16  C   UNL     1     -10.575  15.163  69.777  1.00  0.00    -0.252 C  
BRANCH  16  17
HETATM   17  N   UNL     1     -10.431  15.559  68.303  1.00  0.00    -0.238 N  
HETATM   18  C   UNL     1      -8.997  15.403  67.823  1.00  0.00    -0.173 C  
HETATM   19  C   UNL     1     -10.827  17.036  68.187  1.00  0.00    -0.338 C  
HETATM   20  C   UNL     1     -11.371  14.747  67.419  1.00  0.00    -0.351 C  
ENDBRANCH  16  17
ENDBRANCH  15  16
ENDBRANCH  14  15
ENDBRANCH  13  14
ENDBRANCH  12  13
ENDBRANCH  11  12
ENDBRANCH  10  11
ENDBRANCH   9  10
ENDBRANCH   8   9
ENDBRANCH   7   8
ENDBRANCH   6   7
ENDBRANCH   5   6
ENDBRANCH   4   5
ENDBRANCH   3   4
ENDBRANCH   2   3
TORSDOF 15
ENDMDL
MODEL       88
REMARK 921   NORMALIZED FREE ENERGY PREDICTED BY IDOCK:   -3.71 KCAL/MOL
REMARK 922        TOTAL FREE ENERGY PREDICTED BY IDOCK:   -8.66 KCAL/MOL
REMARK 923 INTER-LIGAND FREE ENERGY PREDICTED BY IDOCK:   -7.24 KCAL/MOL
REMARK 924 INTRA-LIGAND FREE ENERGY PREDICTED BY IDOCK:   -1.42 KCAL/MOL
REMARK 927      BINDING AFFINITY PREDICTED BY RF-SCORE:    0.00 PKD
ROOT
HETATM    1  C   UNL     1     -14.196   7.901  71.505  1.00  0.00    -0.527 C  
HETATM    2  C   UNL     1     -13.394   8.968  72.230  1.00  0.00    -0.523 C  
ENDROOT
BRANCH   2   3
HETATM    3  C   UNL     1     -13.347  10.260  71.421  1.00  0.00    -0.395 C  
BRANCH   3   4
HETATM    4  C   UNL     1     -11.926  10.570  70.965  1.00  0.00    -0.466 C  
BRANCH   4   5
HETATM    5  C   UNL     1     -11.893  10.860  69.468  1.00  0.00    -0.404 C  
BRANCH   5   6
HETATM    6  C   UNL     1     -10.463  11.082  68.994  1.00  0.00    -0.242 C  
BRANCH   6   7
HETATM    7  C   UNL     1     -10.448  11.615  67.567  1.00  0.00    -0.228 C  
BRANCH   7   8
HETATM    8  C   UNL     1     -11.784  12.258  67.231  1.00  0.00    -0.394 C  
BRANCH   8   9
HETATM    9  C   UNL     1     -11.913  12.476  65.732  1.00  0.00    -0.482 C  
BRANCH   9  10
HETATM   10  C   UNL     1     -10.587  12.961  65.162  1.00  0.00    -0.321 C  
BRANCH  10  11
HETATM   11  C   UNL     1     -10.683  14.420  64.759  1.00  0.00    -0.423 C  
BRANCH  11  12
HETATM   12  C   UNL     1      -9.793  15.284  65.643  1.00  0.00    -0.383 C  
BRANCH  12  13
HETATM   13  C   UNL     1     -10.631  15.914  66.741  1.00  0.00    -0.309 C  
BRANCH  13  14
HETATM   14  C   UNL     1     -10.218  15.420  68.124  1.00  0.00    -0.230 C  
BRANCH  14  15
HETATM   15  C   UNL     1      -9.674  16.554  68.996  1.00  0.00    -0.258 C  
BRANCH  15  16
HETATM   16  C   UNL     1      -8.461  17.234  68.356  1.00  0.00    -0.254 C  
BRANCH  16  17
HETATM   17  N   UNL     1      -8.653  18.734  68.098  1.00  0.00    -0.300 N  
HETATM   18  C   UNL     1      -8.562  19.059  66.616  1.00  0.00    -0.313 C  
HETATM   19  C   UNL     1      -7.525  19.469  68.830  1.00  0.00    -0.357 C  
HETATM   20  C   UNL     1      -9.982  19.225  68.662  1.00  0.00    -0.431 C  
ENDBRANCH  16  17
ENDBRANCH  15  16
ENDBRANCH  14  15
ENDBRANCH  13  14
ENDBRANCH  12  13
ENDBRANCH  11  12
ENDBRANCH  10  11
ENDBRANCH   9  10
ENDBRANCH   8   9
ENDBRANCH   7   8
ENDBRANCH   6   7
ENDBRANCH   5   6
ENDBRANCH   4   5
ENDBRANCH   3   4
ENDBRANCH   2   3
TORSDOF 15
ENDMDL
MODEL       89
REMARK 921   NORMALIZED FREE ENERGY PREDICTED BY IDOCK:   -3.71 KCAL/MOL
REMARK 922        TOTAL FREE ENERGY PREDICTED BY IDOCK:   -8.65 KCAL/MOL
REMARK 923 INTER-LIGAND FREE ENERGY PREDICTED BY IDOCK:   -6.04 KCAL/MOL
REMARK 924 INTRA-LIGAND FREE ENERGY PREDICTED BY IDOCK:   -2.61 KCAL/MOL
REMARK 927      BINDING AFFINITY PREDICTED BY RF-SCORE:    0.00 PKD
ROOT
HETATM    1  C   UNL     1     -13.031   7.229  71.448  1.00  0.00    -0.420 C  
HETATM    2  C   UNL     1     -11.945   6.342  72.032  1.00  0.00    -0.375 C  
ENDROOT
BRANCH   2   3
HETATM    3  C   UNL     1     -10.833   6.099  71.017  1.00  0.00    -0.338 C  
BRANCH   3   4
HETATM    4  C   UNL     1     -11.322   6.358  69.596  1.00  0.00    -0.479 C  
BRANCH   4   5
HETATM    5  C   UNL     1     -10.569   5.482  68.600  1.00  0.00    -0.215 C  
BRANCH   5   6
HETATM    6  C   UNL     1     -10.787   5.976  67.177  1.00  0.00    -0.414 C  
BRANCH   6   7
HETATM    7  C   UNL     1     -10.720   7.497  67.121  1.00  0.00    -0.379 C  
BRANCH   7   8
HETATM    8  C   UNL     1      -9.426   7.943  66.457  1.00  0.00    -0.277 C  
BRANCH   8   9
HETATM    9  C   UNL     1      -8.682   8.931  67.341  1.00  0.00    -0.128 C  
BRANCH   9  10
HETATM   10  C   UNL     1      -8.091   8.210  68.543  1.00  0.00    -0.124 C  
BRANCH  10  11
HETATM   11  C   UNL     1      -8.534   8.876  69.833  1.00  0.00    -0.135 C  
BRANCH  11  12
HETATM   12  C   UNL     1      -9.365  10.118  69.540  1.00  0.00    -0.230 C  
BRANCH  12  13
HETATM   13  C   UNL     1     -10.690  10.024  70.277  1.00  0.00    -0.367 C  
BRANCH  13  14
HETATM   14  C   UNL     1     -11.828  10.653  69.479  1.00  0.00    -0.345 C  
BRANCH  14  15
HETATM   15  C   UNL     1     -11.336  11.253  68.159  1.00  0.00    -0.372 C  
BRANCH  15  16
HETATM   16  C   UNL     1     -11.895  12.660  67.930  1.00  0.00    -0.332 C  
BRANCH  16  17
HETATM   17  N   UNL     1     -10.851  13.672  67.441  1.00  0.00    -0.270 N  
HETATM   18  C   UNL     1      -9.624  12.975  66.877  1.00  0.00    -0.243 C  
HETATM   19  C   UNL     1     -10.424  14.508  68.653  1.00  0.00    -0.247 C  
HETATM   20  C   UNL     1     -11.444  14.615  66.401  1.00  0.00    -0.347 C  
ENDBRANCH  16  17
ENDBRANCH  15  16
ENDBRANCH  14  15
ENDBRANCH  13  14
ENDBRANCH  12  13
ENDBRANCH  11  12
ENDBRANCH  10  11
ENDBRANCH   9  10
ENDBRANCH   8   9
ENDBRANCH   7   8
ENDBRANCH   6   7
ENDBRANCH   5   6
ENDBRANCH   4   5
ENDBRANCH   3   4
ENDBRANCH   2   3
TORSDOF 15
ENDMDL
MODEL       90
REMARK 921   NORMALIZED FREE ENERGY PREDICTED BY IDOCK:   -3.71 KCAL/MOL
REMARK 922        TOTAL FREE ENERGY PREDICTED BY IDOCK:   -8.65 KCAL/MOL
REMARK 923 INTER-LIGAND FREE ENERGY PREDICTED BY IDOCK:   -7.27 KCAL/MOL
REMARK 924 INTRA-LIGAND FREE ENERGY PREDICTED BY IDOCK:   -1.38 KCAL/MOL
REMARK 927      BINDING AFFINITY PREDICTED BY RF-SCORE:    0.00 PKD
ROOT
HETATM    1  C   UNL     1     -10.640   8.035  67.214  1.00  0.00    -0.360 C  
HETATM    2  C   UNL     1     -10.299   7.548  68.612  1.00  0.00    -0.218 C  
ENDROOT
BRANCH   2   3
HETATM    3  C   UNL     1     -11.125   6.320  68.980  1.00  0.00    -0.446 C  
BRANCH   3   4
HETATM    4  C   UNL     1     -10.987   5.990  70.462  1.00  0.00    -0.388 C  
BRANCH   4   5
HETATM    5  C   UNL     1     -12.078   6.684  71.271  1.00  0.00    -0.395 C  
BRANCH   5   6
HETATM    6  C   UNL     1     -11.471   7.507  72.398  1.00  0.00    -0.362 C  
BRANCH   6   7
HETATM    7  C   UNL     1     -11.329   8.965  71.982  1.00  0.00    -0.427 C  
BRANCH   7   8
HETATM    8  C   UNL     1     -12.680   9.662  72.039  1.00  0.00    -0.470 C  
BRANCH   8   9
HETATM    9  C   UNL     1     -12.965  10.387  70.733  1.00  0.00    -0.422 C  
BRANCH   9  10
HETATM   10  C   UNL     1     -11.659  10.816  70.081  1.00  0.00    -0.424 C  
BRANCH  10  11
HETATM   11  C   UNL     1     -11.766  12.237  69.560  1.00  0.00    -0.398 C  
BRANCH  11  12
HETATM   12  C   UNL     1     -12.332  13.162  70.630  1.00  0.00    -0.405 C  
BRANCH  12  13
HETATM   13  C   UNL     1     -12.005  14.602  70.276  1.00  0.00    -0.370 C  
BRANCH  13  14
HETATM   14  C   UNL     1     -11.683  14.764  68.794  1.00  0.00    -0.354 C  
BRANCH  14  15
HETATM   15  C   UNL     1     -11.284  16.200  68.450  1.00  0.00    -0.358 C  
BRANCH  15  16
HETATM   16  C   UNL     1      -9.764  16.364  68.360  1.00  0.00    -0.229 C  
BRANCH  16  17
HETATM   17  N   UNL     1      -9.316  17.568  67.523  1.00  0.00    -0.244 N  
HETATM   18  C   UNL     1     -10.506  18.329  66.963  1.00  0.00    -0.385 C  
HETATM   19  C   UNL     1      -8.488  17.026  66.353  1.00  0.00    -0.283 C  
HETATM   20  C   UNL     1      -8.430  18.506  68.336  1.00  0.00    -0.328 C  
ENDBRANCH  16  17
ENDBRANCH  15  16
ENDBRANCH  14  15
ENDBRANCH  13  14
ENDBRANCH  12  13
ENDBRANCH  11  12
ENDBRANCH  10  11
ENDBRANCH   9  10
ENDBRANCH   8   9
ENDBRANCH   7   8
ENDBRANCH   6   7
ENDBRANCH   5   6
ENDBRANCH   4   5
ENDBRANCH   3   4
ENDBRANCH   2   3
TORSDOF 15
ENDMDL
MODEL       91
REMARK 921   NORMALIZED FREE ENERGY PREDICTED BY IDOCK:   -3.70 KCAL/MOL
REMARK 922        TOTAL FREE ENERGY PREDICTED BY IDOCK:   -8.64 KCAL/MOL
REMARK 923 INTER-LIGAND FREE ENERGY PREDICTED BY IDOCK:   -6.94 KCAL/MOL
REMARK 924 INTRA-LIGAND FREE ENERGY PREDICTED BY IDOCK:   -1.70 KCAL/MOL
REMARK 927      BINDING AFFINITY PREDICTED BY RF-SCORE:    0.00 PKD
ROOT
HETATM    1  C   UNL     1     -10.296   5.317  70.033  1.00  0.00    -0.365 C  
HETATM    2  C   UNL     1     -10.986   6.293  69.096  1.00  0.00    -0.442 C  
ENDROOT
BRANCH   2   3
HETATM    3  C   UNL     1     -10.904   7.718  69.633  1.00  0.00    -0.185 C  
BRANCH   3   4
HETATM    4  C   UNL     1     -10.117   7.767  70.939  1.00  0.00    -0.195 C  
BRANCH   4   5
HETATM    5  C   UNL     1     -10.902   8.515  72.011  1.00  0.00    -0.405 C  
BRANCH   5   6
HETATM    6  C   UNL     1     -12.353   8.055  72.035  1.00  0.00    -0.366 C  
BRANCH   6   7
HETATM    7  C   UNL     1     -13.283   9.227  72.322  1.00  0.00    -0.535 C  
BRANCH   7   8
HETATM    8  C   UNL     1     -13.263  10.210  71.162  1.00  0.00    -0.438 C  
BRANCH   8   9
HETATM    9  C   UNL     1     -12.857  11.595  71.639  1.00  0.00    -0.454 C  
BRANCH   9  10
HETATM   10  C   UNL     1     -12.145  12.341  70.520  1.00  0.00    -0.371 C  
BRANCH  10  11
HETATM   11  C   UNL     1     -11.631  11.368  69.475  1.00  0.00    -0.399 C  
BRANCH  11  12
HETATM   12  C   UNL     1     -11.735  11.971  68.080  1.00  0.00    -0.398 C  
BRANCH  12  13
HETATM   13  C   UNL     1     -10.424  11.762  67.341  1.00  0.00    -0.238 C  
BRANCH  13  14
HETATM   14  C   UNL     1     -10.026  12.993  66.533  1.00  0.00    -0.262 C  
BRANCH  14  15
HETATM   15  C   UNL     1     -11.053  14.120  66.667  1.00  0.00    -0.314 C  
BRANCH  15  16
HETATM   16  C   UNL     1     -10.382  15.492  66.777  1.00  0.00    -0.288 C  
BRANCH  16  17
HETATM   17  N   UNL     1     -10.461  16.113  68.177  1.00  0.00    -0.268 N  
HETATM   18  C   UNL     1     -11.736  15.703  68.895  1.00  0.00    -0.384 C  
HETATM   19  C   UNL     1     -10.468  17.636  68.000  1.00  0.00    -0.394 C  
HETATM   20  C   UNL     1      -9.244  15.740  69.015  1.00  0.00    -0.243 C  
ENDBRANCH  16  17
ENDBRANCH  15  16
ENDBRANCH  14  15
ENDBRANCH  13  14
ENDBRANCH  12  13
ENDBRANCH  11  12
ENDBRANCH  10  11
ENDBRANCH   9  10
ENDBRANCH   8   9
ENDBRANCH   7   8
ENDBRANCH   6   7
ENDBRANCH   5   6
ENDBRANCH   4   5
ENDBRANCH   3   4
ENDBRANCH   2   3
TORSDOF 15
ENDMDL
MODEL       92
REMARK 921   NORMALIZED FREE ENERGY PREDICTED BY IDOCK:   -3.70 KCAL/MOL
REMARK 922        TOTAL FREE ENERGY PREDICTED BY IDOCK:   -8.63 KCAL/MOL
REMARK 923 INTER-LIGAND FREE ENERGY PREDICTED BY IDOCK:   -6.76 KCAL/MOL
REMARK 924 INTRA-LIGAND FREE ENERGY PREDICTED BY IDOCK:   -1.88 KCAL/MOL
REMARK 927      BINDING AFFINITY PREDICTED BY RF-SCORE:    0.00 PKD
ROOT
HETATM    1  C   UNL     1     -12.237  13.581  66.252  1.00  0.00    -0.468 C  
HETATM    2  C   UNL     1     -11.612  12.374  65.573  1.00  0.00    -0.432 C  
ENDROOT
BRANCH   2   3
HETATM    3  C   UNL     1     -11.016  11.417  66.600  1.00  0.00    -0.341 C  
BRANCH   3   4
HETATM    4  C   UNL     1     -11.352  11.858  68.020  1.00  0.00    -0.352 C  
BRANCH   4   5
HETATM    5  C   UNL     1     -10.418  11.193  69.025  1.00  0.00    -0.233 C  
BRANCH   5   6
HETATM    6  C   UNL     1     -11.206  10.620  70.195  1.00  0.00    -0.378 C  
BRANCH   6   7
HETATM    7  C   UNL     1     -12.540  11.340  70.347  1.00  0.00    -0.292 C  
BRANCH   7   8
HETATM    8  C   UNL     1     -12.996  11.301  71.797  1.00  0.00    -0.519 C  
BRANCH   8   9
HETATM    9  C   UNL     1     -13.380  12.692  72.276  1.00  0.00    -0.527 C  
BRANCH   9  10
HETATM   10  C   UNL     1     -12.765  13.744  71.364  1.00  0.00    -0.450 C  
BRANCH  10  11
HETATM   11  C   UNL     1     -12.381  14.978  72.159  1.00  0.00    -0.433 C  
BRANCH  11  12
HETATM   12  C   UNL     1     -11.475  15.887  71.338  1.00  0.00    -0.484 C  
BRANCH  12  13
HETATM   13  C   UNL     1     -11.063  15.172  70.063  1.00  0.00    -0.297 C  
BRANCH  13  14
HETATM   14  C   UNL     1     -11.420  15.980  68.820  1.00  0.00    -0.375 C  
BRANCH  14  15
HETATM   15  C   UNL     1     -10.179  16.586  68.158  1.00  0.00    -0.271 C  
BRANCH  15  16
HETATM   16  C   UNL     1      -8.892  16.177  68.880  1.00  0.00    -0.248 C  
BRANCH  16  17
HETATM   17  N   UNL     1      -7.866  15.481  67.977  1.00  0.00    -0.123 N  
HETATM   18  C   UNL     1      -8.448  14.231  67.337  1.00  0.00    -0.203 C  
HETATM   19  C   UNL     1      -6.684  15.072  68.862  1.00  0.00    -0.099 C  
HETATM   20  C   UNL     1      -7.347  16.428  66.901  1.00  0.00    -0.234 C  
ENDBRANCH  16  17
ENDBRANCH  15  16
ENDBRANCH  14  15
ENDBRANCH  13  14
ENDBRANCH  12  13
ENDBRANCH  11  12
ENDBRANCH  10  11
ENDBRANCH   9  10
ENDBRANCH   8   9
ENDBRANCH   7   8
ENDBRANCH   6   7
ENDBRANCH   5   6
ENDBRANCH   4   5
ENDBRANCH   3   4
ENDBRANCH   2   3
TORSDOF 15
ENDMDL
MODEL       93
REMARK 921   NORMALIZED FREE ENERGY PREDICTED BY IDOCK:   -3.70 KCAL/MOL
REMARK 922        TOTAL FREE ENERGY PREDICTED BY IDOCK:   -8.63 KCAL/MOL
REMARK 923 INTER-LIGAND FREE ENERGY PREDICTED BY IDOCK:   -6.66 KCAL/MOL
REMARK 924 INTRA-LIGAND FREE ENERGY PREDICTED BY IDOCK:   -1.97 KCAL/MOL
REMARK 927      BINDING AFFINITY PREDICTED BY RF-SCORE:    0.00 PKD
ROOT
HETATM    1  C   UNL     1     -10.400  19.537  68.551  1.00  0.00    -0.436 C  
HETATM    2  C   UNL     1      -9.859  20.512  67.519  1.00  0.00    -0.534 C  
ENDROOT
BRANCH   2   3
HETATM    3  C   UNL     1      -9.551  19.801  66.205  1.00  0.00    -0.515 C  
BRANCH   3   4
HETATM    4  C   UNL     1      -8.047  19.724  65.963  1.00  0.00    -0.334 C  
BRANCH   4   5
HETATM    5  C   UNL     1      -7.281  20.256  67.169  1.00  0.00    -0.327 C  
BRANCH   5   6
HETATM    6  C   UNL     1      -6.358  19.186  67.736  1.00  0.00    -0.226 C  
BRANCH   6   7
HETATM    7  C   UNL     1      -6.903  18.651  69.054  1.00  0.00    -0.302 C  
BRANCH   7   8
HETATM    8  C   UNL     1      -6.825  17.132  69.079  1.00  0.00    -0.231 C  
BRANCH   8   9
HETATM    9  C   UNL     1      -7.181  16.555  67.718  1.00  0.00    -0.156 C  
BRANCH   9  10
HETATM   10  C   UNL     1      -8.692  16.425  67.588  1.00  0.00    -0.188 C  
BRANCH  10  11
HETATM   11  C   UNL     1      -9.067  15.955  66.195  1.00  0.00    -0.385 C  
BRANCH  11  12
HETATM   12  C   UNL     1     -10.579  15.829  66.057  1.00  0.00    -0.334 C  
BRANCH  12  13
HETATM   13  C   UNL     1     -10.904  14.853  64.940  1.00  0.00    -0.431 C  
BRANCH  13  14
HETATM   14  C   UNL     1     -12.308  14.274  65.085  1.00  0.00    -0.427 C  
BRANCH  14  15
HETATM   15  C   UNL     1     -12.278  12.780  65.416  1.00  0.00    -0.532 C  
BRANCH  15  16
HETATM   16  C   UNL     1     -10.851  12.277  65.648  1.00  0.00    -0.285 C  
BRANCH  16  17
HETATM   17  N   UNL     1     -10.525  11.986  67.118  1.00  0.00    -0.216 N  
HETATM   18  C   UNL     1      -9.142  12.496  67.491  1.00  0.00    -0.187 C  
HETATM   19  C   UNL     1     -10.549  10.464  67.297  1.00  0.00    -0.267 C  
HETATM   20  C   UNL     1     -11.574  12.588  68.045  1.00  0.00    -0.342 C  
ENDBRANCH  16  17
ENDBRANCH  15  16
ENDBRANCH  14  15
ENDBRANCH  13  14
ENDBRANCH  12  13
ENDBRANCH  11  12
ENDBRANCH  10  11
ENDBRANCH   9  10
ENDBRANCH   8   9
ENDBRANCH   7   8
ENDBRANCH   6   7
ENDBRANCH   5   6
ENDBRANCH   4   5
ENDBRANCH   3   4
ENDBRANCH   2   3
TORSDOF 15
ENDMDL
MODEL       94
REMARK 921   NORMALIZED FREE ENERGY PREDICTED BY IDOCK:   -3.70 KCAL/MOL
REMARK 922        TOTAL FREE ENERGY PREDICTED BY IDOCK:   -8.63 KCAL/MOL
REMARK 923 INTER-LIGAND FREE ENERGY PREDICTED BY IDOCK:   -6.66 KCAL/MOL
REMARK 924 INTRA-LIGAND FREE ENERGY PREDICTED BY IDOCK:   -1.97 KCAL/MOL
REMARK 927      BINDING AFFINITY PREDICTED BY RF-SCORE:    0.00 PKD
ROOT
HETATM    1  C   UNL     1     -11.775  15.665  68.911  1.00  0.00    -0.396 C  
HETATM    2  C   UNL     1     -11.336  16.070  70.308  1.00  0.00    -0.391 C  
ENDROOT
BRANCH   2   3
HETATM    3  C   UNL     1     -11.418  14.889  71.270  1.00  0.00    -0.322 C  
BRANCH   3   4
HETATM    4  C   UNL     1     -12.420  15.160  72.387  1.00  0.00    -0.433 C  
BRANCH   4   5
HETATM    5  C   UNL     1     -13.245  13.912  72.683  1.00  0.00    -0.592 C  
BRANCH   5   6
HETATM    6  C   UNL     1     -13.269  12.984  71.477  1.00  0.00    -0.360 C  
BRANCH   6   7
HETATM    7  C   UNL     1     -13.060  11.538  71.908  1.00  0.00    -0.492 C  
BRANCH   7   8
HETATM    8  C   UNL     1     -12.435  10.736  70.777  1.00  0.00    -0.481 C  
BRANCH   8   9
HETATM    9  C   UNL     1     -12.124  11.635  69.590  1.00  0.00    -0.345 C  
BRANCH   9  10
HETATM   10  C   UNL     1     -10.757  11.287  69.019  1.00  0.00    -0.257 C  
BRANCH  10  11
HETATM   11  C   UNL     1     -10.300  12.357  68.045  1.00  0.00    -0.220 C  
BRANCH  11  12
HETATM   12  C   UNL     1      -8.814  12.643  68.217  1.00  0.00    -0.172 C  
BRANCH  12  13
HETATM   13  C   UNL     1      -8.620  14.106  68.577  1.00  0.00    -0.163 C  
BRANCH  13  14
HETATM   14  C   UNL     1      -7.923  14.877  67.461  1.00  0.00    -0.198 C  
BRANCH  14  15
HETATM   15  C   UNL     1      -8.523  16.271  67.269  1.00  0.00    -0.199 C  
BRANCH  15  16
HETATM   16  C   UNL     1      -8.250  17.179  68.472  1.00  0.00    -0.261 C  
BRANCH  16  17
HETATM   17  N   UNL     1      -8.562  18.659  68.218  1.00  0.00    -0.312 N  
HETATM   18  C   UNL     1      -8.596  18.973  66.731  1.00  0.00    -0.304 C  
HETATM   19  C   UNL     1      -7.440  19.478  68.865  1.00  0.00    -0.357 C  
HETATM   20  C   UNL     1      -9.880  19.064  68.870  1.00  0.00    -0.404 C  
ENDBRANCH  16  17
ENDBRANCH  15  16
ENDBRANCH  14  15
ENDBRANCH  13  14
ENDBRANCH  12  13
ENDBRANCH  11  12
ENDBRANCH  10  11
ENDBRANCH   9  10
ENDBRANCH   8   9
ENDBRANCH   7   8
ENDBRANCH   6   7
ENDBRANCH   5   6
ENDBRANCH   4   5
ENDBRANCH   3   4
ENDBRANCH   2   3
TORSDOF 15
ENDMDL
MODEL       95
REMARK 921   NORMALIZED FREE ENERGY PREDICTED BY IDOCK:   -3.69 KCAL/MOL
REMARK 922        TOTAL FREE ENERGY PREDICTED BY IDOCK:   -8.62 KCAL/MOL
REMARK 923 INTER-LIGAND FREE ENERGY PREDICTED BY IDOCK:   -7.39 KCAL/MOL
REMARK 924 INTRA-LIGAND FREE ENERGY PREDICTED BY IDOCK:   -1.23 KCAL/MOL
REMARK 927      BINDING AFFINITY PREDICTED BY RF-SCORE:    0.00 PKD
ROOT
HETATM    1  C   UNL     1     -10.488  19.083  65.979  1.00  0.00    -0.530 C  
HETATM    2  C   UNL     1      -9.593  18.206  66.838  1.00  0.00    -0.299 C  
ENDROOT
BRANCH   2   3
HETATM    3  C   UNL     1      -9.218  16.923  66.103  1.00  0.00    -0.270 C  
BRANCH   3   4
HETATM    4  C   UNL     1     -10.447  16.054  65.855  1.00  0.00    -0.373 C  
BRANCH   4   5
HETATM    5  C   UNL     1     -11.046  15.580  67.174  1.00  0.00    -0.256 C  
BRANCH   5   6
HETATM    6  C   UNL     1     -10.148  14.540  67.829  1.00  0.00    -0.225 C  
BRANCH   6   7
HETATM    7  C   UNL     1      -9.903  14.887  69.293  1.00  0.00    -0.164 C  
BRANCH   7   8
HETATM    8  C   UNL     1     -10.735  16.096  69.693  1.00  0.00    -0.325 C  
BRANCH   8   9
HETATM    9  C   UNL     1     -11.465  15.836  71.001  1.00  0.00    -0.451 C  
BRANCH   9  10
HETATM   10  C   UNL     1     -12.840  15.246  70.720  1.00  0.00    -0.494 C  
BRANCH  10  11
HETATM   11  C   UNL     1     -13.647  15.145  72.001  1.00  0.00    -0.549 C  
BRANCH  11  12
HETATM   12  C   UNL     1     -13.574  13.736  72.574  1.00  0.00    -0.680 C  
BRANCH  12  13
HETATM   13  C   UNL     1     -13.067  12.782  71.506  1.00  0.00    -0.380 C  
BRANCH  13  14
HETATM   14  C   UNL     1     -13.358  11.327  71.861  1.00  0.00    -0.413 C  
BRANCH  14  15
HETATM   15  C   UNL     1     -12.314  10.376  71.269  1.00  0.00    -0.507 C  
BRANCH  15  16
HETATM   16  C   UNL     1     -12.492   8.945  71.782  1.00  0.00    -0.362 C  
BRANCH  16  17
HETATM   17  N   UNL     1     -11.357   7.994  71.382  1.00  0.00    -0.251 N  
HETATM   18  C   UNL     1     -10.377   7.789  72.526  1.00  0.00    -0.268 C  
HETATM   19  C   UNL     1     -10.611   8.643  70.210  1.00  0.00    -0.223 C  
HETATM   20  C   UNL     1     -11.902   6.651  70.911  1.00  0.00    -0.377 C  
ENDBRANCH  16  17
ENDBRANCH  15  16
ENDBRANCH  14  15
ENDBRANCH  13  14
ENDBRANCH  12  13
ENDBRANCH  11  12
ENDBRANCH  10  11
ENDBRANCH   9  10
ENDBRANCH   8   9
ENDBRANCH   7   8
ENDBRANCH   6   7
ENDBRANCH   5   6
ENDBRANCH   4   5
ENDBRANCH   3   4
ENDBRANCH   2   3
TORSDOF 15
ENDMDL
MODEL       96
REMARK 921   NORMALIZED FREE ENERGY PREDICTED BY IDOCK:   -3.69 KCAL/MOL
REMARK 922        TOTAL FREE ENERGY PREDICTED BY IDOCK:   -8.62 KCAL/MOL
REMARK 923 INTER-LIGAND FREE ENERGY PREDICTED BY IDOCK:   -6.76 KCAL/MOL
REMARK 924 INTRA-LIGAND FREE ENERGY PREDICTED BY IDOCK:   -1.86 KCAL/MOL
REMARK 927      BINDING AFFINITY PREDICTED BY RF-SCORE:    0.00 PKD
ROOT
HETATM    1  C   UNL     1     -11.022  19.539  67.807  1.00  0.00    -0.251 C  
HETATM    2  C   UNL     1      -9.795  20.319  67.369  1.00  0.00    -0.586 C  
ENDROOT
BRANCH   2   3
HETATM    3  C   UNL     1      -9.202  19.734  66.091  1.00  0.00    -0.418 C  
BRANCH   3   4
HETATM    4  C   UNL     1      -7.680  19.818  66.104  1.00  0.00    -0.341 C  
BRANCH   4   5
HETATM    5  C   UNL     1      -7.209  20.891  67.081  1.00  0.00    -0.395 C  
BRANCH   5   6
HETATM    6  C   UNL     1      -6.101  20.355  67.976  1.00  0.00    -0.297 C  
BRANCH   6   7
HETATM    7  C   UNL     1      -6.682  19.513  69.104  1.00  0.00    -0.373 C  
BRANCH   7   8
HETATM    8  C   UNL     1      -5.826  18.276  69.332  1.00  0.00    -0.237 C  
BRANCH   8   9
HETATM    9  C   UNL     1      -6.695  17.032  69.429  1.00  0.00    -0.208 C  
BRANCH   9  10
HETATM   10  C   UNL     1      -7.938  17.199  68.566  1.00  0.00    -0.259 C  
BRANCH  10  11
HETATM   11  C   UNL     1      -8.581  15.851  68.295  1.00  0.00    -0.176 C  
BRANCH  11  12
HETATM   12  C   UNL     1      -9.699  15.984  67.268  1.00  0.00    -0.232 C  
BRANCH  12  13
HETATM   13  C   UNL     1     -11.034  15.712  67.939  1.00  0.00    -0.319 C  
BRANCH  13  14
HETATM   14  C   UNL     1     -11.040  14.372  68.669  1.00  0.00    -0.269 C  
BRANCH  14  15
HETATM   15  C   UNL     1     -12.285  14.204  69.542  1.00  0.00    -0.351 C  
BRANCH  15  16
HETATM   16  C   UNL     1     -12.441  15.354  70.541  1.00  0.00    -0.422 C  
BRANCH  16  17
HETATM   17  N   UNL     1     -12.972  14.920  71.912  1.00  0.00    -0.314 N  
HETATM   18  C   UNL     1     -14.372  15.458  72.161  1.00  0.00    -0.544 C  
HETATM   19  C   UNL     1     -12.030  15.502  72.972  1.00  0.00    -0.461 C  
HETATM   20  C   UNL     1     -12.962  13.402  72.053  1.00  0.00    -0.310 C  
ENDBRANCH  16  17
ENDBRANCH  15  16
ENDBRANCH  14  15
ENDBRANCH  13  14
ENDBRANCH  12  13
ENDBRANCH  11  12
ENDBRANCH  10  11
ENDBRANCH   9  10
ENDBRANCH   8   9
ENDBRANCH   7   8
ENDBRANCH   6   7
ENDBRANCH   5   6
ENDBRANCH   4   5
ENDBRANCH   3   4
ENDBRANCH   2   3
TORSDOF 15
ENDMDL
MODEL       97
REMARK 921   NORMALIZED FREE ENERGY PREDICTED BY IDOCK:   -3.69 KCAL/MOL
REMARK 922        TOTAL FREE ENERGY PREDICTED BY IDOCK:   -8.61 KCAL/MOL
REMARK 923 INTER-LIGAND FREE ENERGY PREDICTED BY IDOCK:   -7.10 KCAL/MOL
REMARK 924 INTRA-LIGAND FREE ENERGY PREDICTED BY IDOCK:   -1.52 KCAL/MOL
REMARK 927      BINDING AFFINITY PREDICTED BY RF-SCORE:    0.00 PKD
ROOT
HETATM    1  C   UNL     1     -12.263  14.956  64.447  1.00  0.00    -0.399 C  
HETATM    2  C   UNL     1     -12.794  13.863  65.358  1.00  0.00    -0.466 C  
ENDROOT
BRANCH   2   3
HETATM    3  C   UNL     1     -12.478  12.481  64.796  1.00  0.00    -0.532 C  
BRANCH   3   4
HETATM    4  C   UNL     1     -11.820  12.584  63.424  1.00  0.00    -0.587 C  
BRANCH   4   5
HETATM    5  C   UNL     1     -10.486  11.847  63.410  1.00  0.00    -0.487 C  
BRANCH   5   6
HETATM    6  C   UNL     1     -10.409  10.853  64.560  1.00  0.00    -0.417 C  
BRANCH   6   7
HETATM    7  C   UNL     1      -9.092  10.088  64.521  1.00  0.00    -0.285 C  
BRANCH   7   8
HETATM    8  C   UNL     1      -9.071   9.020  65.604  1.00  0.00    -0.278 C  
BRANCH   8   9
HETATM    9  C   UNL     1      -8.270   9.492  66.808  1.00  0.00    -0.113 C  
BRANCH   9  10
HETATM   10  C   UNL     1      -8.957   9.053  68.093  1.00  0.00    -0.133 C  
BRANCH  10  11
HETATM   11  C   UNL     1      -9.142  10.234  69.027  1.00  0.00    -0.187 C  
BRANCH  11  12
HETATM   12  C   UNL     1     -10.014  11.302  68.380  1.00  0.00    -0.201 C  
BRANCH  12  13
HETATM   13  C   UNL     1     -11.468  10.863  68.426  1.00  0.00    -0.374 C  
BRANCH  13  14
HETATM   14  C   UNL     1     -12.186  11.408  69.656  1.00  0.00    -0.316 C  
BRANCH  14  15
HETATM   15  C   UNL     1     -11.929  12.904  69.850  1.00  0.00    -0.377 C  
BRANCH  15  16
HETATM   16  C   UNL     1     -12.532  13.421  71.159  1.00  0.00    -0.327 C  
BRANCH  16  17
HETATM   17  N   UNL     1     -12.623  14.950  71.243  1.00  0.00    -0.306 N  
HETATM   18  C   UNL     1     -12.051  15.608  69.998  1.00  0.00    -0.359 C  
HETATM   19  C   UNL     1     -11.794  15.390  72.454  1.00  0.00    -0.459 C  
HETATM   20  C   UNL     1     -14.062  15.405  71.463  1.00  0.00    -0.491 C  
ENDBRANCH  16  17
ENDBRANCH  15  16
ENDBRANCH  14  15
ENDBRANCH  13  14
ENDBRANCH  12  13
ENDBRANCH  11  12
ENDBRANCH  10  11
ENDBRANCH   9  10
ENDBRANCH   8   9
ENDBRANCH   7   8
ENDBRANCH   6   7
ENDBRANCH   5   6
ENDBRANCH   4   5
ENDBRANCH   3   4
ENDBRANCH   2   3
TORSDOF 15
ENDMDL
MODEL       98
REMARK 921   NORMALIZED FREE ENERGY PREDICTED BY IDOCK:   -3.68 KCAL/MOL
REMARK 922        TOTAL FREE ENERGY PREDICTED BY IDOCK:   -8.61 KCAL/MOL
REMARK 923 INTER-LIGAND FREE ENERGY PREDICTED BY IDOCK:   -7.50 KCAL/MOL
REMARK 924 INTRA-LIGAND FREE ENERGY PREDICTED BY IDOCK:   -1.11 KCAL/MOL
REMARK 927      BINDING AFFINITY PREDICTED BY RF-SCORE:    0.00 PKD
ROOT
HETATM    1  C   UNL     1     -13.793   8.855  72.004  1.00  0.00    -0.511 C  
HETATM    2  C   UNL     1     -13.807   7.379  71.644  1.00  0.00    -0.490 C  
ENDROOT
BRANCH   2   3
HETATM    3  C   UNL     1     -12.396   6.872  71.365  1.00  0.00    -0.421 C  
BRANCH   3   4
HETATM    4  C   UNL     1     -11.545   7.953  70.708  1.00  0.00    -0.258 C  
BRANCH   4   5
HETATM    5  C   UNL     1     -10.464   7.328  69.832  1.00  0.00    -0.236 C  
BRANCH   5   6
HETATM    6  C   UNL     1     -11.070   6.317  68.869  1.00  0.00    -0.434 C  
BRANCH   6   7
HETATM    7  C   UNL     1     -10.879   6.768  67.427  1.00  0.00    -0.417 C  
BRANCH   7   8
HETATM    8  C   UNL     1      -9.795   7.832  67.347  1.00  0.00    -0.230 C  
BRANCH   8   9
HETATM    9  C   UNL     1     -10.226   8.971  66.437  1.00  0.00    -0.297 C  
BRANCH   9  10
HETATM   10  C   UNL     1      -9.083   9.355  65.509  1.00  0.00    -0.270 C  
BRANCH  10  11
HETATM   11  C   UNL     1      -9.279  10.763  64.978  1.00  0.00    -0.241 C  
BRANCH  11  12
HETATM   12  C   UNL     1     -10.655  10.912  64.342  1.00  0.00    -0.343 C  
BRANCH  12  13
HETATM   13  C   UNL     1     -10.689  12.178  63.504  1.00  0.00    -0.509 C  
BRANCH  13  14
HETATM   14  C   UNL     1     -12.051  12.863  63.566  1.00  0.00    -0.633 C  
BRANCH  14  15
HETATM   15  C   UNL     1     -12.012  14.134  64.417  1.00  0.00    -0.478 C  
BRANCH  15  16
HETATM   16  C   UNL     1     -12.506  13.880  65.844  1.00  0.00    -0.481 C  
BRANCH  16  17
HETATM   17  N   UNL     1     -11.397  13.911  66.902  1.00  0.00    -0.316 N  
HETATM   18  C   UNL     1     -10.037  14.166  66.274  1.00  0.00    -0.300 C  
HETATM   19  C   UNL     1     -11.373  12.535  67.577  1.00  0.00    -0.312 C  
HETATM   20  C   UNL     1     -11.685  14.958  67.972  1.00  0.00    -0.320 C  
ENDBRANCH  16  17
ENDBRANCH  15  16
ENDBRANCH  14  15
ENDBRANCH  13  14
ENDBRANCH  12  13
ENDBRANCH  11  12
ENDBRANCH  10  11
ENDBRANCH   9  10
ENDBRANCH   8   9
ENDBRANCH   7   8
ENDBRANCH   6   7
ENDBRANCH   5   6
ENDBRANCH   4   5
ENDBRANCH   3   4
ENDBRANCH   2   3
TORSDOF 15
ENDMDL
MODEL       99
REMARK 921   NORMALIZED FREE ENERGY PREDICTED BY IDOCK:   -3.68 KCAL/MOL
REMARK 922        TOTAL FREE ENERGY PREDICTED BY IDOCK:   -8.59 KCAL/MOL
REMARK 923 INTER-LIGAND FREE ENERGY PREDICTED BY IDOCK:   -7.11 KCAL/MOL
REMARK 924 INTRA-LIGAND FREE ENERGY PREDICTED BY IDOCK:   -1.49 KCAL/MOL
REMARK 927      BINDING AFFINITY PREDICTED BY RF-SCORE:    0.00 PKD
ROOT
HETATM    1  C   UNL     1      -7.540  19.838  65.935  1.00  0.00    -0.332 C  
HETATM    2  C   UNL     1      -8.180  20.288  67.237  1.00  0.00    -0.393 C  
ENDROOT
BRANCH   2   3
HETATM    3  C   UNL     1      -9.654  19.900  67.285  1.00  0.00    -0.502 C  
BRANCH   3   4
HETATM    4  C   UNL     1     -10.026  19.014  66.101  1.00  0.00    -0.413 C  
BRANCH   4   5
HETATM    5  C   UNL     1     -10.552  17.666  66.583  1.00  0.00    -0.211 C  
BRANCH   5   6
HETATM    6  C   UNL     1      -9.804  16.525  65.909  1.00  0.00    -0.324 C  
BRANCH   6   7
HETATM    7  C   UNL     1     -10.782  15.497  65.353  1.00  0.00    -0.422 C  
BRANCH   7   8
HETATM    8  C   UNL     1     -10.076  14.169  65.126  1.00  0.00    -0.348 C  
BRANCH   8   9
HETATM    9  C   UNL     1     -11.010  13.007  65.423  1.00  0.00    -0.297 C  
BRANCH   9  10
HETATM   10  C   UNL     1     -10.802  12.525  66.851  1.00  0.00    -0.280 C  
BRANCH  10  11
HETATM   11  C   UNL     1      -9.492  13.055  67.405  1.00  0.00    -0.210 C  
BRANCH  11  12
HETATM   12  C   UNL     1      -9.746  14.033  68.545  1.00  0.00    -0.215 C  
BRANCH  12  13
HETATM   13  C   UNL     1     -11.202  13.950  68.967  1.00  0.00    -0.312 C  
BRANCH  13  14
HETATM   14  C   UNL     1     -11.890  15.310  68.901  1.00  0.00    -0.344 C  
BRANCH  14  15
HETATM   15  C   UNL     1     -12.404  15.756  70.272  1.00  0.00    -0.341 C  
BRANCH  15  16
HETATM   16  C   UNL     1     -11.934  14.820  71.389  1.00  0.00    -0.345 C  
BRANCH  16  17
HETATM   17  N   UNL     1     -12.984  14.577  72.480  1.00  0.00    -0.387 N  
HETATM   18  C   UNL     1     -12.435  14.902  73.860  1.00  0.00    -0.424 C  
HETATM   19  C   UNL     1     -13.349  13.089  72.438  1.00  0.00    -0.460 C  
HETATM   20  C   UNL     1     -14.251  15.383  72.216  1.00  0.00    -0.545 C  
ENDBRANCH  16  17
ENDBRANCH  15  16
ENDBRANCH  14  15
ENDBRANCH  13  14
ENDBRANCH  12  13
ENDBRANCH  11  12
ENDBRANCH  10  11
ENDBRANCH   9  10
ENDBRANCH   8   9
ENDBRANCH   7   8
ENDBRANCH   6   7
ENDBRANCH   5   6
ENDBRANCH   4   5
ENDBRANCH   3   4
ENDBRANCH   2   3
TORSDOF 15
ENDMDL
MODEL      100
REMARK 921   NORMALIZED FREE ENERGY PREDICTED BY IDOCK:   -3.68 KCAL/MOL
REMARK 922        TOTAL FREE ENERGY PREDICTED BY IDOCK:   -8.59 KCAL/MOL
REMARK 923 INTER-LIGAND FREE ENERGY PREDICTED BY IDOCK:   -7.02 KCAL/MOL
REMARK 924 INTRA-LIGAND FREE ENERGY PREDICTED BY IDOCK:   -1.58 KCAL/MOL
REMARK 927      BINDING AFFINITY PREDICTED BY RF-SCORE:    0.00 PKD
ROOT
HETATM    1  C   UNL     1     -10.527  19.634  66.072  1.00  0.00    -0.622 C  
HETATM    2  C   UNL     1     -10.589  18.983  67.443  1.00  0.00    -0.559 C  
ENDROOT
BRANCH   2   3
HETATM    3  C   UNL     1     -10.420  17.471  67.337  1.00  0.00    -0.342 C  
BRANCH   3   4
HETATM    4  C   UNL     1     -10.235  17.040  65.886  1.00  0.00    -0.311 C  
BRANCH   4   5
HETATM    5  C   UNL     1     -10.625  15.577  65.706  1.00  0.00    -0.370 C  
BRANCH   5   6
HETATM    6  C   UNL     1     -10.927  14.931  67.052  1.00  0.00    -0.327 C  
BRANCH   6   7
HETATM    7  C   UNL     1     -11.977  13.838  66.899  1.00  0.00    -0.460 C  
BRANCH   7   8
HETATM    8  C   UNL     1     -12.659  13.949  65.544  1.00  0.00    -0.560 C  
BRANCH   8   9
HETATM    9  C   UNL     1     -12.637  12.612  64.821  1.00  0.00    -0.530 C  
BRANCH   9  10
HETATM   10  C   UNL     1     -11.945  12.761  63.474  1.00  0.00    -0.633 C  
BRANCH  10  11
HETATM   11  C   UNL     1     -10.590  12.078  63.493  1.00  0.00    -0.514 C  
BRANCH  11  12
HETATM   12  C   UNL     1     -10.475  11.142  64.690  1.00  0.00    -0.400 C  
BRANCH  12  13
HETATM   13  C   UNL     1      -9.385  10.118  64.427  1.00  0.00    -0.348 C  
BRANCH  13  14
HETATM   14  C   UNL     1      -9.249   9.126  65.578  1.00  0.00    -0.287 C  
BRANCH  14  15
HETATM   15  C   UNL     1      -9.181   9.832  66.935  1.00  0.00    -0.174 C  
BRANCH  15  16
HETATM   16  C   UNL     1      -7.776   9.767  67.541  1.00  0.00    -0.095 C  
BRANCH  16  17
HETATM   17  N   UNL     1      -7.213  11.131  67.957  1.00  0.00    -0.077 N  
HETATM   18  C   UNL     1      -6.784  11.133  69.415  1.00  0.00    -0.120 C  
HETATM   19  C   UNL     1      -8.334  12.161  67.776  1.00  0.00    -0.159 C  
HETATM   20  C   UNL     1      -6.046  11.541  67.066  1.00  0.00    -0.131 C  
ENDBRANCH  16  17
ENDBRANCH  15  16
ENDBRANCH  14  15
ENDBRANCH  13  14
ENDBRANCH  12  13
ENDBRANCH  11  12
ENDBRANCH  10  11
ENDBRANCH   9  10
ENDBRANCH   8   9
ENDBRANCH   7   8
ENDBRANCH   6   7
ENDBRANCH   5   6
ENDBRANCH   4   5
ENDBRANCH   3   4
ENDBRANCH   2   3
TORSDOF 15
ENDMDL
MODEL      101
REMARK 921   NORMALIZED FREE ENERGY PREDICTED BY IDOCK:   -3.68 KCAL/MOL
REMARK 922        TOTAL FREE ENERGY PREDICTED BY IDOCK:   -8.59 KCAL/MOL
REMARK 923 INTER-LIGAND FREE ENERGY PREDICTED BY IDOCK:   -7.03 KCAL/MOL
REMARK 924 INTRA-LIGAND FREE ENERGY PREDICTED BY IDOCK:   -1.57 KCAL/MOL
REMARK 927      BINDING AFFINITY PREDICTED BY RF-SCORE:    0.00 PKD
ROOT
HETATM    1  C   UNL     1     -14.091  15.218  71.682  1.00  0.00    -0.640 C  
HETATM    2  C   UNL     1     -13.005  14.190  71.414  1.00  0.00    -0.422 C  
ENDROOT
BRANCH   2   3
HETATM    3  C   UNL     1     -13.353  12.849  72.053  1.00  0.00    -0.579 C  
BRANCH   3   4
HETATM    4  C   UNL     1     -12.775  11.691  71.245  1.00  0.00    -0.444 C  
BRANCH   4   5
HETATM    5  C   UNL     1     -13.166  10.355  71.868  1.00  0.00    -0.535 C  
BRANCH   5   6
HETATM    6  C   UNL     1     -12.215   9.254  71.420  1.00  0.00    -0.426 C  
BRANCH   6   7
HETATM    7  C   UNL     1     -11.097   9.829  70.558  1.00  0.00    -0.384 C  
BRANCH   7   8
HETATM    8  C   UNL     1      -9.746   9.335  71.052  1.00  0.00    -0.341 C  
BRANCH   8   9
HETATM    9  C   UNL     1      -9.896   8.022  71.803  1.00  0.00    -0.240 C  
BRANCH   9  10
HETATM   10  C   UNL     1      -9.523   6.859  70.894  1.00  0.00    -0.157 C  
BRANCH  10  11
HETATM   11  C   UNL     1     -10.723   5.959  70.662  1.00  0.00    -0.353 C  
BRANCH  11  12
HETATM   12  C   UNL     1     -11.252   6.121  69.243  1.00  0.00    -0.438 C  
BRANCH  12  13
HETATM   13  C   UNL     1     -10.227   6.865  68.404  1.00  0.00    -0.191 C  
BRANCH  13  14
HETATM   14  C   UNL     1     -10.820   7.357  67.088  1.00  0.00    -0.340 C  
BRANCH  14  15
HETATM   15  C   UNL     1      -9.970   8.462  66.457  1.00  0.00    -0.335 C  
BRANCH  15  16
HETATM   16  C   UNL     1     -10.392   9.852  66.938  1.00  0.00    -0.235 C  
BRANCH  16  17
HETATM   17  N   UNL     1      -9.796  11.003  66.117  1.00  0.00    -0.217 N  
HETATM   18  C   UNL     1     -10.462  12.327  66.454  1.00  0.00    -0.236 C  
HETATM   19  C   UNL     1     -10.052  10.689  64.639  1.00  0.00    -0.349 C  
HETATM   20  C   UNL     1      -8.289  11.106  66.326  1.00  0.00    -0.163 C  
ENDBRANCH  16  17
ENDBRANCH  15  16
ENDBRANCH  14  15
ENDBRANCH  13  14
ENDBRANCH  12  13
ENDBRANCH  11  12
ENDBRANCH  10  11
ENDBRANCH   9  10
ENDBRANCH   8   9
ENDBRANCH   7   8
ENDBRANCH   6   7
ENDBRANCH   5   6
ENDBRANCH   4   5
ENDBRANCH   3   4
ENDBRANCH   2   3
TORSDOF 15
ENDMDL
MODEL      102
REMARK 921   NORMALIZED FREE ENERGY PREDICTED BY IDOCK:   -3.68 KCAL/MOL
REMARK 922        TOTAL FREE ENERGY PREDICTED BY IDOCK:   -8.59 KCAL/MOL
REMARK 923 INTER-LIGAND FREE ENERGY PREDICTED BY IDOCK:   -7.18 KCAL/MOL
REMARK 924 INTRA-LIGAND FREE ENERGY PREDICTED BY IDOCK:   -1.41 KCAL/MOL
REMARK 927      BINDING AFFINITY PREDICTED BY RF-SCORE:    0.00 PKD
ROOT
HETATM    1  C   UNL     1     -13.089  15.508  72.064  1.00  0.00    -0.535 C  
HETATM    2  C   UNL     1     -13.330  14.061  72.456  1.00  0.00    -0.639 C  
ENDROOT
BRANCH   2   3
HETATM    3  C   UNL     1     -12.736  13.108  71.424  1.00  0.00    -0.390 C  
BRANCH   3   4
HETATM    4  C   UNL     1     -12.989  11.655  71.810  1.00  0.00    -0.483 C  
BRANCH   4   5
HETATM    5  C   UNL     1     -12.636  10.723  70.655  1.00  0.00    -0.446 C  
BRANCH   5   6
HETATM    6  C   UNL     1     -11.331   9.992  70.934  1.00  0.00    -0.439 C  
BRANCH   6   7
HETATM    7  C   UNL     1     -10.378  10.124  69.753  1.00  0.00    -0.297 C  
BRANCH   7   8
HETATM    8  C   UNL     1     -11.155  10.441  68.484  1.00  0.00    -0.318 C  
BRANCH   8   9
HETATM    9  C   UNL     1     -10.208  10.811  67.353  1.00  0.00    -0.241 C  
BRANCH   9  10
HETATM   10  C   UNL     1     -10.391  12.275  66.981  1.00  0.00    -0.237 C  
BRANCH  10  11
HETATM   11  C   UNL     1     -11.843  12.687  67.140  1.00  0.00    -0.399 C  
BRANCH  11  12
HETATM   12  C   UNL     1     -12.013  14.177  66.879  1.00  0.00    -0.479 C  
BRANCH  12  13
HETATM   13  C   UNL     1     -12.006  14.431  65.381  1.00  0.00    -0.369 C  
BRANCH  13  14
HETATM   14  C   UNL     1     -10.877  15.371  64.971  1.00  0.00    -0.462 C  
BRANCH  14  15
HETATM   15  C   UNL     1     -10.391  16.226  66.144  1.00  0.00    -0.352 C  
BRANCH  15  16
HETATM   16  C   UNL     1      -8.871  16.406  66.126  1.00  0.00    -0.314 C  
BRANCH  16  17
HETATM   17  N   UNL     1      -8.232  16.442  67.520  1.00  0.00    -0.148 N  
HETATM   18  C   UNL     1      -9.049  15.648  68.526  1.00  0.00    -0.196 C  
HETATM   19  C   UNL     1      -8.197  17.908  67.967  1.00  0.00    -0.257 C  
HETATM   20  C   UNL     1      -6.798  15.925  67.483  1.00  0.00    -0.183 C  
ENDBRANCH  16  17
ENDBRANCH  15  16
ENDBRANCH  14  15
ENDBRANCH  13  14
ENDBRANCH  12  13
ENDBRANCH  11  12
ENDBRANCH  10  11
ENDBRANCH   9  10
ENDBRANCH   8   9
ENDBRANCH   7   8
ENDBRANCH   6   7
ENDBRANCH   5   6
ENDBRANCH   4   5
ENDBRANCH   3   4
ENDBRANCH   2   3
TORSDOF 15
ENDMDL
MODEL      103
REMARK 921   NORMALIZED FREE ENERGY PREDICTED BY IDOCK:   -3.68 KCAL/MOL
REMARK 922        TOTAL FREE ENERGY PREDICTED BY IDOCK:   -8.59 KCAL/MOL
REMARK 923 INTER-LIGAND FREE ENERGY PREDICTED BY IDOCK:   -6.71 KCAL/MOL
REMARK 924 INTRA-LIGAND FREE ENERGY PREDICTED BY IDOCK:   -1.88 KCAL/MOL
REMARK 927      BINDING AFFINITY PREDICTED BY RF-SCORE:    0.00 PKD
ROOT
HETATM    1  C   UNL     1     -11.244   6.147  69.669  1.00  0.00    -0.488 C  
HETATM    2  C   UNL     1      -9.917   5.509  70.040  1.00  0.00    -0.285 C  
ENDROOT
BRANCH   2   3
HETATM    3  C   UNL     1     -10.070   4.594  71.251  1.00  0.00    -0.245 C  
BRANCH   3   4
HETATM    4  C   UNL     1     -11.153   5.109  72.193  1.00  0.00    -0.129 C  
BRANCH   4   5
HETATM    5  C   UNL     1     -10.656   5.108  73.635  1.00  0.00    -0.322 C  
BRANCH   5   6
HETATM    6  C   UNL     1      -9.554   6.140  73.824  1.00  0.00    -0.167 C  
BRANCH   6   7
HETATM    7  C   UNL     1     -10.083   7.545  73.566  1.00  0.00    -0.378 C  
BRANCH   7   8
HETATM    8  C   UNL     1      -9.226   8.247  72.524  1.00  0.00    -0.339 C  
BRANCH   8   9
HETATM    9  C   UNL     1     -10.094   9.038  71.558  1.00  0.00    -0.409 C  
BRANCH   9  10
HETATM   10  C   UNL     1     -11.556   8.936  71.972  1.00  0.00    -0.435 C  
BRANCH  10  11
HETATM   11  C   UNL     1     -12.431   9.745  71.033  1.00  0.00    -0.414 C  
BRANCH  11  12
HETATM   12  C   UNL     1     -13.197  10.817  71.798  1.00  0.00    -0.523 C  
BRANCH  12  13
HETATM   13  C   UNL     1     -12.827  12.186  71.254  1.00  0.00    -0.349 C  
BRANCH  13  14
HETATM   14  C   UNL     1     -11.989  12.084  69.984  1.00  0.00    -0.400 C  
BRANCH  14  15
HETATM   15  C   UNL     1     -11.837  13.440  69.291  1.00  0.00    -0.385 C  
BRANCH  15  16
HETATM   16  C   UNL     1     -11.811  13.301  67.766  1.00  0.00    -0.353 C  
BRANCH  16  17
HETATM   17  N   UNL     1     -10.537  13.850  67.112  1.00  0.00    -0.276 N  
HETATM   18  C   UNL     1     -10.641  15.345  66.861  1.00  0.00    -0.309 C  
HETATM   19  C   UNL     1     -10.373  13.138  65.765  1.00  0.00    -0.289 C  
HETATM   20  C   UNL     1      -9.307  13.545  67.961  1.00  0.00    -0.213 C  
ENDBRANCH  16  17
ENDBRANCH  15  16
ENDBRANCH  14  15
ENDBRANCH  13  14
ENDBRANCH  12  13
ENDBRANCH  11  12
ENDBRANCH  10  11
ENDBRANCH   9  10
ENDBRANCH   8   9
ENDBRANCH   7   8
ENDBRANCH   6   7
ENDBRANCH   5   6
ENDBRANCH   4   5
ENDBRANCH   3   4
ENDBRANCH   2   3
TORSDOF 15
ENDMDL
MODEL      104
REMARK 921   NORMALIZED FREE ENERGY PREDICTED BY IDOCK:   -3.67 KCAL/MOL
REMARK 922        TOTAL FREE ENERGY PREDICTED BY IDOCK:   -8.59 KCAL/MOL
REMARK 923 INTER-LIGAND FREE ENERGY PREDICTED BY IDOCK:   -7.11 KCAL/MOL
REMARK 924 INTRA-LIGAND FREE ENERGY PREDICTED BY IDOCK:   -1.48 KCAL/MOL
REMARK 927      BINDING AFFINITY PREDICTED BY RF-SCORE:    0.00 PKD
ROOT
HETATM    1  C   UNL     1     -10.532   8.134  71.679  1.00  0.00    -0.288 C  
HETATM    2  C   UNL     1     -12.007   7.791  71.804  1.00  0.00    -0.332 C  
ENDROOT
BRANCH   2   3
HETATM    3  C   UNL     1     -12.789   8.956  72.403  1.00  0.00    -0.446 C  
BRANCH   3   4
HETATM    4  C   UNL     1     -13.366   9.849  71.309  1.00  0.00    -0.419 C  
BRANCH   4   5
HETATM    5  C   UNL     1     -13.077  11.316  71.605  1.00  0.00    -0.513 C  
BRANCH   5   6
HETATM    6  C   UNL     1     -12.184  11.917  70.529  1.00  0.00    -0.426 C  
BRANCH   6   7
HETATM    7  C   UNL     1     -12.139  11.013  69.303  1.00  0.00    -0.363 C  
BRANCH   7   8
HETATM    8  C   UNL     1     -10.703  10.834  68.834  1.00  0.00    -0.259 C  
BRANCH   8   9
HETATM    9  C   UNL     1     -10.645  10.701  67.321  1.00  0.00    -0.313 C  
BRANCH   9  10
HETATM   10  C   UNL     1      -9.764  11.796  66.737  1.00  0.00    -0.213 C  
BRANCH  10  11
HETATM   11  C   UNL     1     -10.524  12.589  65.689  1.00  0.00    -0.299 C  
BRANCH  11  12
HETATM   12  C   UNL     1     -11.853  13.082  66.246  1.00  0.00    -0.466 C  
BRANCH  12  13
HETATM   13  C   UNL     1     -11.707  14.525  66.698  1.00  0.00    -0.384 C  
BRANCH  13  14
HETATM   14  C   UNL     1     -10.634  15.262  65.902  1.00  0.00    -0.345 C  
BRANCH  14  15
HETATM   15  C   UNL     1      -9.799  16.187  66.791  1.00  0.00    -0.255 C  
BRANCH  15  16
HETATM   16  C   UNL     1     -10.629  17.350  67.341  1.00  0.00    -0.308 C  
BRANCH  16  17
HETATM   17  N   UNL     1      -9.925  18.710  67.260  1.00  0.00    -0.315 N  
HETATM   18  C   UNL     1     -10.294  19.451  65.985  1.00  0.00    -0.497 C  
HETATM   19  C   UNL     1      -8.416  18.442  67.250  1.00  0.00    -0.254 C  
HETATM   20  C   UNL     1     -10.245  19.570  68.477  1.00  0.00    -0.416 C  
ENDBRANCH  16  17
ENDBRANCH  15  16
ENDBRANCH  14  15
ENDBRANCH  13  14
ENDBRANCH  12  13
ENDBRANCH  11  12
ENDBRANCH  10  11
ENDBRANCH   9  10
ENDBRANCH   8   9
ENDBRANCH   7   8
ENDBRANCH   6   7
ENDBRANCH   5   6
ENDBRANCH   4   5
ENDBRANCH   3   4
ENDBRANCH   2   3
TORSDOF 15
ENDMDL
MODEL      105
REMARK 921   NORMALIZED FREE ENERGY PREDICTED BY IDOCK:   -3.67 KCAL/MOL
REMARK 922        TOTAL FREE ENERGY PREDICTED BY IDOCK:   -8.59 KCAL/MOL
REMARK 923 INTER-LIGAND FREE ENERGY PREDICTED BY IDOCK:   -6.45 KCAL/MOL
REMARK 924 INTRA-LIGAND FREE ENERGY PREDICTED BY IDOCK:   -2.14 KCAL/MOL
REMARK 927      BINDING AFFINITY PREDICTED BY RF-SCORE:    0.00 PKD
ROOT
HETATM    1  C   UNL     1     -10.425   5.453  67.038  1.00  0.00    -0.319 C  
HETATM    2  C   UNL     1     -11.081   6.422  68.007  1.00  0.00    -0.365 C  
ENDROOT
BRANCH   2   3
HETATM    3  C   UNL     1     -10.795   6.027  69.452  1.00  0.00    -0.433 C  
BRANCH   3   4
HETATM    4  C   UNL     1     -11.826   6.632  70.400  1.00  0.00    -0.407 C  
BRANCH   4   5
HETATM    5  C   UNL     1     -11.250   6.765  71.806  1.00  0.00    -0.294 C  
BRANCH   5   6
HETATM    6  C   UNL     1     -11.708   8.063  72.454  1.00  0.00    -0.444 C  
BRANCH   6   7
HETATM    7  C   UNL     1     -13.148   8.376  72.067  1.00  0.00    -0.379 C  
BRANCH   7   8
HETATM    8  C   UNL     1     -13.298   9.857  71.751  1.00  0.00    -0.501 C  
BRANCH   8   9
HETATM    9  C   UNL     1     -11.992  10.426  71.219  1.00  0.00    -0.425 C  
BRANCH   9  10
HETATM   10  C   UNL     1     -12.109  10.680  69.722  1.00  0.00    -0.343 C  
BRANCH  10  11
HETATM   11  C   UNL     1     -10.974  10.001  68.978  1.00  0.00    -0.249 C  
BRANCH  11  12
HETATM   12  C   UNL     1      -9.767   9.816  69.888  1.00  0.00    -0.273 C  
BRANCH  12  13
HETATM   13  C   UNL     1      -8.534  10.393  69.214  1.00  0.00    -0.162 C  
BRANCH  13  14
HETATM   14  C   UNL     1      -8.871  11.039  67.874  1.00  0.00    -0.134 C  
BRANCH  14  15
HETATM   15  C   UNL     1      -8.816  12.567  67.947  1.00  0.00    -0.185 C  
BRANCH  15  16
HETATM   16  C   UNL     1      -9.413  13.219  66.697  1.00  0.00    -0.260 C  
BRANCH  16  17
HETATM   17  N   UNL     1     -10.769  13.896  66.935  1.00  0.00    -0.283 N  
HETATM   18  C   UNL     1     -10.963  14.250  68.400  1.00  0.00    -0.253 C  
HETATM   19  C   UNL     1     -11.855  12.895  66.526  1.00  0.00    -0.407 C  
HETATM   20  C   UNL     1     -10.923  15.141  66.069  1.00  0.00    -0.332 C  
ENDBRANCH  16  17
ENDBRANCH  15  16
ENDBRANCH  14  15
ENDBRANCH  13  14
ENDBRANCH  12  13
ENDBRANCH  11  12
ENDBRANCH  10  11
ENDBRANCH   9  10
ENDBRANCH   8   9
ENDBRANCH   7   8
ENDBRANCH   6   7
ENDBRANCH   5   6
ENDBRANCH   4   5
ENDBRANCH   3   4
ENDBRANCH   2   3
TORSDOF 15
ENDMDL
MODEL      106
REMARK 921   NORMALIZED FREE ENERGY PREDICTED BY IDOCK:   -3.67 KCAL/MOL
REMARK 922        TOTAL FREE ENERGY PREDICTED BY IDOCK:   -8.58 KCAL/MOL
REMARK 923 INTER-LIGAND FREE ENERGY PREDICTED BY IDOCK:   -6.63 KCAL/MOL
REMARK 924 INTRA-LIGAND FREE ENERGY PREDICTED BY IDOCK:   -1.95 KCAL/MOL
REMARK 927      BINDING AFFINITY PREDICTED BY RF-SCORE:    0.00 PKD
ROOT
HETATM    1  C   UNL     1     -10.495  19.738  66.012  1.00  0.00    -0.609 C  
HETATM    2  C   UNL     1     -10.652  19.140  67.399  1.00  0.00    -0.577 C  
ENDROOT
BRANCH   2   3
HETATM    3  C   UNL     1     -10.507  17.622  67.359  1.00  0.00    -0.356 C  
BRANCH   3   4
HETATM    4  C   UNL     1     -10.263  17.132  65.936  1.00  0.00    -0.290 C  
BRANCH   4   5
HETATM    5  C   UNL     1     -10.783  15.709  65.761  1.00  0.00    -0.350 C  
BRANCH   5   6
HETATM    6  C   UNL     1     -11.238  15.135  67.096  1.00  0.00    -0.320 C  
BRANCH   6   7
HETATM    7  C   UNL     1     -12.108  13.903  66.881  1.00  0.00    -0.467 C  
BRANCH   7   8
HETATM    8  C   UNL     1     -12.603  13.852  65.444  1.00  0.00    -0.538 C  
BRANCH   8   9
HETATM    9  C   UNL     1     -12.335  12.486  64.832  1.00  0.00    -0.539 C  
BRANCH   9  10
HETATM   10  C   UNL     1     -11.378  12.623  63.657  1.00  0.00    -0.544 C  
BRANCH  10  11
HETATM   11  C   UNL     1     -10.089  11.871  63.931  1.00  0.00    -0.396 C  
BRANCH  11  12
HETATM   12  C   UNL     1     -10.164  11.141  65.266  1.00  0.00    -0.337 C  
BRANCH  12  13
HETATM   13  C   UNL     1      -8.760  10.938  65.809  1.00  0.00    -0.196 C  
BRANCH  13  14
HETATM   14  C   UNL     1      -8.641  11.398  67.258  1.00  0.00    -0.146 C  
BRANCH  14  15
HETATM   15  C   UNL     1      -8.458  12.914  67.362  1.00  0.00    -0.196 C  
BRANCH  15  16
HETATM   16  C   UNL     1      -7.399  13.290  68.402  1.00  0.00    -0.112 C  
BRANCH  16  17
HETATM   17  N   UNL     1      -7.211  14.802  68.582  1.00  0.00    -0.112 N  
HETATM   18  C   UNL     1      -7.070  15.506  67.242  1.00  0.00    -0.190 C  
HETATM   19  C   UNL     1      -5.920  15.009  69.382  1.00  0.00    -0.106 C  
HETATM   20  C   UNL     1      -8.363  15.409  69.375  1.00  0.00    -0.250 C  
ENDBRANCH  16  17
ENDBRANCH  15  16
ENDBRANCH  14  15
ENDBRANCH  13  14
ENDBRANCH  12  13
ENDBRANCH  11  12
ENDBRANCH  10  11
ENDBRANCH   9  10
ENDBRANCH   8   9
ENDBRANCH   7   8
ENDBRANCH   6   7
ENDBRANCH   5   6
ENDBRANCH   4   5
ENDBRANCH   3   4
ENDBRANCH   2   3
TORSDOF 15
ENDMDL
MODEL      107
REMARK 921   NORMALIZED FREE ENERGY PREDICTED BY IDOCK:   -3.67 KCAL/MOL
REMARK 922        TOTAL FREE ENERGY PREDICTED BY IDOCK:   -8.58 KCAL/MOL
REMARK 923 INTER-LIGAND FREE ENERGY PREDICTED BY IDOCK:   -6.95 KCAL/MOL
REMARK 924 INTRA-LIGAND FREE ENERGY PREDICTED BY IDOCK:   -1.62 KCAL/MOL
REMARK 927      BINDING AFFINITY PREDICTED BY RF-SCORE:    0.00 PKD
ROOT
HETATM    1  C   UNL     1     -13.825  15.026  72.219  1.00  0.00    -0.596 C  
HETATM    2  C   UNL     1     -13.929  13.519  72.380  1.00  0.00    -0.638 C  
ENDROOT
BRANCH   2   3
HETATM    3  C   UNL     1     -12.933  12.802  71.475  1.00  0.00    -0.388 C  
BRANCH   3   4
HETATM    4  C   UNL     1     -13.027  11.290  71.645  1.00  0.00    -0.537 C  
BRANCH   4   5
HETATM    5  C   UNL     1     -12.457  10.575  70.425  1.00  0.00    -0.392 C  
BRANCH   5   6
HETATM    6  C   UNL     1     -11.253   9.728  70.811  1.00  0.00    -0.419 C  
BRANCH   6   7
HETATM    7  C   UNL     1     -10.341   9.512  69.610  1.00  0.00    -0.236 C  
BRANCH   7   8
HETATM    8  C   UNL     1     -10.858  10.292  68.410  1.00  0.00    -0.288 C  
BRANCH   8   9
HETATM    9  C   UNL     1      -9.764  11.175  67.832  1.00  0.00    -0.184 C  
BRANCH   9  10
HETATM   10  C   UNL     1     -10.053  12.635  68.150  1.00  0.00    -0.231 C  
BRANCH  10  11
HETATM   11  C   UNL     1     -11.358  13.070  67.509  1.00  0.00    -0.346 C  
BRANCH  11  12
HETATM   12  C   UNL     1     -12.027  14.162  68.334  1.00  0.00    -0.366 C  
BRANCH  12  13
HETATM   13  C   UNL     1     -11.384  15.501  68.016  1.00  0.00    -0.332 C  
BRANCH  13  14
HETATM   14  C   UNL     1     -10.610  16.056  69.208  1.00  0.00    -0.265 C  
BRANCH  14  15
HETATM   15  C   UNL     1      -9.144  16.326  68.860  1.00  0.00    -0.250 C  
BRANCH  15  16
HETATM   16  C   UNL     1      -8.982  16.819  67.420  1.00  0.00    -0.204 C  
BRANCH  16  17
HETATM   17  N   UNL     1      -9.008  18.346  67.277  1.00  0.00    -0.260 N  
HETATM   18  C   UNL     1     -10.375  18.838  66.830  1.00  0.00    -0.404 C  
HETATM   19  C   UNL     1      -7.978  18.721  66.206  1.00  0.00    -0.264 C  
HETATM   20  C   UNL     1      -8.605  19.028  68.580  1.00  0.00    -0.354 C  
ENDBRANCH  16  17
ENDBRANCH  15  16
ENDBRANCH  14  15
ENDBRANCH  13  14
ENDBRANCH  12  13
ENDBRANCH  11  12
ENDBRANCH  10  11
ENDBRANCH   9  10
ENDBRANCH   8   9
ENDBRANCH   7   8
ENDBRANCH   6   7
ENDBRANCH   5   6
ENDBRANCH   4   5
ENDBRANCH   3   4
ENDBRANCH   2   3
TORSDOF 15
ENDMDL
MODEL      108
REMARK 921   NORMALIZED FREE ENERGY PREDICTED BY IDOCK:   -3.67 KCAL/MOL
REMARK 922        TOTAL FREE ENERGY PREDICTED BY IDOCK:   -8.58 KCAL/MOL
REMARK 923 INTER-LIGAND FREE ENERGY PREDICTED BY IDOCK:   -6.96 KCAL/MOL
REMARK 924 INTRA-LIGAND FREE ENERGY PREDICTED BY IDOCK:   -1.62 KCAL/MOL
REMARK 927      BINDING AFFINITY PREDICTED BY RF-SCORE:    0.00 PKD
ROOT
HETATM    1  C   UNL     1     -12.656  14.015  65.584  1.00  0.00    -0.542 C  
HETATM    2  C   UNL     1     -12.202  14.187  64.145  1.00  0.00    -0.423 C  
ENDROOT
BRANCH   2   3
HETATM    3  C   UNL     1     -11.894  12.838  63.504  1.00  0.00    -0.618 C  
BRANCH   3   4
HETATM    4  C   UNL     1     -10.490  12.366  63.869  1.00  0.00    -0.469 C  
BRANCH   4   5
HETATM    5  C   UNL     1     -10.530  10.950  64.433  1.00  0.00    -0.403 C  
BRANCH   5   6
HETATM    6  C   UNL     1     -10.506  10.976  65.955  1.00  0.00    -0.300 C  
BRANCH   6   7
HETATM    7  C   UNL     1      -9.484  11.989  66.458  1.00  0.00    -0.234 C  
BRANCH   7   8
HETATM    8  C   UNL     1      -9.925  12.560  67.797  1.00  0.00    -0.210 C  
BRANCH   8   9
HETATM    9  C   UNL     1     -11.204  11.889  68.271  1.00  0.00    -0.317 C  
BRANCH   9  10
HETATM   10  C   UNL     1     -12.014  12.858  69.121  1.00  0.00    -0.308 C  
BRANCH  10  11
HETATM   11  C   UNL     1     -12.372  12.226  70.453  1.00  0.00    -0.309 C  
BRANCH  11  12
HETATM   12  C   UNL     1     -12.096  10.728  70.430  1.00  0.00    -0.443 C  
BRANCH  12  13
HETATM   13  C   UNL     1     -13.143  10.009  71.262  1.00  0.00    -0.493 C  
BRANCH  13  14
HETATM   14  C   UNL     1     -12.527   8.914  72.128  1.00  0.00    -0.459 C  
BRANCH  14  15
HETATM   15  C   UNL     1     -12.461   7.574  71.392  1.00  0.00    -0.382 C  
BRANCH  15  16
HETATM   16  C   UNL     1     -11.094   6.903  71.551  1.00  0.00    -0.244 C  
BRANCH  16  17
HETATM   17  N   UNL     1     -10.327   6.733  70.234  1.00  0.00    -0.195 N  
HETATM   18  C   UNL     1      -9.308   5.609  70.326  1.00  0.00    -0.152 C  
HETATM   19  C   UNL     1      -9.583   8.046  69.966  1.00  0.00    -0.171 C  
HETATM   20  C   UNL     1     -11.279   6.483  69.069  1.00  0.00    -0.284 C  
ENDBRANCH  16  17
ENDBRANCH  15  16
ENDBRANCH  14  15
ENDBRANCH  13  14
ENDBRANCH  12  13
ENDBRANCH  11  12
ENDBRANCH  10  11
ENDBRANCH   9  10
ENDBRANCH   8   9
ENDBRANCH   7   8
ENDBRANCH   6   7
ENDBRANCH   5   6
ENDBRANCH   4   5
ENDBRANCH   3   4
ENDBRANCH   2   3
TORSDOF 15
ENDMDL
MODEL      109
REMARK 921   NORMALIZED FREE ENERGY PREDICTED BY IDOCK:   -3.66 KCAL/MOL
REMARK 922        TOTAL FREE ENERGY PREDICTED BY IDOCK:   -8.57 KCAL/MOL
REMARK 923 INTER-LIGAND FREE ENERGY PREDICTED BY IDOCK:   -7.14 KCAL/MOL
REMARK 924 INTRA-LIGAND FREE ENERGY PREDICTED BY IDOCK:   -1.42 KCAL/MOL
REMARK 927      BINDING AFFINITY PREDICTED BY RF-SCORE:    0.00 PKD
ROOT
HETATM    1  C   UNL     1     -11.145   6.439  68.935  1.00  0.00    -0.420 C  
HETATM    2  C   UNL     1     -10.789   6.180  67.481  1.00  0.00    -0.422 C  
ENDROOT
BRANCH   2   3
HETATM    3  C   UNL     1     -10.182   7.423  66.838  1.00  0.00    -0.346 C  
BRANCH   3   4
HETATM    4  C   UNL     1     -10.760   8.694  67.449  1.00  0.00    -0.212 C  
BRANCH   4   5
HETATM    5  C   UNL     1     -10.262   9.926  66.700  1.00  0.00    -0.293 C  
BRANCH   5   6
HETATM    6  C   UNL     1      -9.309   9.526  65.582  1.00  0.00    -0.302 C  
BRANCH   6   7
HETATM    7  C   UNL     1      -9.624  10.298  64.307  1.00  0.00    -0.375 C  
BRANCH   7   8
HETATM    8  C   UNL     1     -10.904  11.101  64.481  1.00  0.00    -0.320 C  
BRANCH   8   9
HETATM    9  C   UNL     1     -10.906  12.313  63.563  1.00  0.00    -0.508 C  
BRANCH   9  10
HETATM   10  C   UNL     1     -11.956  13.313  64.026  1.00  0.00    -0.525 C  
BRANCH  10  11
HETATM   11  C   UNL     1     -12.478  12.937  65.401  1.00  0.00    -0.511 C  
BRANCH  11  12
HETATM   12  C   UNL     1     -12.030  13.953  66.444  1.00  0.00    -0.467 C  
BRANCH  12  13
HETATM   13  C   UNL     1     -10.712  13.504  67.051  1.00  0.00    -0.278 C  
BRANCH  13  14
HETATM   14  C   UNL     1      -9.932  14.675  67.642  1.00  0.00    -0.227 C  
BRANCH  14  15
HETATM   15  C   UNL     1     -10.216  15.982  66.899  1.00  0.00    -0.280 C  
BRANCH  15  16
HETATM   16  C   UNL     1     -10.245  17.183  67.848  1.00  0.00    -0.330 C  
BRANCH  16  17
HETATM   17  N   UNL     1      -9.800  18.500  67.201  1.00  0.00    -0.307 N  
HETATM   18  C   UNL     1     -10.067  19.685  68.114  1.00  0.00    -0.441 C  
HETATM   19  C   UNL     1     -10.619  18.677  65.918  1.00  0.00    -0.321 C  
HETATM   20  C   UNL     1      -8.324  18.455  66.819  1.00  0.00    -0.259 C  
ENDBRANCH  16  17
ENDBRANCH  15  16
ENDBRANCH  14  15
ENDBRANCH  13  14
ENDBRANCH  12  13
ENDBRANCH  11  12
ENDBRANCH  10  11
ENDBRANCH   9  10
ENDBRANCH   8   9
ENDBRANCH   7   8
ENDBRANCH   6   7
ENDBRANCH   5   6
ENDBRANCH   4   5
ENDBRANCH   3   4
ENDBRANCH   2   3
TORSDOF 15
ENDMDL
MODEL      110
REMARK 921   NORMALIZED FREE ENERGY PREDICTED BY IDOCK:   -3.66 KCAL/MOL
REMARK 922        TOTAL FREE ENERGY PREDICTED BY IDOCK:   -8.57 KCAL/MOL
REMARK 923 INTER-LIGAND FREE ENERGY PREDICTED BY IDOCK:   -6.42 KCAL/MOL
REMARK 924 INTRA-LIGAND FREE ENERGY PREDICTED BY IDOCK:   -2.15 KCAL/MOL
REMARK 927      BINDING AFFINITY PREDICTED BY RF-SCORE:    0.00 PKD
ROOT
HETATM    1  C   UNL     1     -12.257  13.038  66.041  1.00  0.00    -0.463 C  
HETATM    2  C   UNL     1     -12.440  13.730  64.701  1.00  0.00    -0.356 C  
ENDROOT
BRANCH   2   3
HETATM    3  C   UNL     1     -11.892  12.873  63.565  1.00  0.00    -0.605 C  
BRANCH   3   4
HETATM    4  C   UNL     1     -10.414  12.562  63.776  1.00  0.00    -0.451 C  
BRANCH   4   5
HETATM    5  C   UNL     1     -10.093  11.142  63.323  1.00  0.00    -0.426 C  
BRANCH   5   6
HETATM    6  C   UNL     1      -9.770  10.256  64.518  1.00  0.00    -0.395 C  
BRANCH   6   7
HETATM    7  C   UNL     1      -9.023  11.047  65.585  1.00  0.00    -0.212 C  
BRANCH   7   8
HETATM    8  C   UNL     1      -9.533  10.673  66.969  1.00  0.00    -0.187 C  
BRANCH   8   9
HETATM    9  C   UNL     1      -9.189  11.756  67.978  1.00  0.00    -0.181 C  
BRANCH   9  10
HETATM   10  C   UNL     1      -7.882  12.432  67.590  1.00  0.00    -0.163 C  
BRANCH  10  11
HETATM   11  C   UNL     1      -7.962  13.927  67.835  1.00  0.00    -0.160 C  
BRANCH  11  12
HETATM   12  C   UNL     1      -9.337  14.463  67.455  1.00  0.00    -0.199 C  
BRANCH  12  13
HETATM   13  C   UNL     1      -9.185  15.525  66.380  1.00  0.00    -0.339 C  
BRANCH  13  14
HETATM   14  C   UNL     1     -10.465  16.334  66.197  1.00  0.00    -0.330 C  
BRANCH  14  15
HETATM   15  C   UNL     1     -10.237  17.826  66.447  1.00  0.00    -0.365 C  
BRANCH  15  16
HETATM   16  C   UNL     1      -8.747  18.176  66.489  1.00  0.00    -0.268 C  
BRANCH  16  17
HETATM   17  N   UNL     1      -8.332  18.986  67.723  1.00  0.00    -0.283 N  
HETATM   18  C   UNL     1      -7.290  18.249  68.547  1.00  0.00    -0.286 C  
HETATM   19  C   UNL     1      -9.586  19.181  68.583  1.00  0.00    -0.413 C  
HETATM   20  C   UNL     1      -7.811  20.364  67.328  1.00  0.00    -0.334 C  
ENDBRANCH  16  17
ENDBRANCH  15  16
ENDBRANCH  14  15
ENDBRANCH  13  14
ENDBRANCH  12  13
ENDBRANCH  11  12
ENDBRANCH  10  11
ENDBRANCH   9  10
ENDBRANCH   8   9
ENDBRANCH   7   8
ENDBRANCH   6   7
ENDBRANCH   5   6
ENDBRANCH   4   5
ENDBRANCH   3   4
ENDBRANCH   2   3
TORSDOF 15
ENDMDL
MODEL      111
REMARK 921   NORMALIZED FREE ENERGY PREDICTED BY IDOCK:   -3.66 KCAL/MOL
REMARK 922        TOTAL FREE ENERGY PREDICTED BY IDOCK:   -8.57 KCAL/MOL
REMARK 923 INTER-LIGAND FREE ENERGY PREDICTED BY IDOCK:   -7.47 KCAL/MOL
REMARK 924 INTRA-LIGAND FREE ENERGY PREDICTED BY IDOCK:   -1.10 KCAL/MOL
REMARK 927      BINDING AFFINITY PREDICTED BY RF-SCORE:    0.00 PKD
ROOT
HETATM    1  C   UNL     1     -10.411   6.130  73.903  1.00  0.00    -0.287 C  
HETATM    2  C   UNL     1     -11.044   5.379  72.744  1.00  0.00    -0.349 C  
ENDROOT
BRANCH   2   3
HETATM    3  C   UNL     1     -12.083   6.243  72.037  1.00  0.00    -0.321 C  
BRANCH   3   4
HETATM    4  C   UNL     1     -11.754   6.394  70.555  1.00  0.00    -0.385 C  
BRANCH   4   5
HETATM    5  C   UNL     1     -10.517   7.265  70.366  1.00  0.00    -0.232 C  
BRANCH   5   6
HETATM    6  C   UNL     1     -10.908   8.726  70.195  1.00  0.00    -0.241 C  
BRANCH   6   7
HETATM    7  C   UNL     1     -10.989   9.421  71.548  1.00  0.00    -0.429 C  
BRANCH   7   8
HETATM    8  C   UNL     1     -12.430   9.795  71.861  1.00  0.00    -0.451 C  
BRANCH   8   9
HETATM    9  C   UNL     1     -13.019  10.644  70.747  1.00  0.00    -0.396 C  
BRANCH   9  10
HETATM   10  C   UNL     1     -12.702  12.112  70.989  1.00  0.00    -0.322 C  
BRANCH  10  11
HETATM   11  C   UNL     1     -13.455  12.626  72.202  1.00  0.00    -0.561 C  
BRANCH  11  12
HETATM   12  C   UNL     1     -13.911  14.063  71.985  1.00  0.00    -0.598 C  
BRANCH  12  13
HETATM   13  C   UNL     1     -13.176  14.977  72.949  1.00  0.00    -0.585 C  
BRANCH  13  14
HETATM   14  C   UNL     1     -12.170  15.869  72.229  1.00  0.00    -0.585 C  
BRANCH  14  15
HETATM   15  C   UNL     1     -12.257  15.716  70.709  1.00  0.00    -0.463 C  
BRANCH  15  16
HETATM   16  C   UNL     1     -10.980  15.108  70.124  1.00  0.00    -0.253 C  
BRANCH  16  17
HETATM   17  N   UNL     1     -10.528  15.754  68.808  1.00  0.00    -0.220 N  
HETATM   18  C   UNL     1     -11.310  15.208  67.624  1.00  0.00    -0.321 C  
HETATM   19  C   UNL     1      -9.047  15.410  68.616  1.00  0.00    -0.195 C  
HETATM   20  C   UNL     1     -10.658  17.272  68.867  1.00  0.00    -0.276 C  
ENDBRANCH  16  17
ENDBRANCH  15  16
ENDBRANCH  14  15
ENDBRANCH  13  14
ENDBRANCH  12  13
ENDBRANCH  11  12
ENDBRANCH  10  11
ENDBRANCH   9  10
ENDBRANCH   8   9
ENDBRANCH   7   8
ENDBRANCH   6   7
ENDBRANCH   5   6
ENDBRANCH   4   5
ENDBRANCH   3   4
ENDBRANCH   2   3
TORSDOF 15
ENDMDL
MODEL      112
REMARK 921   NORMALIZED FREE ENERGY PREDICTED BY IDOCK:   -3.66 KCAL/MOL
REMARK 922        TOTAL FREE ENERGY PREDICTED BY IDOCK:   -8.56 KCAL/MOL
REMARK 923 INTER-LIGAND FREE ENERGY PREDICTED BY IDOCK:   -6.86 KCAL/MOL
REMARK 924 INTRA-LIGAND FREE ENERGY PREDICTED BY IDOCK:   -1.70 KCAL/MOL
REMARK 927      BINDING AFFINITY PREDICTED BY RF-SCORE:    0.00 PKD
ROOT
HETATM    1  C   UNL     1     -12.972  15.247  70.883  1.00  0.00    -0.522 C  
HETATM    2  C   UNL     1     -11.618  15.459  70.228  1.00  0.00    -0.346 C  
ENDROOT
BRANCH   2   3
HETATM    3  C   UNL     1     -11.775  15.853  68.764  1.00  0.00    -0.355 C  
BRANCH   3   4
HETATM    4  C   UNL     1     -10.549  16.610  68.265  1.00  0.00    -0.338 C  
BRANCH   4   5
HETATM    5  C   UNL     1      -9.828  15.812  67.184  1.00  0.00    -0.227 C  
BRANCH   5   6
HETATM    6  C   UNL     1     -10.495  16.015  65.831  1.00  0.00    -0.373 C  
BRANCH   6   7
HETATM    7  C   UNL     1     -10.422  14.740  65.000  1.00  0.00    -0.443 C  
BRANCH   7   8
HETATM    8  C   UNL     1     -11.810  14.347  64.517  1.00  0.00    -0.463 C  
BRANCH   8   9
HETATM    9  C   UNL     1     -12.586  13.653  65.624  1.00  0.00    -0.531 C  
BRANCH   9  10
HETATM   10  C   UNL     1     -11.728  12.568  66.259  1.00  0.00    -0.462 C  
BRANCH  10  11
HETATM   11  C   UNL     1     -11.780  12.666  67.773  1.00  0.00    -0.412 C  
BRANCH  11  12
HETATM   12  C   UNL     1     -10.498  12.126  68.392  1.00  0.00    -0.242 C  
BRANCH  12  13
HETATM   13  C   UNL     1     -10.298  10.683  67.961  1.00  0.00    -0.208 C  
BRANCH  13  14
HETATM   14  C   UNL     1      -9.344   9.941  68.892  1.00  0.00    -0.170 C  
BRANCH  14  15
HETATM   15  C   UNL     1      -9.908   9.821  70.310  1.00  0.00    -0.296 C  
BRANCH  15  16
HETATM   16  C   UNL     1     -11.209   9.013  70.340  1.00  0.00    -0.241 C  
BRANCH  16  17
HETATM   17  N   UNL     1     -11.316   8.049  71.528  1.00  0.00    -0.252 N  
HETATM   18  C   UNL     1     -11.429   6.606  71.064  1.00  0.00    -0.330 C  
HETATM   19  C   UNL     1     -12.589   8.416  72.298  1.00  0.00    -0.349 C  
HETATM   20  C   UNL     1     -10.129   8.205  72.473  1.00  0.00    -0.300 C  
ENDBRANCH  16  17
ENDBRANCH  15  16
ENDBRANCH  14  15
ENDBRANCH  13  14
ENDBRANCH  12  13
ENDBRANCH  11  12
ENDBRANCH  10  11
ENDBRANCH   9  10
ENDBRANCH   8   9
ENDBRANCH   7   8
ENDBRANCH   6   7
ENDBRANCH   5   6
ENDBRANCH   4   5
ENDBRANCH   3   4
ENDBRANCH   2   3
TORSDOF 15
ENDMDL
MODEL      113
REMARK 921   NORMALIZED FREE ENERGY PREDICTED BY IDOCK:   -3.65 KCAL/MOL
REMARK 922        TOTAL FREE ENERGY PREDICTED BY IDOCK:   -8.55 KCAL/MOL
REMARK 923 INTER-LIGAND FREE ENERGY PREDICTED BY IDOCK:   -7.32 KCAL/MOL
REMARK 924 INTRA-LIGAND FREE ENERGY PREDICTED BY IDOCK:   -1.23 KCAL/MOL
REMARK 927      BINDING AFFINITY PREDICTED BY RF-SCORE:    0.00 PKD
ROOT
HETATM    1  C   UNL     1     -14.406  15.178  71.948  1.00  0.00    -0.693 C  
HETATM    2  C   UNL     1     -14.021  13.756  72.318  1.00  0.00    -0.672 C  
ENDROOT
BRANCH   2   3
HETATM    3  C   UNL     1     -12.635  13.409  71.787  1.00  0.00    -0.235 C  
BRANCH   3   4
HETATM    4  C   UNL     1     -12.601  11.991  71.226  1.00  0.00    -0.357 C  
BRANCH   4   5
HETATM    5  C   UNL     1     -12.002  11.982  69.824  1.00  0.00    -0.370 C  
BRANCH   5   6
HETATM    6  C   UNL     1     -11.925  13.395  69.262  1.00  0.00    -0.367 C  
BRANCH   6   7
HETATM    7  C   UNL     1     -10.853  13.487  68.184  1.00  0.00    -0.271 C  
BRANCH   7   8
HETATM    8  C   UNL     1     -11.370  12.904  66.877  1.00  0.00    -0.358 C  
BRANCH   8   9
HETATM    9  C   UNL     1     -11.636  14.007  65.866  1.00  0.00    -0.350 C  
BRANCH   9  10
HETATM   10  C   UNL     1     -10.385  14.266  65.039  1.00  0.00    -0.448 C  
BRANCH  10  11
HETATM   11  C   UNL     1      -9.722  15.562  65.467  1.00  0.00    -0.307 C  
BRANCH  11  12
HETATM   12  C   UNL     1     -10.769  16.602  65.848  1.00  0.00    -0.179 C  
BRANCH  12  13
HETATM   13  C   UNL     1     -10.461  17.143  67.233  1.00  0.00    -0.313 C  
BRANCH  13  14
HETATM   14  C   UNL     1     -10.750  18.638  67.334  1.00  0.00    -0.456 C  
BRANCH  14  15
HETATM   15  C   UNL     1      -9.767  19.347  68.269  1.00  0.00    -0.480 C  
BRANCH  15  16
HETATM   16  C   UNL     1      -8.941  20.404  67.531  1.00  0.00    -0.305 C  
BRANCH  16  17
HETATM   17  N   UNL     1      -7.501  19.970  67.230  1.00  0.00    -0.264 N  
HETATM   18  C   UNL     1      -7.357  19.480  65.798  1.00  0.00    -0.279 C  
HETATM   19  C   UNL     1      -7.166  18.814  68.179  1.00  0.00    -0.252 C  
HETATM   20  C   UNL     1      -6.517  21.103  67.497  1.00  0.00    -0.362 C  
ENDBRANCH  16  17
ENDBRANCH  15  16
ENDBRANCH  14  15
ENDBRANCH  13  14
ENDBRANCH  12  13
ENDBRANCH  11  12
ENDBRANCH  10  11
ENDBRANCH   9  10
ENDBRANCH   8   9
ENDBRANCH   7   8
ENDBRANCH   6   7
ENDBRANCH   5   6
ENDBRANCH   4   5
ENDBRANCH   3   4
ENDBRANCH   2   3
TORSDOF 15
ENDMDL
MODEL      114
REMARK 921   NORMALIZED FREE ENERGY PREDICTED BY IDOCK:   -3.65 KCAL/MOL
REMARK 922        TOTAL FREE ENERGY PREDICTED BY IDOCK:   -8.54 KCAL/MOL
REMARK 923 INTER-LIGAND FREE ENERGY PREDICTED BY IDOCK:   -6.86 KCAL/MOL
REMARK 924 INTRA-LIGAND FREE ENERGY PREDICTED BY IDOCK:   -1.68 KCAL/MOL
REMARK 927      BINDING AFFINITY PREDICTED BY RF-SCORE:    0.00 PKD
ROOT
HETATM    1  C   UNL     1     -12.501  12.089  63.499  1.00  0.00    -0.654 C  
HETATM    2  C   UNL     1     -11.108  11.549  63.774  1.00  0.00    -0.471 C  
ENDROOT
BRANCH   2   3
HETATM    3  C   UNL     1     -10.620  11.975  65.155  1.00  0.00    -0.330 C  
BRANCH   3   4
HETATM    4  C   UNL     1     -11.748  12.607  65.964  1.00  0.00    -0.470 C  
BRANCH   4   5
HETATM    5  C   UNL     1     -11.673  12.170  67.423  1.00  0.00    -0.374 C  
BRANCH   5   6
HETATM    6  C   UNL     1     -10.765  10.959  67.576  1.00  0.00    -0.299 C  
BRANCH   6   7
HETATM    7  C   UNL     1     -11.098  10.195  68.851  1.00  0.00    -0.251 C  
BRANCH   7   8
HETATM    8  C   UNL     1     -12.006  11.030  69.742  1.00  0.00    -0.428 C  
BRANCH   8   9
HETATM    9  C   UNL     1     -12.335  10.282  71.024  1.00  0.00    -0.483 C  
BRANCH   9  10
HETATM   10  C   UNL     1     -11.144   9.436  71.451  1.00  0.00    -0.450 C  
BRANCH  10  11
HETATM   11  C   UNL     1     -11.605   8.249  72.277  1.00  0.00    -0.449 C  
BRANCH  11  12
HETATM   12  C   UNL     1     -12.613   7.411  71.501  1.00  0.00    -0.401 C  
BRANCH  12  13
HETATM   13  C   UNL     1     -11.889   6.621  70.424  1.00  0.00    -0.407 C  
BRANCH  13  14
HETATM   14  C   UNL     1     -10.771   5.761  71.006  1.00  0.00    -0.326 C  
BRANCH  14  15
HETATM   15  C   UNL     1      -9.565   5.682  70.068  1.00  0.00    -0.214 C  
BRANCH  15  16
HETATM   16  C   UNL     1      -9.423   6.946  69.215  1.00  0.00    -0.147 C  
BRANCH  16  17
HETATM   17  N   UNL     1      -9.362   6.677  67.707  1.00  0.00    -0.120 N  
HETATM   18  C   UNL     1     -10.662   7.063  67.021  1.00  0.00    -0.353 C  
HETATM   19  C   UNL     1      -9.141   5.171  67.521  1.00  0.00    -0.114 C  
HETATM   20  C   UNL     1      -8.191   7.410  67.062  1.00  0.00    -0.121 C  
ENDBRANCH  16  17
ENDBRANCH  15  16
ENDBRANCH  14  15
ENDBRANCH  13  14
ENDBRANCH  12  13
ENDBRANCH  11  12
ENDBRANCH  10  11
ENDBRANCH   9  10
ENDBRANCH   8   9
ENDBRANCH   7   8
ENDBRANCH   6   7
ENDBRANCH   5   6
ENDBRANCH   4   5
ENDBRANCH   3   4
ENDBRANCH   2   3
TORSDOF 15
ENDMDL
MODEL      115
REMARK 921   NORMALIZED FREE ENERGY PREDICTED BY IDOCK:   -3.64 KCAL/MOL
REMARK 922        TOTAL FREE ENERGY PREDICTED BY IDOCK:   -8.53 KCAL/MOL
REMARK 923 INTER-LIGAND FREE ENERGY PREDICTED BY IDOCK:   -6.40 KCAL/MOL
REMARK 924 INTRA-LIGAND FREE ENERGY PREDICTED BY IDOCK:   -2.12 KCAL/MOL
REMARK 927      BINDING AFFINITY PREDICTED BY RF-SCORE:    0.00 PKD
ROOT
HETATM    1  C   UNL     1     -12.965  11.638  71.621  1.00  0.00    -0.483 C  
HETATM    2  C   UNL     1     -13.035  10.227  71.061  1.00  0.00    -0.488 C  
ENDROOT
BRANCH   2   3
HETATM    3  C   UNL     1     -13.185   9.202  72.180  1.00  0.00    -0.524 C  
BRANCH   3   4
HETATM    4  C   UNL     1     -11.922   8.359  72.323  1.00  0.00    -0.455 C  
BRANCH   4   5
HETATM    5  C   UNL     1     -12.162   6.941  71.816  1.00  0.00    -0.396 C  
BRANCH   5   6
HETATM    6  C   UNL     1     -10.913   6.089  71.994  1.00  0.00    -0.313 C  
BRANCH   6   7
HETATM    7  C   UNL     1     -10.567   5.368  70.696  1.00  0.00    -0.302 C  
BRANCH   7   8
HETATM    8  C   UNL     1      -9.100   5.580  70.353  1.00  0.00    -0.164 C  
BRANCH   8   9
HETATM    9  C   UNL     1      -8.800   7.060  70.173  1.00  0.00    -0.145 C  
BRANCH   9  10
HETATM   10  C   UNL     1      -9.357   7.545  68.842  1.00  0.00    -0.142 C  
BRANCH  10  11
HETATM   11  C   UNL     1     -10.359   8.664  69.062  1.00  0.00    -0.226 C  
BRANCH  11  12
HETATM   12  C   UNL     1      -9.690   9.865  69.718  1.00  0.00    -0.266 C  
BRANCH  12  13
HETATM   13  C   UNL     1      -9.800  11.068  68.799  1.00  0.00    -0.206 C  
BRANCH  13  14
HETATM   14  C   UNL     1     -11.051  11.005  67.929  1.00  0.00    -0.347 C  
BRANCH  14  15
HETATM   15  C   UNL     1     -11.771  12.355  67.866  1.00  0.00    -0.421 C  
BRANCH  15  16
HETATM   16  C   UNL     1     -10.873  13.502  68.338  1.00  0.00    -0.267 C  
BRANCH  16  17
HETATM   17  N   UNL     1     -10.729  14.640  67.320  1.00  0.00    -0.285 N  
HETATM   18  C   UNL     1     -11.656  14.442  66.131  1.00  0.00    -0.369 C  
HETATM   19  C   UNL     1      -9.281  14.622  66.819  1.00  0.00    -0.264 C  
HETATM   20  C   UNL     1     -10.990  15.995  67.968  1.00  0.00    -0.341 C  
ENDBRANCH  16  17
ENDBRANCH  15  16
ENDBRANCH  14  15
ENDBRANCH  13  14
ENDBRANCH  12  13
ENDBRANCH  11  12
ENDBRANCH  10  11
ENDBRANCH   9  10
ENDBRANCH   8   9
ENDBRANCH   7   8
ENDBRANCH   6   7
ENDBRANCH   5   6
ENDBRANCH   4   5
ENDBRANCH   3   4
ENDBRANCH   2   3
TORSDOF 15
ENDMDL
MODEL      116
REMARK 921   NORMALIZED FREE ENERGY PREDICTED BY IDOCK:   -3.63 KCAL/MOL
REMARK 922        TOTAL FREE ENERGY PREDICTED BY IDOCK:   -8.51 KCAL/MOL
REMARK 923 INTER-LIGAND FREE ENERGY PREDICTED BY IDOCK:   -6.49 KCAL/MOL
REMARK 924 INTRA-LIGAND FREE ENERGY PREDICTED BY IDOCK:   -2.02 KCAL/MOL
REMARK 927      BINDING AFFINITY PREDICTED BY RF-SCORE:    0.00 PKD
ROOT
HETATM    1  C   UNL     1     -11.107   5.911  69.708  1.00  0.00    -0.422 C  
HETATM    2  C   UNL     1     -10.762   5.615  71.157  1.00  0.00    -0.310 C  
ENDROOT
BRANCH   2   3
HETATM    3  C   UNL     1     -11.747   6.292  72.103  1.00  0.00    -0.368 C  
BRANCH   3   4
HETATM    4  C   UNL     1     -12.702   7.204  71.339  1.00  0.00    -0.433 C  
BRANCH   4   5
HETATM    5  C   UNL     1     -12.756   8.586  71.982  1.00  0.00    -0.421 C  
BRANCH   5   6
HETATM    6  C   UNL     1     -11.455   9.340  71.745  1.00  0.00    -0.448 C  
BRANCH   6   7
HETATM    7  C   UNL     1     -11.435   9.947  70.347  1.00  0.00    -0.372 C  
BRANCH   7   8
HETATM    8  C   UNL     1     -10.007  10.024  69.828  1.00  0.00    -0.276 C  
BRANCH   8   9
HETATM    9  C   UNL     1      -9.123   9.009  70.536  1.00  0.00    -0.259 C  
BRANCH   9  10
HETATM   10  C   UNL     1      -8.287   8.248  69.517  1.00  0.00    -0.121 C  
BRANCH  10  11
HETATM   11  C   UNL     1      -8.240   9.001  68.200  1.00  0.00    -0.113 C  
BRANCH  11  12
HETATM   12  C   UNL     1      -8.400   8.045  67.026  1.00  0.00    -0.116 C  
BRANCH  12  13
HETATM   13  C   UNL     1      -9.117   8.755  65.891  1.00  0.00    -0.271 C  
BRANCH  13  14
HETATM   14  C   UNL     1     -10.085   9.814  66.406  1.00  0.00    -0.313 C  
BRANCH  14  15
HETATM   15  C   UNL     1      -9.982  11.117  65.610  1.00  0.00    -0.297 C  
BRANCH  15  16
HETATM   16  C   UNL     1     -10.950  12.182  66.132  1.00  0.00    -0.298 C  
BRANCH  16  17
HETATM   17  N   UNL     1     -11.353  13.225  65.082  1.00  0.00    -0.293 N  
HETATM   18  C   UNL     1     -12.729  13.803  65.374  1.00  0.00    -0.472 C  
HETATM   19  C   UNL     1     -11.400  12.512  63.726  1.00  0.00    -0.466 C  
HETATM   20  C   UNL     1     -10.322  14.345  64.994  1.00  0.00    -0.421 C  
ENDBRANCH  16  17
ENDBRANCH  15  16
ENDBRANCH  14  15
ENDBRANCH  13  14
ENDBRANCH  12  13
ENDBRANCH  11  12
ENDBRANCH  10  11
ENDBRANCH   9  10
ENDBRANCH   8   9
ENDBRANCH   7   8
ENDBRANCH   6   7
ENDBRANCH   5   6
ENDBRANCH   4   5
ENDBRANCH   3   4
ENDBRANCH   2   3
TORSDOF 15
ENDMDL
MODEL      117
REMARK 921   NORMALIZED FREE ENERGY PREDICTED BY IDOCK:   -3.63 KCAL/MOL
REMARK 922        TOTAL FREE ENERGY PREDICTED BY IDOCK:   -8.51 KCAL/MOL
REMARK 923 INTER-LIGAND FREE ENERGY PREDICTED BY IDOCK:   -7.41 KCAL/MOL
REMARK 924 INTRA-LIGAND FREE ENERGY PREDICTED BY IDOCK:   -1.10 KCAL/MOL
REMARK 927      BINDING AFFINITY PREDICTED BY RF-SCORE:    0.00 PKD
ROOT
HETATM    1  C   UNL     1      -9.725  20.222  67.676  1.00  0.00    -0.555 C  
HETATM    2  C   UNL     1      -9.490  18.777  68.084  1.00  0.00    -0.365 C  
ENDROOT
BRANCH   2   3
HETATM    3  C   UNL     1     -10.072  17.817  67.052  1.00  0.00    -0.337 C  
BRANCH   3   4
HETATM    4  C   UNL     1     -10.533  16.520  67.708  1.00  0.00    -0.308 C  
BRANCH   4   5
HETATM    5  C   UNL     1      -9.856  15.318  67.058  1.00  0.00    -0.233 C  
BRANCH   5   6
HETATM    6  C   UNL     1     -10.893  14.342  66.522  1.00  0.00    -0.304 C  
BRANCH   6   7
HETATM    7  C   UNL     1     -10.273  13.420  65.478  1.00  0.00    -0.300 C  
BRANCH   7   8
HETATM    8  C   UNL     1     -10.999  12.083  65.460  1.00  0.00    -0.345 C  
BRANCH   8   9
HETATM    9  C   UNL     1     -11.658  11.813  66.803  1.00  0.00    -0.287 C  
BRANCH   9  10
HETATM   10  C   UNL     1     -10.982  10.632  67.485  1.00  0.00    -0.371 C  
BRANCH  10  11
HETATM   11  C   UNL     1     -10.317  11.073  68.776  1.00  0.00    -0.217 C  
BRANCH  11  12
HETATM   12  C   UNL     1     -10.802  10.230  69.948  1.00  0.00    -0.355 C  
BRANCH  12  13
HETATM   13  C   UNL     1     -12.307  10.379  70.088  1.00  0.00    -0.281 C  
BRANCH  13  14
HETATM   14  C   UNL     1     -12.690  11.048  71.405  1.00  0.00    -0.534 C  
BRANCH  14  15
HETATM   15  C   UNL     1     -13.002  12.535  71.219  1.00  0.00    -0.301 C  
BRANCH  15  16
HETATM   16  C   UNL     1     -13.286  13.228  72.554  1.00  0.00    -0.466 C  
BRANCH  16  17
HETATM   17  N   UNL     1     -12.915  14.716  72.574  1.00  0.00    -0.375 N  
HETATM   18  C   UNL     1     -14.098  15.589  72.189  1.00  0.00    -0.526 C  
HETATM   19  C   UNL     1     -11.799  14.922  71.543  1.00  0.00    -0.361 C  
HETATM   20  C   UNL     1     -12.379  15.132  73.940  1.00  0.00    -0.591 C  
ENDBRANCH  16  17
ENDBRANCH  15  16
ENDBRANCH  14  15
ENDBRANCH  13  14
ENDBRANCH  12  13
ENDBRANCH  11  12
ENDBRANCH  10  11
ENDBRANCH   9  10
ENDBRANCH   8   9
ENDBRANCH   7   8
ENDBRANCH   6   7
ENDBRANCH   5   6
ENDBRANCH   4   5
ENDBRANCH   3   4
ENDBRANCH   2   3
TORSDOF 15
ENDMDL
MODEL      118
REMARK 921   NORMALIZED FREE ENERGY PREDICTED BY IDOCK:   -3.63 KCAL/MOL
REMARK 922        TOTAL FREE ENERGY PREDICTED BY IDOCK:   -8.50 KCAL/MOL
REMARK 923 INTER-LIGAND FREE ENERGY PREDICTED BY IDOCK:   -7.77 KCAL/MOL
REMARK 924 INTRA-LIGAND FREE ENERGY PREDICTED BY IDOCK:   -0.73 KCAL/MOL
REMARK 927      BINDING AFFINITY PREDICTED BY RF-SCORE:    0.00 PKD
ROOT
HETATM    1  C   UNL     1      -8.827   9.454  70.319  1.00  0.00    -0.269 C  
HETATM    2  C   UNL     1     -10.329   9.595  70.145  1.00  0.00    -0.315 C  
ENDROOT
BRANCH   2   3
HETATM    3  C   UNL     1     -11.079   8.709  71.134  1.00  0.00    -0.324 C  
BRANCH   3   4
HETATM    4  C   UNL     1     -12.210   9.478  71.810  1.00  0.00    -0.465 C  
BRANCH   4   5
HETATM    5  C   UNL     1     -12.476  10.791  71.084  1.00  0.00    -0.519 C  
BRANCH   5   6
HETATM    6  C   UNL     1     -13.220  11.765  71.987  1.00  0.00    -0.460 C  
BRANCH   6   7
HETATM    7  C   UNL     1     -13.152  13.179  71.424  1.00  0.00    -0.352 C  
BRANCH   7   8
HETATM    8  C   UNL     1     -13.913  14.140  72.324  1.00  0.00    -0.646 C  
BRANCH   8   9
HETATM    9  C   UNL     1     -13.108  15.409  72.558  1.00  0.00    -0.518 C  
BRANCH   9  10
HETATM   10  C   UNL     1     -11.775  15.319  71.827  1.00  0.00    -0.487 C  
BRANCH  10  11
HETATM   11  C   UNL     1     -11.853  16.032  70.490  1.00  0.00    -0.314 C  
BRANCH  11  12
HETATM   12  C   UNL     1     -11.144  15.228  69.408  1.00  0.00    -0.283 C  
BRANCH  12  13
HETATM   13  C   UNL     1     -11.273  15.949  68.077  1.00  0.00    -0.319 C  
BRANCH  13  14
HETATM   14  C   UNL     1     -10.576  15.190  66.952  1.00  0.00    -0.297 C  
BRANCH  14  15
HETATM   15  C   UNL     1     -11.543  14.277  66.195  1.00  0.00    -0.374 C  
BRANCH  15  16
HETATM   16  C   UNL     1     -11.022  13.929  64.798  1.00  0.00    -0.401 C  
BRANCH  16  17
HETATM   17  N   UNL     1     -11.179  12.450  64.425  1.00  0.00    -0.313 N  
HETATM   18  C   UNL     1     -11.103  11.557  65.653  1.00  0.00    -0.199 C  
HETATM   19  C   UNL     1     -10.022  12.091  63.487  1.00  0.00    -0.368 C  
HETATM   20  C   UNL     1     -12.487  12.205  63.680  1.00  0.00    -0.549 C  
ENDBRANCH  16  17
ENDBRANCH  15  16
ENDBRANCH  14  15
ENDBRANCH  13  14
ENDBRANCH  12  13
ENDBRANCH  11  12
ENDBRANCH  10  11
ENDBRANCH   9  10
ENDBRANCH   8   9
ENDBRANCH   7   8
ENDBRANCH   6   7
ENDBRANCH   5   6
ENDBRANCH   4   5
ENDBRANCH   3   4
ENDBRANCH   2   3
TORSDOF 15
ENDMDL
MODEL      119
REMARK 921   NORMALIZED FREE ENERGY PREDICTED BY IDOCK:   -3.63 KCAL/MOL
REMARK 922        TOTAL FREE ENERGY PREDICTED BY IDOCK:   -8.50 KCAL/MOL
REMARK 923 INTER-LIGAND FREE ENERGY PREDICTED BY IDOCK:   -7.15 KCAL/MOL
REMARK 924 INTRA-LIGAND FREE ENERGY PREDICTED BY IDOCK:   -1.34 KCAL/MOL
REMARK 927      BINDING AFFINITY PREDICTED BY RF-SCORE:    0.00 PKD
ROOT
HETATM    1  C   UNL     1     -11.299   5.672  72.916  1.00  0.00    -0.325 C  
HETATM    2  C   UNL     1     -10.539   6.898  73.393  1.00  0.00    -0.372 C  
ENDROOT
BRANCH   2   3
HETATM    3  C   UNL     1     -10.917   8.128  72.575  1.00  0.00    -0.439 C  
BRANCH   3   4
HETATM    4  C   UNL     1     -12.241   7.917  71.848  1.00  0.00    -0.351 C  
BRANCH   4   5
HETATM    5  C   UNL     1     -13.247   8.995  72.240  1.00  0.00    -0.519 C  
BRANCH   5   6
HETATM    6  C   UNL     1     -13.470   9.967  71.090  1.00  0.00    -0.308 C  
BRANCH   6   7
HETATM    7  C   UNL     1     -12.941  11.350  71.447  1.00  0.00    -0.468 C  
BRANCH   7   8
HETATM    8  C   UNL     1     -11.911  11.800  70.421  1.00  0.00    -0.422 C  
BRANCH   8   9
HETATM    9  C   UNL     1     -12.021  10.971  69.152  1.00  0.00    -0.394 C  
BRANCH   9  10
HETATM   10  C   UNL     1     -10.740  10.177  68.938  1.00  0.00    -0.249 C  
BRANCH  10  11
HETATM   11  C   UNL     1     -10.618   9.745  67.489  1.00  0.00    -0.335 C  
BRANCH  11  12
HETATM   12  C   UNL     1      -9.231  10.063  66.946  1.00  0.00    -0.169 C  
BRANCH  12  13
HETATM   13  C   UNL     1      -9.333  11.180  65.922  1.00  0.00    -0.235 C  
BRANCH  13  14
HETATM   14  C   UNL     1     -10.316  10.838  64.806  1.00  0.00    -0.380 C  
BRANCH  14  15
HETATM   15  C   UNL     1     -10.942  12.093  64.193  1.00  0.00    -0.416 C  
BRANCH  15  16
HETATM   16  C   UNL     1     -10.342  13.374  64.780  1.00  0.00    -0.379 C  
BRANCH  16  17
HETATM   17  N   UNL     1     -11.387  14.370  65.297  1.00  0.00    -0.333 N  
HETATM   18  C   UNL     1     -12.454  14.649  64.252  1.00  0.00    -0.239 C  
HETATM   19  C   UNL     1     -10.652  15.679  65.608  1.00  0.00    -0.378 C  
HETATM   20  C   UNL     1     -12.032  13.872  66.586  1.00  0.00    -0.442 C  
ENDBRANCH  16  17
ENDBRANCH  15  16
ENDBRANCH  14  15
ENDBRANCH  13  14
ENDBRANCH  12  13
ENDBRANCH  11  12
ENDBRANCH  10  11
ENDBRANCH   9  10
ENDBRANCH   8   9
ENDBRANCH   7   8
ENDBRANCH   6   7
ENDBRANCH   5   6
ENDBRANCH   4   5
ENDBRANCH   3   4
ENDBRANCH   2   3
TORSDOF 15
ENDMDL
MODEL      120
REMARK 921   NORMALIZED FREE ENERGY PREDICTED BY IDOCK:   -3.62 KCAL/MOL
REMARK 922        TOTAL FREE ENERGY PREDICTED BY IDOCK:   -8.49 KCAL/MOL
REMARK 923 INTER-LIGAND FREE ENERGY PREDICTED BY IDOCK:   -6.78 KCAL/MOL
REMARK 924 INTRA-LIGAND FREE ENERGY PREDICTED BY IDOCK:   -1.71 KCAL/MOL
REMARK 927      BINDING AFFINITY PREDICTED BY RF-SCORE:    0.00 PKD
ROOT
HETATM    1  C   UNL     1      -9.691   2.550  72.468  1.00  0.00    -0.191 C  
HETATM    2  C   UNL     1     -10.313   3.936  72.448  1.00  0.00    -0.194 C  
ENDROOT
BRANCH   2   3
HETATM    3  C   UNL     1      -9.380   4.944  71.784  1.00  0.00    -0.185 C  
BRANCH   3   4
HETATM    4  C   UNL     1      -9.984   6.344  71.801  1.00  0.00    -0.195 C  
BRANCH   4   5
HETATM    5  C   UNL     1     -10.385   6.773  70.394  1.00  0.00    -0.223 C  
BRANCH   5   6
HETATM    6  C   UNL     1     -11.899   6.762  70.238  1.00  0.00    -0.359 C  
BRANCH   6   7
HETATM    7  C   UNL     1     -12.577   7.068  71.568  1.00  0.00    -0.426 C  
BRANCH   7   8
HETATM    8  C   UNL     1     -14.040   7.420  71.343  1.00  0.00    -0.491 C  
BRANCH   8   9
HETATM    9  C   UNL     1     -14.370   8.765  71.969  1.00  0.00    -0.466 C  
BRANCH   9  10
HETATM   10  C   UNL     1     -13.088   9.480  72.371  1.00  0.00    -0.430 C  
BRANCH  10  11
HETATM   11  C   UNL     1     -13.148  10.944  71.976  1.00  0.00    -0.462 C  
BRANCH  11  12
HETATM   12  C   UNL     1     -12.441  11.173  70.647  1.00  0.00    -0.448 C  
BRANCH  12  13
HETATM   13  C   UNL     1     -11.185  10.321  70.590  1.00  0.00    -0.406 C  
BRANCH  13  14
HETATM   14  C   UNL     1     -10.525  10.375  69.216  1.00  0.00    -0.257 C  
BRANCH  14  15
HETATM   15  C   UNL     1     -10.716  11.736  68.544  1.00  0.00    -0.251 C  
BRANCH  15  16
HETATM   16  C   UNL     1     -11.220  11.596  67.105  1.00  0.00    -0.309 C  
BRANCH  16  17
HETATM   17  N   UNL     1     -11.457  12.934  66.395  1.00  0.00    -0.323 N  
HETATM   18  C   UNL     1     -10.163  13.504  65.837  1.00  0.00    -0.301 C  
HETATM   19  C   UNL     1     -12.012  13.911  67.437  1.00  0.00    -0.401 C  
HETATM   20  C   UNL     1     -12.490  12.793  65.282  1.00  0.00    -0.465 C  
ENDBRANCH  16  17
ENDBRANCH  15  16
ENDBRANCH  14  15
ENDBRANCH  13  14
ENDBRANCH  12  13
ENDBRANCH  11  12
ENDBRANCH  10  11
ENDBRANCH   9  10
ENDBRANCH   8   9
ENDBRANCH   7   8
ENDBRANCH   6   7
ENDBRANCH   5   6
ENDBRANCH   4   5
ENDBRANCH   3   4
ENDBRANCH   2   3
TORSDOF 15
ENDMDL
MODEL      121
REMARK 921   NORMALIZED FREE ENERGY PREDICTED BY IDOCK:   -3.62 KCAL/MOL
REMARK 922        TOTAL FREE ENERGY PREDICTED BY IDOCK:   -8.49 KCAL/MOL
REMARK 923 INTER-LIGAND FREE ENERGY PREDICTED BY IDOCK:   -7.18 KCAL/MOL
REMARK 924 INTRA-LIGAND FREE ENERGY PREDICTED BY IDOCK:   -1.31 KCAL/MOL
REMARK 927      BINDING AFFINITY PREDICTED BY RF-SCORE:    0.00 PKD
ROOT
HETATM    1  C   UNL     1      -6.909  20.103  65.254  1.00  0.00    -0.334 C  
HETATM    2  C   UNL     1      -7.233  19.191  66.424  1.00  0.00    -0.256 C  
ENDROOT
BRANCH   2   3
HETATM    3  C   UNL     1      -8.382  19.754  67.253  1.00  0.00    -0.351 C  
BRANCH   3   4
HETATM    4  C   UNL     1      -9.698  19.683  66.486  1.00  0.00    -0.498 C  
BRANCH   4   5
HETATM    5  C   UNL     1     -10.748  18.920  67.288  1.00  0.00    -0.523 C  
BRANCH   5   6
HETATM    6  C   UNL     1     -10.085  17.995  68.299  1.00  0.00    -0.390 C  
BRANCH   6   7
HETATM    7  C   UNL     1     -10.951  16.768  68.553  1.00  0.00    -0.312 C  
BRANCH   7   8
HETATM    8  C   UNL     1     -10.650  16.187  69.926  1.00  0.00    -0.302 C  
BRANCH   8   9
HETATM    9  C   UNL     1     -11.938  15.857  70.663  1.00  0.00    -0.379 C  
BRANCH   9  10
HETATM   10  C   UNL     1     -11.634  15.530  72.118  1.00  0.00    -0.552 C  
BRANCH  10  11
HETATM   11  C   UNL     1     -12.705  14.623  72.694  1.00  0.00    -0.464 C  
BRANCH  11  12
HETATM   12  C   UNL     1     -13.388  13.827  71.590  1.00  0.00    -0.430 C  
BRANCH  12  13
HETATM   13  C   UNL     1     -13.141  12.344  71.810  1.00  0.00    -0.446 C  
BRANCH  13  14
HETATM   14  C   UNL     1     -12.193  11.766  70.764  1.00  0.00    -0.424 C  
BRANCH  14  15
HETATM   15  C   UNL     1     -12.210  12.578  69.467  1.00  0.00    -0.139 C  
BRANCH  15  16
HETATM   16  C   UNL     1     -10.832  12.619  68.802  1.00  0.00    -0.231 C  
BRANCH  16  17
HETATM   17  N   UNL     1     -10.882  12.696  67.271  1.00  0.00    -0.243 N  
HETATM   18  C   UNL     1     -11.126  11.329  66.653  1.00  0.00    -0.235 C  
HETATM   19  C   UNL     1      -9.518  13.211  66.796  1.00  0.00    -0.252 C  
HETATM   20  C   UNL     1     -11.948  13.681  66.803  1.00  0.00    -0.414 C  
ENDBRANCH  16  17
ENDBRANCH  15  16
ENDBRANCH  14  15
ENDBRANCH  13  14
ENDBRANCH  12  13
ENDBRANCH  11  12
ENDBRANCH  10  11
ENDBRANCH   9  10
ENDBRANCH   8   9
ENDBRANCH   7   8
ENDBRANCH   6   7
ENDBRANCH   5   6
ENDBRANCH   4   5
ENDBRANCH   3   4
ENDBRANCH   2   3
TORSDOF 15
ENDMDL
MODEL      122
REMARK 921   NORMALIZED FREE ENERGY PREDICTED BY IDOCK:   -3.62 KCAL/MOL
REMARK 922        TOTAL FREE ENERGY PREDICTED BY IDOCK:   -8.48 KCAL/MOL
REMARK 923 INTER-LIGAND FREE ENERGY PREDICTED BY IDOCK:   -7.52 KCAL/MOL
REMARK 924 INTRA-LIGAND FREE ENERGY PREDICTED BY IDOCK:   -0.96 KCAL/MOL
REMARK 927      BINDING AFFINITY PREDICTED BY RF-SCORE:    0.00 PKD
ROOT
HETATM    1  C   UNL     1     -10.475  19.623  66.065  1.00  0.00    -0.622 C  
HETATM    2  C   UNL     1      -9.754  20.119  67.307  1.00  0.00    -0.574 C  
ENDROOT
BRANCH   2   3
HETATM    3  C   UNL     1     -10.059  19.229  68.507  1.00  0.00    -0.513 C  
BRANCH   3   4
HETATM    4  C   UNL     1      -9.687  17.778  68.222  1.00  0.00    -0.320 C  
BRANCH   4   5
HETATM    5  C   UNL     1     -10.889  16.864  68.431  1.00  0.00    -0.347 C  
BRANCH   5   6
HETATM    6  C   UNL     1     -10.841  15.684  67.471  1.00  0.00    -0.316 C  
BRANCH   6   7
HETATM    7  C   UNL     1     -11.492  14.456  68.095  1.00  0.00    -0.337 C  
BRANCH   7   8
HETATM    8  C   UNL     1     -11.684  13.372  67.047  1.00  0.00    -0.426 C  
BRANCH   8   9
HETATM    9  C   UNL     1     -12.395  13.928  65.823  1.00  0.00    -0.518 C  
BRANCH   9  10
HETATM   10  C   UNL     1     -12.496  12.854  64.749  1.00  0.00    -0.517 C  
BRANCH  10  11
HETATM   11  C   UNL     1     -11.173  12.707  64.019  1.00  0.00    -0.459 C  
BRANCH  11  12
HETATM   12  C   UNL     1     -10.694  11.262  64.057  1.00  0.00    -0.444 C  
BRANCH  12  13
HETATM   13  C   UNL     1      -9.850  11.043  65.300  1.00  0.00    -0.309 C  
BRANCH  13  14
HETATM   14  C   UNL     1      -9.849   9.580  65.735  1.00  0.00    -0.363 C  
BRANCH  14  15
HETATM   15  C   UNL     1     -10.232   9.423  67.208  1.00  0.00    -0.308 C  
BRANCH  15  16
HETATM   16  C   UNL     1     -10.505   7.961  67.573  1.00  0.00    -0.262 C  
BRANCH  16  17
HETATM   17  N   UNL     1     -10.440   7.672  69.078  1.00  0.00    -0.214 N  
HETATM   18  C   UNL     1     -11.076   8.792  69.886  1.00  0.00    -0.123 C  
HETATM   19  C   UNL     1      -8.959   7.573  69.460  1.00  0.00    -0.143 C  
HETATM   20  C   UNL     1     -11.105   6.342  69.413  1.00  0.00    -0.410 C  
ENDBRANCH  16  17
ENDBRANCH  15  16
ENDBRANCH  14  15
ENDBRANCH  13  14
ENDBRANCH  12  13
ENDBRANCH  11  12
ENDBRANCH  10  11
ENDBRANCH   9  10
ENDBRANCH   8   9
ENDBRANCH   7   8
ENDBRANCH   6   7
ENDBRANCH   5   6
ENDBRANCH   4   5
ENDBRANCH   3   4
ENDBRANCH   2   3
TORSDOF 15
ENDMDL
MODEL      123
REMARK 921   NORMALIZED FREE ENERGY PREDICTED BY IDOCK:   -3.61 KCAL/MOL
REMARK 922        TOTAL FREE ENERGY PREDICTED BY IDOCK:   -8.47 KCAL/MOL
REMARK 923 INTER-LIGAND FREE ENERGY PREDICTED BY IDOCK:   -6.63 KCAL/MOL
REMARK 924 INTRA-LIGAND FREE ENERGY PREDICTED BY IDOCK:   -1.84 KCAL/MOL
REMARK 927      BINDING AFFINITY PREDICTED BY RF-SCORE:    0.00 PKD
ROOT
HETATM    1  C   UNL     1      -9.073  13.850  66.915  1.00  0.00    -0.257 C  
HETATM    2  C   UNL     1      -9.210  15.185  66.204  1.00  0.00    -0.318 C  
ENDROOT
BRANCH   2   3
HETATM    3  C   UNL     1     -10.581  15.318  65.551  1.00  0.00    -0.390 C  
BRANCH   3   4
HETATM    4  C   UNL     1     -11.625  14.490  66.293  1.00  0.00    -0.364 C  
BRANCH   4   5
HETATM    5  C   UNL     1     -12.712  14.014  65.337  1.00  0.00    -0.499 C  
BRANCH   5   6
HETATM    6  C   UNL     1     -12.497  12.554  64.962  1.00  0.00    -0.494 C  
BRANCH   6   7
HETATM    7  C   UNL     1     -11.992  12.437  63.529  1.00  0.00    -0.627 C  
BRANCH   7   8
HETATM    8  C   UNL     1     -10.492  12.186  63.520  1.00  0.00    -0.490 C  
BRANCH   8   9
HETATM    9  C   UNL     1     -10.189  10.729  63.828  1.00  0.00    -0.354 C  
BRANCH   9  10
HETATM   10  C   UNL     1      -9.353  10.630  65.096  1.00  0.00    -0.254 C  
BRANCH  10  11
HETATM   11  C   UNL     1     -10.048   9.758  66.125  1.00  0.00    -0.315 C  
BRANCH  11  12
HETATM   12  C   UNL     1     -10.435  10.574  67.351  1.00  0.00    -0.291 C  
BRANCH  12  13
HETATM   13  C   UNL     1     -10.369   9.692  68.586  1.00  0.00    -0.226 C  
BRANCH  13  14
HETATM   14  C   UNL     1      -9.316  10.180  69.576  1.00  0.00    -0.230 C  
BRANCH  14  15
HETATM   15  C   UNL     1      -9.065   9.162  70.691  1.00  0.00    -0.307 C  
BRANCH  15  16
HETATM   16  C   UNL     1      -9.520   7.756  70.291  1.00  0.00    -0.160 C  
BRANCH  16  17
HETATM   17  N   UNL     1     -10.539   7.134  71.253  1.00  0.00    -0.214 N  
HETATM   18  C   UNL     1     -11.174   8.187  72.146  1.00  0.00    -0.329 C  
HETATM   19  C   UNL     1      -9.781   6.137  72.137  1.00  0.00    -0.154 C  
HETATM   20  C   UNL     1     -11.618   6.369  70.495  1.00  0.00    -0.358 C  
ENDBRANCH  16  17
ENDBRANCH  15  16
ENDBRANCH  14  15
ENDBRANCH  13  14
ENDBRANCH  12  13
ENDBRANCH  11  12
ENDBRANCH  10  11
ENDBRANCH   9  10
ENDBRANCH   8   9
ENDBRANCH   7   8
ENDBRANCH   6   7
ENDBRANCH   5   6
ENDBRANCH   4   5
ENDBRANCH   3   4
ENDBRANCH   2   3
TORSDOF 15
ENDMDL
MODEL      124
REMARK 921   NORMALIZED FREE ENERGY PREDICTED BY IDOCK:   -3.61 KCAL/MOL
REMARK 922        TOTAL FREE ENERGY PREDICTED BY IDOCK:   -8.47 KCAL/MOL
REMARK 923 INTER-LIGAND FREE ENERGY PREDICTED BY IDOCK:   -6.49 KCAL/MOL
REMARK 924 INTRA-LIGAND FREE ENERGY PREDICTED BY IDOCK:   -1.98 KCAL/MOL
REMARK 927      BINDING AFFINITY PREDICTED BY RF-SCORE:    0.00 PKD
ROOT
HETATM    1  C   UNL     1     -12.600  13.568  65.235  1.00  0.00    -0.517 C  
HETATM    2  C   UNL     1     -12.163  13.104  63.857  1.00  0.00    -0.503 C  
ENDROOT
BRANCH   2   3
HETATM    3  C   UNL     1     -10.719  12.613  63.878  1.00  0.00    -0.465 C  
BRANCH   3   4
HETATM    4  C   UNL     1     -10.656  11.103  64.080  1.00  0.00    -0.436 C  
BRANCH   4   5
HETATM    5  C   UNL     1     -10.276  10.768  65.518  1.00  0.00    -0.330 C  
BRANCH   5   6
HETATM    6  C   UNL     1      -8.789  10.996  65.748  1.00  0.00    -0.200 C  
BRANCH   6   7
HETATM    7  C   UNL     1      -8.567  12.024  66.850  1.00  0.00    -0.189 C  
BRANCH   7   8
HETATM    8  C   UNL     1      -9.881  12.336  67.551  1.00  0.00    -0.193 C  
BRANCH   8   9
HETATM    9  C   UNL     1     -10.035  13.833  67.762  1.00  0.00    -0.242 C  
BRANCH   9  10
HETATM   10  C   UNL     1      -9.315  14.591  66.655  1.00  0.00    -0.301 C  
BRANCH  10  11
HETATM   11  C   UNL     1      -9.943  15.957  66.450  1.00  0.00    -0.304 C  
BRANCH  11  12
HETATM   12  C   UNL     1     -10.632  16.430  67.724  1.00  0.00    -0.321 C  
BRANCH  12  13
HETATM   13  C   UNL     1     -10.785  17.941  67.683  1.00  0.00    -0.343 C  
BRANCH  13  14
HETATM   14  C   UNL     1     -10.187  18.537  66.413  1.00  0.00    -0.449 C  
BRANCH  14  15
HETATM   15  C   UNL     1      -9.405  19.821  66.699  1.00  0.00    -0.483 C  
BRANCH  15  16
HETATM   16  C   UNL     1      -8.011  19.792  66.067  1.00  0.00    -0.330 C  
BRANCH  16  17
HETATM   17  N   UNL     1      -6.872  19.610  67.077  1.00  0.00    -0.199 N  
HETATM   18  C   UNL     1      -5.775  20.643  66.870  1.00  0.00    -0.186 C  
HETATM   19  C   UNL     1      -6.279  18.215  66.849  1.00  0.00    -0.166 C  
HETATM   20  C   UNL     1      -7.390  19.676  68.510  1.00  0.00    -0.336 C  
ENDBRANCH  16  17
ENDBRANCH  15  16
ENDBRANCH  14  15
ENDBRANCH  13  14
ENDBRANCH  12  13
ENDBRANCH  11  12
ENDBRANCH  10  11
ENDBRANCH   9  10
ENDBRANCH   8   9
ENDBRANCH   7   8
ENDBRANCH   6   7
ENDBRANCH   5   6
ENDBRANCH   4   5
ENDBRANCH   3   4
ENDBRANCH   2   3
TORSDOF 15
ENDMDL
MODEL      125
REMARK 921   NORMALIZED FREE ENERGY PREDICTED BY IDOCK:   -3.61 KCAL/MOL
REMARK 922        TOTAL FREE ENERGY PREDICTED BY IDOCK:   -8.46 KCAL/MOL
REMARK 923 INTER-LIGAND FREE ENERGY PREDICTED BY IDOCK:   -6.67 KCAL/MOL
REMARK 924 INTRA-LIGAND FREE ENERGY PREDICTED BY IDOCK:   -1.79 KCAL/MOL
REMARK 927      BINDING AFFINITY PREDICTED BY RF-SCORE:    0.00 PKD
ROOT
HETATM    1  C   UNL     1     -14.109  14.823  71.532  1.00  0.00    -0.566 C  
HETATM    2  C   UNL     1     -12.677  14.360  71.740  1.00  0.00    -0.427 C  
ENDROOT
BRANCH   2   3
HETATM    3  C   UNL     1     -12.232  13.436  70.611  1.00  0.00    -0.427 C  
BRANCH   3   4
HETATM    4  C   UNL     1     -12.143  14.190  69.288  1.00  0.00    -0.364 C  
BRANCH   4   5
HETATM    5  C   UNL     1     -11.883  13.224  68.137  1.00  0.00    -0.388 C  
BRANCH   5   6
HETATM    6  C   UNL     1     -12.146  13.901  66.799  1.00  0.00    -0.476 C  
BRANCH   6   7
HETATM    7  C   UNL     1     -10.838  14.340  66.153  1.00  0.00    -0.310 C  
BRANCH   7   8
HETATM    8  C   UNL     1      -9.800  13.234  66.263  1.00  0.00    -0.288 C  
BRANCH   8   9
HETATM    9  C   UNL     1      -8.583  13.715  67.037  1.00  0.00    -0.173 C  
BRANCH   9  10
HETATM   10  C   UNL     1      -8.670  15.218  67.259  1.00  0.00    -0.216 C  
BRANCH  10  11
HETATM   11  C   UNL     1      -8.875  15.527  68.731  1.00  0.00    -0.203 C  
BRANCH  11  12
HETATM   12  C   UNL     1      -9.193  17.003  68.933  1.00  0.00    -0.215 C  
BRANCH  12  13
HETATM   13  C   UNL     1     -10.587  17.296  68.408  1.00  0.00    -0.368 C  
BRANCH  13  14
HETATM   14  C   UNL     1     -10.657  18.649  67.707  1.00  0.00    -0.433 C  
BRANCH  14  15
HETATM   15  C   UNL     1      -9.427  18.902  66.833  1.00  0.00    -0.345 C  
BRANCH  15  16
HETATM   16  C   UNL     1      -8.670  20.161  67.264  1.00  0.00    -0.348 C  
BRANCH  16  17
HETATM   17  N   UNL     1      -7.174  19.935  67.510  1.00  0.00    -0.259 N  
HETATM   18  C   UNL     1      -6.686  18.663  66.836  1.00  0.00    -0.190 C  
HETATM   19  C   UNL     1      -6.977  19.793  69.024  1.00  0.00    -0.337 C  
HETATM   20  C   UNL     1      -6.351  21.128  67.036  1.00  0.00    -0.334 C  
ENDBRANCH  16  17
ENDBRANCH  15  16
ENDBRANCH  14  15
ENDBRANCH  13  14
ENDBRANCH  12  13
ENDBRANCH  11  12
ENDBRANCH  10  11
ENDBRANCH   9  10
ENDBRANCH   8   9
ENDBRANCH   7   8
ENDBRANCH   6   7
ENDBRANCH   5   6
ENDBRANCH   4   5
ENDBRANCH   3   4
ENDBRANCH   2   3
TORSDOF 15
ENDMDL
MODEL      126
REMARK 921   NORMALIZED FREE ENERGY PREDICTED BY IDOCK:   -3.61 KCAL/MOL
REMARK 922        TOTAL FREE ENERGY PREDICTED BY IDOCK:   -8.46 KCAL/MOL
REMARK 923 INTER-LIGAND FREE ENERGY PREDICTED BY IDOCK:   -6.99 KCAL/MOL
REMARK 924 INTRA-LIGAND FREE ENERGY PREDICTED BY IDOCK:   -1.47 KCAL/MOL
REMARK 927      BINDING AFFINITY PREDICTED BY RF-SCORE:    0.00 PKD
ROOT
HETATM    1  C   UNL     1     -10.727  18.657  67.270  1.00  0.00    -0.449 C  
HETATM    2  C   UNL     1     -10.033  18.266  68.564  1.00  0.00    -0.413 C  
ENDROOT
BRANCH   2   3
HETATM    3  C   UNL     1      -9.586  16.808  68.526  1.00  0.00    -0.245 C  
BRANCH   3   4
HETATM    4  C   UNL     1     -10.409  15.957  69.487  1.00  0.00    -0.277 C  
BRANCH   4   5
HETATM    5  C   UNL     1     -11.749  15.585  68.862  1.00  0.00    -0.385 C  
BRANCH   5   6
HETATM    6  C   UNL     1     -11.638  14.277  68.091  1.00  0.00    -0.365 C  
BRANCH   6   7
HETATM    7  C   UNL     1     -11.868  14.511  66.603  1.00  0.00    -0.383 C  
BRANCH   7   8
HETATM    8  C   UNL     1     -12.162  13.194  65.903  1.00  0.00    -0.497 C  
BRANCH   8   9
HETATM    9  C   UNL     1     -11.127  12.915  64.825  1.00  0.00    -0.337 C  
BRANCH   9  10
HETATM   10  C   UNL     1     -10.614  11.488  64.955  1.00  0.00    -0.354 C  
BRANCH  10  11
HETATM   11  C   UNL     1     -10.235  11.188  66.394  1.00  0.00    -0.279 C  
BRANCH  11  12
HETATM   12  C   UNL     1     -10.384   9.702  66.692  1.00  0.00    -0.279 C  
BRANCH  12  13
HETATM   13  C   UNL     1     -10.621   9.507  68.179  1.00  0.00    -0.265 C  
BRANCH  13  14
HETATM   14  C   UNL     1     -11.437  10.648  68.778  1.00  0.00    -0.330 C  
BRANCH  14  15
HETATM   15  C   UNL     1     -11.496  10.566  70.305  1.00  0.00    -0.416 C  
BRANCH  15  16
HETATM   16  C   UNL     1     -10.739   9.348  70.841  1.00  0.00    -0.323 C  
BRANCH  16  17
HETATM   17  N   UNL     1     -11.620   8.354  71.607  1.00  0.00    -0.272 N  
HETATM   18  C   UNL     1     -12.935   8.989  72.030  1.00  0.00    -0.407 C  
HETATM   19  C   UNL     1     -10.850   7.939  72.866  1.00  0.00    -0.386 C  
HETATM   20  C   UNL     1     -11.885   7.101  70.779  1.00  0.00    -0.325 C  
ENDBRANCH  16  17
ENDBRANCH  15  16
ENDBRANCH  14  15
ENDBRANCH  13  14
ENDBRANCH  12  13
ENDBRANCH  11  12
ENDBRANCH  10  11
ENDBRANCH   9  10
ENDBRANCH   8   9
ENDBRANCH   7   8
ENDBRANCH   6   7
ENDBRANCH   5   6
ENDBRANCH   4   5
ENDBRANCH   3   4
ENDBRANCH   2   3
TORSDOF 15
ENDMDL
MODEL      127
REMARK 921   NORMALIZED FREE ENERGY PREDICTED BY IDOCK:   -3.60 KCAL/MOL
REMARK 922        TOTAL FREE ENERGY PREDICTED BY IDOCK:   -8.46 KCAL/MOL
REMARK 923 INTER-LIGAND FREE ENERGY PREDICTED BY IDOCK:   -7.10 KCAL/MOL
REMARK 924 INTRA-LIGAND FREE ENERGY PREDICTED BY IDOCK:   -1.36 KCAL/MOL
REMARK 927      BINDING AFFINITY PREDICTED BY RF-SCORE:    0.00 PKD
ROOT
HETATM    1  C   UNL     1     -12.157  14.465  69.895  1.00  0.00    -0.398 C  
HETATM    2  C   UNL     1     -11.221  13.739  68.943  1.00  0.00    -0.309 C  
ENDROOT
BRANCH   2   3
HETATM    3  C   UNL     1     -11.980  13.203  67.734  1.00  0.00    -0.352 C  
BRANCH   3   4
HETATM    4  C   UNL     1     -12.027  14.236  66.614  1.00  0.00    -0.454 C  
BRANCH   4   5
HETATM    5  C   UNL     1     -12.831  13.710  65.430  1.00  0.00    -0.440 C  
BRANCH   5   6
HETATM    6  C   UNL     1     -11.944  13.556  64.203  1.00  0.00    -0.498 C  
BRANCH   6   7
HETATM    7  C   UNL     1     -11.915  12.104  63.740  1.00  0.00    -0.607 C  
BRANCH   7   8
HETATM    8  C   UNL     1     -10.481  11.600  63.681  1.00  0.00    -0.483 C  
BRANCH   8   9
HETATM    9  C   UNL     1      -9.820  11.699  65.046  1.00  0.00    -0.280 C  
BRANCH   9  10
HETATM   10  C   UNL     1     -10.358  10.610  65.963  1.00  0.00    -0.290 C  
BRANCH  10  11
HETATM   11  C   UNL     1      -9.697   9.280  65.654  1.00  0.00    -0.302 C  
BRANCH  11  12
HETATM   12  C   UNL     1      -9.470   8.481  66.931  1.00  0.00    -0.237 C  
BRANCH  12  13
HETATM   13  C   UNL     1     -10.254   7.182  66.860  1.00  0.00    -0.330 C  
BRANCH  13  14
HETATM   14  C   UNL     1     -10.814   6.782  68.221  1.00  0.00    -0.290 C  
BRANCH  14  15
HETATM   15  C   UNL     1     -10.597   7.875  69.270  1.00  0.00    -0.195 C  
BRANCH  15  16
HETATM   16  C   UNL     1     -10.422   7.291  70.675  1.00  0.00    -0.214 C  
BRANCH  16  17
HETATM   17  N   UNL     1     -11.341   7.918  71.730  1.00  0.00    -0.254 N  
HETATM   18  C   UNL     1     -10.860   7.611  73.138  1.00  0.00    -0.382 C  
HETATM   19  C   UNL     1     -12.733   7.305  71.544  1.00  0.00    -0.384 C  
HETATM   20  C   UNL     1     -11.458   9.426  71.533  1.00  0.00    -0.397 C  
ENDBRANCH  16  17
ENDBRANCH  15  16
ENDBRANCH  14  15
ENDBRANCH  13  14
ENDBRANCH  12  13
ENDBRANCH  11  12
ENDBRANCH  10  11
ENDBRANCH   9  10
ENDBRANCH   8   9
ENDBRANCH   7   8
ENDBRANCH   6   7
ENDBRANCH   5   6
ENDBRANCH   4   5
ENDBRANCH   3   4
ENDBRANCH   2   3
TORSDOF 15
ENDMDL
MODEL      128
REMARK 921   NORMALIZED FREE ENERGY PREDICTED BY IDOCK:   -3.60 KCAL/MOL
REMARK 922        TOTAL FREE ENERGY PREDICTED BY IDOCK:   -8.45 KCAL/MOL
REMARK 923 INTER-LIGAND FREE ENERGY PREDICTED BY IDOCK:   -6.59 KCAL/MOL
REMARK 924 INTRA-LIGAND FREE ENERGY PREDICTED BY IDOCK:   -1.86 KCAL/MOL
REMARK 927      BINDING AFFINITY PREDICTED BY RF-SCORE:    0.00 PKD
ROOT
HETATM    1  C   UNL     1     -13.975  14.427  72.216  1.00  0.00    -0.610 C  
HETATM    2  C   UNL     1     -12.681  14.232  71.444  1.00  0.00    -0.424 C  
ENDROOT
BRANCH   2   3
HETATM    3  C   UNL     1     -12.441  15.387  70.478  1.00  0.00    -0.468 C  
BRANCH   3   4
HETATM    4  C   UNL     1     -11.869  14.887  69.156  1.00  0.00    -0.340 C  
BRANCH   4   5
HETATM    5  C   UNL     1     -11.629  13.382  69.210  1.00  0.00    -0.365 C  
BRANCH   5   6
HETATM    6  C   UNL     1     -11.839  12.755  67.839  1.00  0.00    -0.392 C  
BRANCH   6   7
HETATM    7  C   UNL     1     -11.548  13.765  66.736  1.00  0.00    -0.394 C  
BRANCH   7   8
HETATM    8  C   UNL     1     -12.661  13.748  65.699  1.00  0.00    -0.551 C  
BRANCH   8   9
HETATM    9  C   UNL     1     -12.538  12.528  64.801  1.00  0.00    -0.493 C  
BRANCH   9  10
HETATM   10  C   UNL     1     -11.816  12.902  63.514  1.00  0.00    -0.605 C  
BRANCH  10  11
HETATM   11  C   UNL     1     -10.473  12.200  63.434  1.00  0.00    -0.450 C  
BRANCH  11  12
HETATM   12  C   UNL     1     -10.515  10.870  64.176  1.00  0.00    -0.397 C  
BRANCH  12  13
HETATM   13  C   UNL     1      -9.136  10.558  64.731  1.00  0.00    -0.242 C  
BRANCH  13  14
HETATM   14  C   UNL     1      -9.105  10.643  66.254  1.00  0.00    -0.186 C  
BRANCH  14  15
HETATM   15  C   UNL     1      -8.451  11.938  66.740  1.00  0.00    -0.167 C  
BRANCH  15  16
HETATM   16  C   UNL     1      -8.123  11.885  68.234  1.00  0.00    -0.154 C  
BRANCH  16  17
HETATM   17  N   UNL     1      -6.624  11.766  68.540  1.00  0.00    -0.055 N  
HETATM   18  C   UNL     1      -5.780  12.218  67.359  1.00  0.00    -0.139 C  
HETATM   19  C   UNL     1      -6.331  10.287  68.813  1.00  0.00    -0.047 C  
HETATM   20  C   UNL     1      -6.251  12.561  69.786  1.00  0.00    -0.113 C  
ENDBRANCH  16  17
ENDBRANCH  15  16
ENDBRANCH  14  15
ENDBRANCH  13  14
ENDBRANCH  12  13
ENDBRANCH  11  12
ENDBRANCH  10  11
ENDBRANCH   9  10
ENDBRANCH   8   9
ENDBRANCH   7   8
ENDBRANCH   6   7
ENDBRANCH   5   6
ENDBRANCH   4   5
ENDBRANCH   3   4
ENDBRANCH   2   3
TORSDOF 15
ENDMDL
MODEL      129
REMARK 921   NORMALIZED FREE ENERGY PREDICTED BY IDOCK:   -3.60 KCAL/MOL
REMARK 922        TOTAL FREE ENERGY PREDICTED BY IDOCK:   -8.44 KCAL/MOL
REMARK 923 INTER-LIGAND FREE ENERGY PREDICTED BY IDOCK:   -7.56 KCAL/MOL
REMARK 924 INTRA-LIGAND FREE ENERGY PREDICTED BY IDOCK:   -0.89 KCAL/MOL
REMARK 927      BINDING AFFINITY PREDICTED BY RF-SCORE:    0.00 PKD
ROOT
HETATM    1  C   UNL     1      -6.998  20.005  65.208  1.00  0.00    -0.299 C  
HETATM    2  C   UNL     1      -7.166  18.972  66.309  1.00  0.00    -0.269 C  
ENDROOT
BRANCH   2   3
HETATM    3  C   UNL     1      -8.318  19.344  67.236  1.00  0.00    -0.324 C  
BRANCH   3   4
HETATM    4  C   UNL     1      -9.653  19.294  66.500  1.00  0.00    -0.420 C  
BRANCH   4   5
HETATM    5  C   UNL     1     -10.674  18.486  67.293  1.00  0.00    -0.417 C  
BRANCH   5   6
HETATM    6  C   UNL     1      -9.986  17.653  68.365  1.00  0.00    -0.356 C  
BRANCH   6   7
HETATM    7  C   UNL     1     -10.822  16.428  68.712  1.00  0.00    -0.338 C  
BRANCH   7   8
HETATM    8  C   UNL     1     -10.726  16.129  70.200  1.00  0.00    -0.289 C  
BRANCH   8   9
HETATM    9  C   UNL     1     -12.098  15.817  70.775  1.00  0.00    -0.448 C  
BRANCH   9  10
HETATM   10  C   UNL     1     -12.043  15.852  72.296  1.00  0.00    -0.597 C  
BRANCH  10  11
HETATM   11  C   UNL     1     -13.234  15.119  72.888  1.00  0.00    -0.600 C  
BRANCH  11  12
HETATM   12  C   UNL     1     -13.852  14.179  71.861  1.00  0.00    -0.539 C  
BRANCH  12  13
HETATM   13  C   UNL     1     -13.666  12.742  72.316  1.00  0.00    -0.495 C  
BRANCH  13  14
HETATM   14  C   UNL     1     -12.688  11.987  71.421  1.00  0.00    -0.380 C  
BRANCH  14  15
HETATM   15  C   UNL     1     -12.708  10.482  71.697  1.00  0.00    -0.550 C  
BRANCH  15  16
HETATM   16  C   UNL     1     -12.081   9.684  70.551  1.00  0.00    -0.129 C  
BRANCH  16  17
HETATM   17  N   UNL     1     -10.948   8.748  70.991  1.00  0.00    -0.252 N  
HETATM   18  C   UNL     1      -9.598   9.444  70.931  1.00  0.00    -0.231 C  
HETATM   19  C   UNL     1     -10.931   7.564  70.017  1.00  0.00    -0.240 C  
HETATM   20  C   UNL     1     -11.196   8.204  72.393  1.00  0.00    -0.386 C  
ENDBRANCH  16  17
ENDBRANCH  15  16
ENDBRANCH  14  15
ENDBRANCH  13  14
ENDBRANCH  12  13
ENDBRANCH  11  12
ENDBRANCH  10  11
ENDBRANCH   9  10
ENDBRANCH   8   9
ENDBRANCH   7   8
ENDBRANCH   6   7
ENDBRANCH   5   6
ENDBRANCH   4   5
ENDBRANCH   3   4
ENDBRANCH   2   3
TORSDOF 15
ENDMDL
MODEL      130
REMARK 921   NORMALIZED FREE ENERGY PREDICTED BY IDOCK:   -3.59 KCAL/MOL
REMARK 922        TOTAL FREE ENERGY PREDICTED BY IDOCK:   -8.43 KCAL/MOL
REMARK 923 INTER-LIGAND FREE ENERGY PREDICTED BY IDOCK:   -6.54 KCAL/MOL
REMARK 924 INTRA-LIGAND FREE ENERGY PREDICTED BY IDOCK:   -1.89 KCAL/MOL
REMARK 927      BINDING AFFINITY PREDICTED BY RF-SCORE:    0.00 PKD
ROOT
HETATM    1  C   UNL     1     -11.936  14.454  64.361  1.00  0.00    -0.471 C  
HETATM    2  C   UNL     1     -10.789  13.463  64.460  1.00  0.00    -0.419 C  
ENDROOT
BRANCH   2   3
HETATM    3  C   UNL     1     -11.256  12.147  65.072  1.00  0.00    -0.372 C  
BRANCH   3   4
HETATM    4  C   UNL     1     -10.237  11.038  64.829  1.00  0.00    -0.381 C  
BRANCH   4   5
HETATM    5  C   UNL     1     -10.144  10.119  66.042  1.00  0.00    -0.317 C  
BRANCH   5   6
HETATM    6  C   UNL     1      -8.747  10.164  66.644  1.00  0.00    -0.134 C  
BRANCH   6   7
HETATM    7  C   UNL     1      -8.782   9.762  68.114  1.00  0.00    -0.119 C  
BRANCH   7   8
HETATM    8  C   UNL     1      -9.756  10.646  68.877  1.00  0.00    -0.210 C  
BRANCH   8   9
HETATM    9  C   UNL     1     -10.207   9.965  70.159  1.00  0.00    -0.326 C  
BRANCH   9  10
HETATM   10  C   UNL     1     -11.552  10.526  70.600  1.00  0.00    -0.445 C  
BRANCH  10  11
HETATM   11  C   UNL     1     -11.947  11.705  69.730  1.00  0.00    -0.402 C  
BRANCH  11  12
HETATM   12  C   UNL     1     -12.238  12.932  70.584  1.00  0.00    -0.386 C  
BRANCH  12  13
HETATM   13  C   UNL     1     -12.140  14.180  69.724  1.00  0.00    -0.409 C  
BRANCH  13  14
HETATM   14  C   UNL     1     -11.707  13.854  68.298  1.00  0.00    -0.396 C  
BRANCH  14  15
HETATM   15  C   UNL     1     -10.516  14.707  67.854  1.00  0.00    -0.242 C  
BRANCH  15  16
HETATM   16  C   UNL     1     -10.861  16.198  67.830  1.00  0.00    -0.332 C  
BRANCH  16  17
HETATM   17  N   UNL     1      -9.810  17.069  67.132  1.00  0.00    -0.262 N  
HETATM   18  C   UNL     1     -10.447  17.997  66.111  1.00  0.00    -0.331 C  
HETATM   19  C   UNL     1      -8.848  16.125  66.402  1.00  0.00    -0.320 C  
HETATM   20  C   UNL     1      -9.004  17.877  68.144  1.00  0.00    -0.268 C  
ENDBRANCH  16  17
ENDBRANCH  15  16
ENDBRANCH  14  15
ENDBRANCH  13  14
ENDBRANCH  12  13
ENDBRANCH  11  12
ENDBRANCH  10  11
ENDBRANCH   9  10
ENDBRANCH   8   9
ENDBRANCH   7   8
ENDBRANCH   6   7
ENDBRANCH   5   6
ENDBRANCH   4   5
ENDBRANCH   3   4
ENDBRANCH   2   3
TORSDOF 15
ENDMDL
MODEL      131
REMARK 921   NORMALIZED FREE ENERGY PREDICTED BY IDOCK:   -3.59 KCAL/MOL
REMARK 922        TOTAL FREE ENERGY PREDICTED BY IDOCK:   -8.42 KCAL/MOL
REMARK 923 INTER-LIGAND FREE ENERGY PREDICTED BY IDOCK:   -5.62 KCAL/MOL
REMARK 924 INTRA-LIGAND FREE ENERGY PREDICTED BY IDOCK:   -2.80 KCAL/MOL
REMARK 927      BINDING AFFINITY PREDICTED BY RF-SCORE:    0.00 PKD
ROOT
HETATM    1  C   UNL     1      -7.117   7.645  68.545  1.00  0.00    -0.081 C  
HETATM    2  C   UNL     1      -7.674   8.531  69.645  1.00  0.00    -0.093 C  
ENDROOT
BRANCH   2   3
HETATM    3  C   UNL     1      -7.817   7.756  70.951  1.00  0.00    -0.089 C  
BRANCH   3   4
HETATM    4  C   UNL     1      -8.715   8.500  71.935  1.00  0.00    -0.270 C  
BRANCH   4   5
HETATM    5  C   UNL     1      -9.899   9.130  71.210  1.00  0.00    -0.363 C  
BRANCH   5   6
HETATM    6  C   UNL     1     -11.198   8.841  71.949  1.00  0.00    -0.438 C  
BRANCH   6   7
HETATM    7  C   UNL     1     -11.154   7.459  72.590  1.00  0.00    -0.378 C  
BRANCH   7   8
HETATM    8  C   UNL     1     -11.697   6.415  71.626  1.00  0.00    -0.367 C  
BRANCH   8   9
HETATM    9  C   UNL     1     -10.633   5.378  71.303  1.00  0.00    -0.276 C  
BRANCH   9  10
HETATM   10  C   UNL     1     -10.312   5.410  69.816  1.00  0.00    -0.375 C  
BRANCH  10  11
HETATM   11  C   UNL     1     -11.176   6.436  69.107  1.00  0.00    -0.421 C  
BRANCH  11  12
HETATM   12  C   UNL     1     -10.600   6.772  67.738  1.00  0.00    -0.307 C  
BRANCH  12  13
HETATM   13  C   UNL     1     -10.644   8.276  67.527  1.00  0.00    -0.291 C  
BRANCH  13  14
HETATM   14  C   UNL     1      -9.883   8.696  66.273  1.00  0.00    -0.320 C  
BRANCH  14  15
HETATM   15  C   UNL     1      -9.631  10.205  66.238  1.00  0.00    -0.245 C  
BRANCH  15  16
HETATM   16  C   UNL     1      -9.828  10.848  67.613  1.00  0.00    -0.171 C  
BRANCH  16  17
HETATM   17  N   UNL     1     -10.801  12.034  67.612  1.00  0.00    -0.222 N  
HETATM   18  C   UNL     1     -11.458  12.211  66.253  1.00  0.00    -0.374 C  
HETATM   19  C   UNL     1      -9.986  13.292  67.929  1.00  0.00    -0.233 C  
HETATM   20  C   UNL     1     -11.865  11.874  68.692  1.00  0.00    -0.308 C  
ENDBRANCH  16  17
ENDBRANCH  15  16
ENDBRANCH  14  15
ENDBRANCH  13  14
ENDBRANCH  12  13
ENDBRANCH  11  12
ENDBRANCH  10  11
ENDBRANCH   9  10
ENDBRANCH   8   9
ENDBRANCH   7   8
ENDBRANCH   6   7
ENDBRANCH   5   6
ENDBRANCH   4   5
ENDBRANCH   3   4
ENDBRANCH   2   3
TORSDOF 15
ENDMDL
MODEL      132
REMARK 921   NORMALIZED FREE ENERGY PREDICTED BY IDOCK:   -3.58 KCAL/MOL
REMARK 922        TOTAL FREE ENERGY PREDICTED BY IDOCK:   -8.40 KCAL/MOL
REMARK 923 INTER-LIGAND FREE ENERGY PREDICTED BY IDOCK:   -6.06 KCAL/MOL
REMARK 924 INTRA-LIGAND FREE ENERGY PREDICTED BY IDOCK:   -2.35 KCAL/MOL
REMARK 927      BINDING AFFINITY PREDICTED BY RF-SCORE:    0.00 PKD
ROOT
HETATM    1  C   UNL     1     -10.525   7.527  67.158  1.00  0.00    -0.407 C  
HETATM    2  C   UNL     1      -9.177   7.631  67.850  1.00  0.00    -0.139 C  
ENDROOT
BRANCH   2   3
HETATM    3  C   UNL     1      -9.255   8.551  69.064  1.00  0.00    -0.146 C  
BRANCH   3   4
HETATM    4  C   UNL     1     -10.701   8.759  69.502  1.00  0.00    -0.196 C  
BRANCH   4   5
HETATM    5  C   UNL     1     -10.781   9.801  70.612  1.00  0.00    -0.394 C  
BRANCH   5   6
HETATM    6  C   UNL     1     -11.846  10.842  70.297  1.00  0.00    -0.438 C  
BRANCH   6   7
HETATM    7  C   UNL     1     -11.906  11.112  68.799  1.00  0.00    -0.388 C  
BRANCH   7   8
HETATM    8  C   UNL     1     -11.073  12.338  68.453  1.00  0.00    -0.283 C  
BRANCH   8   9
HETATM    9  C   UNL     1     -10.018  11.993  67.414  1.00  0.00    -0.200 C  
BRANCH   9  10
HETATM   10  C   UNL     1     -10.603  11.049  66.373  1.00  0.00    -0.308 C  
BRANCH  10  11
HETATM   11  C   UNL     1     -10.672  11.729  65.018  1.00  0.00    -0.344 C  
BRANCH  11  12
HETATM   12  C   UNL     1     -12.077  12.253  64.749  1.00  0.00    -0.436 C  
BRANCH  12  13
HETATM   13  C   UNL     1     -12.012  13.742  64.456  1.00  0.00    -0.458 C  
BRANCH  13  14
HETATM   14  C   UNL     1     -12.101  14.575  65.731  1.00  0.00    -0.285 C  
BRANCH  14  15
HETATM   15  C   UNL     1     -10.792  15.311  66.024  1.00  0.00    -0.331 C  
BRANCH  15  16
HETATM   16  C   UNL     1     -10.771  15.894  67.440  1.00  0.00    -0.313 C  
BRANCH  16  17
HETATM   17  N   UNL     1      -9.361  16.154  67.986  1.00  0.00    -0.202 N  
HETATM   18  C   UNL     1      -9.074  17.642  68.098  1.00  0.00    -0.276 C  
HETATM   19  C   UNL     1      -8.368  15.537  66.994  1.00  0.00    -0.232 C  
HETATM   20  C   UNL     1      -9.161  15.478  69.338  1.00  0.00    -0.280 C  
ENDBRANCH  16  17
ENDBRANCH  15  16
ENDBRANCH  14  15
ENDBRANCH  13  14
ENDBRANCH  12  13
ENDBRANCH  11  12
ENDBRANCH  10  11
ENDBRANCH   9  10
ENDBRANCH   8   9
ENDBRANCH   7   8
ENDBRANCH   6   7
ENDBRANCH   5   6
ENDBRANCH   4   5
ENDBRANCH   3   4
ENDBRANCH   2   3
TORSDOF 15
ENDMDL
MODEL      133
REMARK 921   NORMALIZED FREE ENERGY PREDICTED BY IDOCK:   -3.57 KCAL/MOL
REMARK 922        TOTAL FREE ENERGY PREDICTED BY IDOCK:   -8.39 KCAL/MOL
REMARK 923 INTER-LIGAND FREE ENERGY PREDICTED BY IDOCK:   -7.07 KCAL/MOL
REMARK 924 INTRA-LIGAND FREE ENERGY PREDICTED BY IDOCK:   -1.32 KCAL/MOL
REMARK 927      BINDING AFFINITY PREDICTED BY RF-SCORE:    0.00 PKD
ROOT
HETATM    1  C   UNL     1     -10.293   5.390  71.574  1.00  0.00    -0.289 C  
HETATM    2  C   UNL     1     -11.467   6.294  71.239  1.00  0.00    -0.352 C  
ENDROOT
BRANCH   2   3
HETATM    3  C   UNL     1     -11.304   6.910  69.854  1.00  0.00    -0.321 C  
BRANCH   3   4
HETATM    4  C   UNL     1     -10.895   5.856  68.829  1.00  0.00    -0.353 C  
BRANCH   4   5
HETATM    5  C   UNL     1     -10.857   6.456  67.428  1.00  0.00    -0.457 C  
BRANCH   5   6
HETATM    6  C   UNL     1      -9.422   6.731  67.000  1.00  0.00    -0.175 C  
BRANCH   6   7
HETATM    7  C   UNL     1      -9.295   8.134  66.419  1.00  0.00    -0.269 C  
BRANCH   7   8
HETATM    8  C   UNL     1     -10.517   8.965  66.780  1.00  0.00    -0.269 C  
BRANCH   8   9
HETATM    9  C   UNL     1     -10.210  10.450  66.660  1.00  0.00    -0.292 C  
BRANCH   9  10
HETATM   10  C   UNL     1      -9.407  10.713  65.394  1.00  0.00    -0.250 C  
BRANCH  10  11
HETATM   11  C   UNL     1     -10.320  10.738  64.181  1.00  0.00    -0.382 C  
BRANCH  11  12
HETATM   12  C   UNL     1     -10.585  12.170  63.736  1.00  0.00    -0.482 C  
BRANCH  12  13
HETATM   13  C   UNL     1     -12.084  12.407  63.668  1.00  0.00    -0.648 C  
BRANCH  13  14
HETATM   14  C   UNL     1     -12.660  12.792  65.027  1.00  0.00    -0.538 C  
BRANCH  14  15
HETATM   15  C   UNL     1     -11.899  13.959  65.659  1.00  0.00    -0.383 C  
BRANCH  15  16
HETATM   16  C   UNL     1     -12.028  13.965  67.185  1.00  0.00    -0.420 C  
BRANCH  16  17
HETATM   17  N   UNL     1     -11.060  14.923  67.889  1.00  0.00    -0.287 N  
HETATM   18  C   UNL     1     -10.613  16.041  66.961  1.00  0.00    -0.302 C  
HETATM   19  C   UNL     1      -9.829  14.107  68.299  1.00  0.00    -0.235 C  
HETATM   20  C   UNL     1     -11.683  15.508  69.151  1.00  0.00    -0.365 C  
ENDBRANCH  16  17
ENDBRANCH  15  16
ENDBRANCH  14  15
ENDBRANCH  13  14
ENDBRANCH  12  13
ENDBRANCH  11  12
ENDBRANCH  10  11
ENDBRANCH   9  10
ENDBRANCH   8   9
ENDBRANCH   7   8
ENDBRANCH   6   7
ENDBRANCH   5   6
ENDBRANCH   4   5
ENDBRANCH   3   4
ENDBRANCH   2   3
TORSDOF 15
ENDMDL
MODEL      134
REMARK 921   NORMALIZED FREE ENERGY PREDICTED BY IDOCK:   -3.57 KCAL/MOL
REMARK 922        TOTAL FREE ENERGY PREDICTED BY IDOCK:   -8.39 KCAL/MOL
REMARK 923 INTER-LIGAND FREE ENERGY PREDICTED BY IDOCK:   -7.04 KCAL/MOL
REMARK 924 INTRA-LIGAND FREE ENERGY PREDICTED BY IDOCK:   -1.35 KCAL/MOL
REMARK 927      BINDING AFFINITY PREDICTED BY RF-SCORE:    0.00 PKD
ROOT
HETATM    1  C   UNL     1     -10.801  15.935  65.280  1.00  0.00    -0.401 C  
HETATM    2  C   UNL     1     -10.728  14.512  64.754  1.00  0.00    -0.414 C  
ENDROOT
BRANCH   2   3
HETATM    3  C   UNL     1     -12.117  13.989  64.401  1.00  0.00    -0.486 C  
BRANCH   3   4
HETATM    4  C   UNL     1     -12.198  12.477  64.590  1.00  0.00    -0.524 C  
BRANCH   4   5
HETATM    5  C   UNL     1     -11.351  11.759  63.545  1.00  0.00    -0.496 C  
BRANCH   5   6
HETATM    6  C   UNL     1     -10.182  11.038  64.203  1.00  0.00    -0.419 C  
BRANCH   6   7
HETATM    7  C   UNL     1     -10.296  11.105  65.721  1.00  0.00    -0.316 C  
BRANCH   7   8
HETATM    8  C   UNL     1     -10.143   9.716  66.321  1.00  0.00    -0.322 C  
BRANCH   8   9
HETATM    9  C   UNL     1     -10.905   9.612  67.633  1.00  0.00    -0.276 C  
BRANCH   9  10
HETATM   10  C   UNL     1     -11.445  10.978  68.030  1.00  0.00    -0.365 C  
BRANCH  10  11
HETATM   11  C   UNL     1     -11.306  11.190  69.526  1.00  0.00    -0.359 C  
BRANCH  11  12
HETATM   12  C   UNL     1     -12.430  10.487  70.277  1.00  0.00    -0.345 C  
BRANCH  12  13
HETATM   13  C   UNL     1     -11.841   9.660  71.407  1.00  0.00    -0.484 C  
BRANCH  13  14
HETATM   14  C   UNL     1     -10.373   9.327  71.161  1.00  0.00    -0.392 C  
BRANCH  14  15
HETATM   15  C   UNL     1     -10.172   7.845  70.834  1.00  0.00    -0.213 C  
BRANCH  15  16
HETATM   16  C   UNL     1     -11.163   6.956  71.589  1.00  0.00    -0.247 C  
BRANCH  16  17
HETATM   17  N   UNL     1     -10.520   6.094  72.682  1.00  0.00    -0.200 N  
HETATM   18  C   UNL     1     -10.217   6.911  73.927  1.00  0.00    -0.367 C  
HETATM   19  C   UNL     1      -9.200   5.554  72.119  1.00  0.00    -0.143 C  
HETATM   20  C   UNL     1     -11.405   4.904  73.038  1.00  0.00    -0.273 C  
ENDBRANCH  16  17
ENDBRANCH  15  16
ENDBRANCH  14  15
ENDBRANCH  13  14
ENDBRANCH  12  13
ENDBRANCH  11  12
ENDBRANCH  10  11
ENDBRANCH   9  10
ENDBRANCH   8   9
ENDBRANCH   7   8
ENDBRANCH   6   7
ENDBRANCH   5   6
ENDBRANCH   4   5
ENDBRANCH   3   4
ENDBRANCH   2   3
TORSDOF 15
ENDMDL
MODEL      135
REMARK 921   NORMALIZED FREE ENERGY PREDICTED BY IDOCK:   -3.56 KCAL/MOL
REMARK 922        TOTAL FREE ENERGY PREDICTED BY IDOCK:   -8.38 KCAL/MOL
REMARK 923 INTER-LIGAND FREE ENERGY PREDICTED BY IDOCK:   -6.62 KCAL/MOL
REMARK 924 INTRA-LIGAND FREE ENERGY PREDICTED BY IDOCK:   -1.76 KCAL/MOL
REMARK 927      BINDING AFFINITY PREDICTED BY RF-SCORE:    0.00 PKD
ROOT
HETATM    1  C   UNL     1     -12.051  12.008  70.218  1.00  0.00    -0.395 C  
HETATM    2  C   UNL     1     -12.910  11.780  71.450  1.00  0.00    -0.440 C  
ENDROOT
BRANCH   2   3
HETATM    3  C   UNL     1     -13.051  10.291  71.749  1.00  0.00    -0.570 C  
BRANCH   3   4
HETATM    4  C   UNL     1     -11.993   9.480  71.009  1.00  0.00    -0.407 C  
BRANCH   4   5
HETATM    5  C   UNL     1     -11.075   8.767  71.995  1.00  0.00    -0.441 C  
BRANCH   5   6
HETATM    6  C   UNL     1      -9.629   8.828  71.524  1.00  0.00    -0.354 C  
BRANCH   6   7
HETATM    7  C   UNL     1      -9.563   8.988  70.010  1.00  0.00    -0.203 C  
BRANCH   7   8
HETATM    8  C   UNL     1      -8.445   9.947  69.631  1.00  0.00    -0.198 C  
BRANCH   8   9
HETATM    9  C   UNL     1      -8.789  10.694  68.352  1.00  0.00    -0.145 C  
BRANCH   9  10
HETATM   10  C   UNL     1     -10.042  10.099  67.725  1.00  0.00    -0.216 C  
BRANCH  10  11
HETATM   11  C   UNL     1     -10.331  10.757  66.388  1.00  0.00    -0.306 C  
BRANCH  11  12
HETATM   12  C   UNL     1     -11.492  11.736  66.509  1.00  0.00    -0.325 C  
BRANCH  12  13
HETATM   13  C   UNL     1     -10.955  13.157  66.519  1.00  0.00    -0.303 C  
BRANCH  13  14
HETATM   14  C   UNL     1     -11.973  14.143  67.083  1.00  0.00    -0.460 C  
BRANCH  14  15
HETATM   15  C   UNL     1     -11.296  15.317  67.794  1.00  0.00    -0.331 C  
BRANCH  15  16
HETATM   16  C   UNL     1     -10.466  16.167  66.828  1.00  0.00    -0.294 C  
BRANCH  16  17
HETATM   17  N   UNL     1      -9.926  17.463  67.446  1.00  0.00    -0.295 N  
HETATM   18  C   UNL     1     -10.272  17.561  68.922  1.00  0.00    -0.353 C  
HETATM   19  C   UNL     1     -10.592  18.631  66.709  1.00  0.00    -0.371 C  
HETATM   20  C   UNL     1      -8.418  17.579  67.251  1.00  0.00    -0.214 C  
ENDBRANCH  16  17
ENDBRANCH  15  16
ENDBRANCH  14  15
ENDBRANCH  13  14
ENDBRANCH  12  13
ENDBRANCH  11  12
ENDBRANCH  10  11
ENDBRANCH   9  10
ENDBRANCH   8   9
ENDBRANCH   7   8
ENDBRANCH   6   7
ENDBRANCH   5   6
ENDBRANCH   4   5
ENDBRANCH   3   4
ENDBRANCH   2   3
TORSDOF 15
ENDMDL
MODEL      136
REMARK 921   NORMALIZED FREE ENERGY PREDICTED BY IDOCK:   -3.54 KCAL/MOL
REMARK 922        TOTAL FREE ENERGY PREDICTED BY IDOCK:   -8.34 KCAL/MOL
REMARK 923 INTER-LIGAND FREE ENERGY PREDICTED BY IDOCK:   -5.90 KCAL/MOL
REMARK 924 INTRA-LIGAND FREE ENERGY PREDICTED BY IDOCK:   -2.45 KCAL/MOL
REMARK 927      BINDING AFFINITY PREDICTED BY RF-SCORE:    0.00 PKD
ROOT
HETATM    1  C   UNL     1     -10.305   3.266  72.676  1.00  0.00    -0.217 C  
HETATM    2  C   UNL     1     -10.882   4.262  73.667  1.00  0.00    -0.358 C  
ENDROOT
BRANCH   2   3
HETATM    3  C   UNL     1      -9.776   5.085  74.321  1.00  0.00    -0.166 C  
BRANCH   3   4
HETATM    4  C   UNL     1     -10.159   6.560  74.390  1.00  0.00    -0.371 C  
BRANCH   4   5
HETATM    5  C   UNL     1      -9.257   7.391  73.484  1.00  0.00    -0.275 C  
BRANCH   5   6
HETATM    6  C   UNL     1      -8.117   6.544  72.936  1.00  0.00    -0.105 C  
BRANCH   6   7
HETATM    7  C   UNL     1      -8.100   6.589  71.413  1.00  0.00    -0.112 C  
BRANCH   7   8
HETATM    8  C   UNL     1      -9.390   7.203  70.890  1.00  0.00    -0.160 C  
BRANCH   8   9
HETATM    9  C   UNL     1     -10.186   6.182  70.093  1.00  0.00    -0.254 C  
BRANCH   9  10
HETATM   10  C   UNL     1     -11.651   6.592  70.041  1.00  0.00    -0.455 C  
BRANCH  10  11
HETATM   11  C   UNL     1     -12.236   6.649  71.440  1.00  0.00    -0.378 C  
BRANCH  11  12
HETATM   12  C   UNL     1     -13.180   7.836  71.581  1.00  0.00    -0.381 C  
BRANCH  12  13
HETATM   13  C   UNL     1     -12.400   9.048  72.061  1.00  0.00    -0.455 C  
BRANCH  13  14
HETATM   14  C   UNL     1     -12.704  10.286  71.224  1.00  0.00    -0.523 C  
BRANCH  14  15
HETATM   15  C   UNL     1     -11.645  10.518  70.144  1.00  0.00    -0.408 C  
BRANCH  15  16
HETATM   16  C   UNL     1     -11.967  11.743  69.283  1.00  0.00    -0.291 C  
BRANCH  16  17
HETATM   17  N   UNL     1     -10.909  12.051  68.217  1.00  0.00    -0.217 N  
HETATM   18  C   UNL     1      -9.788  11.025  68.234  1.00  0.00    -0.178 C  
HETATM   19  C   UNL     1     -10.318  13.427  68.545  1.00  0.00    -0.236 C  
HETATM   20  C   UNL     1     -11.532  12.124  66.827  1.00  0.00    -0.356 C  
ENDBRANCH  16  17
ENDBRANCH  15  16
ENDBRANCH  14  15
ENDBRANCH  13  14
ENDBRANCH  12  13
ENDBRANCH  11  12
ENDBRANCH  10  11
ENDBRANCH   9  10
ENDBRANCH   8   9
ENDBRANCH   7   8
ENDBRANCH   6   7
ENDBRANCH   5   6
ENDBRANCH   4   5
ENDBRANCH   3   4
ENDBRANCH   2   3
TORSDOF 15
ENDMDL
MODEL      137
REMARK 921   NORMALIZED FREE ENERGY PREDICTED BY IDOCK:   -3.54 KCAL/MOL
REMARK 922        TOTAL FREE ENERGY PREDICTED BY IDOCK:   -8.34 KCAL/MOL
REMARK 923 INTER-LIGAND FREE ENERGY PREDICTED BY IDOCK:   -6.80 KCAL/MOL
REMARK 924 INTRA-LIGAND FREE ENERGY PREDICTED BY IDOCK:   -1.54 KCAL/MOL
REMARK 927      BINDING AFFINITY PREDICTED BY RF-SCORE:    0.00 PKD
ROOT
HETATM    1  C   UNL     1      -6.060  17.045  68.536  1.00  0.00    -0.147 C  
HETATM    2  C   UNL     1      -5.832  17.530  67.115  1.00  0.00    -0.164 C  
ENDROOT
BRANCH   2   3
HETATM    3  C   UNL     1      -7.157  17.813  66.415  1.00  0.00    -0.299 C  
BRANCH   3   4
HETATM    4  C   UNL     1      -7.190  19.231  65.856  1.00  0.00    -0.305 C  
BRANCH   4   5
HETATM    5  C   UNL     1      -7.310  20.251  66.983  1.00  0.00    -0.327 C  
BRANCH   5   6
HETATM    6  C   UNL     1      -8.413  19.852  67.954  1.00  0.00    -0.332 C  
BRANCH   6   7
HETATM    7  C   UNL     1      -9.784  20.051  67.319  1.00  0.00    -0.545 C  
BRANCH   7   8
HETATM    8  C   UNL     1     -10.693  18.878  67.653  1.00  0.00    -0.469 C  
BRANCH   8   9
HETATM    9  C   UNL     1     -10.060  17.994  68.715  1.00  0.00    -0.388 C  
BRANCH   9  10
HETATM   10  C   UNL     1     -10.538  16.558  68.548  1.00  0.00    -0.318 C  
BRANCH  10  11
HETATM   11  C   UNL     1     -11.177  16.059  69.831  1.00  0.00    -0.361 C  
BRANCH  11  12
HETATM   12  C   UNL     1     -11.938  14.762  69.585  1.00  0.00    -0.360 C  
BRANCH  12  13
HETATM   13  C   UNL     1     -11.870  14.410  68.109  1.00  0.00    -0.362 C  
BRANCH  13  14
HETATM   14  C   UNL     1     -11.612  12.922  67.893  1.00  0.00    -0.391 C  
BRANCH  14  15
HETATM   15  C   UNL     1     -10.612  12.675  66.761  1.00  0.00    -0.254 C  
BRANCH  15  16
HETATM   16  C   UNL     1     -11.228  11.851  65.626  1.00  0.00    -0.306 C  
BRANCH  16  17
HETATM   17  N   UNL     1     -11.231  12.564  64.269  1.00  0.00    -0.330 N  
HETATM   18  C   UNL     1     -12.584  12.452  63.586  1.00  0.00    -0.443 C  
HETATM   19  C   UNL     1     -10.181  11.875  63.390  1.00  0.00    -0.449 C  
HETATM   20  C   UNL     1     -10.837  14.030  64.415  1.00  0.00    -0.249 C  
ENDBRANCH  16  17
ENDBRANCH  15  16
ENDBRANCH  14  15
ENDBRANCH  13  14
ENDBRANCH  12  13
ENDBRANCH  11  12
ENDBRANCH  10  11
ENDBRANCH   9  10
ENDBRANCH   8   9
ENDBRANCH   7   8
ENDBRANCH   6   7
ENDBRANCH   5   6
ENDBRANCH   4   5
ENDBRANCH   3   4
ENDBRANCH   2   3
TORSDOF 15
ENDMDL
MODEL      138
REMARK 921   NORMALIZED FREE ENERGY PREDICTED BY IDOCK:   -3.54 KCAL/MOL
REMARK 922        TOTAL FREE ENERGY PREDICTED BY IDOCK:   -8.33 KCAL/MOL
REMARK 923 INTER-LIGAND FREE ENERGY PREDICTED BY IDOCK:   -6.92 KCAL/MOL
REMARK 924 INTRA-LIGAND FREE ENERGY PREDICTED BY IDOCK:   -1.41 KCAL/MOL
REMARK 927      BINDING AFFINITY PREDICTED BY RF-SCORE:    0.00 PKD
ROOT
HETATM    1  C   UNL     1     -13.551  13.761  72.378  1.00  0.00    -0.690 C  
HETATM    2  C   UNL     1     -12.697  13.746  71.122  1.00  0.00    -0.438 C  
ENDROOT
BRANCH   2   3
HETATM    3  C   UNL     1     -12.421  15.163  70.631  1.00  0.00    -0.442 C  
BRANCH   3   4
HETATM    4  C   UNL     1     -11.859  15.153  69.213  1.00  0.00    -0.347 C  
BRANCH   4   5
HETATM    5  C   UNL     1     -11.859  13.737  68.646  1.00  0.00    -0.409 C  
BRANCH   5   6
HETATM    6  C   UNL     1     -10.896  13.629  67.472  1.00  0.00    -0.275 C  
BRANCH   6   7
HETATM    7  C   UNL     1     -11.312  14.571  66.348  1.00  0.00    -0.349 C  
BRANCH   7   8
HETATM    8  C   UNL     1     -12.599  14.082  65.702  1.00  0.00    -0.542 C  
BRANCH   8   9
HETATM    9  C   UNL     1     -12.420  12.681  65.140  1.00  0.00    -0.531 C  
BRANCH   9  10
HETATM   10  C   UNL     1     -11.658  12.743  63.824  1.00  0.00    -0.548 C  
BRANCH  10  11
HETATM   11  C   UNL     1     -11.104  11.376  63.466  1.00  0.00    -0.373 C  
BRANCH  11  12
HETATM   12  C   UNL     1      -9.617  11.295  63.787  1.00  0.00    -0.284 C  
BRANCH  12  13
HETATM   13  C   UNL     1      -9.358  10.092  64.677  1.00  0.00    -0.338 C  
BRANCH  13  14
HETATM   14  C   UNL     1      -9.949  10.280  66.071  1.00  0.00    -0.308 C  
BRANCH  14  15
HETATM   15  C   UNL     1     -10.269   8.941  66.739  1.00  0.00    -0.348 C  
BRANCH  15  16
HETATM   16  C   UNL     1      -8.998   8.166  67.100  1.00  0.00    -0.139 C  
BRANCH  16  17
HETATM   17  N   UNL     1      -9.056   6.675  66.745  1.00  0.00    -0.137 N  
HETATM   18  C   UNL     1      -8.581   6.424  65.323  1.00  0.00    -0.044 C  
HETATM   19  C   UNL     1     -10.521   6.237  66.855  1.00  0.00    -0.272 C  
HETATM   20  C   UNL     1      -8.238   5.843  67.726  1.00  0.00    -0.105 C  
ENDBRANCH  16  17
ENDBRANCH  15  16
ENDBRANCH  14  15
ENDBRANCH  13  14
ENDBRANCH  12  13
ENDBRANCH  11  12
ENDBRANCH  10  11
ENDBRANCH   9  10
ENDBRANCH   8   9
ENDBRANCH   7   8
ENDBRANCH   6   7
ENDBRANCH   5   6
ENDBRANCH   4   5
ENDBRANCH   3   4
ENDBRANCH   2   3
TORSDOF 15
ENDMDL
MODEL      139
REMARK 921   NORMALIZED FREE ENERGY PREDICTED BY IDOCK:   -3.53 KCAL/MOL
REMARK 922        TOTAL FREE ENERGY PREDICTED BY IDOCK:   -8.31 KCAL/MOL
REMARK 923 INTER-LIGAND FREE ENERGY PREDICTED BY IDOCK:   -7.01 KCAL/MOL
REMARK 924 INTRA-LIGAND FREE ENERGY PREDICTED BY IDOCK:   -1.30 KCAL/MOL
REMARK 927      BINDING AFFINITY PREDICTED BY RF-SCORE:    0.00 PKD
ROOT
HETATM    1  C   UNL     1     -10.750  11.144  63.877  1.00  0.00    -0.407 C  
HETATM    2  C   UNL     1     -11.052  12.603  63.583  1.00  0.00    -0.496 C  
ENDROOT
BRANCH   2   3
HETATM    3  C   UNL     1     -11.294  13.382  64.872  1.00  0.00    -0.345 C  
BRANCH   3   4
HETATM    4  C   UNL     1     -11.196  12.469  66.090  1.00  0.00    -0.362 C  
BRANCH   4   5
HETATM    5  C   UNL     1     -11.859  13.117  67.301  1.00  0.00    -0.420 C  
BRANCH   5   6
HETATM    6  C   UNL     1     -11.388  14.555  67.467  1.00  0.00    -0.355 C  
BRANCH   6   7
HETATM    7  C   UNL     1     -11.750  15.083  68.849  1.00  0.00    -0.354 C  
BRANCH   7   8
HETATM    8  C   UNL     1     -12.096  13.929  69.779  1.00  0.00    -0.404 C  
BRANCH   8   9
HETATM    9  C   UNL     1     -12.994  14.402  70.910  1.00  0.00    -0.413 C  
BRANCH   9  10
HETATM   10  C   UNL     1     -13.308  13.242  71.844  1.00  0.00    -0.540 C  
BRANCH  10  11
HETATM   11  C   UNL     1     -12.668  11.963  71.336  1.00  0.00    -0.395 C  
BRANCH  11  12
HETATM   12  C   UNL     1     -13.392  10.742  71.888  1.00  0.00    -0.445 C  
BRANCH  12  13
HETATM   13  C   UNL     1     -12.539   9.505  71.661  1.00  0.00    -0.476 C  
BRANCH  13  14
HETATM   14  C   UNL     1     -11.339   9.799  70.767  1.00  0.00    -0.416 C  
BRANCH  14  15
HETATM   15  C   UNL     1     -10.479   8.554  70.539  1.00  0.00    -0.230 C  
BRANCH  15  16
HETATM   16  C   UNL     1      -9.480   8.754  69.396  1.00  0.00    -0.161 C  
BRANCH  16  17
HETATM   17  N   UNL     1      -9.746   7.867  68.174  1.00  0.00    -0.155 N  
HETATM   18  C   UNL     1     -10.568   6.643  68.544  1.00  0.00    -0.233 C  
HETATM   19  C   UNL     1      -8.385   7.399  67.645  1.00  0.00    -0.118 C  
HETATM   20  C   UNL     1     -10.442   8.649  67.066  1.00  0.00    -0.284 C  
ENDBRANCH  16  17
ENDBRANCH  15  16
ENDBRANCH  14  15
ENDBRANCH  13  14
ENDBRANCH  12  13
ENDBRANCH  11  12
ENDBRANCH  10  11
ENDBRANCH   9  10
ENDBRANCH   8   9
ENDBRANCH   7   8
ENDBRANCH   6   7
ENDBRANCH   5   6
ENDBRANCH   4   5
ENDBRANCH   3   4
ENDBRANCH   2   3
TORSDOF 15
ENDMDL
MODEL      140
REMARK 921   NORMALIZED FREE ENERGY PREDICTED BY IDOCK:   -3.52 KCAL/MOL
REMARK 922        TOTAL FREE ENERGY PREDICTED BY IDOCK:   -8.30 KCAL/MOL
REMARK 923 INTER-LIGAND FREE ENERGY PREDICTED BY IDOCK:   -6.87 KCAL/MOL
REMARK 924 INTRA-LIGAND FREE ENERGY PREDICTED BY IDOCK:   -1.43 KCAL/MOL
REMARK 927      BINDING AFFINITY PREDICTED BY RF-SCORE:    0.00 PKD
ROOT
HETATM    1  C   UNL     1      -9.291  10.749  62.739  1.00  0.00    -0.352 C  
HETATM    2  C   UNL     1     -10.470  11.095  63.632  1.00  0.00    -0.438 C  
ENDROOT
BRANCH   2   3
HETATM    3  C   UNL     1     -10.967  12.510  63.356  1.00  0.00    -0.386 C  
BRANCH   3   4
HETATM    4  C   UNL     1     -12.297  12.770  64.056  1.00  0.00    -0.492 C  
BRANCH   4   5
HETATM    5  C   UNL     1     -12.254  14.088  64.822  1.00  0.00    -0.454 C  
BRANCH   5   6
HETATM    6  C   UNL     1     -12.459  13.851  66.311  1.00  0.00    -0.454 C  
BRANCH   6   7
HETATM    7  C   UNL     1     -11.376  12.933  66.864  1.00  0.00    -0.358 C  
BRANCH   7   8
HETATM    8  C   UNL     1     -11.714  12.517  68.287  1.00  0.00    -0.390 C  
BRANCH   8   9
HETATM    9  C   UNL     1     -12.134  13.722  69.113  1.00  0.00    -0.374 C  
BRANCH   9  10
HETATM   10  C   UNL     1     -10.924  14.598  69.406  1.00  0.00    -0.279 C  
BRANCH  10  11
HETATM   11  C   UNL     1     -11.219  16.046  69.058  1.00  0.00    -0.347 C  
BRANCH  11  12
HETATM   12  C   UNL     1      -9.972  16.735  68.521  1.00  0.00    -0.271 C  
BRANCH  12  13
HETATM   13  C   UNL     1      -9.391  15.914  67.382  1.00  0.00    -0.214 C  
BRANCH  13  14
HETATM   14  C   UNL     1      -7.989  16.380  67.004  1.00  0.00    -0.240 C  
BRANCH  14  15
HETATM   15  C   UNL     1      -7.999  17.786  66.399  1.00  0.00    -0.306 C  
BRANCH  15  16
HETATM   16  C   UNL     1      -6.824  18.631  66.900  1.00  0.00    -0.195 C  
BRANCH  16  17
HETATM   17  N   UNL     1      -7.245  19.883  67.679  1.00  0.00    -0.267 N  
HETATM   18  C   UNL     1      -7.142  19.664  69.179  1.00  0.00    -0.343 C  
HETATM   19  C   UNL     1      -8.709  20.168  67.326  1.00  0.00    -0.348 C  
HETATM   20  C   UNL     1      -6.414  21.093  67.268  1.00  0.00    -0.358 C  
ENDBRANCH  16  17
ENDBRANCH  15  16
ENDBRANCH  14  15
ENDBRANCH  13  14
ENDBRANCH  12  13
ENDBRANCH  11  12
ENDBRANCH  10  11
ENDBRANCH   9  10
ENDBRANCH   8   9
ENDBRANCH   7   8
ENDBRANCH   6   7
ENDBRANCH   5   6
ENDBRANCH   4   5
ENDBRANCH   3   4
ENDBRANCH   2   3
TORSDOF 15
ENDMDL
MODEL      141
REMARK 921   NORMALIZED FREE ENERGY PREDICTED BY IDOCK:   -3.52 KCAL/MOL
REMARK 922        TOTAL FREE ENERGY PREDICTED BY IDOCK:   -8.30 KCAL/MOL
REMARK 923 INTER-LIGAND FREE ENERGY PREDICTED BY IDOCK:   -6.63 KCAL/MOL
REMARK 924 INTRA-LIGAND FREE ENERGY PREDICTED BY IDOCK:   -1.67 KCAL/MOL
REMARK 927      BINDING AFFINITY PREDICTED BY RF-SCORE:    0.00 PKD
ROOT
HETATM    1  C   UNL     1      -7.836  15.094  67.147  1.00  0.00    -0.240 C  
HETATM    2  C   UNL     1      -8.560  16.231  66.447  1.00  0.00    -0.361 C  
ENDROOT
BRANCH   2   3
HETATM    3  C   UNL     1     -10.014  15.863  66.169  1.00  0.00    -0.337 C  
BRANCH   3   4
HETATM    4  C   UNL     1     -10.841  15.890  67.451  1.00  0.00    -0.291 C  
BRANCH   4   5
HETATM    5  C   UNL     1     -11.851  14.748  67.462  1.00  0.00    -0.326 C  
BRANCH   5   6
HETATM    6  C   UNL     1     -11.412  13.631  66.525  1.00  0.00    -0.357 C  
BRANCH   6   7
HETATM    7  C   UNL     1     -12.523  13.287  65.542  1.00  0.00    -0.531 C  
BRANCH   7   8
HETATM    8  C   UNL     1     -12.014  13.395  64.113  1.00  0.00    -0.505 C  
BRANCH   8   9
HETATM    9  C   UNL     1     -11.893  12.017  63.481  1.00  0.00    -0.587 C  
BRANCH   9  10
HETATM   10  C   UNL     1     -10.432  11.592  63.438  1.00  0.00    -0.482 C  
BRANCH  10  11
HETATM   11  C   UNL     1     -10.156  10.532  64.487  1.00  0.00    -0.402 C  
BRANCH  11  12
HETATM   12  C   UNL     1      -8.842  10.812  65.205  1.00  0.00    -0.199 C  
BRANCH  12  13
HETATM   13  C   UNL     1      -9.111  11.024  66.685  1.00  0.00    -0.177 C  
BRANCH  13  14
HETATM   14  C   UNL     1     -10.107  10.007  67.232  1.00  0.00    -0.259 C  
BRANCH  14  15
HETATM   15  C   UNL     1     -10.153  10.019  68.762  1.00  0.00    -0.197 C  
BRANCH  15  16
HETATM   16  C   UNL     1     -10.474   8.636  69.333  1.00  0.00    -0.218 C  
BRANCH  16  17
HETATM   17  N   UNL     1     -10.888   8.652  70.810  1.00  0.00    -0.222 N  
HETATM   18  C   UNL     1     -11.618   7.377  71.196  1.00  0.00    -0.286 C  
HETATM   19  C   UNL     1     -11.840   9.838  71.002  1.00  0.00    -0.356 C  
HETATM   20  C   UNL     1      -9.682   8.862  71.718  1.00  0.00    -0.295 C  
ENDBRANCH  16  17
ENDBRANCH  15  16
ENDBRANCH  14  15
ENDBRANCH  13  14
ENDBRANCH  12  13
ENDBRANCH  11  12
ENDBRANCH  10  11
ENDBRANCH   9  10
ENDBRANCH   8   9
ENDBRANCH   7   8
ENDBRANCH   6   7
ENDBRANCH   5   6
ENDBRANCH   4   5
ENDBRANCH   3   4
ENDBRANCH   2   3
TORSDOF 15
ENDMDL
MODEL      142
REMARK 921   NORMALIZED FREE ENERGY PREDICTED BY IDOCK:   -3.50 KCAL/MOL
REMARK 922        TOTAL FREE ENERGY PREDICTED BY IDOCK:   -8.26 KCAL/MOL
REMARK 923 INTER-LIGAND FREE ENERGY PREDICTED BY IDOCK:   -6.42 KCAL/MOL
REMARK 924 INTRA-LIGAND FREE ENERGY PREDICTED BY IDOCK:   -1.85 KCAL/MOL
REMARK 927      BINDING AFFINITY PREDICTED BY RF-SCORE:    0.00 PKD
ROOT
HETATM    1  C   UNL     1     -11.867  11.544  70.102  1.00  0.00    -0.440 C  
HETATM    2  C   UNL     1     -12.502  12.826  70.613  1.00  0.00    -0.328 C  
ENDROOT
BRANCH   2   3
HETATM    3  C   UNL     1     -12.195  13.996  69.683  1.00  0.00    -0.383 C  
BRANCH   3   4
HETATM    4  C   UNL     1     -12.029  13.523  68.243  1.00  0.00    -0.377 C  
BRANCH   4   5
HETATM    5  C   UNL     1     -11.201  14.522  67.442  1.00  0.00    -0.337 C  
BRANCH   5   6
HETATM    6  C   UNL     1     -11.345  14.264  65.948  1.00  0.00    -0.328 C  
BRANCH   6   7
HETATM    7  C   UNL     1     -12.591  13.434  65.665  1.00  0.00    -0.496 C  
BRANCH   7   8
HETATM    8  C   UNL     1     -12.310  12.421  64.565  1.00  0.00    -0.519 C  
BRANCH   8   9
HETATM    9  C   UNL     1     -10.820  12.353  64.267  1.00  0.00    -0.395 C  
BRANCH   9  10
HETATM   10  C   UNL     1     -10.319  10.927  64.450  1.00  0.00    -0.430 C  
BRANCH  10  11
HETATM   11  C   UNL     1      -9.589  10.786  65.773  1.00  0.00    -0.254 C  
BRANCH  11  12
HETATM   12  C   UNL     1     -10.562  10.441  66.892  1.00  0.00    -0.293 C  
BRANCH  12  13
HETATM   13  C   UNL     1     -10.557   8.939  67.121  1.00  0.00    -0.301 C  
BRANCH  13  14
HETATM   14  C   UNL     1      -9.177   8.433  67.531  1.00  0.00    -0.158 C  
BRANCH  14  15
HETATM   15  C   UNL     1      -9.150   7.969  68.989  1.00  0.00    -0.144 C  
BRANCH  15  16
HETATM   16  C   UNL     1     -10.561   7.769  69.550  1.00  0.00    -0.221 C  
BRANCH  16  17
HETATM   17  N   UNL     1     -10.638   7.833  71.080  1.00  0.00    -0.212 N  
HETATM   18  C   UNL     1      -9.720   8.908  71.638  1.00  0.00    -0.309 C  
HETATM   19  C   UNL     1     -10.180   6.472  71.616  1.00  0.00    -0.193 C  
HETATM   20  C   UNL     1     -12.069   8.069  71.550  1.00  0.00    -0.298 C  
ENDBRANCH  16  17
ENDBRANCH  15  16
ENDBRANCH  14  15
ENDBRANCH  13  14
ENDBRANCH  12  13
ENDBRANCH  11  12
ENDBRANCH  10  11
ENDBRANCH   9  10
ENDBRANCH   8   9
ENDBRANCH   7   8
ENDBRANCH   6   7
ENDBRANCH   5   6
ENDBRANCH   4   5
ENDBRANCH   3   4
ENDBRANCH   2   3
TORSDOF 15
ENDMDL
MODEL      143
REMARK 921   NORMALIZED FREE ENERGY PREDICTED BY IDOCK:   -3.48 KCAL/MOL
REMARK 922        TOTAL FREE ENERGY PREDICTED BY IDOCK:   -8.23 KCAL/MOL
REMARK 923 INTER-LIGAND FREE ENERGY PREDICTED BY IDOCK:   -7.41 KCAL/MOL
REMARK 924 INTRA-LIGAND FREE ENERGY PREDICTED BY IDOCK:   -0.82 KCAL/MOL
REMARK 927      BINDING AFFINITY PREDICTED BY RF-SCORE:    0.00 PKD
ROOT
HETATM    1  C   UNL     1      -9.270   3.891  71.978  1.00  0.00    -0.173 C  
HETATM    2  C   UNL     1     -10.511   3.691  72.831  1.00  0.00    -0.239 C  
ENDROOT
BRANCH   2   3
HETATM    3  C   UNL     1     -10.961   5.006  73.459  1.00  0.00    -0.393 C  
BRANCH   3   4
HETATM    4  C   UNL     1     -11.376   6.011  72.389  1.00  0.00    -0.349 C  
BRANCH   4   5
HETATM    5  C   UNL     1     -11.138   7.438  72.871  1.00  0.00    -0.397 C  
BRANCH   5   6
HETATM    6  C   UNL     1     -12.157   8.389  72.260  1.00  0.00    -0.456 C  
BRANCH   6   7
HETATM    7  C   UNL     1     -11.457   9.517  71.512  1.00  0.00    -0.466 C  
BRANCH   7   8
HETATM    8  C   UNL     1     -12.483  10.445  70.880  1.00  0.00    -0.478 C  
BRANCH   8   9
HETATM    9  C   UNL     1     -13.305  11.145  71.951  1.00  0.00    -0.409 C  
BRANCH   9  10
HETATM   10  C   UNL     1     -13.054  12.645  71.899  1.00  0.00    -0.470 C  
BRANCH  10  11
HETATM   11  C   UNL     1     -12.483  13.043  70.551  1.00  0.00    -0.306 C  
BRANCH  11  12
HETATM   12  C   UNL     1     -12.099  14.517  70.541  1.00  0.00    -0.395 C  
BRANCH  12  13
HETATM   13  C   UNL     1     -12.013  15.006  69.106  1.00  0.00    -0.308 C  
BRANCH  13  14
HETATM   14  C   UNL     1     -11.245  14.031  68.219  1.00  0.00    -0.293 C  
BRANCH  14  15
HETATM   15  C   UNL     1     -12.003  13.716  66.928  1.00  0.00    -0.454 C  
BRANCH  15  16
HETATM   16  C   UNL     1     -11.714  12.298  66.428  1.00  0.00    -0.365 C  
BRANCH  16  17
HETATM   17  N   UNL     1     -11.220  12.237  64.978  1.00  0.00    -0.313 N  
HETATM   18  C   UNL     1     -12.377  12.106  64.002  1.00  0.00    -0.451 C  
HETATM   19  C   UNL     1     -10.331  10.994  64.852  1.00  0.00    -0.313 C  
HETATM   20  C   UNL     1     -10.377  13.459  64.631  1.00  0.00    -0.381 C  
ENDBRANCH  16  17
ENDBRANCH  15  16
ENDBRANCH  14  15
ENDBRANCH  13  14
ENDBRANCH  12  13
ENDBRANCH  11  12
ENDBRANCH  10  11
ENDBRANCH   9  10
ENDBRANCH   8   9
ENDBRANCH   7   8
ENDBRANCH   6   7
ENDBRANCH   5   6
ENDBRANCH   4   5
ENDBRANCH   3   4
ENDBRANCH   2   3
TORSDOF 15
ENDMDL
MODEL      144
REMARK 921   NORMALIZED FREE ENERGY PREDICTED BY IDOCK:   -3.48 KCAL/MOL
REMARK 922        TOTAL FREE ENERGY PREDICTED BY IDOCK:   -8.22 KCAL/MOL
REMARK 923 INTER-LIGAND FREE ENERGY PREDICTED BY IDOCK:   -6.05 KCAL/MOL
REMARK 924 INTRA-LIGAND FREE ENERGY PREDICTED BY IDOCK:   -2.17 KCAL/MOL
REMARK 927      BINDING AFFINITY PREDICTED BY RF-SCORE:    0.00 PKD
ROOT
HETATM    1  C   UNL     1      -6.806  16.410  69.323  1.00  0.00    -0.218 C  
HETATM    2  C   UNL     1      -6.388  16.989  67.982  1.00  0.00    -0.147 C  
ENDROOT
BRANCH   2   3
HETATM    3  C   UNL     1      -7.255  16.437  66.855  1.00  0.00    -0.266 C  
BRANCH   3   4
HETATM    4  C   UNL     1      -7.776  17.560  65.964  1.00  0.00    -0.237 C  
BRANCH   4   5
HETATM    5  C   UNL     1      -7.230  18.908  66.423  1.00  0.00    -0.258 C  
BRANCH   5   6
HETATM    6  C   UNL     1      -8.359  19.810  66.900  1.00  0.00    -0.348 C  
BRANCH   6   7
HETATM    7  C   UNL     1      -9.686  19.378  66.290  1.00  0.00    -0.455 C  
BRANCH   7   8
HETATM    8  C   UNL     1     -10.716  19.142  67.384  1.00  0.00    -0.578 C  
BRANCH   8   9
HETATM    9  C   UNL     1     -10.033  18.814  68.702  1.00  0.00    -0.444 C  
BRANCH   9  10
HETATM   10  C   UNL     1     -10.317  17.369  69.089  1.00  0.00    -0.271 C  
BRANCH  10  11
HETATM   11  C   UNL     1     -10.838  16.592  67.894  1.00  0.00    -0.326 C  
BRANCH  11  12
HETATM   12  C   UNL     1     -11.596  15.351  68.347  1.00  0.00    -0.368 C  
BRANCH  12  13
HETATM   13  C   UNL     1     -11.685  14.365  67.196  1.00  0.00    -0.424 C  
BRANCH  13  14
HETATM   14  C   UNL     1     -10.321  14.110  66.562  1.00  0.00    -0.284 C  
BRANCH  14  15
HETATM   15  C   UNL     1      -9.906  12.641  66.671  1.00  0.00    -0.245 C  
BRANCH  15  16
HETATM   16  C   UNL     1      -9.582  12.247  68.115  1.00  0.00    -0.213 C  
BRANCH  16  17
HETATM   17  N   UNL     1     -10.336  11.005  68.606  1.00  0.00    -0.185 N  
HETATM   18  C   UNL     1     -10.883  10.192  67.444  1.00  0.00    -0.261 C  
HETATM   19  C   UNL     1     -11.513  11.494  69.457  1.00  0.00    -0.311 C  
HETATM   20  C   UNL     1      -9.447  10.132  69.484  1.00  0.00    -0.214 C  
ENDBRANCH  16  17
ENDBRANCH  15  16
ENDBRANCH  14  15
ENDBRANCH  13  14
ENDBRANCH  12  13
ENDBRANCH  11  12
ENDBRANCH  10  11
ENDBRANCH   9  10
ENDBRANCH   8   9
ENDBRANCH   7   8
ENDBRANCH   6   7
ENDBRANCH   5   6
ENDBRANCH   4   5
ENDBRANCH   3   4
ENDBRANCH   2   3
TORSDOF 15
ENDMDL
MODEL      145
REMARK 921   NORMALIZED FREE ENERGY PREDICTED BY IDOCK:   -3.47 KCAL/MOL
REMARK 922        TOTAL FREE ENERGY PREDICTED BY IDOCK:   -8.21 KCAL/MOL
REMARK 923 INTER-LIGAND FREE ENERGY PREDICTED BY IDOCK:   -6.53 KCAL/MOL
REMARK 924 INTRA-LIGAND FREE ENERGY PREDICTED BY IDOCK:   -1.68 KCAL/MOL
REMARK 927      BINDING AFFINITY PREDICTED BY RF-SCORE:    0.00 PKD
ROOT
HETATM    1  C   UNL     1     -14.259  15.132  71.619  1.00  0.00    -0.664 C  
HETATM    2  C   UNL     1     -12.916  14.530  71.996  1.00  0.00    -0.417 C  
ENDROOT
BRANCH   2   3
HETATM    3  C   UNL     1     -12.470  13.501  70.962  1.00  0.00    -0.451 C  
BRANCH   3   4
HETATM    4  C   UNL     1     -11.674  14.159  69.841  1.00  0.00    -0.372 C  
BRANCH   4   5
HETATM    5  C   UNL     1     -12.000  13.512  68.499  1.00  0.00    -0.379 C  
BRANCH   5   6
HETATM    6  C   UNL     1     -12.015  14.554  67.389  1.00  0.00    -0.367 C  
BRANCH   6   7
HETATM    7  C   UNL     1     -11.489  13.960  66.088  1.00  0.00    -0.351 C  
BRANCH   7   8
HETATM    8  C   UNL     1     -11.902  12.501  65.971  1.00  0.00    -0.478 C  
BRANCH   8   9
HETATM    9  C   UNL     1     -10.701  11.587  66.152  1.00  0.00    -0.324 C  
BRANCH   9  10
HETATM   10  C   UNL     1      -9.414  12.376  65.956  1.00  0.00    -0.168 C  
BRANCH  10  11
HETATM   11  C   UNL     1      -8.682  12.535  67.275  1.00  0.00    -0.193 C  
BRANCH  11  12
HETATM   12  C   UNL     1      -8.045  13.915  67.375  1.00  0.00    -0.190 C  
BRANCH  12  13
HETATM   13  C   UNL     1      -7.706  14.211  68.825  1.00  0.00    -0.121 C  
BRANCH  13  14
HETATM   14  C   UNL     1      -8.456  15.435  69.344  1.00  0.00    -0.253 C  
BRANCH  14  15
HETATM   15  C   UNL     1      -9.009  16.291  68.202  1.00  0.00    -0.187 C  
BRANCH  15  16
HETATM   16  C   UNL     1      -9.614  17.601  68.714  1.00  0.00    -0.280 C  
BRANCH  16  17
HETATM   17  N   UNL     1      -9.093  18.851  67.995  1.00  0.00    -0.296 N  
HETATM   18  C   UNL     1      -8.497  18.504  66.640  1.00  0.00    -0.278 C  
HETATM   19  C   UNL     1      -7.992  19.456  68.873  1.00  0.00    -0.325 C  
HETATM   20  C   UNL     1     -10.195  19.892  67.832  1.00  0.00    -0.434 C  
ENDBRANCH  16  17
ENDBRANCH  15  16
ENDBRANCH  14  15
ENDBRANCH  13  14
ENDBRANCH  12  13
ENDBRANCH  11  12
ENDBRANCH  10  11
ENDBRANCH   9  10
ENDBRANCH   8   9
ENDBRANCH   7   8
ENDBRANCH   6   7
ENDBRANCH   5   6
ENDBRANCH   4   5
ENDBRANCH   3   4
ENDBRANCH   2   3
TORSDOF 15
ENDMDL
MODEL      146
REMARK 921   NORMALIZED FREE ENERGY PREDICTED BY IDOCK:   -3.46 KCAL/MOL
REMARK 922        TOTAL FREE ENERGY PREDICTED BY IDOCK:   -8.19 KCAL/MOL
REMARK 923 INTER-LIGAND FREE ENERGY PREDICTED BY IDOCK:   -7.09 KCAL/MOL
REMARK 924 INTRA-LIGAND FREE ENERGY PREDICTED BY IDOCK:   -1.10 KCAL/MOL
REMARK 927      BINDING AFFINITY PREDICTED BY RF-SCORE:    0.00 PKD
ROOT
HETATM    1  C   UNL     1     -10.202   4.838  66.481  1.00  0.00    -0.294 C  
HETATM    2  C   UNL     1     -10.812   6.145  66.956  1.00  0.00    -0.435 C  
ENDROOT
BRANCH   2   3
HETATM    3  C   UNL     1     -10.271   6.534  68.328  1.00  0.00    -0.195 C  
BRANCH   3   4
HETATM    4  C   UNL     1     -11.344   6.388  69.402  1.00  0.00    -0.443 C  
BRANCH   4   5
HETATM    5  C   UNL     1     -10.760   5.762  70.663  1.00  0.00    -0.351 C  
BRANCH   5   6
HETATM    6  C   UNL     1     -11.595   6.128  71.882  1.00  0.00    -0.352 C  
BRANCH   6   7
HETATM    7  C   UNL     1     -12.638   7.178  71.522  1.00  0.00    -0.427 C  
BRANCH   7   8
HETATM    8  C   UNL     1     -12.394   8.455  72.312  1.00  0.00    -0.436 C  
BRANCH   8   9
HETATM    9  C   UNL     1     -11.657   9.478  71.463  1.00  0.00    -0.465 C  
BRANCH   9  10
HETATM   10  C   UNL     1     -12.627  10.546  70.977  1.00  0.00    -0.499 C  
BRANCH  10  11
HETATM   11  C   UNL     1     -11.939  11.489  70.008  1.00  0.00    -0.435 C  
BRANCH  11  12
HETATM   12  C   UNL     1     -12.272  12.938  70.338  1.00  0.00    -0.381 C  
BRANCH  12  13
HETATM   13  C   UNL     1     -12.125  13.787  69.087  1.00  0.00    -0.374 C  
BRANCH  13  14
HETATM   14  C   UNL     1     -11.884  12.931  67.846  1.00  0.00    -0.388 C  
BRANCH  14  15
HETATM   15  C   UNL     1     -10.718  13.458  67.008  1.00  0.00    -0.271 C  
BRANCH  15  16
HETATM   16  C   UNL     1      -9.863  14.462  67.787  1.00  0.00    -0.221 C  
BRANCH  16  17
HETATM   17  N   UNL     1      -9.690  15.812  67.081  1.00  0.00    -0.222 N  
HETATM   18  C   UNL     1      -8.237  16.062  66.709  1.00  0.00    -0.272 C  
HETATM   19  C   UNL     1     -10.137  16.901  68.063  1.00  0.00    -0.293 C  
HETATM   20  C   UNL     1     -10.572  15.903  65.840  1.00  0.00    -0.337 C  
ENDBRANCH  16  17
ENDBRANCH  15  16
ENDBRANCH  14  15
ENDBRANCH  13  14
ENDBRANCH  12  13
ENDBRANCH  11  12
ENDBRANCH  10  11
ENDBRANCH   9  10
ENDBRANCH   8   9
ENDBRANCH   7   8
ENDBRANCH   6   7
ENDBRANCH   5   6
ENDBRANCH   4   5
ENDBRANCH   3   4
ENDBRANCH   2   3
TORSDOF 15
ENDMDL
MODEL      147
REMARK 921   NORMALIZED FREE ENERGY PREDICTED BY IDOCK:   -3.46 KCAL/MOL
REMARK 922        TOTAL FREE ENERGY PREDICTED BY IDOCK:   -8.19 KCAL/MOL
REMARK 923 INTER-LIGAND FREE ENERGY PREDICTED BY IDOCK:   -6.50 KCAL/MOL
REMARK 924 INTRA-LIGAND FREE ENERGY PREDICTED BY IDOCK:   -1.69 KCAL/MOL
REMARK 927      BINDING AFFINITY PREDICTED BY RF-SCORE:    0.00 PKD
ROOT
HETATM    1  C   UNL     1     -10.410  14.755  67.177  1.00  0.00    -0.255 C  
HETATM    2  C   UNL     1     -10.250  13.246  67.119  1.00  0.00    -0.246 C  
ENDROOT
BRANCH   2   3
HETATM    3  C   UNL     1     -11.603  12.549  67.220  1.00  0.00    -0.434 C  
BRANCH   3   4
HETATM    4  C   UNL     1     -11.534  11.352  68.163  1.00  0.00    -0.375 C  
BRANCH   4   5
HETATM    5  C   UNL     1     -11.839  11.778  69.595  1.00  0.00    -0.407 C  
BRANCH   5   6
HETATM    6  C   UNL     1     -11.600  10.626  70.561  1.00  0.00    -0.444 C  
BRANCH   6   7
HETATM    7  C   UNL     1     -12.924  10.024  71.016  1.00  0.00    -0.445 C  
BRANCH   7   8
HETATM    8  C   UNL     1     -12.681   8.957  72.073  1.00  0.00    -0.456 C  
BRANCH   8   9
HETATM    9  C   UNL     1     -11.197   8.650  72.194  1.00  0.00    -0.438 C  
BRANCH   9  10
HETATM   10  C   UNL     1     -11.000   7.263  72.788  1.00  0.00    -0.366 C  
BRANCH  10  11
HETATM   11  C   UNL     1     -11.658   6.212  71.914  1.00  0.00    -0.352 C  
BRANCH  11  12
HETATM   12  C   UNL     1     -10.758   5.846  70.741  1.00  0.00    -0.344 C  
BRANCH  12  13
HETATM   13  C   UNL     1     -11.408   6.302  69.445  1.00  0.00    -0.448 C  
BRANCH  13  14
HETATM   14  C   UNL     1     -10.619   7.426  68.781  1.00  0.00    -0.189 C  
BRANCH  14  15
HETATM   15  C   UNL     1     -10.546   7.251  67.262  1.00  0.00    -0.395 C  
BRANCH  15  16
HETATM   16  C   UNL     1     -10.770   5.795  66.845  1.00  0.00    -0.305 C  
BRANCH  16  17
HETATM   17  N   UNL     1      -9.504   5.089  66.343  1.00  0.00    -0.142 N  
HETATM   18  C   UNL     1      -9.808   4.176  65.166  1.00  0.00    -0.205 C  
HETATM   19  C   UNL     1      -8.969   4.236  67.498  1.00  0.00    -0.117 C  
HETATM   20  C   UNL     1      -8.426   6.097  65.959  1.00  0.00    -0.141 C  
ENDBRANCH  16  17
ENDBRANCH  15  16
ENDBRANCH  14  15
ENDBRANCH  13  14
ENDBRANCH  12  13
ENDBRANCH  11  12
ENDBRANCH  10  11
ENDBRANCH   9  10
ENDBRANCH   8   9
ENDBRANCH   7   8
ENDBRANCH   6   7
ENDBRANCH   5   6
ENDBRANCH   4   5
ENDBRANCH   3   4
ENDBRANCH   2   3
TORSDOF 15
ENDMDL
MODEL      148
REMARK 921   NORMALIZED FREE ENERGY PREDICTED BY IDOCK:   -3.45 KCAL/MOL
REMARK 922        TOTAL FREE ENERGY PREDICTED BY IDOCK:   -8.17 KCAL/MOL
REMARK 923 INTER-LIGAND FREE ENERGY PREDICTED BY IDOCK:   -6.70 KCAL/MOL
REMARK 924 INTRA-LIGAND FREE ENERGY PREDICTED BY IDOCK:   -1.48 KCAL/MOL
REMARK 927      BINDING AFFINITY PREDICTED BY RF-SCORE:    0.00 PKD
ROOT
HETATM    1  C   UNL     1     -13.552   9.384  72.472  1.00  0.00    -0.441 C  
HETATM    2  C   UNL     1     -14.188   8.415  71.491  1.00  0.00    -0.471 C  
ENDROOT
BRANCH   2   3
HETATM    3  C   UNL     1     -13.661   6.999  71.701  1.00  0.00    -0.346 C  
BRANCH   3   4
HETATM    4  C   UNL     1     -12.371   6.772  70.919  1.00  0.00    -0.336 C  
BRANCH   4   5
HETATM    5  C   UNL     1     -11.290   6.189  71.823  1.00  0.00    -0.346 C  
BRANCH   5   6
HETATM    6  C   UNL     1     -10.135   5.643  70.996  1.00  0.00    -0.266 C  
BRANCH   6   7
HETATM    7  C   UNL     1      -8.901   6.524  71.151  1.00  0.00    -0.138 C  
BRANCH   7   8
HETATM    8  C   UNL     1      -9.049   7.427  72.366  1.00  0.00    -0.164 C  
BRANCH   8   9
HETATM    9  C   UNL     1      -9.303   8.864  71.939  1.00  0.00    -0.275 C  
BRANCH   9  10
HETATM   10  C   UNL     1      -8.638   9.132  70.596  1.00  0.00    -0.266 C  
BRANCH  10  11
HETATM   11  C   UNL     1      -9.652   9.657  69.596  1.00  0.00    -0.225 C  
BRANCH  11  12
HETATM   12  C   UNL     1     -11.001   9.887  70.266  1.00  0.00    -0.366 C  
BRANCH  12  13
HETATM   13  C   UNL     1     -11.709  11.048  69.590  1.00  0.00    -0.401 C  
BRANCH  13  14
HETATM   14  C   UNL     1     -11.412  11.100  68.094  1.00  0.00    -0.373 C  
BRANCH  14  15
HETATM   15  C   UNL     1     -11.770  12.459  67.489  1.00  0.00    -0.425 C  
BRANCH  15  16
HETATM   16  C   UNL     1     -10.632  13.018  66.630  1.00  0.00    -0.266 C  
BRANCH  16  17
HETATM   17  N   UNL     1     -11.107  13.846  65.429  1.00  0.00    -0.302 N  
HETATM   18  C   UNL     1     -10.448  15.215  65.403  1.00  0.00    -0.393 C  
HETATM   19  C   UNL     1     -12.621  14.034  65.576  1.00  0.00    -0.516 C  
HETATM   20  C   UNL     1     -10.846  13.113  64.118  1.00  0.00    -0.380 C  
ENDBRANCH  16  17
ENDBRANCH  15  16
ENDBRANCH  14  15
ENDBRANCH  13  14
ENDBRANCH  12  13
ENDBRANCH  11  12
ENDBRANCH  10  11
ENDBRANCH   9  10
ENDBRANCH   8   9
ENDBRANCH   7   8
ENDBRANCH   6   7
ENDBRANCH   5   6
ENDBRANCH   4   5
ENDBRANCH   3   4
ENDBRANCH   2   3
TORSDOF 15
ENDMDL
MODEL      149
REMARK 921   NORMALIZED FREE ENERGY PREDICTED BY IDOCK:   -3.45 KCAL/MOL
REMARK 922        TOTAL FREE ENERGY PREDICTED BY IDOCK:   -8.17 KCAL/MOL
REMARK 923 INTER-LIGAND FREE ENERGY PREDICTED BY IDOCK:   -6.08 KCAL/MOL
REMARK 924 INTRA-LIGAND FREE ENERGY PREDICTED BY IDOCK:   -2.09 KCAL/MOL
REMARK 927      BINDING AFFINITY PREDICTED BY RF-SCORE:    0.00 PKD
ROOT
HETATM    1  C   UNL     1     -13.463   9.369  72.040  1.00  0.00    -0.522 C  
HETATM    2  C   UNL     1     -12.577  10.161  71.094  1.00  0.00    -0.486 C  
ENDROOT
BRANCH   2   3
HETATM    3  C   UNL     1     -11.139   9.654  71.139  1.00  0.00    -0.444 C  
BRANCH   3   4
HETATM    4  C   UNL     1     -11.001   8.481  72.103  1.00  0.00    -0.427 C  
BRANCH   4   5
HETATM    5  C   UNL     1     -10.631   7.207  71.350  1.00  0.00    -0.234 C  
BRANCH   5   6
HETATM    6  C   UNL     1     -10.610   7.457  69.848  1.00  0.00    -0.245 C  
BRANCH   6   7
HETATM    7  C   UNL     1     -11.283   6.311  69.104  1.00  0.00    -0.439 C  
BRANCH   7   8
HETATM    8  C   UNL     1     -10.789   6.256  67.666  1.00  0.00    -0.433 C  
BRANCH   8   9
HETATM    9  C   UNL     1      -9.285   6.475  67.607  1.00  0.00    -0.113 C  
BRANCH   9  10
HETATM   10  C   UNL     1      -8.922   7.243  66.344  1.00  0.00    -0.184 C  
BRANCH  10  11
HETATM   11  C   UNL     1      -9.680   8.556  66.284  1.00  0.00    -0.300 C  
BRANCH  11  12
HETATM   12  C   UNL     1      -8.796   9.710  66.740  1.00  0.00    -0.148 C  
BRANCH  12  13
HETATM   13  C   UNL     1      -9.520  10.508  67.810  1.00  0.00    -0.162 C  
BRANCH  13  14
HETATM   14  C   UNL     1     -11.029  10.517  67.587  1.00  0.00    -0.375 C  
BRANCH  14  15
HETATM   15  C   UNL     1     -11.580  11.939  67.462  1.00  0.00    -0.374 C  
BRANCH  15  16
HETATM   16  C   UNL     1     -10.482  12.946  67.108  1.00  0.00    -0.238 C  
BRANCH  16  17
HETATM   17  N   UNL     1     -10.504  14.218  67.963  1.00  0.00    -0.232 N  
HETATM   18  C   UNL     1     -11.192  15.364  67.238  1.00  0.00    -0.270 C  
HETATM   19  C   UNL     1      -9.047  14.614  68.230  1.00  0.00    -0.189 C  
HETATM   20  C   UNL     1     -11.179  13.968  69.307  1.00  0.00    -0.261 C  
ENDBRANCH  16  17
ENDBRANCH  15  16
ENDBRANCH  14  15
ENDBRANCH  13  14
ENDBRANCH  12  13
ENDBRANCH  11  12
ENDBRANCH  10  11
ENDBRANCH   9  10
ENDBRANCH   8   9
ENDBRANCH   7   8
ENDBRANCH   6   7
ENDBRANCH   5   6
ENDBRANCH   4   5
ENDBRANCH   3   4
ENDBRANCH   2   3
TORSDOF 15
ENDMDL
MODEL      150
REMARK 921   NORMALIZED FREE ENERGY PREDICTED BY IDOCK:   -3.45 KCAL/MOL
REMARK 922        TOTAL FREE ENERGY PREDICTED BY IDOCK:   -8.17 KCAL/MOL
REMARK 923 INTER-LIGAND FREE ENERGY PREDICTED BY IDOCK:   -6.78 KCAL/MOL
REMARK 924 INTRA-LIGAND FREE ENERGY PREDICTED BY IDOCK:   -1.39 KCAL/MOL
REMARK 927      BINDING AFFINITY PREDICTED BY RF-SCORE:    0.00 PKD
ROOT
HETATM    1  C   UNL     1      -7.119  18.055  66.027  1.00  0.00    -0.330 C  
HETATM    2  C   UNL     1      -7.827  19.393  66.158  1.00  0.00    -0.317 C  
ENDROOT
BRANCH   2   3
HETATM    3  C   UNL     1      -9.039  19.283  67.077  1.00  0.00    -0.339 C  
BRANCH   3   4
HETATM    4  C   UNL     1      -9.097  17.914  67.746  1.00  0.00    -0.258 C  
BRANCH   4   5
HETATM    5  C   UNL     1     -10.538  17.431  67.858  1.00  0.00    -0.383 C  
BRANCH   5   6
HETATM    6  C   UNL     1     -10.675  16.016  67.313  1.00  0.00    -0.295 C  
BRANCH   6   7
HETATM    7  C   UNL     1     -10.291  15.968  65.840  1.00  0.00    -0.386 C  
BRANCH   7   8
HETATM    8  C   UNL     1     -11.248  15.067  65.075  1.00  0.00    -0.413 C  
BRANCH   8   9
HETATM    9  C   UNL     1     -12.025  14.176  66.031  1.00  0.00    -0.427 C  
BRANCH   9  10
HETATM   10  C   UNL     1     -12.277  12.820  65.387  1.00  0.00    -0.532 C  
BRANCH  10  11
HETATM   11  C   UNL     1     -11.028  11.961  65.451  1.00  0.00    -0.352 C  
BRANCH  11  12
HETATM   12  C   UNL     1     -10.445  11.960  66.858  1.00  0.00    -0.253 C  
BRANCH  12  13
HETATM   13  C   UNL     1     -11.012  10.786  67.638  1.00  0.00    -0.365 C  
BRANCH  13  14
HETATM   14  C   UNL     1     -11.824  11.247  68.844  1.00  0.00    -0.413 C  
BRANCH  14  15
HETATM   15  C   UNL     1     -11.129  10.906  70.164  1.00  0.00    -0.238 C  
BRANCH  15  16
HETATM   16  C   UNL     1     -11.869   9.807  70.931  1.00  0.00    -0.336 C  
BRANCH  16  17
HETATM   17  N   UNL     1     -11.016   8.564  71.217  1.00  0.00    -0.243 N  
HETATM   18  C   UNL     1     -11.028   7.600  70.042  1.00  0.00    -0.228 C  
HETATM   19  C   UNL     1     -11.630   7.861  72.433  1.00  0.00    -0.380 C  
HETATM   20  C   UNL     1      -9.583   8.948  71.566  1.00  0.00    -0.292 C  
ENDBRANCH  16  17
ENDBRANCH  15  16
ENDBRANCH  14  15
ENDBRANCH  13  14
ENDBRANCH  12  13
ENDBRANCH  11  12
ENDBRANCH  10  11
ENDBRANCH   9  10
ENDBRANCH   8   9
ENDBRANCH   7   8
ENDBRANCH   6   7
ENDBRANCH   5   6
ENDBRANCH   4   5
ENDBRANCH   3   4
ENDBRANCH   2   3
TORSDOF 15
ENDMDL
MODEL      151
REMARK 921   NORMALIZED FREE ENERGY PREDICTED BY IDOCK:   -3.45 KCAL/MOL
REMARK 922        TOTAL FREE ENERGY PREDICTED BY IDOCK:   -8.16 KCAL/MOL
REMARK 923 INTER-LIGAND FREE ENERGY PREDICTED BY IDOCK:   -7.03 KCAL/MOL
REMARK 924 INTRA-LIGAND FREE ENERGY PREDICTED BY IDOCK:   -1.13 KCAL/MOL
REMARK 927      BINDING AFFINITY PREDICTED BY RF-SCORE:    0.00 PKD
ROOT
HETATM    1  C   UNL     1     -14.079  15.271  72.404  1.00  0.00    -0.622 C  
HETATM    2  C   UNL     1     -13.487  14.541  71.211  1.00  0.00    -0.428 C  
ENDROOT
BRANCH   2   3
HETATM    3  C   UNL     1     -12.237  15.251  70.701  1.00  0.00    -0.412 C  
BRANCH   3   4
HETATM    4  C   UNL     1     -11.654  14.533  69.488  1.00  0.00    -0.350 C  
BRANCH   4   5
HETATM    5  C   UNL     1     -10.322  15.154  69.085  1.00  0.00    -0.249 C  
BRANCH   5   6
HETATM    6  C   UNL     1     -10.543  16.405  68.247  1.00  0.00    -0.318 C  
BRANCH   6   7
HETATM    7  C   UNL     1      -9.788  16.309  66.928  1.00  0.00    -0.253 C  
BRANCH   7   8
HETATM    8  C   UNL     1     -10.523  17.081  65.843  1.00  0.00    -0.282 C  
BRANCH   8   9
HETATM    9  C   UNL     1     -10.999  16.143  64.745  1.00  0.00    -0.330 C  
BRANCH   9  10
HETATM   10  C   UNL     1     -10.928  14.701  65.227  1.00  0.00    -0.374 C  
BRANCH  10  11
HETATM   11  C   UNL     1     -12.202  13.958  64.869  1.00  0.00    -0.445 C  
BRANCH  11  12
HETATM   12  C   UNL     1     -12.111  13.379  63.463  1.00  0.00    -0.497 C  
BRANCH  12  13
HETATM   13  C   UNL     1     -11.969  11.869  63.547  1.00  0.00    -0.567 C  
BRANCH  13  14
HETATM   14  C   UNL     1     -10.509  11.432  63.479  1.00  0.00    -0.477 C  
BRANCH  14  15
HETATM   15  C   UNL     1     -10.097  10.625  64.713  1.00  0.00    -0.412 C  
BRANCH  15  16
HETATM   16  C   UNL     1      -9.732  11.532  65.891  1.00  0.00    -0.232 C  
BRANCH  16  17
HETATM   17  N   UNL     1      -9.870  10.858  67.262  1.00  0.00    -0.173 N  
HETATM   18  C   UNL     1     -11.303  10.909  67.764  1.00  0.00    -0.292 C  
HETATM   19  C   UNL     1      -8.981  11.632  68.241  1.00  0.00    -0.185 C  
HETATM   20  C   UNL     1      -9.380   9.415  67.218  1.00  0.00    -0.131 C  
ENDBRANCH  16  17
ENDBRANCH  15  16
ENDBRANCH  14  15
ENDBRANCH  13  14
ENDBRANCH  12  13
ENDBRANCH  11  12
ENDBRANCH  10  11
ENDBRANCH   9  10
ENDBRANCH   8   9
ENDBRANCH   7   8
ENDBRANCH   6   7
ENDBRANCH   5   6
ENDBRANCH   4   5
ENDBRANCH   3   4
ENDBRANCH   2   3
TORSDOF 15
ENDMDL
MODEL      152
REMARK 921   NORMALIZED FREE ENERGY PREDICTED BY IDOCK:   -3.45 KCAL/MOL
REMARK 922        TOTAL FREE ENERGY PREDICTED BY IDOCK:   -8.16 KCAL/MOL
REMARK 923 INTER-LIGAND FREE ENERGY PREDICTED BY IDOCK:   -6.17 KCAL/MOL
REMARK 924 INTRA-LIGAND FREE ENERGY PREDICTED BY IDOCK:   -1.99 KCAL/MOL
REMARK 927      BINDING AFFINITY PREDICTED BY RF-SCORE:    0.00 PKD
ROOT
HETATM    1  C   UNL     1     -10.119   5.808  69.159  1.00  0.00    -0.257 C  
HETATM    2  C   UNL     1     -11.474   6.303  69.634  1.00  0.00    -0.425 C  
ENDROOT
BRANCH   2   3
HETATM    3  C   UNL     1     -11.400   6.803  71.073  1.00  0.00    -0.356 C  
BRANCH   3   4
HETATM    4  C   UNL     1     -12.776   6.789  71.730  1.00  0.00    -0.342 C  
BRANCH   4   5
HETATM    5  C   UNL     1     -13.406   8.178  71.687  1.00  0.00    -0.358 C  
BRANCH   5   6
HETATM    6  C   UNL     1     -12.343   9.255  71.853  1.00  0.00    -0.454 C  
BRANCH   6   7
HETATM    7  C   UNL     1     -12.863  10.601  71.363  1.00  0.00    -0.556 C  
BRANCH   7   8
HETATM    8  C   UNL     1     -12.264  10.933  70.005  1.00  0.00    -0.422 C  
BRANCH   8   9
HETATM    9  C   UNL     1     -10.897  10.287  69.848  1.00  0.00    -0.355 C  
BRANCH   9  10
HETATM   10  C   UNL     1     -10.756   9.704  68.449  1.00  0.00    -0.251 C  
BRANCH  10  11
HETATM   11  C   UNL     1      -9.322   9.818  67.967  1.00  0.00    -0.138 C  
BRANCH  11  12
HETATM   12  C   UNL     1      -8.412  10.295  69.092  1.00  0.00    -0.164 C  
BRANCH  12  13
HETATM   13  C   UNL     1      -7.498  11.391  68.572  1.00  0.00    -0.113 C  
BRANCH  13  14
HETATM   14  C   UNL     1      -8.186  12.246  67.512  1.00  0.00    -0.170 C  
BRANCH  14  15
HETATM   15  C   UNL     1      -8.719  13.557  68.095  1.00  0.00    -0.174 C  
BRANCH  15  16
HETATM   16  C   UNL     1     -10.239  13.523  68.278  1.00  0.00    -0.250 C  
BRANCH  16  17
HETATM   17  N   UNL     1     -10.987  14.596  67.477  1.00  0.00    -0.290 N  
HETATM   18  C   UNL     1     -12.126  13.993  66.671  1.00  0.00    -0.456 C  
HETATM   19  C   UNL     1      -9.980  15.224  66.506  1.00  0.00    -0.265 C  
HETATM   20  C   UNL     1     -11.515  15.697  68.389  1.00  0.00    -0.369 C  
ENDBRANCH  16  17
ENDBRANCH  15  16
ENDBRANCH  14  15
ENDBRANCH  13  14
ENDBRANCH  12  13
ENDBRANCH  11  12
ENDBRANCH  10  11
ENDBRANCH   9  10
ENDBRANCH   8   9
ENDBRANCH   7   8
ENDBRANCH   6   7
ENDBRANCH   5   6
ENDBRANCH   4   5
ENDBRANCH   3   4
ENDBRANCH   2   3
TORSDOF 15
ENDMDL
MODEL      153
REMARK 921   NORMALIZED FREE ENERGY PREDICTED BY IDOCK:   -3.43 KCAL/MOL
REMARK 922        TOTAL FREE ENERGY PREDICTED BY IDOCK:   -8.12 KCAL/MOL
REMARK 923 INTER-LIGAND FREE ENERGY PREDICTED BY IDOCK:   -5.84 KCAL/MOL
REMARK 924 INTRA-LIGAND FREE ENERGY PREDICTED BY IDOCK:   -2.28 KCAL/MOL
REMARK 927      BINDING AFFINITY PREDICTED BY RF-SCORE:    0.00 PKD
ROOT
HETATM    1  C   UNL     1     -10.286  11.066  64.431  1.00  0.00    -0.409 C  
HETATM    2  C   UNL     1      -9.905  10.421  65.753  1.00  0.00    -0.300 C  
ENDROOT
BRANCH   2   3
HETATM    3  C   UNL     1      -8.603  11.006  66.291  1.00  0.00    -0.167 C  
BRANCH   3   4
HETATM    4  C   UNL     1      -8.630  11.094  67.813  1.00  0.00    -0.131 C  
BRANCH   4   5
HETATM    5  C   UNL     1      -9.358   9.893  68.408  1.00  0.00    -0.135 C  
BRANCH   5   6
HETATM    6  C   UNL     1     -10.032  10.270  69.720  1.00  0.00    -0.222 C  
BRANCH   6   7
HETATM    7  C   UNL     1     -11.482  10.673  69.482  1.00  0.00    -0.360 C  
BRANCH   7   8
HETATM    8  C   UNL     1     -11.777  12.000  70.165  1.00  0.00    -0.316 C  
BRANCH   8   9
HETATM    9  C   UNL     1     -11.726  13.142  69.162  1.00  0.00    -0.376 C  
BRANCH   9  10
HETATM   10  C   UNL     1     -12.084  12.631  67.774  1.00  0.00    -0.157 C  
BRANCH  10  11
HETATM   11  C   UNL     1     -11.674  13.637  66.715  1.00  0.00    -0.426 C  
BRANCH  11  12
HETATM   12  C   UNL     1     -10.605  14.580  67.252  1.00  0.00    -0.280 C  
BRANCH  12  13
HETATM   13  C   UNL     1      -9.478  14.693  66.240  1.00  0.00    -0.322 C  
BRANCH  13  14
HETATM   14  C   UNL     1      -8.814  16.067  66.282  1.00  0.00    -0.379 C  
BRANCH  14  15
HETATM   15  C   UNL     1      -9.535  17.019  67.239  1.00  0.00    -0.240 C  
BRANCH  15  16
HETATM   16  C   UNL     1      -9.894  18.344  66.560  1.00  0.00    -0.359 C  
BRANCH  16  17
HETATM   17  N   UNL     1      -8.975  19.510  66.946  1.00  0.00    -0.310 N  
HETATM   18  C   UNL     1      -7.889  19.728  65.905  1.00  0.00    -0.301 C  
HETATM   19  C   UNL     1      -8.310  19.144  68.277  1.00  0.00    -0.335 C  
HETATM   20  C   UNL     1      -9.770  20.794  67.151  1.00  0.00    -0.317 C  
ENDBRANCH  16  17
ENDBRANCH  15  16
ENDBRANCH  14  15
ENDBRANCH  13  14
ENDBRANCH  12  13
ENDBRANCH  11  12
ENDBRANCH  10  11
ENDBRANCH   9  10
ENDBRANCH   8   9
ENDBRANCH   7   8
ENDBRANCH   6   7
ENDBRANCH   5   6
ENDBRANCH   4   5
ENDBRANCH   3   4
ENDBRANCH   2   3
TORSDOF 15
ENDMDL
MODEL      154
REMARK 921   NORMALIZED FREE ENERGY PREDICTED BY IDOCK:   -3.42 KCAL/MOL
REMARK 922        TOTAL FREE ENERGY PREDICTED BY IDOCK:   -8.11 KCAL/MOL
REMARK 923 INTER-LIGAND FREE ENERGY PREDICTED BY IDOCK:   -6.48 KCAL/MOL
REMARK 924 INTRA-LIGAND FREE ENERGY PREDICTED BY IDOCK:   -1.63 KCAL/MOL
REMARK 927      BINDING AFFINITY PREDICTED BY RF-SCORE:    0.00 PKD
ROOT
HETATM    1  C   UNL     1     -11.206   4.667  73.526  1.00  0.00    -0.400 C  
HETATM    2  C   UNL     1      -9.783   5.187  73.422  1.00  0.00    -0.157 C  
ENDROOT
BRANCH   2   3
HETATM    3  C   UNL     1      -9.692   6.629  73.911  1.00  0.00    -0.267 C  
BRANCH   3   4
HETATM    4  C   UNL     1     -10.844   7.467  73.367  1.00  0.00    -0.362 C  
BRANCH   4   5
HETATM    5  C   UNL     1     -10.585   7.859  71.916  1.00  0.00    -0.285 C  
BRANCH   5   6
HETATM    6  C   UNL     1     -11.853   7.717  71.086  1.00  0.00    -0.311 C  
BRANCH   6   7
HETATM    7  C   UNL     1     -11.779   6.479  70.201  1.00  0.00    -0.419 C  
BRANCH   7   8
HETATM    8  C   UNL     1     -10.329   6.069  69.990  1.00  0.00    -0.290 C  
BRANCH   8   9
HETATM    9  C   UNL     1     -10.070   5.750  68.526  1.00  0.00    -0.226 C  
BRANCH   9  10
HETATM   10  C   UNL     1     -10.925   6.645  67.641  1.00  0.00    -0.392 C  
BRANCH  10  11
HETATM   11  C   UNL     1     -10.053   7.616  66.867  1.00  0.00    -0.348 C  
BRANCH  11  12
HETATM   12  C   UNL     1      -9.907   8.930  67.623  1.00  0.00    -0.229 C  
BRANCH  12  13
HETATM   13  C   UNL     1     -10.365  10.076  66.738  1.00  0.00    -0.283 C  
BRANCH  13  14
HETATM   14  C   UNL     1      -9.848   9.931  65.310  1.00  0.00    -0.373 C  
BRANCH  14  15
HETATM   15  C   UNL     1      -9.760  11.281  64.594  1.00  0.00    -0.294 C  
BRANCH  15  16
HETATM   16  C   UNL     1     -10.163  12.439  65.511  1.00  0.00    -0.274 C  
BRANCH  16  17
HETATM   17  N   UNL     1     -11.294  13.311  64.953  1.00  0.00    -0.307 N  
HETATM   18  C   UNL     1     -10.886  14.774  64.888  1.00  0.00    -0.416 C  
HETATM   19  C   UNL     1     -12.486  13.178  65.906  1.00  0.00    -0.319 C  
HETATM   20  C   UNL     1     -11.733  12.828  63.575  1.00  0.00    -0.530 C  
ENDBRANCH  16  17
ENDBRANCH  15  16
ENDBRANCH  14  15
ENDBRANCH  13  14
ENDBRANCH  12  13
ENDBRANCH  11  12
ENDBRANCH  10  11
ENDBRANCH   9  10
ENDBRANCH   8   9
ENDBRANCH   7   8
ENDBRANCH   6   7
ENDBRANCH   5   6
ENDBRANCH   4   5
ENDBRANCH   3   4
ENDBRANCH   2   3
TORSDOF 15
ENDMDL
MODEL      155
REMARK 921   NORMALIZED FREE ENERGY PREDICTED BY IDOCK:   -3.41 KCAL/MOL
REMARK 922        TOTAL FREE ENERGY PREDICTED BY IDOCK:   -8.09 KCAL/MOL
REMARK 923 INTER-LIGAND FREE ENERGY PREDICTED BY IDOCK:   -6.73 KCAL/MOL
REMARK 924 INTRA-LIGAND FREE ENERGY PREDICTED BY IDOCK:   -1.36 KCAL/MOL
REMARK 927      BINDING AFFINITY PREDICTED BY RF-SCORE:    0.00 PKD
ROOT
HETATM    1  C   UNL     1      -9.674  20.003  66.943  1.00  0.00    -0.557 C  
HETATM    2  C   UNL     1     -10.814  19.203  67.549  1.00  0.00    -0.512 C  
ENDROOT
BRANCH   2   3
HETATM    3  C   UNL     1     -10.286  18.002  68.326  1.00  0.00    -0.389 C  
BRANCH   3   4
HETATM    4  C   UNL     1     -10.685  16.694  67.651  1.00  0.00    -0.306 C  
BRANCH   4   5
HETATM    5  C   UNL     1      -9.740  16.376  66.497  1.00  0.00    -0.287 C  
BRANCH   5   6
HETATM    6  C   UNL     1      -9.637  14.872  66.285  1.00  0.00    -0.334 C  
BRANCH   6   7
HETATM    7  C   UNL     1      -8.818  14.228  67.397  1.00  0.00    -0.211 C  
BRANCH   7   8
HETATM    8  C   UNL     1      -9.393  12.865  67.752  1.00  0.00    -0.203 C  
BRANCH   8   9
HETATM    9  C   UNL     1     -10.717  12.639  67.041  1.00  0.00    -0.268 C  
BRANCH   9  10
HETATM   10  C   UNL     1     -11.822  12.408  68.062  1.00  0.00    -0.376 C  
BRANCH  10  11
HETATM   11  C   UNL     1     -11.727  13.421  69.188  1.00  0.00    -0.375 C  
BRANCH  11  12
HETATM   12  C   UNL     1     -12.049  12.771  70.527  1.00  0.00    -0.369 C  
BRANCH  12  13
HETATM   13  C   UNL     1     -12.333  11.294  70.316  1.00  0.00    -0.389 C  
BRANCH  13  14
HETATM   14  C   UNL     1     -13.031  10.672  71.522  1.00  0.00    -0.566 C  
BRANCH  14  15
HETATM   15  C   UNL     1     -12.540   9.248  71.793  1.00  0.00    -0.461 C  
BRANCH  15  16
HETATM   16  C   UNL     1     -11.068   9.070  71.411  1.00  0.00    -0.329 C  
BRANCH  16  17
HETATM   17  N   UNL     1     -10.787   7.805  70.592  1.00  0.00    -0.233 N  
HETATM   18  C   UNL     1      -9.396   7.260  70.872  1.00  0.00    -0.159 C  
HETATM   19  C   UNL     1     -10.870   8.193  69.111  1.00  0.00    -0.016 C  
HETATM   20  C   UNL     1     -11.834   6.730  70.859  1.00  0.00    -0.385 C  
ENDBRANCH  16  17
ENDBRANCH  15  16
ENDBRANCH  14  15
ENDBRANCH  13  14
ENDBRANCH  12  13
ENDBRANCH  11  12
ENDBRANCH  10  11
ENDBRANCH   9  10
ENDBRANCH   8   9
ENDBRANCH   7   8
ENDBRANCH   6   7
ENDBRANCH   5   6
ENDBRANCH   4   5
ENDBRANCH   3   4
ENDBRANCH   2   3
TORSDOF 15
ENDMDL
MODEL      156
REMARK 921   NORMALIZED FREE ENERGY PREDICTED BY IDOCK:   -3.40 KCAL/MOL
REMARK 922        TOTAL FREE ENERGY PREDICTED BY IDOCK:   -8.08 KCAL/MOL
REMARK 923 INTER-LIGAND FREE ENERGY PREDICTED BY IDOCK:   -6.80 KCAL/MOL
REMARK 924 INTRA-LIGAND FREE ENERGY PREDICTED BY IDOCK:   -1.27 KCAL/MOL
REMARK 927      BINDING AFFINITY PREDICTED BY RF-SCORE:    0.00 PKD
ROOT
HETATM    1  C   UNL     1     -10.268  17.863  67.569  1.00  0.00    -0.366 C  
HETATM    2  C   UNL     1      -9.933  16.828  66.509  1.00  0.00    -0.308 C  
ENDROOT
BRANCH   2   3
HETATM    3  C   UNL     1     -10.601  15.492  66.820  1.00  0.00    -0.307 C  
BRANCH   3   4
HETATM    4  C   UNL     1     -10.564  15.196  68.315  1.00  0.00    -0.243 C  
BRANCH   4   5
HETATM    5  C   UNL     1     -11.784  14.381  68.732  1.00  0.00    -0.372 C  
BRANCH   5   6
HETATM    6  C   UNL     1     -11.836  13.063  67.971  1.00  0.00    -0.391 C  
BRANCH   6   7
HETATM    7  C   UNL     1     -11.039  11.990  68.703  1.00  0.00    -0.298 C  
BRANCH   7   8
HETATM    8  C   UNL     1     -11.972  10.909  69.228  1.00  0.00    -0.382 C  
BRANCH   8   9
HETATM    9  C   UNL     1     -11.707  10.641  70.701  1.00  0.00    -0.454 C  
BRANCH   9  10
HETATM   10  C   UNL     1     -13.010  10.712  71.484  1.00  0.00    -0.566 C  
BRANCH  10  11
HETATM   11  C   UNL     1     -13.259   9.410  72.222  1.00  0.00    -0.528 C  
BRANCH  11  12
HETATM   12  C   UNL     1     -14.316   8.578  71.507  1.00  0.00    -0.451 C  
BRANCH  12  13
HETATM   13  C   UNL     1     -13.811   7.156  71.339  1.00  0.00    -0.368 C  
BRANCH  13  14
HETATM   14  C   UNL     1     -12.289   7.084  71.397  1.00  0.00    -0.419 C  
BRANCH  14  15
HETATM   15  C   UNL     1     -11.687   6.652  70.057  1.00  0.00    -0.378 C  
BRANCH  15  16
HETATM   16  C   UNL     1     -10.407   7.427  69.732  1.00  0.00    -0.222 C  
BRANCH  16  17
HETATM   17  N   UNL     1      -9.787   7.064  68.377  1.00  0.00    -0.143 N  
HETATM   18  C   UNL     1      -9.424   8.307  67.582  1.00  0.00    -0.149 C  
HETATM   19  C   UNL     1     -10.839   6.272  67.592  1.00  0.00    -0.346 C  
HETATM   20  C   UNL     1      -8.560   6.176  68.552  1.00  0.00    -0.113 C  
ENDBRANCH  16  17
ENDBRANCH  15  16
ENDBRANCH  14  15
ENDBRANCH  13  14
ENDBRANCH  12  13
ENDBRANCH  11  12
ENDBRANCH  10  11
ENDBRANCH   9  10
ENDBRANCH   8   9
ENDBRANCH   7   8
ENDBRANCH   6   7
ENDBRANCH   5   6
ENDBRANCH   4   5
ENDBRANCH   3   4
ENDBRANCH   2   3
TORSDOF 15
ENDMDL
MODEL      157
REMARK 921   NORMALIZED FREE ENERGY PREDICTED BY IDOCK:   -3.40 KCAL/MOL
REMARK 922        TOTAL FREE ENERGY PREDICTED BY IDOCK:   -8.07 KCAL/MOL
REMARK 923 INTER-LIGAND FREE ENERGY PREDICTED BY IDOCK:   -6.40 KCAL/MOL
REMARK 924 INTRA-LIGAND FREE ENERGY PREDICTED BY IDOCK:   -1.67 KCAL/MOL
REMARK 927      BINDING AFFINITY PREDICTED BY RF-SCORE:    0.00 PKD
ROOT
HETATM    1  C   UNL     1      -6.180  16.701  69.392  1.00  0.00    -0.205 C  
HETATM    2  C   UNL     1      -7.455  17.301  68.825  1.00  0.00    -0.260 C  
ENDROOT
BRANCH   2   3
HETATM    3  C   UNL     1      -7.153  18.553  68.008  1.00  0.00    -0.246 C  
BRANCH   3   4
HETATM    4  C   UNL     1      -8.124  19.678  68.349  1.00  0.00    -0.352 C  
BRANCH   4   5
HETATM    5  C   UNL     1      -8.805  20.202  67.089  1.00  0.00    -0.446 C  
BRANCH   5   6
HETATM    6  C   UNL     1     -10.287  19.855  67.094  1.00  0.00    -0.581 C  
BRANCH   6   7
HETATM    7  C   UNL     1     -10.515  18.469  66.504  1.00  0.00    -0.435 C  
BRANCH   7   8
HETATM    8  C   UNL     1     -10.854  17.477  67.607  1.00  0.00    -0.229 C  
BRANCH   8   9
HETATM    9  C   UNL     1     -10.511  16.060  67.178  1.00  0.00    -0.308 C  
BRANCH   9  10
HETATM   10  C   UNL     1     -10.084  16.048  65.718  1.00  0.00    -0.393 C  
BRANCH  10  11
HETATM   11  C   UNL     1     -10.641  14.827  65.010  1.00  0.00    -0.452 C  
BRANCH  11  12
HETATM   12  C   UNL     1     -12.012  14.462  65.564  1.00  0.00    -0.358 C  
BRANCH  12  13
HETATM   13  C   UNL     1     -12.051  12.976  65.877  1.00  0.00    -0.503 C  
BRANCH  13  14
HETATM   14  C   UNL     1     -11.996  12.711  67.378  1.00  0.00    -0.309 C  
BRANCH  14  15
HETATM   15  C   UNL     1     -10.921  11.682  67.737  1.00  0.00    -0.287 C  
BRANCH  15  16
HETATM   16  C   UNL     1      -9.680  11.823  66.852  1.00  0.00    -0.198 C  
BRANCH  16  17
HETATM   17  N   UNL     1      -9.300  10.539  66.104  1.00  0.00    -0.170 N  
HETATM   18  C   UNL     1     -10.042   9.333  66.658  1.00  0.00    -0.271 C  
HETATM   19  C   UNL     1      -7.796  10.322  66.306  1.00  0.00    -0.118 C  
HETATM   20  C   UNL     1      -9.562  10.674  64.608  1.00  0.00    -0.280 C  
ENDBRANCH  16  17
ENDBRANCH  15  16
ENDBRANCH  14  15
ENDBRANCH  13  14
ENDBRANCH  12  13
ENDBRANCH  11  12
ENDBRANCH  10  11
ENDBRANCH   9  10
ENDBRANCH   8   9
ENDBRANCH   7   8
ENDBRANCH   6   7
ENDBRANCH   5   6
ENDBRANCH   4   5
ENDBRANCH   3   4
ENDBRANCH   2   3
TORSDOF 15
ENDMDL
MODEL      158
REMARK 921   NORMALIZED FREE ENERGY PREDICTED BY IDOCK:   -3.40 KCAL/MOL
REMARK 922        TOTAL FREE ENERGY PREDICTED BY IDOCK:   -8.07 KCAL/MOL
REMARK 923 INTER-LIGAND FREE ENERGY PREDICTED BY IDOCK:   -6.21 KCAL/MOL
REMARK 924 INTRA-LIGAND FREE ENERGY PREDICTED BY IDOCK:   -1.86 KCAL/MOL
REMARK 927      BINDING AFFINITY PREDICTED BY RF-SCORE:    0.00 PKD
ROOT
HETATM    1  C   UNL     1     -13.800   9.087  71.573  1.00  0.00    -0.367 C  
HETATM    2  C   UNL     1     -13.206  10.474  71.744  1.00  0.00    -0.522 C  
ENDROOT
BRANCH   2   3
HETATM    3  C   UNL     1     -11.815  10.554  71.122  1.00  0.00    -0.391 C  
BRANCH   3   4
HETATM    4  C   UNL     1     -11.895  10.925  69.645  1.00  0.00    -0.416 C  
BRANCH   4   5
HETATM    5  C   UNL     1     -11.687  12.423  69.455  1.00  0.00    -0.388 C  
BRANCH   5   6
HETATM    6  C   UNL     1     -11.852  12.808  67.992  1.00  0.00    -0.386 C  
BRANCH   6   7
HETATM    7  C   UNL     1     -11.740  14.317  67.818  1.00  0.00    -0.408 C  
BRANCH   7   8
HETATM    8  C   UNL     1     -11.668  14.673  66.341  1.00  0.00    -0.329 C  
BRANCH   8   9
HETATM    9  C   UNL     1     -12.675  13.859  65.543  1.00  0.00    -0.536 C  
BRANCH   9  10
HETATM   10  C   UNL     1     -12.105  13.529  64.171  1.00  0.00    -0.488 C  
BRANCH  10  11
HETATM   11  C   UNL     1     -11.757  12.055  64.080  1.00  0.00    -0.457 C  
BRANCH  11  12
HETATM   12  C   UNL     1     -10.262  11.867  63.860  1.00  0.00    -0.420 C  
BRANCH  12  13
HETATM   13  C   UNL     1      -9.545  11.913  65.198  1.00  0.00    -0.132 C  
BRANCH  13  14
HETATM   14  C   UNL     1      -9.666  10.593  65.952  1.00  0.00    -0.273 C  
BRANCH  14  15
HETATM   15  C   UNL     1      -8.950  10.640  67.304  1.00  0.00    -0.141 C  
BRANCH  15  16
HETATM   16  C   UNL     1      -8.309  12.007  67.562  1.00  0.00    -0.166 C  
BRANCH  16  17
HETATM   17  N   UNL     1      -6.843  11.934  68.005  1.00  0.00    -0.067 N  
HETATM   18  C   UNL     1      -6.008  11.120  67.031  1.00  0.00    -0.091 C  
HETATM   19  C   UNL     1      -6.815  11.239  69.372  1.00  0.00    -0.121 C  
HETATM   20  C   UNL     1      -6.247  13.327  68.170  1.00  0.00    -0.111 C  
ENDBRANCH  16  17
ENDBRANCH  15  16
ENDBRANCH  14  15
ENDBRANCH  13  14
ENDBRANCH  12  13
ENDBRANCH  11  12
ENDBRANCH  10  11
ENDBRANCH   9  10
ENDBRANCH   8   9
ENDBRANCH   7   8
ENDBRANCH   6   7
ENDBRANCH   5   6
ENDBRANCH   4   5
ENDBRANCH   3   4
ENDBRANCH   2   3
TORSDOF 15
ENDMDL
MODEL      159
REMARK 921   NORMALIZED FREE ENERGY PREDICTED BY IDOCK:   -3.40 KCAL/MOL
REMARK 922        TOTAL FREE ENERGY PREDICTED BY IDOCK:   -8.07 KCAL/MOL
REMARK 923 INTER-LIGAND FREE ENERGY PREDICTED BY IDOCK:   -6.46 KCAL/MOL
REMARK 924 INTRA-LIGAND FREE ENERGY PREDICTED BY IDOCK:   -1.61 KCAL/MOL
REMARK 927      BINDING AFFINITY PREDICTED BY RF-SCORE:    0.00 PKD
ROOT
HETATM    1  C   UNL     1      -7.766   8.238  64.092  1.00  0.00    -0.138 C  
HETATM    2  C   UNL     1      -7.743   8.932  65.443  1.00  0.00    -0.092 C  
ENDROOT
BRANCH   2   3
HETATM    3  C   UNL     1      -8.442   8.087  66.503  1.00  0.00    -0.137 C  
BRANCH   3   4
HETATM    4  C   UNL     1      -9.808   8.667  66.853  1.00  0.00    -0.305 C  
BRANCH   4   5
HETATM    5  C   UNL     1     -10.770   7.561  67.275  1.00  0.00    -0.365 C  
BRANCH   5   6
HETATM    6  C   UNL     1     -10.127   6.659  68.319  1.00  0.00    -0.170 C  
BRANCH   6   7
HETATM    7  C   UNL     1     -11.158   6.207  69.346  1.00  0.00    -0.479 C  
BRANCH   7   8
HETATM    8  C   UNL     1     -10.788   6.728  70.726  1.00  0.00    -0.291 C  
BRANCH   8   9
HETATM    9  C   UNL     1     -11.987   7.386  71.391  1.00  0.00    -0.340 C  
BRANCH   9  10
HETATM   10  C   UNL     1     -11.611   8.777  71.880  1.00  0.00    -0.432 C  
BRANCH  10  11
HETATM   11  C   UNL     1     -12.183   9.837  70.958  1.00  0.00    -0.436 C  
BRANCH  11  12
HETATM   12  C   UNL     1     -11.096  10.414  70.060  1.00  0.00    -0.379 C  
BRANCH  12  13
HETATM   13  C   UNL     1     -11.735  11.267  68.978  1.00  0.00    -0.410 C  
BRANCH  13  14
HETATM   14  C   UNL     1     -10.735  12.238  68.357  1.00  0.00    -0.255 C  
BRANCH  14  15
HETATM   15  C   UNL     1     -11.373  13.087  67.255  1.00  0.00    -0.348 C  
BRANCH  15  16
HETATM   16  C   UNL     1     -11.832  12.232  66.071  1.00  0.00    -0.341 C  
BRANCH  16  17
HETATM   17  N   UNL     1     -11.170  12.606  64.739  1.00  0.00    -0.292 N  
HETATM   18  C   UNL     1     -10.628  14.026  64.768  1.00  0.00    -0.421 C  
HETATM   19  C   UNL     1     -12.249  12.518  63.653  1.00  0.00    -0.550 C  
HETATM   20  C   UNL     1     -10.058  11.627  64.382  1.00  0.00    -0.279 C  
ENDBRANCH  16  17
ENDBRANCH  15  16
ENDBRANCH  14  15
ENDBRANCH  13  14
ENDBRANCH  12  13
ENDBRANCH  11  12
ENDBRANCH  10  11
ENDBRANCH   9  10
ENDBRANCH   8   9
ENDBRANCH   7   8
ENDBRANCH   6   7
ENDBRANCH   5   6
ENDBRANCH   4   5
ENDBRANCH   3   4
ENDBRANCH   2   3
TORSDOF 15
ENDMDL
MODEL      160
REMARK 921   NORMALIZED FREE ENERGY PREDICTED BY IDOCK:   -3.40 KCAL/MOL
REMARK 922        TOTAL FREE ENERGY PREDICTED BY IDOCK:   -8.06 KCAL/MOL
REMARK 923 INTER-LIGAND FREE ENERGY PREDICTED BY IDOCK:   -6.19 KCAL/MOL
REMARK 924 INTRA-LIGAND FREE ENERGY PREDICTED BY IDOCK:   -1.88 KCAL/MOL
REMARK 927      BINDING AFFINITY PREDICTED BY RF-SCORE:    0.00 PKD
ROOT
HETATM    1  C   UNL     1     -10.454  19.650  67.523  1.00  0.00    -0.589 C  
HETATM    2  C   UNL     1     -10.236  18.902  66.219  1.00  0.00    -0.491 C  
ENDROOT
BRANCH   2   3
HETATM    3  C   UNL     1     -10.306  17.394  66.436  1.00  0.00    -0.317 C  
BRANCH   3   4
HETATM    4  C   UNL     1      -9.010  16.717  66.002  1.00  0.00    -0.220 C  
BRANCH   4   5
HETATM    5  C   UNL     1      -7.801  17.512  66.484  1.00  0.00    -0.312 C  
BRANCH   5   6
HETATM    6  C   UNL     1      -6.916  16.656  67.379  1.00  0.00    -0.190 C  
BRANCH   6   7
HETATM    7  C   UNL     1      -7.567  16.454  68.742  1.00  0.00    -0.211 C  
BRANCH   7   8
HETATM    8  C   UNL     1      -7.520  14.986  69.135  1.00  0.00    -0.169 C  
BRANCH   8   9
HETATM    9  C   UNL     1      -7.768  14.099  67.925  1.00  0.00    -0.161 C  
BRANCH   9  10
HETATM   10  C   UNL     1      -8.145  12.696  68.379  1.00  0.00    -0.137 C  
BRANCH  10  11
HETATM   11  C   UNL     1      -9.305  12.165  67.557  1.00  0.00    -0.181 C  
BRANCH  11  12
HETATM   12  C   UNL     1     -10.025  13.302  66.844  1.00  0.00    -0.250 C  
BRANCH  12  13
HETATM   13  C   UNL     1     -11.423  13.452  67.418  1.00  0.00    -0.368 C  
BRANCH  13  14
HETATM   14  C   UNL     1     -11.694  14.879  67.885  1.00  0.00    -0.344 C  
BRANCH  14  15
HETATM   15  C   UNL     1     -11.641  14.999  69.410  1.00  0.00    -0.337 C  
BRANCH  15  16
HETATM   16  C   UNL     1     -12.510  13.941  70.096  1.00  0.00    -0.292 C  
BRANCH  16  17
HETATM   17  N   UNL     1     -13.049  14.369  71.466  1.00  0.00    -0.323 N  
HETATM   18  C   UNL     1     -13.366  13.166  72.339  1.00  0.00    -0.490 C  
HETATM   19  C   UNL     1     -14.344  15.152  71.221  1.00  0.00    -0.409 C  
HETATM   20  C   UNL     1     -12.067  15.291  72.181  1.00  0.00    -0.396 C  
ENDBRANCH  16  17
ENDBRANCH  15  16
ENDBRANCH  14  15
ENDBRANCH  13  14
ENDBRANCH  12  13
ENDBRANCH  11  12
ENDBRANCH  10  11
ENDBRANCH   9  10
ENDBRANCH   8   9
ENDBRANCH   7   8
ENDBRANCH   6   7
ENDBRANCH   5   6
ENDBRANCH   4   5
ENDBRANCH   3   4
ENDBRANCH   2   3
TORSDOF 15
ENDMDL
MODEL      161
REMARK 921   NORMALIZED FREE ENERGY PREDICTED BY IDOCK:   -3.38 KCAL/MOL
REMARK 922        TOTAL FREE ENERGY PREDICTED BY IDOCK:   -8.04 KCAL/MOL
REMARK 923 INTER-LIGAND FREE ENERGY PREDICTED BY IDOCK:   -6.68 KCAL/MOL
REMARK 924 INTRA-LIGAND FREE ENERGY PREDICTED BY IDOCK:   -1.37 KCAL/MOL
REMARK 927      BINDING AFFINITY PREDICTED BY RF-SCORE:    0.00 PKD
ROOT
HETATM    1  C   UNL     1     -13.183   8.879  71.923  1.00  0.00    -0.443 C  
HETATM    2  C   UNL     1     -11.837   9.510  71.608  1.00  0.00    -0.468 C  
ENDROOT
BRANCH   2   3
HETATM    3  C   UNL     1     -11.992  10.662  70.621  1.00  0.00    -0.466 C  
BRANCH   3   4
HETATM    4  C   UNL     1     -11.290  10.353  69.303  1.00  0.00    -0.296 C  
BRANCH   4   5
HETATM    5  C   UNL     1     -11.194  11.606  68.438  1.00  0.00    -0.307 C  
BRANCH   5   6
HETATM    6  C   UNL     1     -10.059  11.480  67.433  1.00  0.00    -0.213 C  
BRANCH   6   7
HETATM    7  C   UNL     1     -10.402  12.211  66.141  1.00  0.00    -0.264 C  
BRANCH   7   8
HETATM    8  C   UNL     1     -11.910  12.344  65.997  1.00  0.00    -0.459 C  
BRANCH   8   9
HETATM    9  C   UNL     1     -12.260  13.451  65.015  1.00  0.00    -0.463 C  
BRANCH   9  10
HETATM   10  C   UNL     1     -11.001  14.208  64.616  1.00  0.00    -0.393 C  
BRANCH  10  11
HETATM   11  C   UNL     1     -11.156  15.689  64.905  1.00  0.00    -0.414 C  
BRANCH  11  12
HETATM   12  C   UNL     1      -9.918  16.235  65.603  1.00  0.00    -0.306 C  
BRANCH  12  13
HETATM   13  C   UNL     1     -10.247  17.573  66.242  1.00  0.00    -0.356 C  
BRANCH  13  14
HETATM   14  C   UNL     1      -9.095  18.092  67.097  1.00  0.00    -0.256 C  
BRANCH  14  15
HETATM   15  C   UNL     1      -9.068  17.434  68.478  1.00  0.00    -0.273 C  
BRANCH  15  16
HETATM   16  C   UNL     1     -10.479  17.177  69.014  1.00  0.00    -0.321 C  
BRANCH  16  17
HETATM   17  N   UNL     1     -10.765  15.704  69.335  1.00  0.00    -0.232 N  
HETATM   18  C   UNL     1     -11.022  15.499  70.819  1.00  0.00    -0.325 C  
HETATM   19  C   UNL     1      -9.521  14.902  68.939  1.00  0.00    -0.209 C  
HETATM   20  C   UNL     1     -11.944  15.182  68.522  1.00  0.00    -0.214 C  
ENDBRANCH  16  17
ENDBRANCH  15  16
ENDBRANCH  14  15
ENDBRANCH  13  14
ENDBRANCH  12  13
ENDBRANCH  11  12
ENDBRANCH  10  11
ENDBRANCH   9  10
ENDBRANCH   8   9
ENDBRANCH   7   8
ENDBRANCH   6   7
ENDBRANCH   5   6
ENDBRANCH   4   5
ENDBRANCH   3   4
ENDBRANCH   2   3
TORSDOF 15
ENDMDL
MODEL      162
REMARK 921   NORMALIZED FREE ENERGY PREDICTED BY IDOCK:   -3.38 KCAL/MOL
REMARK 922        TOTAL FREE ENERGY PREDICTED BY IDOCK:   -8.04 KCAL/MOL
REMARK 923 INTER-LIGAND FREE ENERGY PREDICTED BY IDOCK:   -6.80 KCAL/MOL
REMARK 924 INTRA-LIGAND FREE ENERGY PREDICTED BY IDOCK:   -1.25 KCAL/MOL
REMARK 927      BINDING AFFINITY PREDICTED BY RF-SCORE:    0.00 PKD
ROOT
HETATM    1  C   UNL     1      -9.333  10.322  65.148  1.00  0.00    -0.279 C  
HETATM    2  C   UNL     1      -9.660  10.308  63.665  1.00  0.00    -0.334 C  
ENDROOT
BRANCH   2   3
HETATM    3  C   UNL     1     -10.249  11.644  63.223  1.00  0.00    -0.445 C  
BRANCH   3   4
HETATM    4  C   UNL     1     -11.472  12.007  64.058  1.00  0.00    -0.484 C  
BRANCH   4   5
HETATM    5  C   UNL     1     -11.372  13.442  64.562  1.00  0.00    -0.391 C  
BRANCH   5   6
HETATM    6  C   UNL     1     -12.334  13.675  65.718  1.00  0.00    -0.524 C  
BRANCH   6   7
HETATM    7  C   UNL     1     -11.585  14.168  66.950  1.00  0.00    -0.410 C  
BRANCH   7   8
HETATM    8  C   UNL     1     -12.042  13.406  68.184  1.00  0.00    -0.267 C  
BRANCH   8   9
HETATM    9  C   UNL     1     -11.546  11.969  68.141  1.00  0.00    -0.403 C  
BRANCH   9  10
HETATM   10  C   UNL     1     -11.556  11.375  69.543  1.00  0.00    -0.399 C  
BRANCH  10  11
HETATM   11  C   UNL     1     -10.604  10.196  69.627  1.00  0.00    -0.286 C  
BRANCH  11  12
HETATM   12  C   UNL     1     -10.688   9.533  70.996  1.00  0.00    -0.411 C  
BRANCH  12  13
HETATM   13  C   UNL     1     -12.130   9.154  71.285  1.00  0.00    -0.392 C  
BRANCH  13  14
HETATM   14  C   UNL     1     -12.323   7.642  71.322  1.00  0.00    -0.334 C  
BRANCH  14  15
HETATM   15  C   UNL     1     -11.064   6.895  70.877  1.00  0.00    -0.313 C  
BRANCH  15  16
HETATM   16  C   UNL     1     -11.276   6.158  69.552  1.00  0.00    -0.411 C  
BRANCH  16  17
HETATM   17  N   UNL     1     -10.120   6.321  68.557  1.00  0.00    -0.147 N  
HETATM   18  C   UNL     1     -10.489   7.270  67.428  1.00  0.00    -0.289 C  
HETATM   19  C   UNL     1      -9.834   4.939  67.960  1.00  0.00    -0.139 C  
HETATM   20  C   UNL     1      -8.855   6.805  69.256  1.00  0.00    -0.137 C  
ENDBRANCH  16  17
ENDBRANCH  15  16
ENDBRANCH  14  15
ENDBRANCH  13  14
ENDBRANCH  12  13
ENDBRANCH  11  12
ENDBRANCH  10  11
ENDBRANCH   9  10
ENDBRANCH   8   9
ENDBRANCH   7   8
ENDBRANCH   6   7
ENDBRANCH   5   6
ENDBRANCH   4   5
ENDBRANCH   3   4
ENDBRANCH   2   3
TORSDOF 15
ENDMDL
MODEL      163
REMARK 921   NORMALIZED FREE ENERGY PREDICTED BY IDOCK:   -3.37 KCAL/MOL
REMARK 922        TOTAL FREE ENERGY PREDICTED BY IDOCK:   -8.02 KCAL/MOL
REMARK 923 INTER-LIGAND FREE ENERGY PREDICTED BY IDOCK:   -6.75 KCAL/MOL
REMARK 924 INTRA-LIGAND FREE ENERGY PREDICTED BY IDOCK:   -1.27 KCAL/MOL
REMARK 927      BINDING AFFINITY PREDICTED BY RF-SCORE:    0.00 PKD
ROOT
HETATM    1  C   UNL     1      -9.752  14.009  67.394  1.00  0.00    -0.233 C  
HETATM    2  C   UNL     1     -10.891  14.800  66.774  1.00  0.00    -0.316 C  
ENDROOT
BRANCH   2   3
HETATM    3  C   UNL     1     -12.138  13.936  66.623  1.00  0.00    -0.485 C  
BRANCH   3   4
HETATM    4  C   UNL     1     -12.572  13.850  65.164  1.00  0.00    -0.466 C  
BRANCH   4   5
HETATM    5  C   UNL     1     -12.364  12.439  64.624  1.00  0.00    -0.518 C  
BRANCH   5   6
HETATM    6  C   UNL     1     -11.294  12.429  63.543  1.00  0.00    -0.553 C  
BRANCH   6   7
HETATM    7  C   UNL     1     -10.456  11.159  63.629  1.00  0.00    -0.438 C  
BRANCH   7   8
HETATM    8  C   UNL     1     -10.367  10.684  65.071  1.00  0.00    -0.341 C  
BRANCH   8   9
HETATM    9  C   UNL     1      -9.179   9.754  65.258  1.00  0.00    -0.294 C  
BRANCH   9  10
HETATM   10  C   UNL     1      -9.486   8.731  66.342  1.00  0.00    -0.291 C  
BRANCH  10  11
HETATM   11  C   UNL     1      -8.860   7.392  66.002  1.00  0.00    -0.173 C  
BRANCH  11  12
HETATM   12  C   UNL     1      -9.665   6.250  66.609  1.00  0.00    -0.195 C  
BRANCH  12  13
HETATM   13  C   UNL     1     -10.984   6.788  67.137  1.00  0.00    -0.458 C  
BRANCH  13  14
HETATM   14  C   UNL     1     -11.263   6.310  68.558  1.00  0.00    -0.305 C  
BRANCH  14  15
HETATM   15  C   UNL     1     -10.322   6.961  69.574  1.00  0.00    -0.224 C  
BRANCH  15  16
HETATM   16  C   UNL     1     -10.742   6.658  71.015  1.00  0.00    -0.236 C  
BRANCH  16  17
HETATM   17  N   UNL     1     -10.593   7.849  71.971  1.00  0.00    -0.224 N  
HETATM   18  C   UNL     1      -9.255   8.546  71.783  1.00  0.00    -0.246 C  
HETATM   19  C   UNL     1     -10.661   7.298  73.399  1.00  0.00    -0.389 C  
HETATM   20  C   UNL     1     -11.733   8.845  71.792  1.00  0.00    -0.362 C  
ENDBRANCH  16  17
ENDBRANCH  15  16
ENDBRANCH  14  15
ENDBRANCH  13  14
ENDBRANCH  12  13
ENDBRANCH  11  12
ENDBRANCH  10  11
ENDBRANCH   9  10
ENDBRANCH   8   9
ENDBRANCH   7   8
ENDBRANCH   6   7
ENDBRANCH   5   6
ENDBRANCH   4   5
ENDBRANCH   3   4
ENDBRANCH   2   3
TORSDOF 15
ENDMDL
MODEL      164
REMARK 921   NORMALIZED FREE ENERGY PREDICTED BY IDOCK:   -3.36 KCAL/MOL
REMARK 922        TOTAL FREE ENERGY PREDICTED BY IDOCK:   -8.00 KCAL/MOL
REMARK 923 INTER-LIGAND FREE ENERGY PREDICTED BY IDOCK:   -6.61 KCAL/MOL
REMARK 924 INTRA-LIGAND FREE ENERGY PREDICTED BY IDOCK:   -1.39 KCAL/MOL
REMARK 927      BINDING AFFINITY PREDICTED BY RF-SCORE:    0.00 PKD
ROOT
HETATM    1  C   UNL     1     -10.025  10.489  64.397  1.00  0.00    -0.410 C  
HETATM    2  C   UNL     1     -10.807  11.778  64.213  1.00  0.00    -0.404 C  
ENDROOT
BRANCH   2   3
HETATM    3  C   UNL     1     -11.369  12.270  65.543  1.00  0.00    -0.394 C  
BRANCH   3   4
HETATM    4  C   UNL     1     -10.655  11.610  66.718  1.00  0.00    -0.280 C  
BRANCH   4   5
HETATM    5  C   UNL     1     -11.598  11.468  67.908  1.00  0.00    -0.352 C  
BRANCH   5   6
HETATM    6  C   UNL     1     -11.833  12.817  68.572  1.00  0.00    -0.345 C  
BRANCH   6   7
HETATM    7  C   UNL     1     -11.994  12.653  70.079  1.00  0.00    -0.377 C  
BRANCH   7   8
HETATM    8  C   UNL     1     -12.060  11.177  70.443  1.00  0.00    -0.475 C  
BRANCH   8   9
HETATM    9  C   UNL     1     -13.029  10.951  71.593  1.00  0.00    -0.569 C  
BRANCH   9  10
HETATM   10  C   UNL     1     -13.470   9.495  71.622  1.00  0.00    -0.463 C  
BRANCH  10  11
HETATM   11  C   UNL     1     -12.287   8.587  71.903  1.00  0.00    -0.407 C  
BRANCH  11  12
HETATM   12  C   UNL     1     -12.638   7.135  71.604  1.00  0.00    -0.410 C  
BRANCH  12  13
HETATM   13  C   UNL     1     -11.402   6.410  71.102  1.00  0.00    -0.376 C  
BRANCH  13  14
HETATM   14  C   UNL     1     -11.386   6.304  69.580  1.00  0.00    -0.492 C  
BRANCH  14  15
HETATM   15  C   UNL     1     -10.043   6.743  68.992  1.00  0.00    -0.172 C  
BRANCH  15  16
HETATM   16  C   UNL     1      -9.952   8.265  68.852  1.00  0.00    -0.186 C  
BRANCH  16  17
HETATM   17  N   UNL     1      -8.516   8.799  68.783  1.00  0.00    -0.127 N  
HETATM   18  C   UNL     1      -7.539   7.854  69.464  1.00  0.00    -0.099 C  
HETATM   19  C   UNL     1      -8.494  10.141  69.523  1.00  0.00    -0.168 C  
HETATM   20  C   UNL     1      -8.088   9.046  67.341  1.00  0.00    -0.108 C  
ENDBRANCH  16  17
ENDBRANCH  15  16
ENDBRANCH  14  15
ENDBRANCH  13  14
ENDBRANCH  12  13
ENDBRANCH  11  12
ENDBRANCH  10  11
ENDBRANCH   9  10
ENDBRANCH   8   9
ENDBRANCH   7   8
ENDBRANCH   6   7
ENDBRANCH   5   6
ENDBRANCH   4   5
ENDBRANCH   3   4
ENDBRANCH   2   3
TORSDOF 15
ENDMDL
MODEL      165
REMARK 921   NORMALIZED FREE ENERGY PREDICTED BY IDOCK:   -3.36 KCAL/MOL
REMARK 922        TOTAL FREE ENERGY PREDICTED BY IDOCK:   -8.00 KCAL/MOL
REMARK 923 INTER-LIGAND FREE ENERGY PREDICTED BY IDOCK:   -6.35 KCAL/MOL
REMARK 924 INTRA-LIGAND FREE ENERGY PREDICTED BY IDOCK:   -1.65 KCAL/MOL
REMARK 927      BINDING AFFINITY PREDICTED BY RF-SCORE:    0.00 PKD
ROOT
HETATM    1  C   UNL     1      -9.824  11.443  63.768  1.00  0.00    -0.353 C  
HETATM    2  C   UNL     1     -11.338  11.562  63.831  1.00  0.00    -0.400 C  
ENDROOT
BRANCH   2   3
HETATM    3  C   UNL     1     -11.767  13.023  63.918  1.00  0.00    -0.531 C  
BRANCH   3   4
HETATM    4  C   UNL     1     -12.622  13.269  65.157  1.00  0.00    -0.512 C  
BRANCH   4   5
HETATM    5  C   UNL     1     -11.804  13.951  66.248  1.00  0.00    -0.431 C  
BRANCH   5   6
HETATM    6  C   UNL     1     -11.888  13.169  67.552  1.00  0.00    -0.409 C  
BRANCH   6   7
HETATM    7  C   UNL     1     -10.938  11.978  67.525  1.00  0.00    -0.303 C  
BRANCH   7   8
HETATM    8  C   UNL     1     -11.562  10.792  68.244  1.00  0.00    -0.297 C  
BRANCH   8   9
HETATM    9  C   UNL     1     -11.720  11.085  69.727  1.00  0.00    -0.410 C  
BRANCH   9  10
HETATM   10  C   UNL     1     -11.614   9.793  70.526  1.00  0.00    -0.365 C  
BRANCH  10  11
HETATM   11  C   UNL     1     -10.159   9.403  70.714  1.00  0.00    -0.366 C  
BRANCH  11  12
HETATM   12  C   UNL     1      -9.917   7.978  70.235  1.00  0.00    -0.189 C  
BRANCH  12  13
HETATM   13  C   UNL     1     -11.234   7.222  70.214  1.00  0.00    -0.287 C  
BRANCH  13  14
HETATM   14  C   UNL     1     -11.272   6.180  69.100  1.00  0.00    -0.409 C  
BRANCH  14  15
HETATM   15  C   UNL     1     -10.946   6.791  67.736  1.00  0.00    -0.321 C  
BRANCH  15  16
HETATM   16  C   UNL     1     -10.284   5.776  66.800  1.00  0.00    -0.221 C  
BRANCH  16  17
HETATM   17  N   UNL     1      -8.909   6.213  66.281  1.00  0.00    -0.142 N  
HETATM   18  C   UNL     1      -8.514   5.437  65.034  1.00  0.00    -0.150 C  
HETATM   19  C   UNL     1      -7.889   5.914  67.385  1.00  0.00    -0.102 C  
HETATM   20  C   UNL     1      -8.876   7.711  65.998  1.00  0.00    -0.155 C  
ENDBRANCH  16  17
ENDBRANCH  15  16
ENDBRANCH  14  15
ENDBRANCH  13  14
ENDBRANCH  12  13
ENDBRANCH  11  12
ENDBRANCH  10  11
ENDBRANCH   9  10
ENDBRANCH   8   9
ENDBRANCH   7   8
ENDBRANCH   6   7
ENDBRANCH   5   6
ENDBRANCH   4   5
ENDBRANCH   3   4
ENDBRANCH   2   3
TORSDOF 15
ENDMDL
MODEL      166
REMARK 921   NORMALIZED FREE ENERGY PREDICTED BY IDOCK:   -3.36 KCAL/MOL
REMARK 922        TOTAL FREE ENERGY PREDICTED BY IDOCK:   -7.99 KCAL/MOL
REMARK 923 INTER-LIGAND FREE ENERGY PREDICTED BY IDOCK:   -6.11 KCAL/MOL
REMARK 924 INTRA-LIGAND FREE ENERGY PREDICTED BY IDOCK:   -1.88 KCAL/MOL
REMARK 927      BINDING AFFINITY PREDICTED BY RF-SCORE:    0.00 PKD
ROOT
HETATM    1  C   UNL     1     -11.732  15.160  71.056  1.00  0.00    -0.385 C  
HETATM    2  C   UNL     1     -11.686  14.277  69.821  1.00  0.00    -0.367 C  
ENDROOT
BRANCH   2   3
HETATM    3  C   UNL     1     -10.431  14.552  68.999  1.00  0.00    -0.241 C  
BRANCH   3   4
HETATM    4  C   UNL     1     -10.616  14.107  67.552  1.00  0.00    -0.257 C  
BRANCH   4   5
HETATM    5  C   UNL     1     -12.052  14.341  67.096  1.00  0.00    -0.412 C  
BRANCH   5   6
HETATM    6  C   UNL     1     -12.382  13.472  65.891  1.00  0.00    -0.507 C  
BRANCH   6   7
HETATM    7  C   UNL     1     -11.602  13.934  64.666  1.00  0.00    -0.398 C  
BRANCH   7   8
HETATM    8  C   UNL     1     -12.118  13.233  63.419  1.00  0.00    -0.508 C  
BRANCH   8   9
HETATM    9  C   UNL     1     -11.802  11.747  63.469  1.00  0.00    -0.481 C  
BRANCH   9  10
HETATM   10  C   UNL     1     -10.295  11.538  63.507  1.00  0.00    -0.484 C  
BRANCH  10  11
HETATM   11  C   UNL     1      -9.938  10.418  64.468  1.00  0.00    -0.401 C  
BRANCH  11  12
HETATM   12  C   UNL     1      -9.609  10.976  65.847  1.00  0.00    -0.255 C  
BRANCH  12  13
HETATM   13  C   UNL     1     -10.540  10.358  66.876  1.00  0.00    -0.293 C  
BRANCH  13  14
HETATM   14  C   UNL     1     -10.505   8.834  66.830  1.00  0.00    -0.319 C  
BRANCH  14  15
HETATM   15  C   UNL     1     -10.418   8.224  68.231  1.00  0.00    -0.211 C  
BRANCH  15  16
HETATM   16  C   UNL     1      -9.630   9.116  69.194  1.00  0.00    -0.161 C  
BRANCH  16  17
HETATM   17  N   UNL     1      -8.174   8.679  69.399  1.00  0.00    -0.111 N  
HETATM   18  C   UNL     1      -8.000   7.191  69.137  1.00  0.00    -0.119 C  
HETATM   19  C   UNL     1      -7.815   8.963  70.862  1.00  0.00    -0.133 C  
HETATM   20  C   UNL     1      -7.227   9.481  68.514  1.00  0.00    -0.071 C  
ENDBRANCH  16  17
ENDBRANCH  15  16
ENDBRANCH  14  15
ENDBRANCH  13  14
ENDBRANCH  12  13
ENDBRANCH  11  12
ENDBRANCH  10  11
ENDBRANCH   9  10
ENDBRANCH   8   9
ENDBRANCH   7   8
ENDBRANCH   6   7
ENDBRANCH   5   6
ENDBRANCH   4   5
ENDBRANCH   3   4
ENDBRANCH   2   3
TORSDOF 15
ENDMDL
MODEL      167
REMARK 921   NORMALIZED FREE ENERGY PREDICTED BY IDOCK:   -3.36 KCAL/MOL
REMARK 922        TOTAL FREE ENERGY PREDICTED BY IDOCK:   -7.99 KCAL/MOL
REMARK 923 INTER-LIGAND FREE ENERGY PREDICTED BY IDOCK:   -6.06 KCAL/MOL
REMARK 924 INTRA-LIGAND FREE ENERGY PREDICTED BY IDOCK:   -1.93 KCAL/MOL
REMARK 927      BINDING AFFINITY PREDICTED BY RF-SCORE:    0.00 PKD
ROOT
HETATM    1  C   UNL     1     -10.334  19.379  67.482  1.00  0.00    -0.556 C  
HETATM    2  C   UNL     1      -9.071  20.218  67.386  1.00  0.00    -0.483 C  
ENDROOT
BRANCH   2   3
HETATM    3  C   UNL     1      -8.132  19.672  66.316  1.00  0.00    -0.347 C  
BRANCH   3   4
HETATM    4  C   UNL     1      -6.856  20.502  66.230  1.00  0.00    -0.280 C  
BRANCH   4   5
HETATM    5  C   UNL     1      -6.522  21.115  67.586  1.00  0.00    -0.402 C  
BRANCH   5   6
HETATM    6  C   UNL     1      -5.492  20.268  68.320  1.00  0.00    -0.249 C  
BRANCH   6   7
HETATM    7  C   UNL     1      -5.894  20.077  69.777  1.00  0.00    -0.345 C  
BRANCH   7   8
HETATM    8  C   UNL     1      -6.052  18.597  70.090  1.00  0.00    -0.117 C  
BRANCH   8   9
HETATM    9  C   UNL     1      -6.064  17.776  68.810  1.00  0.00    -0.195 C  
BRANCH   9  10
HETATM   10  C   UNL     1      -7.300  16.889  68.774  1.00  0.00    -0.227 C  
BRANCH  10  11
HETATM   11  C   UNL     1      -7.245  15.950  67.583  1.00  0.00    -0.182 C  
BRANCH  11  12
HETATM   12  C   UNL     1      -7.883  16.594  66.359  1.00  0.00    -0.347 C  
BRANCH  12  13
HETATM   13  C   UNL     1      -9.003  15.705  65.847  1.00  0.00    -0.189 C  
BRANCH  13  14
HETATM   14  C   UNL     1     -10.227  15.755  66.757  1.00  0.00    -0.284 C  
BRANCH  14  15
HETATM   15  C   UNL     1     -10.760  14.355  67.072  1.00  0.00    -0.285 C  
BRANCH  15  16
HETATM   16  C   UNL     1      -9.923  13.262  66.402  1.00  0.00    -0.288 C  
BRANCH  16  17
HETATM   17  N   UNL     1     -10.718  12.369  65.442  1.00  0.00    -0.274 N  
HETATM   18  C   UNL     1     -10.400  12.692  63.991  1.00  0.00    -0.389 C  
HETATM   19  C   UNL     1     -12.205  12.645  65.689  1.00  0.00    -0.411 C  
HETATM   20  C   UNL     1     -10.458  10.892  65.719  1.00  0.00    -0.210 C  
ENDBRANCH  16  17
ENDBRANCH  15  16
ENDBRANCH  14  15
ENDBRANCH  13  14
ENDBRANCH  12  13
ENDBRANCH  11  12
ENDBRANCH  10  11
ENDBRANCH   9  10
ENDBRANCH   8   9
ENDBRANCH   7   8
ENDBRANCH   6   7
ENDBRANCH   5   6
ENDBRANCH   4   5
ENDBRANCH   3   4
ENDBRANCH   2   3
TORSDOF 15
ENDMDL
MODEL      168
REMARK 921   NORMALIZED FREE ENERGY PREDICTED BY IDOCK:   -3.36 KCAL/MOL
REMARK 922        TOTAL FREE ENERGY PREDICTED BY IDOCK:   -7.99 KCAL/MOL
REMARK 923 INTER-LIGAND FREE ENERGY PREDICTED BY IDOCK:   -6.76 KCAL/MOL
REMARK 924 INTRA-LIGAND FREE ENERGY PREDICTED BY IDOCK:   -1.24 KCAL/MOL
REMARK 927      BINDING AFFINITY PREDICTED BY RF-SCORE:    0.00 PKD
ROOT
HETATM    1  C   UNL     1     -10.414  16.813  65.839  1.00  0.00    -0.311 C  
HETATM    2  C   UNL     1      -9.515  15.590  65.807  1.00  0.00    -0.334 C  
ENDROOT
BRANCH   2   3
HETATM    3  C   UNL     1     -10.229  14.402  65.172  1.00  0.00    -0.420 C  
BRANCH   3   4
HETATM    4  C   UNL     1     -11.703  14.713  64.932  1.00  0.00    -0.403 C  
BRANCH   4   5
HETATM    5  C   UNL     1     -12.590  13.729  65.687  1.00  0.00    -0.551 C  
BRANCH   5   6
HETATM    6  C   UNL     1     -11.846  13.138  66.876  1.00  0.00    -0.444 C  
BRANCH   6   7
HETATM    7  C   UNL     1     -12.105  13.958  68.134  1.00  0.00    -0.317 C  
BRANCH   7   8
HETATM    8  C   UNL     1     -11.622  13.203  69.363  1.00  0.00    -0.360 C  
BRANCH   8   9
HETATM    9  C   UNL     1     -11.929  11.720  69.236  1.00  0.00    -0.354 C  
BRANCH   9  10
HETATM   10  C   UNL     1     -11.869  11.058  70.606  1.00  0.00    -0.434 C  
BRANCH  10  11
HETATM   11  C   UNL     1     -13.136  10.267  70.870  1.00  0.00    -0.423 C  
BRANCH  11  12
HETATM   12  C   UNL     1     -13.044   9.531  72.201  1.00  0.00    -0.522 C  
BRANCH  12  13
HETATM   13  C   UNL     1     -12.425   8.162  71.979  1.00  0.00    -0.375 C  
BRANCH  13  14
HETATM   14  C   UNL     1     -11.208   7.939  72.870  1.00  0.00    -0.429 C  
BRANCH  14  15
HETATM   15  C   UNL     1      -9.961   7.588  72.055  1.00  0.00    -0.212 C  
BRANCH  15  16
HETATM   16  C   UNL     1      -9.369   8.818  71.361  1.00  0.00    -0.258 C  
BRANCH  16  17
HETATM   17  N   UNL     1      -8.929   8.566  69.914  1.00  0.00    -0.143 N  
HETATM   18  C   UNL     1      -8.433   9.842  69.254  1.00  0.00    -0.158 C  
HETATM   19  C   UNL     1     -10.157   8.065  69.146  1.00  0.00    -0.201 C  
HETATM   20  C   UNL     1      -7.854   7.487  69.844  1.00  0.00    -0.107 C  
ENDBRANCH  16  17
ENDBRANCH  15  16
ENDBRANCH  14  15
ENDBRANCH  13  14
ENDBRANCH  12  13
ENDBRANCH  11  12
ENDBRANCH  10  11
ENDBRANCH   9  10
ENDBRANCH   8   9
ENDBRANCH   7   8
ENDBRANCH   6   7
ENDBRANCH   5   6
ENDBRANCH   4   5
ENDBRANCH   3   4
ENDBRANCH   2   3
TORSDOF 15
ENDMDL
MODEL      169
REMARK 921   NORMALIZED FREE ENERGY PREDICTED BY IDOCK:   -3.34 KCAL/MOL
REMARK 922        TOTAL FREE ENERGY PREDICTED BY IDOCK:   -7.96 KCAL/MOL
REMARK 923 INTER-LIGAND FREE ENERGY PREDICTED BY IDOCK:   -6.49 KCAL/MOL
REMARK 924 INTRA-LIGAND FREE ENERGY PREDICTED BY IDOCK:   -1.47 KCAL/MOL
REMARK 927      BINDING AFFINITY PREDICTED BY RF-SCORE:    0.00 PKD
ROOT
HETATM    1  C   UNL     1     -11.982  15.656  70.252  1.00  0.00    -0.398 C  
HETATM    2  C   UNL     1     -10.667  15.958  69.554  1.00  0.00    -0.288 C  
ENDROOT
BRANCH   2   3
HETATM    3  C   UNL     1     -10.899  16.728  68.259  1.00  0.00    -0.366 C  
BRANCH   3   4
HETATM    4  C   UNL     1      -9.595  16.918  67.492  1.00  0.00    -0.245 C  
BRANCH   4   5
HETATM    5  C   UNL     1      -9.112  15.591  66.916  1.00  0.00    -0.264 C  
BRANCH   5   6
HETATM    6  C   UNL     1      -9.948  15.193  65.708  1.00  0.00    -0.375 C  
BRANCH   6   7
HETATM    7  C   UNL     1     -10.505  13.785  65.881  1.00  0.00    -0.300 C  
BRANCH   7   8
HETATM    8  C   UNL     1     -11.964  13.845  66.305  1.00  0.00    -0.462 C  
BRANCH   8   9
HETATM    9  C   UNL     1     -12.147  13.239  67.688  1.00  0.00    -0.295 C  
BRANCH   9  10
HETATM   10  C   UNL     1     -11.532  11.847  67.730  1.00  0.00    -0.389 C  
BRANCH  10  11
HETATM   11  C   UNL     1     -11.145  11.480  69.150  1.00  0.00    -0.316 C  
BRANCH  11  12
HETATM   12  C   UNL     1     -12.381  11.145  69.976  1.00  0.00    -0.351 C  
BRANCH  12  13
HETATM   13  C   UNL     1     -11.979  10.279  71.157  1.00  0.00    -0.472 C  
BRANCH  13  14
HETATM   14  C   UNL     1     -13.113   9.357  71.595  1.00  0.00    -0.471 C  
BRANCH  14  15
HETATM   15  C   UNL     1     -12.618   7.935  71.869  1.00  0.00    -0.348 C  
BRANCH  15  16
HETATM   16  C   UNL     1     -11.309   7.635  71.134  1.00  0.00    -0.266 C  
BRANCH  16  17
HETATM   17  N   UNL     1     -10.179   7.146  72.048  1.00  0.00    -0.189 N  
HETATM   18  C   UNL     1      -9.214   8.270  72.389  1.00  0.00    -0.256 C  
HETATM   19  C   UNL     1      -9.413   6.059  71.284  1.00  0.00    -0.163 C  
HETATM   20  C   UNL     1     -10.733   6.525  73.325  1.00  0.00    -0.274 C  
ENDBRANCH  16  17
ENDBRANCH  15  16
ENDBRANCH  14  15
ENDBRANCH  13  14
ENDBRANCH  12  13
ENDBRANCH  11  12
ENDBRANCH  10  11
ENDBRANCH   9  10
ENDBRANCH   8   9
ENDBRANCH   7   8
ENDBRANCH   6   7
ENDBRANCH   5   6
ENDBRANCH   4   5
ENDBRANCH   3   4
ENDBRANCH   2   3
TORSDOF 15
ENDMDL
MODEL      170
REMARK 921   NORMALIZED FREE ENERGY PREDICTED BY IDOCK:   -3.34 KCAL/MOL
REMARK 922        TOTAL FREE ENERGY PREDICTED BY IDOCK:   -7.95 KCAL/MOL
REMARK 923 INTER-LIGAND FREE ENERGY PREDICTED BY IDOCK:   -5.71 KCAL/MOL
REMARK 924 INTRA-LIGAND FREE ENERGY PREDICTED BY IDOCK:   -2.25 KCAL/MOL
REMARK 927      BINDING AFFINITY PREDICTED BY RF-SCORE:    0.00 PKD
ROOT
HETATM    1  C   UNL     1      -8.132   7.973  64.716  1.00  0.00    -0.143 C  
HETATM    2  C   UNL     1      -7.004   8.960  64.464  1.00  0.00    -0.085 C  
ENDROOT
BRANCH   2   3
HETATM    3  C   UNL     1      -7.528  10.230  63.803  1.00  0.00    -0.081 C  
BRANCH   3   4
HETATM    4  C   UNL     1      -8.850   9.972  63.088  1.00  0.00    -0.244 C  
BRANCH   4   5
HETATM    5  C   UNL     1      -9.640  11.267  62.934  1.00  0.00    -0.377 C  
BRANCH   5   6
HETATM    6  C   UNL     1     -10.898  11.235  63.789  1.00  0.00    -0.424 C  
BRANCH   6   7
HETATM    7  C   UNL     1     -11.774  12.448  63.502  1.00  0.00    -0.592 C  
BRANCH   7   8
HETATM    8  C   UNL     1     -12.756  12.670  64.642  1.00  0.00    -0.458 C  
BRANCH   8   9
HETATM    9  C   UNL     1     -12.551  14.040  65.267  1.00  0.00    -0.495 C  
BRANCH   9  10
HETATM   10  C   UNL     1     -11.683  13.919  66.512  1.00  0.00    -0.414 C  
BRANCH  10  11
HETATM   11  C   UNL     1     -10.242  14.268  66.191  1.00  0.00    -0.317 C  
BRANCH  11  12
HETATM   12  C   UNL     1      -9.310  13.132  66.590  1.00  0.00    -0.242 C  
BRANCH  12  13
HETATM   13  C   UNL     1     -10.107  12.049  67.297  1.00  0.00    -0.208 C  
BRANCH  13  14
HETATM   14  C   UNL     1      -9.460  10.677  67.143  1.00  0.00    -0.177 C  
BRANCH  14  15
HETATM   15  C   UNL     1     -10.360   9.559  67.674  1.00  0.00    -0.299 C  
BRANCH  15  16
HETATM   16  C   UNL     1     -10.948   9.905  69.045  1.00  0.00    -0.190 C  
BRANCH  16  17
HETATM   17  N   UNL     1     -10.704   8.834  70.116  1.00  0.00    -0.222 N  
HETATM   18  C   UNL     1      -9.326   8.979  70.741  1.00  0.00    -0.249 C  
HETATM   19  C   UNL     1     -10.785   7.469  69.422  1.00  0.00    -0.193 C  
HETATM   20  C   UNL     1     -11.778   8.880  71.197  1.00  0.00    -0.298 C  
ENDBRANCH  16  17
ENDBRANCH  15  16
ENDBRANCH  14  15
ENDBRANCH  13  14
ENDBRANCH  12  13
ENDBRANCH  11  12
ENDBRANCH  10  11
ENDBRANCH   9  10
ENDBRANCH   8   9
ENDBRANCH   7   8
ENDBRANCH   6   7
ENDBRANCH   5   6
ENDBRANCH   4   5
ENDBRANCH   3   4
ENDBRANCH   2   3
TORSDOF 15
ENDMDL
MODEL      171
REMARK 921   NORMALIZED FREE ENERGY PREDICTED BY IDOCK:   -3.33 KCAL/MOL
REMARK 922        TOTAL FREE ENERGY PREDICTED BY IDOCK:   -7.95 KCAL/MOL
REMARK 923 INTER-LIGAND FREE ENERGY PREDICTED BY IDOCK:   -7.23 KCAL/MOL
REMARK 924 INTRA-LIGAND FREE ENERGY PREDICTED BY IDOCK:   -0.72 KCAL/MOL
REMARK 927      BINDING AFFINITY PREDICTED BY RF-SCORE:    0.00 PKD
ROOT
HETATM    1  C   UNL     1     -10.934   6.754  68.604  1.00  0.00    -0.261 C  
HETATM    2  C   UNL     1     -11.198   6.001  69.897  1.00  0.00    -0.438 C  
ENDROOT
BRANCH   2   3
HETATM    3  C   UNL     1     -10.360   6.567  71.039  1.00  0.00    -0.240 C  
BRANCH   3   4
HETATM    4  C   UNL     1     -11.199   6.737  72.302  1.00  0.00    -0.295 C  
BRANCH   4   5
HETATM    5  C   UNL     1     -11.573   8.201  72.505  1.00  0.00    -0.468 C  
BRANCH   5   6
HETATM    6  C   UNL     1     -12.961   8.484  71.949  1.00  0.00    -0.394 C  
BRANCH   6   7
HETATM    7  C   UNL     1     -12.977   9.809  71.196  1.00  0.00    -0.431 C  
BRANCH   7   8
HETATM    8  C   UNL     1     -11.556  10.282  70.932  1.00  0.00    -0.454 C  
BRANCH   8   9
HETATM    9  C   UNL     1     -11.324  10.481  69.443  1.00  0.00    -0.331 C  
BRANCH   9  10
HETATM   10  C   UNL     1     -12.054  11.729  68.967  1.00  0.00    -0.276 C  
BRANCH  10  11
HETATM   11  C   UNL     1     -11.338  12.342  67.778  1.00  0.00    -0.356 C  
BRANCH  11  12
HETATM   12  C   UNL     1     -11.820  13.766  67.534  1.00  0.00    -0.422 C  
BRANCH  12  13
HETATM   13  C   UNL     1     -11.041  14.722  68.421  1.00  0.00    -0.274 C  
BRANCH  13  14
HETATM   14  C   UNL     1     -11.340  14.495  69.900  1.00  0.00    -0.288 C  
BRANCH  14  15
HETATM   15  C   UNL     1     -12.057  15.692  70.527  1.00  0.00    -0.430 C  
BRANCH  15  16
HETATM   16  C   UNL     1     -11.808  15.780  72.035  1.00  0.00    -0.490 C  
BRANCH  16  17
HETATM   17  N   UNL     1     -12.837  15.021  72.882  1.00  0.00    -0.406 N  
HETATM   18  C   UNL     1     -12.928  13.561  72.468  1.00  0.00    -0.257 C  
HETATM   19  C   UNL     1     -14.199  15.682  72.644  1.00  0.00    -0.314 C  
HETATM   20  C   UNL     1     -12.513  15.125  74.368  1.00  0.00    -0.403 C  
ENDBRANCH  16  17
ENDBRANCH  15  16
ENDBRANCH  14  15
ENDBRANCH  13  14
ENDBRANCH  12  13
ENDBRANCH  11  12
ENDBRANCH  10  11
ENDBRANCH   9  10
ENDBRANCH   8   9
ENDBRANCH   7   8
ENDBRANCH   6   7
ENDBRANCH   5   6
ENDBRANCH   4   5
ENDBRANCH   3   4
ENDBRANCH   2   3
TORSDOF 15
ENDMDL
MODEL      172
REMARK 921   NORMALIZED FREE ENERGY PREDICTED BY IDOCK:   -3.33 KCAL/MOL
REMARK 922        TOTAL FREE ENERGY PREDICTED BY IDOCK:   -7.95 KCAL/MOL
REMARK 923 INTER-LIGAND FREE ENERGY PREDICTED BY IDOCK:   -5.99 KCAL/MOL
REMARK 924 INTRA-LIGAND FREE ENERGY PREDICTED BY IDOCK:   -1.95 KCAL/MOL
REMARK 927      BINDING AFFINITY PREDICTED BY RF-SCORE:    0.00 PKD
ROOT
HETATM    1  C   UNL     1     -11.821  15.617  69.301  1.00  0.00    -0.378 C  
HETATM    2  C   UNL     1     -10.408  15.330  69.779  1.00  0.00    -0.266 C  
ENDROOT
BRANCH   2   3
HETATM    3  C   UNL     1      -9.407  15.466  68.636  1.00  0.00    -0.202 C  
BRANCH   3   4
HETATM    4  C   UNL     1     -10.066  16.065  67.398  1.00  0.00    -0.258 C  
BRANCH   4   5
HETATM    5  C   UNL     1      -9.851  15.163  66.187  1.00  0.00    -0.325 C  
BRANCH   5   6
HETATM    6  C   UNL     1     -11.136  15.032  65.381  1.00  0.00    -0.377 C  
BRANCH   6   7
HETATM    7  C   UNL     1     -12.134  14.136  66.104  1.00  0.00    -0.454 C  
BRANCH   7   8
HETATM    8  C   UNL     1     -12.867  13.253  65.106  1.00  0.00    -0.376 C  
BRANCH   8   9
HETATM    9  C   UNL     1     -12.158  13.259  63.761  1.00  0.00    -0.546 C  
BRANCH   9  10
HETATM   10  C   UNL     1     -11.729  11.846  63.394  1.00  0.00    -0.500 C  
BRANCH  10  11
HETATM   11  C   UNL     1     -10.217  11.756  63.305  1.00  0.00    -0.452 C  
BRANCH  11  12
HETATM   12  C   UNL     1      -9.603  11.611  64.692  1.00  0.00    -0.149 C  
BRANCH  12  13
HETATM   13  C   UNL     1     -10.329  10.515  65.453  1.00  0.00    -0.292 C  
BRANCH  13  14
HETATM   14  C   UNL     1     -10.276  10.741  66.961  1.00  0.00    -0.261 C  
BRANCH  14  15
HETATM   15  C   UNL     1     -10.804   9.533  67.738  1.00  0.00    -0.258 C  
BRANCH  15  16
HETATM   16  C   UNL     1      -9.688   8.816  68.504  1.00  0.00    -0.162 C  
BRANCH  16  17
HETATM   17  N   UNL     1      -9.471   7.361  68.071  1.00  0.00    -0.140 N  
HETATM   18  C   UNL     1      -9.062   6.488  69.246  1.00  0.00    -0.137 C  
HETATM   19  C   UNL     1      -8.337   7.356  67.041  1.00  0.00    -0.121 C  
HETATM   20  C   UNL     1     -10.719   6.792  67.405  1.00  0.00    -0.335 C  
ENDBRANCH  16  17
ENDBRANCH  15  16
ENDBRANCH  14  15
ENDBRANCH  13  14
ENDBRANCH  12  13
ENDBRANCH  11  12
ENDBRANCH  10  11
ENDBRANCH   9  10
ENDBRANCH   8   9
ENDBRANCH   7   8
ENDBRANCH   6   7
ENDBRANCH   5   6
ENDBRANCH   4   5
ENDBRANCH   3   4
ENDBRANCH   2   3
TORSDOF 15
ENDMDL
MODEL      173
REMARK 921   NORMALIZED FREE ENERGY PREDICTED BY IDOCK:   -3.33 KCAL/MOL
REMARK 922        TOTAL FREE ENERGY PREDICTED BY IDOCK:   -7.95 KCAL/MOL
REMARK 923 INTER-LIGAND FREE ENERGY PREDICTED BY IDOCK:   -6.29 KCAL/MOL
REMARK 924 INTRA-LIGAND FREE ENERGY PREDICTED BY IDOCK:   -1.65 KCAL/MOL
REMARK 927      BINDING AFFINITY PREDICTED BY RF-SCORE:    0.00 PKD
ROOT
HETATM    1  C   UNL     1      -7.209  20.118  66.098  1.00  0.00    -0.313 C  
HETATM    2  C   UNL     1      -7.852  20.390  67.448  1.00  0.00    -0.360 C  
ENDROOT
BRANCH   2   3
HETATM    3  C   UNL     1      -9.373  20.390  67.338  1.00  0.00    -0.536 C  
BRANCH   3   4
HETATM    4  C   UNL     1      -9.840  19.491  66.197  1.00  0.00    -0.490 C  
BRANCH   4   5
HETATM    5  C   UNL     1     -10.477  18.218  66.743  1.00  0.00    -0.387 C  
BRANCH   5   6
HETATM    6  C   UNL     1      -9.865  16.987  66.089  1.00  0.00    -0.297 C  
BRANCH   6   7
HETATM    7  C   UNL     1     -10.858  16.338  65.133  1.00  0.00    -0.333 C  
BRANCH   7   8
HETATM    8  C   UNL     1     -10.588  14.845  65.028  1.00  0.00    -0.446 C  
BRANCH   8   9
HETATM    9  C   UNL     1     -11.833  14.105  64.567  1.00  0.00    -0.451 C  
BRANCH   9  10
HETATM   10  C   UNL     1     -12.616  13.605  65.773  1.00  0.00    -0.511 C  
BRANCH  10  11
HETATM   11  C   UNL     1     -11.670  13.136  66.864  1.00  0.00    -0.441 C  
BRANCH  11  12
HETATM   12  C   UNL     1     -11.943  13.875  68.167  1.00  0.00    -0.385 C  
BRANCH  12  13
HETATM   13  C   UNL     1     -10.633  14.102  68.902  1.00  0.00    -0.249 C  
BRANCH  13  14
HETATM   14  C   UNL     1     -10.639  15.415  69.679  1.00  0.00    -0.285 C  
BRANCH  14  15
HETATM   15  C   UNL     1      -9.345  16.205  69.474  1.00  0.00    -0.096 C  
BRANCH  15  16
HETATM   16  C   UNL     1      -8.106  15.365  69.798  1.00  0.00    -0.031 C  
BRANCH  16  17
HETATM   17  N   UNL     1      -6.847  15.791  69.035  1.00  0.00    -0.137 N  
HETATM   18  C   UNL     1      -5.590  15.226  69.677  1.00  0.00    -0.106 C  
HETATM   19  C   UNL     1      -6.778  17.322  69.089  1.00  0.00    -0.243 C  
HETATM   20  C   UNL     1      -6.921  15.373  67.571  1.00  0.00    -0.194 C  
ENDBRANCH  16  17
ENDBRANCH  15  16
ENDBRANCH  14  15
ENDBRANCH  13  14
ENDBRANCH  12  13
ENDBRANCH  11  12
ENDBRANCH  10  11
ENDBRANCH   9  10
ENDBRANCH   8   9
ENDBRANCH   7   8
ENDBRANCH   6   7
ENDBRANCH   5   6
ENDBRANCH   4   5
ENDBRANCH   3   4
ENDBRANCH   2   3
TORSDOF 15
ENDMDL
MODEL      174
REMARK 921   NORMALIZED FREE ENERGY PREDICTED BY IDOCK:   -3.32 KCAL/MOL
REMARK 922        TOTAL FREE ENERGY PREDICTED BY IDOCK:   -7.93 KCAL/MOL
REMARK 923 INTER-LIGAND FREE ENERGY PREDICTED BY IDOCK:   -7.08 KCAL/MOL
REMARK 924 INTRA-LIGAND FREE ENERGY PREDICTED BY IDOCK:   -0.85 KCAL/MOL
REMARK 927      BINDING AFFINITY PREDICTED BY RF-SCORE:    0.00 PKD
ROOT
HETATM    1  C   UNL     1      -9.967  20.012  66.618  1.00  0.00    -0.598 C  
HETATM    2  C   UNL     1     -10.838  18.936  67.243  1.00  0.00    -0.448 C  
ENDROOT
BRANCH   2   3
HETATM    3  C   UNL     1     -10.117  17.592  67.261  1.00  0.00    -0.327 C  
BRANCH   3   4
HETATM    4  C   UNL     1     -10.322  16.843  65.948  1.00  0.00    -0.327 C  
BRANCH   4   5
HETATM    5  C   UNL     1     -10.193  15.338  66.163  1.00  0.00    -0.320 C  
BRANCH   5   6
HETATM    6  C   UNL     1     -11.087  14.880  67.306  1.00  0.00    -0.336 C  
BRANCH   6   7
HETATM    7  C   UNL     1     -12.084  13.834  66.822  1.00  0.00    -0.460 C  
BRANCH   7   8
HETATM    8  C   UNL     1     -11.681  12.454  67.318  1.00  0.00    -0.419 C  
BRANCH   8   9
HETATM    9  C   UNL     1     -11.796  12.373  68.832  1.00  0.00    -0.350 C  
BRANCH   9  10
HETATM   10  C   UNL     1     -12.025  10.931  69.260  1.00  0.00    -0.382 C  
BRANCH  10  11
HETATM   11  C   UNL     1     -11.787  10.774  70.750  1.00  0.00    -0.443 C  
BRANCH  11  12
HETATM   12  C   UNL     1     -13.032  10.235  71.441  1.00  0.00    -0.540 C  
BRANCH  12  13
HETATM   13  C   UNL     1     -12.685   8.955  72.183  1.00  0.00    -0.470 C  
BRANCH  13  14
HETATM   14  C   UNL     1     -12.969   7.716  71.340  1.00  0.00    -0.350 C  
BRANCH  14  15
HETATM   15  C   UNL     1     -12.081   6.537  71.741  1.00  0.00    -0.393 C  
BRANCH  15  16
HETATM   16  C   UNL     1     -10.652   6.984  72.064  1.00  0.00    -0.211 C  
BRANCH  16  17
HETATM   17  N   UNL     1      -9.629   6.629  70.978  1.00  0.00    -0.171 N  
HETATM   18  C   UNL     1     -10.036   5.378  70.218  1.00  0.00    -0.248 C  
HETATM   19  C   UNL     1      -8.293   6.361  71.681  1.00  0.00    -0.125 C  
HETATM   20  C   UNL     1      -9.429   7.789  70.009  1.00  0.00    -0.161 C  
ENDBRANCH  16  17
ENDBRANCH  15  16
ENDBRANCH  14  15
ENDBRANCH  13  14
ENDBRANCH  12  13
ENDBRANCH  11  12
ENDBRANCH  10  11
ENDBRANCH   9  10
ENDBRANCH   8   9
ENDBRANCH   7   8
ENDBRANCH   6   7
ENDBRANCH   5   6
ENDBRANCH   4   5
ENDBRANCH   3   4
ENDBRANCH   2   3
TORSDOF 15
ENDMDL
MODEL      175
REMARK 921   NORMALIZED FREE ENERGY PREDICTED BY IDOCK:   -3.32 KCAL/MOL
REMARK 922        TOTAL FREE ENERGY PREDICTED BY IDOCK:   -7.92 KCAL/MOL
REMARK 923 INTER-LIGAND FREE ENERGY PREDICTED BY IDOCK:   -7.19 KCAL/MOL
REMARK 924 INTRA-LIGAND FREE ENERGY PREDICTED BY IDOCK:   -0.74 KCAL/MOL
REMARK 927      BINDING AFFINITY PREDICTED BY RF-SCORE:    0.00 PKD
ROOT
HETATM    1  C   UNL     1      -9.364   7.649  69.639  1.00  0.00    -0.156 C  
HETATM    2  C   UNL     1     -10.869   7.689  69.845  1.00  0.00    -0.241 C  
ENDROOT
BRANCH   2   3
HETATM    3  C   UNL     1     -11.250   7.101  71.200  1.00  0.00    -0.291 C  
BRANCH   3   4
HETATM    4  C   UNL     1     -11.831   8.171  72.118  1.00  0.00    -0.417 C  
BRANCH   4   5
HETATM    5  C   UNL     1     -11.836   9.530  71.425  1.00  0.00    -0.464 C  
BRANCH   5   6
HETATM    6  C   UNL     1     -13.098  10.306  71.771  1.00  0.00    -0.570 C  
BRANCH   6   7
HETATM    7  C   UNL     1     -12.923  11.785  71.451  1.00  0.00    -0.408 C  
BRANCH   7   8
HETATM    8  C   UNL     1     -13.773  12.631  72.387  1.00  0.00    -0.377 C  
BRANCH   8   9
HETATM    9  C   UNL     1     -13.206  14.036  72.506  1.00  0.00    -0.602 C  
BRANCH   9  10
HETATM   10  C   UNL     1     -12.229  14.300  71.368  1.00  0.00    -0.408 C  
BRANCH  10  11
HETATM   11  C   UNL     1     -12.528  15.634  70.710  1.00  0.00    -0.484 C  
BRANCH  11  12
HETATM   12  C   UNL     1     -11.421  16.014  69.736  1.00  0.00    -0.318 C  
BRANCH  12  13
HETATM   13  C   UNL     1     -11.736  15.442  68.365  1.00  0.00    -0.332 C  
BRANCH  13  14
HETATM   14  C   UNL     1     -10.757  15.938  67.305  1.00  0.00    -0.306 C  
BRANCH  14  15
HETATM   15  C   UNL     1     -10.175  17.307  67.662  1.00  0.00    -0.333 C  
BRANCH  15  16
HETATM   16  C   UNL     1      -8.847  17.566  66.945  1.00  0.00    -0.251 C  
BRANCH  16  17
HETATM   17  N   UNL     1      -8.339  19.007  67.076  1.00  0.00    -0.270 N  
HETATM   18  C   UNL     1      -9.289  19.993  66.416  1.00  0.00    -0.378 C  
HETATM   19  C   UNL     1      -6.985  19.079  66.361  1.00  0.00    -0.219 C  
HETATM   20  C   UNL     1      -8.123  19.384  68.538  1.00  0.00    -0.361 C  
ENDBRANCH  16  17
ENDBRANCH  15  16
ENDBRANCH  14  15
ENDBRANCH  13  14
ENDBRANCH  12  13
ENDBRANCH  11  12
ENDBRANCH  10  11
ENDBRANCH   9  10
ENDBRANCH   8   9
ENDBRANCH   7   8
ENDBRANCH   6   7
ENDBRANCH   5   6
ENDBRANCH   4   5
ENDBRANCH   3   4
ENDBRANCH   2   3
TORSDOF 15
ENDMDL
MODEL      176
REMARK 921   NORMALIZED FREE ENERGY PREDICTED BY IDOCK:   -3.31 KCAL/MOL
REMARK 922        TOTAL FREE ENERGY PREDICTED BY IDOCK:   -7.91 KCAL/MOL
REMARK 923 INTER-LIGAND FREE ENERGY PREDICTED BY IDOCK:   -6.98 KCAL/MOL
REMARK 924 INTRA-LIGAND FREE ENERGY PREDICTED BY IDOCK:   -0.93 KCAL/MOL
REMARK 927      BINDING AFFINITY PREDICTED BY RF-SCORE:    0.00 PKD
ROOT
HETATM    1  C   UNL     1      -8.284   6.487  73.376  1.00  0.00    -0.118 C  
HETATM    2  C   UNL     1      -9.287   7.547  73.800  1.00  0.00    -0.331 C  
ENDROOT
BRANCH   2   3
HETATM    3  C   UNL     1     -10.701   7.158  73.384  1.00  0.00    -0.410 C  
BRANCH   3   4
HETATM    4  C   UNL     1     -11.325   8.229  72.495  1.00  0.00    -0.455 C  
BRANCH   4   5
HETATM    5  C   UNL     1     -11.190   7.852  71.024  1.00  0.00    -0.288 C  
BRANCH   5   6
HETATM    6  C   UNL     1     -11.487   9.049  70.132  1.00  0.00    -0.078 C  
BRANCH   6   7
HETATM    7  C   UNL     1     -11.612  10.320  70.964  1.00  0.00    -0.430 C  
BRANCH   7   8
HETATM    8  C   UNL     1     -12.152  11.457  70.110  1.00  0.00    -0.439 C  
BRANCH   8   9
HETATM    9  C   UNL     1     -11.681  11.318  68.671  1.00  0.00    -0.391 C  
BRANCH   9  10
HETATM   10  C   UNL     1     -11.664  12.683  67.997  1.00  0.00    -0.402 C  
BRANCH  10  11
HETATM   11  C   UNL     1     -12.007  12.552  66.524  1.00  0.00    -0.367 C  
BRANCH  11  12
HETATM   12  C   UNL     1     -12.379  13.907  65.935  1.00  0.00    -0.517 C  
BRANCH  12  13
HETATM   13  C   UNL     1     -11.483  14.202  64.745  1.00  0.00    -0.384 C  
BRANCH  13  14
HETATM   14  C   UNL     1     -11.046  15.663  64.712  1.00  0.00    -0.426 C  
BRANCH  14  15
HETATM   15  C   UNL     1      -9.985  15.965  65.773  1.00  0.00    -0.391 C  
BRANCH  15  16
HETATM   16  C   UNL     1     -10.072  17.409  66.272  1.00  0.00    -0.322 C  
BRANCH  16  17
HETATM   17  N   UNL     1     -10.056  17.542  67.800  1.00  0.00    -0.315 N  
HETATM   18  C   UNL     1     -11.110  16.658  68.446  1.00  0.00    -0.305 C  
HETATM   19  C   UNL     1     -10.372  19.004  68.134  1.00  0.00    -0.368 C  
HETATM   20  C   UNL     1      -8.679  17.215  68.367  1.00  0.00    -0.246 C  
ENDBRANCH  16  17
ENDBRANCH  15  16
ENDBRANCH  14  15
ENDBRANCH  13  14
ENDBRANCH  12  13
ENDBRANCH  11  12
ENDBRANCH  10  11
ENDBRANCH   9  10
ENDBRANCH   8   9
ENDBRANCH   7   8
ENDBRANCH   6   7
ENDBRANCH   5   6
ENDBRANCH   4   5
ENDBRANCH   3   4
ENDBRANCH   2   3
TORSDOF 15
ENDMDL
MODEL      177
REMARK 921   NORMALIZED FREE ENERGY PREDICTED BY IDOCK:   -3.30 KCAL/MOL
REMARK 922        TOTAL FREE ENERGY PREDICTED BY IDOCK:   -7.89 KCAL/MOL
REMARK 923 INTER-LIGAND FREE ENERGY PREDICTED BY IDOCK:   -6.14 KCAL/MOL
REMARK 924 INTRA-LIGAND FREE ENERGY PREDICTED BY IDOCK:   -1.75 KCAL/MOL
REMARK 927      BINDING AFFINITY PREDICTED BY RF-SCORE:    0.00 PKD
ROOT
HETATM    1  C   UNL     1     -12.361  11.963  70.685  1.00  0.00    -0.405 C  
HETATM    2  C   UNL     1     -12.868  13.221  71.370  1.00  0.00    -0.411 C  
ENDROOT
BRANCH   2   3
HETATM    3  C   UNL     1     -12.460  14.468  70.592  1.00  0.00    -0.409 C  
BRANCH   3   4
HETATM    4  C   UNL     1     -11.626  14.104  69.369  1.00  0.00    -0.353 C  
BRANCH   4   5
HETATM    5  C   UNL     1     -11.368  15.335  68.508  1.00  0.00    -0.337 C  
BRANCH   5   6
HETATM    6  C   UNL     1     -11.206  14.945  67.046  1.00  0.00    -0.344 C  
BRANCH   6   7
HETATM    7  C   UNL     1     -12.243  13.901  66.651  1.00  0.00    -0.465 C  
BRANCH   7   8
HETATM    8  C   UNL     1     -11.584  12.772  65.874  1.00  0.00    -0.428 C  
BRANCH   8   9
HETATM    9  C   UNL     1     -10.104  12.682  66.210  1.00  0.00    -0.264 C  
BRANCH   9  10
HETATM   10  C   UNL     1      -9.797  11.333  66.845  1.00  0.00    -0.220 C  
BRANCH  10  11
HETATM   11  C   UNL     1     -11.008  10.810  67.595  1.00  0.00    -0.365 C  
BRANCH  11  12
HETATM   12  C   UNL     1     -10.799   9.360  68.012  1.00  0.00    -0.197 C  
BRANCH  12  13
HETATM   13  C   UNL     1      -9.473   9.232  68.742  1.00  0.00    -0.150 C  
BRANCH  13  14
HETATM   14  C   UNL     1      -9.565   9.738  70.178  1.00  0.00    -0.287 C  
BRANCH  14  15
HETATM   15  C   UNL     1     -10.228   8.714  71.103  1.00  0.00    -0.294 C  
BRANCH  15  16
HETATM   16  C   UNL     1      -9.585   7.330  70.974  1.00  0.00    -0.158 C  
BRANCH  16  17
HETATM   17  N   UNL     1     -10.577   6.168  71.108  1.00  0.00    -0.236 N  
HETATM   18  C   UNL     1      -9.943   4.847  70.702  1.00  0.00    -0.235 C  
HETATM   19  C   UNL     1     -11.749   6.458  70.164  1.00  0.00    -0.303 C  
HETATM   20  C   UNL     1     -11.125   6.072  72.528  1.00  0.00    -0.279 C  
ENDBRANCH  16  17
ENDBRANCH  15  16
ENDBRANCH  14  15
ENDBRANCH  13  14
ENDBRANCH  12  13
ENDBRANCH  11  12
ENDBRANCH  10  11
ENDBRANCH   9  10
ENDBRANCH   8   9
ENDBRANCH   7   8
ENDBRANCH   6   7
ENDBRANCH   5   6
ENDBRANCH   4   5
ENDBRANCH   3   4
ENDBRANCH   2   3
TORSDOF 15
ENDMDL
MODEL      178
REMARK 921   NORMALIZED FREE ENERGY PREDICTED BY IDOCK:   -3.30 KCAL/MOL
REMARK 922        TOTAL FREE ENERGY PREDICTED BY IDOCK:   -7.88 KCAL/MOL
REMARK 923 INTER-LIGAND FREE ENERGY PREDICTED BY IDOCK:   -6.86 KCAL/MOL
REMARK 924 INTRA-LIGAND FREE ENERGY PREDICTED BY IDOCK:   -1.02 KCAL/MOL
REMARK 927      BINDING AFFINITY PREDICTED BY RF-SCORE:    0.00 PKD
ROOT
HETATM    1  C   UNL     1     -11.089   4.680  73.343  1.00  0.00    -0.418 C  
HETATM    2  C   UNL     1     -10.313   5.047  72.090  1.00  0.00    -0.276 C  
ENDROOT
BRANCH   2   3
HETATM    3  C   UNL     1     -11.097   6.034  71.231  1.00  0.00    -0.337 C  
BRANCH   3   4
HETATM    4  C   UNL     1     -12.296   6.590  71.992  1.00  0.00    -0.308 C  
BRANCH   4   5
HETATM    5  C   UNL     1     -12.936   7.739  71.220  1.00  0.00    -0.257 C  
BRANCH   5   6
HETATM    6  C   UNL     1     -12.760   9.053  71.968  1.00  0.00    -0.467 C  
BRANCH   6   7
HETATM    7  C   UNL     1     -12.269  10.145  71.026  1.00  0.00    -0.474 C  
BRANCH   7   8
HETATM    8  C   UNL     1     -11.203   9.593  70.092  1.00  0.00    -0.302 C  
BRANCH   8   9
HETATM    9  C   UNL     1     -10.639  10.696  69.210  1.00  0.00    -0.263 C  
BRANCH   9  10
HETATM   10  C   UNL     1     -11.761  11.612  68.744  1.00  0.00    -0.392 C  
BRANCH  10  11
HETATM   11  C   UNL     1     -11.507  12.084  67.324  1.00  0.00    -0.403 C  
BRANCH  11  12
HETATM   12  C   UNL     1     -12.269  13.372  67.039  1.00  0.00    -0.321 C  
BRANCH  12  13
HETATM   13  C   UNL     1     -11.365  14.562  67.308  1.00  0.00    -0.363 C  
BRANCH  13  14
HETATM   14  C   UNL     1     -10.042  14.451  66.557  1.00  0.00    -0.281 C  
BRANCH  14  15
HETATM   15  C   UNL     1      -9.733  15.718  65.756  1.00  0.00    -0.372 C  
BRANCH  15  16
HETATM   16  C   UNL     1     -10.497  16.932  66.291  1.00  0.00    -0.262 C  
BRANCH  16  17
HETATM   17  N   UNL     1      -9.593  18.057  66.811  1.00  0.00    -0.291 N  
HETATM   18  C   UNL     1      -8.136  17.807  66.457  1.00  0.00    -0.272 C  
HETATM   19  C   UNL     1      -9.729  18.081  68.337  1.00  0.00    -0.344 C  
HETATM   20  C   UNL     1     -10.038  19.413  66.274  1.00  0.00    -0.456 C  
ENDBRANCH  16  17
ENDBRANCH  15  16
ENDBRANCH  14  15
ENDBRANCH  13  14
ENDBRANCH  12  13
ENDBRANCH  11  12
ENDBRANCH  10  11
ENDBRANCH   9  10
ENDBRANCH   8   9
ENDBRANCH   7   8
ENDBRANCH   6   7
ENDBRANCH   5   6
ENDBRANCH   4   5
ENDBRANCH   3   4
ENDBRANCH   2   3
TORSDOF 15
ENDMDL
MODEL      179
REMARK 921   NORMALIZED FREE ENERGY PREDICTED BY IDOCK:   -3.29 KCAL/MOL
REMARK 922        TOTAL FREE ENERGY PREDICTED BY IDOCK:   -7.86 KCAL/MOL
REMARK 923 INTER-LIGAND FREE ENERGY PREDICTED BY IDOCK:   -6.51 KCAL/MOL
REMARK 924 INTRA-LIGAND FREE ENERGY PREDICTED BY IDOCK:   -1.35 KCAL/MOL
REMARK 927      BINDING AFFINITY PREDICTED BY RF-SCORE:    0.00 PKD
ROOT
HETATM    1  C   UNL     1      -8.641   5.767  73.970  1.00  0.00    -0.116 C  
HETATM    2  C   UNL     1     -10.063   6.103  74.387  1.00  0.00    -0.337 C  
ENDROOT
BRANCH   2   3
HETATM    3  C   UNL     1     -10.742   6.989  73.348  1.00  0.00    -0.379 C  
BRANCH   3   4
HETATM    4  C   UNL     1     -11.598   6.161  72.395  1.00  0.00    -0.338 C  
BRANCH   4   5
HETATM    5  C   UNL     1     -10.952   6.091  71.016  1.00  0.00    -0.350 C  
BRANCH   5   6
HETATM    6  C   UNL     1     -11.277   7.338  70.206  1.00  0.00    -0.287 C  
BRANCH   6   7
HETATM    7  C   UNL     1     -10.016   8.154  69.948  1.00  0.00    -0.190 C  
BRANCH   7   8
HETATM    8  C   UNL     1     -10.146   9.534  70.575  1.00  0.00    -0.347 C  
BRANCH   8   9
HETATM    9  C   UNL     1     -11.580   9.794  71.009  1.00  0.00    -0.455 C  
BRANCH   9  10
HETATM   10  C   UNL     1     -12.038  11.152  70.498  1.00  0.00    -0.474 C  
BRANCH  10  11
HETATM   11  C   UNL     1     -11.722  11.300  69.021  1.00  0.00    -0.410 C  
BRANCH  11  12
HETATM   12  C   UNL     1     -11.730  12.767  68.612  1.00  0.00    -0.360 C  
BRANCH  12  13
HETATM   13  C   UNL     1     -11.955  13.632  69.840  1.00  0.00    -0.415 C  
BRANCH  13  14
HETATM   14  C   UNL     1     -11.478  15.064  69.620  1.00  0.00    -0.321 C  
BRANCH  14  15
HETATM   15  C   UNL     1     -11.322  15.391  68.132  1.00  0.00    -0.353 C  
BRANCH  15  16
HETATM   16  C   UNL     1     -10.670  16.759  67.915  1.00  0.00    -0.347 C  
BRANCH  16  17
HETATM   17  N   UNL     1      -9.213  16.687  67.442  1.00  0.00    -0.212 N  
HETATM   18  C   UNL     1      -8.254  16.577  68.616  1.00  0.00    -0.234 C  
HETATM   19  C   UNL     1      -8.914  17.987  66.687  1.00  0.00    -0.273 C  
HETATM   20  C   UNL     1      -9.002  15.523  66.481  1.00  0.00    -0.312 C  
ENDBRANCH  16  17
ENDBRANCH  15  16
ENDBRANCH  14  15
ENDBRANCH  13  14
ENDBRANCH  12  13
ENDBRANCH  11  12
ENDBRANCH  10  11
ENDBRANCH   9  10
ENDBRANCH   8   9
ENDBRANCH   7   8
ENDBRANCH   6   7
ENDBRANCH   5   6
ENDBRANCH   4   5
ENDBRANCH   3   4
ENDBRANCH   2   3
TORSDOF 15
ENDMDL
MODEL      180
REMARK 921   NORMALIZED FREE ENERGY PREDICTED BY IDOCK:   -3.29 KCAL/MOL
REMARK 922        TOTAL FREE ENERGY PREDICTED BY IDOCK:   -7.86 KCAL/MOL
REMARK 923 INTER-LIGAND FREE ENERGY PREDICTED BY IDOCK:   -5.95 KCAL/MOL
REMARK 924 INTRA-LIGAND FREE ENERGY PREDICTED BY IDOCK:   -1.91 KCAL/MOL
REMARK 927      BINDING AFFINITY PREDICTED BY RF-SCORE:    0.00 PKD
ROOT
HETATM    1  C   UNL     1      -7.032  16.387  67.142  1.00  0.00    -0.239 C  
HETATM    2  C   UNL     1      -6.606  17.834  67.319  1.00  0.00    -0.186 C  
ENDROOT
BRANCH   2   3
HETATM    3  C   UNL     1      -7.119  18.699  66.172  1.00  0.00    -0.294 C  
BRANCH   3   4
HETATM    4  C   UNL     1      -8.220  19.642  66.647  1.00  0.00    -0.342 C  
BRANCH   4   5
HETATM    5  C   UNL     1      -8.260  19.698  68.170  1.00  0.00    -0.348 C  
BRANCH   5   6
HETATM    6  C   UNL     1      -9.656  19.377  68.683  1.00  0.00    -0.490 C  
BRANCH   6   7
HETATM    7  C   UNL     1     -10.544  18.880  67.549  1.00  0.00    -0.524 C  
BRANCH   7   8
HETATM    8  C   UNL     1     -10.713  17.371  67.635  1.00  0.00    -0.310 C  
BRANCH   8   9
HETATM    9  C   UNL     1     -10.508  16.889  69.063  1.00  0.00    -0.341 C  
BRANCH   9  10
HETATM   10  C   UNL     1     -10.863  15.413  69.168  1.00  0.00    -0.249 C  
BRANCH  10  11
HETATM   11  C   UNL     1     -11.140  14.833  67.793  1.00  0.00    -0.306 C  
BRANCH  11  12
HETATM   12  C   UNL     1     -12.033  13.603  67.896  1.00  0.00    -0.382 C  
BRANCH  12  13
HETATM   13  C   UNL     1     -11.812  12.931  69.240  1.00  0.00    -0.363 C  
BRANCH  13  14
HETATM   14  C   UNL     1     -12.000  11.420  69.156  1.00  0.00    -0.395 C  
BRANCH  14  15
HETATM   15  C   UNL     1     -11.252  10.818  67.964  1.00  0.00    -0.372 C  
BRANCH  15  16
HETATM   16  C   UNL     1      -9.764  10.617  68.268  1.00  0.00    -0.161 C  
BRANCH  16  17
HETATM   17  N   UNL     1      -8.827  11.348  67.299  1.00  0.00    -0.150 N  
HETATM   18  C   UNL     1      -9.526  11.671  65.988  1.00  0.00    -0.229 C  
HETATM   19  C   UNL     1      -7.651  10.409  67.007  1.00  0.00    -0.101 C  
HETATM   20  C   UNL     1      -8.272  12.622  67.925  1.00  0.00    -0.170 C  
ENDBRANCH  16  17
ENDBRANCH  15  16
ENDBRANCH  14  15
ENDBRANCH  13  14
ENDBRANCH  12  13
ENDBRANCH  11  12
ENDBRANCH  10  11
ENDBRANCH   9  10
ENDBRANCH   8   9
ENDBRANCH   7   8
ENDBRANCH   6   7
ENDBRANCH   5   6
ENDBRANCH   4   5
ENDBRANCH   3   4
ENDBRANCH   2   3
TORSDOF 15
ENDMDL
MODEL      181
REMARK 921   NORMALIZED FREE ENERGY PREDICTED BY IDOCK:   -3.28 KCAL/MOL
REMARK 922        TOTAL FREE ENERGY PREDICTED BY IDOCK:   -7.85 KCAL/MOL
REMARK 923 INTER-LIGAND FREE ENERGY PREDICTED BY IDOCK:   -5.85 KCAL/MOL
REMARK 924 INTRA-LIGAND FREE ENERGY PREDICTED BY IDOCK:   -2.00 KCAL/MOL
REMARK 927      BINDING AFFINITY PREDICTED BY RF-SCORE:    0.00 PKD
ROOT
HETATM    1  C   UNL     1     -11.009  19.448  67.372  1.00  0.00    -0.449 C  
HETATM    2  C   UNL     1      -9.885  19.049  66.431  1.00  0.00    -0.422 C  
ENDROOT
BRANCH   2   3
HETATM    3  C   UNL     1     -10.046  17.604  65.969  1.00  0.00    -0.263 C  
BRANCH   3   4
HETATM    4  C   UNL     1      -8.729  16.843  66.083  1.00  0.00    -0.280 C  
BRANCH   4   5
HETATM    5  C   UNL     1      -8.244  16.820  67.528  1.00  0.00    -0.187 C  
BRANCH   5   6
HETATM    6  C   UNL     1      -9.036  15.811  68.346  1.00  0.00    -0.188 C  
BRANCH   6   7
HETATM    7  C   UNL     1      -9.940  16.521  69.346  1.00  0.00    -0.187 C  
BRANCH   7   8
HETATM    8  C   UNL     1     -11.070  15.600  69.780  1.00  0.00    -0.315 C  
BRANCH   8   9
HETATM    9  C   UNL     1     -11.873  15.132  68.577  1.00  0.00    -0.307 C  
BRANCH   9  10
HETATM   10  C   UNL     1     -11.866  13.611  68.509  1.00  0.00    -0.406 C  
BRANCH  10  11
HETATM   11  C   UNL     1     -12.027  13.143  67.075  1.00  0.00    -0.412 C  
BRANCH  11  12
HETATM   12  C   UNL     1     -11.538  14.208  66.101  1.00  0.00    -0.377 C  
BRANCH  12  13
HETATM   13  C   UNL     1     -10.217  13.769  65.496  1.00  0.00    -0.332 C  
BRANCH  13  14
HETATM   14  C   UNL     1     -10.412  13.072  64.153  1.00  0.00    -0.395 C  
BRANCH  14  15
HETATM   15  C   UNL     1     -10.586  11.560  64.315  1.00  0.00    -0.405 C  
BRANCH  15  16
HETATM   16  C   UNL     1      -9.289  10.802  64.017  1.00  0.00    -0.252 C  
BRANCH  16  17
HETATM   17  N   UNL     1      -8.766   9.976  65.197  1.00  0.00    -0.153 N  
HETATM   18  C   UNL     1      -9.852   9.736  66.233  1.00  0.00    -0.250 C  
HETATM   19  C   UNL     1      -7.636  10.780  65.851  1.00  0.00    -0.106 C  
HETATM   20  C   UNL     1      -8.188   8.646  64.726  1.00  0.00    -0.160 C  
ENDBRANCH  16  17
ENDBRANCH  15  16
ENDBRANCH  14  15
ENDBRANCH  13  14
ENDBRANCH  12  13
ENDBRANCH  11  12
ENDBRANCH  10  11
ENDBRANCH   9  10
ENDBRANCH   8   9
ENDBRANCH   7   8
ENDBRANCH   6   7
ENDBRANCH   5   6
ENDBRANCH   4   5
ENDBRANCH   3   4
ENDBRANCH   2   3
TORSDOF 15
ENDMDL
MODEL      182
REMARK 921   NORMALIZED FREE ENERGY PREDICTED BY IDOCK:   -3.27 KCAL/MOL
REMARK 922        TOTAL FREE ENERGY PREDICTED BY IDOCK:   -7.83 KCAL/MOL
REMARK 923 INTER-LIGAND FREE ENERGY PREDICTED BY IDOCK:   -6.62 KCAL/MOL
REMARK 924 INTRA-LIGAND FREE ENERGY PREDICTED BY IDOCK:   -1.21 KCAL/MOL
REMARK 927      BINDING AFFINITY PREDICTED BY RF-SCORE:    0.00 PKD
ROOT
HETATM    1  C   UNL     1     -13.486  15.878  72.357  1.00  0.00    -0.440 C  
HETATM    2  C   UNL     1     -12.366  14.860  72.217  1.00  0.00    -0.426 C  
ENDROOT
BRANCH   2   3
HETATM    3  C   UNL     1     -12.795  13.695  71.332  1.00  0.00    -0.442 C  
BRANCH   3   4
HETATM    4  C   UNL     1     -13.485  12.609  72.150  1.00  0.00    -0.561 C  
BRANCH   4   5
HETATM    5  C   UNL     1     -13.016  11.226  71.711  1.00  0.00    -0.519 C  
BRANCH   5   6
HETATM    6  C   UNL     1     -12.653  11.225  70.233  1.00  0.00    -0.255 C  
BRANCH   6   7
HETATM    7  C   UNL     1     -11.256  10.656  70.023  1.00  0.00    -0.382 C  
BRANCH   7   8
HETATM    8  C   UNL     1     -10.560  11.377  68.879  1.00  0.00    -0.234 C  
BRANCH   8   9
HETATM    9  C   UNL     1     -10.578  10.527  67.619  1.00  0.00    -0.295 C  
BRANCH   9  10
HETATM   10  C   UNL     1     -10.017   9.144  67.918  1.00  0.00    -0.228 C  
BRANCH  10  11
HETATM   11  C   UNL     1     -10.216   8.221  66.730  1.00  0.00    -0.375 C  
BRANCH  11  12
HETATM   12  C   UNL     1      -9.561   6.869  66.982  1.00  0.00    -0.197 C  
BRANCH  12  13
HETATM   13  C   UNL     1     -10.618   5.871  67.423  1.00  0.00    -0.356 C  
BRANCH  13  14
HETATM   14  C   UNL     1     -10.351   5.349  68.832  1.00  0.00    -0.260 C  
BRANCH  14  15
HETATM   15  C   UNL     1     -11.266   6.006  69.867  1.00  0.00    -0.438 C  
BRANCH  15  16
HETATM   16  C   UNL     1     -10.481   6.881  70.848  1.00  0.00    -0.211 C  
BRANCH  16  17
HETATM   17  N   UNL     1     -11.035   6.866  72.277  1.00  0.00    -0.234 N  
HETATM   18  C   UNL     1     -12.261   7.756  72.407  1.00  0.00    -0.207 C  
HETATM   19  C   UNL     1      -9.937   7.410  73.198  1.00  0.00    -0.268 C  
HETATM   20  C   UNL     1     -11.368   5.447  72.725  1.00  0.00    -0.296 C  
ENDBRANCH  16  17
ENDBRANCH  15  16
ENDBRANCH  14  15
ENDBRANCH  13  14
ENDBRANCH  12  13
ENDBRANCH  11  12
ENDBRANCH  10  11
ENDBRANCH   9  10
ENDBRANCH   8   9
ENDBRANCH   7   8
ENDBRANCH   6   7
ENDBRANCH   5   6
ENDBRANCH   4   5
ENDBRANCH   3   4
ENDBRANCH   2   3
TORSDOF 15
ENDMDL
MODEL      183
REMARK 921   NORMALIZED FREE ENERGY PREDICTED BY IDOCK:   -3.27 KCAL/MOL
REMARK 922        TOTAL FREE ENERGY PREDICTED BY IDOCK:   -7.83 KCAL/MOL
REMARK 923 INTER-LIGAND FREE ENERGY PREDICTED BY IDOCK:   -6.00 KCAL/MOL
REMARK 924 INTRA-LIGAND FREE ENERGY PREDICTED BY IDOCK:   -1.82 KCAL/MOL
REMARK 927      BINDING AFFINITY PREDICTED BY RF-SCORE:    0.00 PKD
ROOT
HETATM    1  C   UNL     1      -5.573  16.899  69.982  1.00  0.00    -0.222 C  
HETATM    2  C   UNL     1      -6.651  17.594  69.169  1.00  0.00    -0.251 C  
ENDROOT
BRANCH   2   3
HETATM    3  C   UNL     1      -6.650  17.102  67.725  1.00  0.00    -0.158 C  
BRANCH   3   4
HETATM    4  C   UNL     1      -6.213  18.206  66.769  1.00  0.00    -0.206 C  
BRANCH   4   5
HETATM    5  C   UNL     1      -7.379  18.654  65.895  1.00  0.00    -0.248 C  
BRANCH   5   6
HETATM    6  C   UNL     1      -7.967  19.960  66.411  1.00  0.00    -0.345 C  
BRANCH   6   7
HETATM    7  C   UNL     1      -9.487  19.876  66.474  1.00  0.00    -0.516 C  
BRANCH   7   8
HETATM    8  C   UNL     1      -9.965  20.054  67.907  1.00  0.00    -0.558 C  
BRANCH   8   9
HETATM    9  C   UNL     1     -10.043  18.712  68.617  1.00  0.00    -0.412 C  
BRANCH   9  10
HETATM   10  C   UNL     1     -10.624  17.662  67.680  1.00  0.00    -0.364 C  
BRANCH  10  11
HETATM   11  C   UNL     1     -11.097  16.453  68.466  1.00  0.00    -0.357 C  
BRANCH  11  12
HETATM   12  C   UNL     1      -9.913  15.675  69.024  1.00  0.00    -0.233 C  
BRANCH  12  13
HETATM   13  C   UNL     1     -10.025  14.218  68.612  1.00  0.00    -0.234 C  
BRANCH  13  14
HETATM   14  C   UNL     1     -11.133  14.003  67.585  1.00  0.00    -0.298 C  
BRANCH  14  15
HETATM   15  C   UNL     1     -10.609  13.337  66.311  1.00  0.00    -0.294 C  
BRANCH  15  16
HETATM   16  C   UNL     1     -11.069  11.881  66.199  1.00  0.00    -0.326 C  
BRANCH  16  17
HETATM   17  N   UNL     1      -9.928  10.884  65.957  1.00  0.00    -0.230 N  
HETATM   18  C   UNL     1      -8.581  11.481  66.330  1.00  0.00    -0.159 C  
HETATM   19  C   UNL     1      -9.920  10.557  64.460  1.00  0.00    -0.345 C  
HETATM   20  C   UNL     1     -10.158   9.587  66.724  1.00  0.00    -0.245 C  
ENDBRANCH  16  17
ENDBRANCH  15  16
ENDBRANCH  14  15
ENDBRANCH  13  14
ENDBRANCH  12  13
ENDBRANCH  11  12
ENDBRANCH  10  11
ENDBRANCH   9  10
ENDBRANCH   8   9
ENDBRANCH   7   8
ENDBRANCH   6   7
ENDBRANCH   5   6
ENDBRANCH   4   5
ENDBRANCH   3   4
ENDBRANCH   2   3
TORSDOF 15
ENDMDL
MODEL      184
REMARK 921   NORMALIZED FREE ENERGY PREDICTED BY IDOCK:   -3.26 KCAL/MOL
REMARK 922        TOTAL FREE ENERGY PREDICTED BY IDOCK:   -7.82 KCAL/MOL
REMARK 923 INTER-LIGAND FREE ENERGY PREDICTED BY IDOCK:   -6.82 KCAL/MOL
REMARK 924 INTRA-LIGAND FREE ENERGY PREDICTED BY IDOCK:   -1.00 KCAL/MOL
REMARK 927      BINDING AFFINITY PREDICTED BY RF-SCORE:    0.00 PKD
ROOT
HETATM    1  C   UNL     1     -10.506  19.763  65.930  1.00  0.00    -0.587 C  
HETATM    2  C   UNL     1      -9.924  20.381  67.189  1.00  0.00    -0.568 C  
ENDROOT
BRANCH   2   3
HETATM    3  C   UNL     1     -10.075  19.439  68.380  1.00  0.00    -0.538 C  
BRANCH   3   4
HETATM    4  C   UNL     1      -9.640  18.023  68.017  1.00  0.00    -0.295 C  
BRANCH   4   5
HETATM    5  C   UNL     1     -10.458  16.995  68.792  1.00  0.00    -0.347 C  
BRANCH   5   6
HETATM    6  C   UNL     1     -11.035  15.947  67.851  1.00  0.00    -0.327 C  
BRANCH   6   7
HETATM    7  C   UNL     1     -10.155  15.791  66.617  1.00  0.00    -0.287 C  
BRANCH   7   8
HETATM    8  C   UNL     1     -10.851  14.922  65.581  1.00  0.00    -0.347 C  
BRANCH   8   9
HETATM    9  C   UNL     1     -10.380  13.481  65.685  1.00  0.00    -0.303 C  
BRANCH   9  10
HETATM   10  C   UNL     1     -11.379  12.665  66.493  1.00  0.00    -0.377 C  
BRANCH  10  11
HETATM   11  C   UNL     1     -10.664  11.850  67.555  1.00  0.00    -0.263 C  
BRANCH  11  12
HETATM   12  C   UNL     1     -11.571  10.750  68.092  1.00  0.00    -0.276 C  
BRANCH  12  13
HETATM   13  C   UNL     1     -11.306  10.555  69.574  1.00  0.00    -0.341 C  
BRANCH  13  14
HETATM   14  C   UNL     1      -9.878  10.089  69.838  1.00  0.00    -0.266 C  
BRANCH  14  15
HETATM   15  C   UNL     1      -9.843   8.745  70.569  1.00  0.00    -0.224 C  
BRANCH  15  16
HETATM   16  C   UNL     1     -11.002   8.605  71.560  1.00  0.00    -0.290 C  
BRANCH  16  17
HETATM   17  N   UNL     1     -11.720   7.251  71.491  1.00  0.00    -0.276 N  
HETATM   18  C   UNL     1     -13.227   7.426  71.413  1.00  0.00    -0.339 C  
HETATM   19  C   UNL     1     -11.383   6.491  72.779  1.00  0.00    -0.185 C  
HETATM   20  C   UNL     1     -11.225   6.424  70.310  1.00  0.00    -0.382 C  
ENDBRANCH  16  17
ENDBRANCH  15  16
ENDBRANCH  14  15
ENDBRANCH  13  14
ENDBRANCH  12  13
ENDBRANCH  11  12
ENDBRANCH  10  11
ENDBRANCH   9  10
ENDBRANCH   8   9
ENDBRANCH   7   8
ENDBRANCH   6   7
ENDBRANCH   5   6
ENDBRANCH   4   5
ENDBRANCH   3   4
ENDBRANCH   2   3
TORSDOF 15
ENDMDL
MODEL      185
REMARK 921   NORMALIZED FREE ENERGY PREDICTED BY IDOCK:   -3.26 KCAL/MOL
REMARK 922        TOTAL FREE ENERGY PREDICTED BY IDOCK:   -7.81 KCAL/MOL
REMARK 923 INTER-LIGAND FREE ENERGY PREDICTED BY IDOCK:   -6.60 KCAL/MOL
REMARK 924 INTRA-LIGAND FREE ENERGY PREDICTED BY IDOCK:   -1.21 KCAL/MOL
REMARK 927      BINDING AFFINITY PREDICTED BY RF-SCORE:    0.00 PKD
ROOT
HETATM    1  C   UNL     1     -11.878  12.599  66.680  1.00  0.00    -0.449 C  
HETATM    2  C   UNL     1     -12.163  13.771  65.756  1.00  0.00    -0.495 C  
ENDROOT
BRANCH   2   3
HETATM    3  C   UNL     1     -10.888  14.244  65.065  1.00  0.00    -0.414 C  
BRANCH   3   4
HETATM    4  C   UNL     1     -10.403  15.565  65.654  1.00  0.00    -0.407 C  
BRANCH   4   5
HETATM    5  C   UNL     1      -9.586  15.321  66.919  1.00  0.00    -0.245 C  
BRANCH   5   6
HETATM    6  C   UNL     1      -9.426  16.610  67.712  1.00  0.00    -0.227 C  
BRANCH   6   7
HETATM    7  C   UNL     1     -10.574  16.780  68.699  1.00  0.00    -0.353 C  
BRANCH   7   8
HETATM    8  C   UNL     1     -10.709  15.538  69.566  1.00  0.00    -0.272 C  
BRANCH   8   9
HETATM    9  C   UNL     1     -12.166  15.118  69.679  1.00  0.00    -0.292 C  
BRANCH   9  10
HETATM   10  C   UNL     1     -12.346  14.180  70.864  1.00  0.00    -0.438 C  
BRANCH  10  11
HETATM   11  C   UNL     1     -12.101  12.742  70.445  1.00  0.00    -0.382 C  
BRANCH  11  12
HETATM   12  C   UNL     1     -12.835  11.779  71.369  1.00  0.00    -0.440 C  
BRANCH  12  13
HETATM   13  C   UNL     1     -12.876  10.401  70.733  1.00  0.00    -0.450 C  
BRANCH  13  14
HETATM   14  C   UNL     1     -11.760   9.502  71.255  1.00  0.00    -0.444 C  
BRANCH  14  15
HETATM   15  C   UNL     1     -11.150   8.645  70.143  1.00  0.00    -0.199 C  
BRANCH  15  16
HETATM   16  C   UNL     1     -10.625   7.309  70.676  1.00  0.00    -0.226 C  
BRANCH  16  17
HETATM   17  N   UNL     1     -10.025   6.400  69.596  1.00  0.00    -0.161 N  
HETATM   18  C   UNL     1     -10.843   6.443  68.316  1.00  0.00    -0.309 C  
HETATM   19  C   UNL     1     -10.046   4.968  70.143  1.00  0.00    -0.268 C  
HETATM   20  C   UNL     1      -8.576   6.774  69.305  1.00  0.00    -0.129 C  
ENDBRANCH  16  17
ENDBRANCH  15  16
ENDBRANCH  14  15
ENDBRANCH  13  14
ENDBRANCH  12  13
ENDBRANCH  11  12
ENDBRANCH  10  11
ENDBRANCH   9  10
ENDBRANCH   8   9
ENDBRANCH   7   8
ENDBRANCH   6   7
ENDBRANCH   5   6
ENDBRANCH   4   5
ENDBRANCH   3   4
ENDBRANCH   2   3
TORSDOF 15
ENDMDL
MODEL      186
REMARK 921   NORMALIZED FREE ENERGY PREDICTED BY IDOCK:   -3.25 KCAL/MOL
REMARK 922        TOTAL FREE ENERGY PREDICTED BY IDOCK:   -7.79 KCAL/MOL
REMARK 923 INTER-LIGAND FREE ENERGY PREDICTED BY IDOCK:   -6.29 KCAL/MOL
REMARK 924 INTRA-LIGAND FREE ENERGY PREDICTED BY IDOCK:   -1.49 KCAL/MOL
REMARK 927      BINDING AFFINITY PREDICTED BY RF-SCORE:    0.00 PKD
ROOT
HETATM    1  C   UNL     1     -11.423  10.088  70.529  1.00  0.00    -0.407 C  
HETATM    2  C   UNL     1     -12.866   9.842  70.936  1.00  0.00    -0.360 C  
ENDROOT
BRANCH   2   3
HETATM    3  C   UNL     1     -12.943   8.907  72.138  1.00  0.00    -0.473 C  
BRANCH   3   4
HETATM    4  C   UNL     1     -11.647   8.121  72.305  1.00  0.00    -0.436 C  
BRANCH   4   5
HETATM    5  C   UNL     1     -11.875   6.641  72.016  1.00  0.00    -0.365 C  
BRANCH   5   6
HETATM    6  C   UNL     1     -10.920   5.780  72.831  1.00  0.00    -0.312 C  
BRANCH   6   7
HETATM    7  C   UNL     1     -10.006   4.977  71.914  1.00  0.00    -0.245 C  
BRANCH   7   8
HETATM    8  C   UNL     1     -10.450   5.126  70.467  1.00  0.00    -0.278 C  
BRANCH   8   9
HETATM    9  C   UNL     1      -9.267   5.464  69.575  1.00  0.00    -0.152 C  
BRANCH   9  10
HETATM   10  C   UNL     1      -8.701   6.825  69.956  1.00  0.00    -0.141 C  
BRANCH  10  11
HETATM   11  C   UNL     1      -8.924   7.826  68.838  1.00  0.00    -0.141 C  
BRANCH  11  12
HETATM   12  C   UNL     1      -9.614   7.164  67.652  1.00  0.00    -0.152 C  
BRANCH  12  13
HETATM   13  C   UNL     1     -10.358   8.218  66.849  1.00  0.00    -0.391 C  
BRANCH  13  14
HETATM   14  C   UNL     1      -9.574   9.524  66.764  1.00  0.00    -0.229 C  
BRANCH  14  15
HETATM   15  C   UNL     1      -9.774  10.222  65.417  1.00  0.00    -0.340 C  
BRANCH  15  16
HETATM   16  C   UNL     1     -10.695  11.439  65.537  1.00  0.00    -0.253 C  
BRANCH  16  17
HETATM   17  N   UNL     1     -10.874  12.216  64.227  1.00  0.00    -0.314 N  
HETATM   18  C   UNL     1     -10.006  11.643  63.118  1.00  0.00    -0.375 C  
HETATM   19  C   UNL     1     -10.437  13.662  64.492  1.00  0.00    -0.390 C  
HETATM   20  C   UNL     1     -12.335  12.236  63.793  1.00  0.00    -0.538 C  
ENDBRANCH  16  17
ENDBRANCH  15  16
ENDBRANCH  14  15
ENDBRANCH  13  14
ENDBRANCH  12  13
ENDBRANCH  11  12
ENDBRANCH  10  11
ENDBRANCH   9  10
ENDBRANCH   8   9
ENDBRANCH   7   8
ENDBRANCH   6   7
ENDBRANCH   5   6
ENDBRANCH   4   5
ENDBRANCH   3   4
ENDBRANCH   2   3
TORSDOF 15
ENDMDL
MODEL      187
REMARK 921   NORMALIZED FREE ENERGY PREDICTED BY IDOCK:   -3.24 KCAL/MOL
REMARK 922        TOTAL FREE ENERGY PREDICTED BY IDOCK:   -7.78 KCAL/MOL
REMARK 923 INTER-LIGAND FREE ENERGY PREDICTED BY IDOCK:   -6.80 KCAL/MOL
REMARK 924 INTRA-LIGAND FREE ENERGY PREDICTED BY IDOCK:   -0.98 KCAL/MOL
REMARK 927      BINDING AFFINITY PREDICTED BY RF-SCORE:    0.00 PKD
ROOT
HETATM    1  C   UNL     1     -10.590  19.498  65.962  1.00  0.00    -0.589 C  
HETATM    2  C   UNL     1     -10.677  19.202  67.449  1.00  0.00    -0.578 C  
ENDROOT
BRANCH   2   3
HETATM    3  C   UNL     1     -10.594  17.703  67.714  1.00  0.00    -0.380 C  
BRANCH   3   4
HETATM    4  C   UNL     1     -10.070  16.958  66.490  1.00  0.00    -0.320 C  
BRANCH   4   5
HETATM    5  C   UNL     1     -10.744  15.597  66.360  1.00  0.00    -0.291 C  
BRANCH   5   6
HETATM    6  C   UNL     1     -10.751  15.137  64.910  1.00  0.00    -0.421 C  
BRANCH   6   7
HETATM    7  C   UNL     1     -12.158  14.739  64.480  1.00  0.00    -0.460 C  
BRANCH   7   8
HETATM    8  C   UNL     1     -12.318  13.228  64.535  1.00  0.00    -0.428 C  
BRANCH   8   9
HETATM    9  C   UNL     1     -11.444  12.557  63.487  1.00  0.00    -0.570 C  
BRANCH   9  10
HETATM   10  C   UNL     1     -10.461  11.609  64.160  1.00  0.00    -0.402 C  
BRANCH  10  11
HETATM   11  C   UNL     1     -10.832  11.406  65.617  1.00  0.00    -0.280 C  
BRANCH  11  12
HETATM   12  C   UNL     1      -9.599  11.505  66.506  1.00  0.00    -0.225 C  
BRANCH  12  13
HETATM   13  C   UNL     1      -9.933  10.981  67.892  1.00  0.00    -0.192 C  
BRANCH  13  14
HETATM   14  C   UNL     1     -10.876   9.783  67.834  1.00  0.00    -0.298 C  
BRANCH  14  15
HETATM   15  C   UNL     1     -10.244   8.593  67.108  1.00  0.00    -0.353 C  
BRANCH  15  16
HETATM   16  C   UNL     1      -9.476   7.682  68.070  1.00  0.00    -0.143 C  
BRANCH  16  17
HETATM   17  N   UNL     1      -9.939   6.220  68.046  1.00  0.00    -0.130 N  
HETATM   18  C   UNL     1      -8.759   5.263  68.087  1.00  0.00    -0.102 C  
HETATM   19  C   UNL     1     -10.697   6.004  66.731  1.00  0.00    -0.302 C  
HETATM   20  C   UNL     1     -10.894   5.925  69.197  1.00  0.00    -0.336 C  
ENDBRANCH  16  17
ENDBRANCH  15  16
ENDBRANCH  14  15
ENDBRANCH  13  14
ENDBRANCH  12  13
ENDBRANCH  11  12
ENDBRANCH  10  11
ENDBRANCH   9  10
ENDBRANCH   8   9
ENDBRANCH   7   8
ENDBRANCH   6   7
ENDBRANCH   5   6
ENDBRANCH   4   5
ENDBRANCH   3   4
ENDBRANCH   2   3
TORSDOF 15
ENDMDL
MODEL      188
REMARK 921   NORMALIZED FREE ENERGY PREDICTED BY IDOCK:   -3.24 KCAL/MOL
REMARK 922        TOTAL FREE ENERGY PREDICTED BY IDOCK:   -7.77 KCAL/MOL
REMARK 923 INTER-LIGAND FREE ENERGY PREDICTED BY IDOCK:   -6.16 KCAL/MOL
REMARK 924 INTRA-LIGAND FREE ENERGY PREDICTED BY IDOCK:   -1.61 KCAL/MOL
REMARK 927      BINDING AFFINITY PREDICTED BY RF-SCORE:    0.00 PKD
ROOT
HETATM    1  C   UNL     1     -11.129   4.536  73.401  1.00  0.00    -0.408 C  
HETATM    2  C   UNL     1      -9.744   5.155  73.315  1.00  0.00    -0.160 C  
ENDROOT
BRANCH   2   3
HETATM    3  C   UNL     1      -9.772   6.618  73.744  1.00  0.00    -0.248 C  
BRANCH   3   4
HETATM    4  C   UNL     1     -11.030   7.315  73.235  1.00  0.00    -0.355 C  
BRANCH   4   5
HETATM    5  C   UNL     1     -10.796   7.898  71.846  1.00  0.00    -0.295 C  
BRANCH   5   6
HETATM    6  C   UNL     1     -11.914   7.491  70.897  1.00  0.00    -0.278 C  
BRANCH   6   7
HETATM    7  C   UNL     1     -11.428   6.426  69.921  1.00  0.00    -0.483 C  
BRANCH   7   8
HETATM    8  C   UNL     1      -9.914   6.485  69.789  1.00  0.00    -0.189 C  
BRANCH   8   9
HETATM    9  C   UNL     1      -9.510   6.709  68.341  1.00  0.00    -0.125 C  
BRANCH   9  10
HETATM   10  C   UNL     1     -10.688   7.263  67.553  1.00  0.00    -0.326 C  
BRANCH  10  11
HETATM   11  C   UNL     1     -10.332   8.603  66.935  1.00  0.00    -0.355 C  
BRANCH  11  12
HETATM   12  C   UNL     1     -10.625   9.739  67.906  1.00  0.00    -0.310 C  
BRANCH  12  13
HETATM   13  C   UNL     1     -11.088  10.960  67.129  1.00  0.00    -0.308 C  
BRANCH  13  14
HETATM   14  C   UNL     1     -11.886  11.920  68.006  1.00  0.00    -0.323 C  
BRANCH  14  15
HETATM   15  C   UNL     1     -11.181  13.270  68.161  1.00  0.00    -0.302 C  
BRANCH  15  16
HETATM   16  C   UNL     1     -11.642  14.278  67.105  1.00  0.00    -0.380 C  
BRANCH  16  17
HETATM   17  N   UNL     1     -10.563  14.639  66.077  1.00  0.00    -0.298 N  
HETATM   18  C   UNL     1     -10.688  13.793  64.821  1.00  0.00    -0.416 C  
HETATM   19  C   UNL     1      -9.203  14.356  66.724  1.00  0.00    -0.268 C  
HETATM   20  C   UNL     1     -10.617  16.120  65.718  1.00  0.00    -0.334 C  
ENDBRANCH  16  17
ENDBRANCH  15  16
ENDBRANCH  14  15
ENDBRANCH  13  14
ENDBRANCH  12  13
ENDBRANCH  11  12
ENDBRANCH  10  11
ENDBRANCH   9  10
ENDBRANCH   8   9
ENDBRANCH   7   8
ENDBRANCH   6   7
ENDBRANCH   5   6
ENDBRANCH   4   5
ENDBRANCH   3   4
ENDBRANCH   2   3
TORSDOF 15
ENDMDL
MODEL      189
REMARK 921   NORMALIZED FREE ENERGY PREDICTED BY IDOCK:   -3.23 KCAL/MOL
REMARK 922        TOTAL FREE ENERGY PREDICTED BY IDOCK:   -7.76 KCAL/MOL
REMARK 923 INTER-LIGAND FREE ENERGY PREDICTED BY IDOCK:   -6.40 KCAL/MOL
REMARK 924 INTRA-LIGAND FREE ENERGY PREDICTED BY IDOCK:   -1.37 KCAL/MOL
REMARK 927      BINDING AFFINITY PREDICTED BY RF-SCORE:    0.00 PKD
ROOT
HETATM    1  C   UNL     1     -11.805  15.053  64.407  1.00  0.00    -0.349 C  
HETATM    2  C   UNL     1     -12.239  13.624  64.684  1.00  0.00    -0.448 C  
ENDROOT
BRANCH   2   3
HETATM    3  C   UNL     1     -11.952  12.724  63.487  1.00  0.00    -0.633 C  
BRANCH   3   4
HETATM    4  C   UNL     1     -10.993  11.600  63.864  1.00  0.00    -0.478 C  
BRANCH   4   5
HETATM    5  C   UNL     1     -10.619  11.686  65.340  1.00  0.00    -0.331 C  
BRANCH   5   6
HETATM    6  C   UNL     1     -10.222  10.317  65.875  1.00  0.00    -0.293 C  
BRANCH   6   7
HETATM    7  C   UNL     1      -9.168   9.676  64.980  1.00  0.00    -0.310 C  
BRANCH   7   8
HETATM    8  C   UNL     1      -7.919   9.355  65.786  1.00  0.00    -0.110 C  
BRANCH   8   9
HETATM    9  C   UNL     1      -7.602   7.870  65.718  1.00  0.00    -0.083 C  
BRANCH   9  10
HETATM   10  C   UNL     1      -8.224   7.152  66.907  1.00  0.00    -0.117 C  
BRANCH  10  11
HETATM   11  C   UNL     1      -9.422   6.331  66.466  1.00  0.00    -0.181 C  
BRANCH  11  12
HETATM   12  C   UNL     1     -10.698   6.845  67.120  1.00  0.00    -0.436 C  
BRANCH  12  13
HETATM   13  C   UNL     1     -10.453   7.063  68.603  1.00  0.00    -0.224 C  
BRANCH  13  14
HETATM   14  C   UNL     1     -10.956   5.890  69.439  1.00  0.00    -0.421 C  
BRANCH  14  15
HETATM   15  C   UNL     1     -11.249   6.303  70.883  1.00  0.00    -0.386 C  
BRANCH  15  16
HETATM   16  C   UNL     1     -12.414   7.293  70.967  1.00  0.00    -0.285 C  
BRANCH  16  17
HETATM   17  N   UNL     1     -12.080   8.586  71.721  1.00  0.00    -0.311 N  
HETATM   18  C   UNL     1     -10.914   8.386  72.675  1.00  0.00    -0.248 C  
HETATM   19  C   UNL     1     -13.319   8.971  72.537  1.00  0.00    -0.423 C  
HETATM   20  C   UNL     1     -11.777   9.726  70.754  1.00  0.00    -0.328 C  
ENDBRANCH  16  17
ENDBRANCH  15  16
ENDBRANCH  14  15
ENDBRANCH  13  14
ENDBRANCH  12  13
ENDBRANCH  11  12
ENDBRANCH  10  11
ENDBRANCH   9  10
ENDBRANCH   8   9
ENDBRANCH   7   8
ENDBRANCH   6   7
ENDBRANCH   5   6
ENDBRANCH   4   5
ENDBRANCH   3   4
ENDBRANCH   2   3
TORSDOF 15
ENDMDL
MODEL      190
REMARK 921   NORMALIZED FREE ENERGY PREDICTED BY IDOCK:   -3.23 KCAL/MOL
REMARK 922        TOTAL FREE ENERGY PREDICTED BY IDOCK:   -7.76 KCAL/MOL
REMARK 923 INTER-LIGAND FREE ENERGY PREDICTED BY IDOCK:   -5.88 KCAL/MOL
REMARK 924 INTRA-LIGAND FREE ENERGY PREDICTED BY IDOCK:   -1.88 KCAL/MOL
REMARK 927      BINDING AFFINITY PREDICTED BY RF-SCORE:    0.00 PKD
ROOT
HETATM    1  C   UNL     1      -9.356   5.459  67.615  1.00  0.00    -0.122 C  
HETATM    2  C   UNL     1      -8.556   6.119  68.724  1.00  0.00    -0.120 C  
ENDROOT
BRANCH   2   3
HETATM    3  C   UNL     1      -9.402   6.289  69.982  1.00  0.00    -0.164 C  
BRANCH   3   4
HETATM    4  C   UNL     1     -10.820   5.774  69.762  1.00  0.00    -0.419 C  
BRANCH   4   5
HETATM    5  C   UNL     1     -11.833   6.675  70.460  1.00  0.00    -0.430 C  
BRANCH   5   6
HETATM    6  C   UNL     1     -11.659   6.611  71.970  1.00  0.00    -0.341 C  
BRANCH   6   7
HETATM    7  C   UNL     1     -11.578   8.013  72.561  1.00  0.00    -0.464 C  
BRANCH   7   8
HETATM    8  C   UNL     1     -11.701   9.056  71.461  1.00  0.00    -0.415 C  
BRANCH   8   9
HETATM    9  C   UNL     1     -12.854  10.005  71.746  1.00  0.00    -0.546 C  
BRANCH   9  10
HETATM   10  C   UNL     1     -12.601  11.346  71.073  1.00  0.00    -0.487 C  
BRANCH  10  11
HETATM   11  C   UNL     1     -11.507  11.219  70.029  1.00  0.00    -0.359 C  
BRANCH  11  12
HETATM   12  C   UNL     1     -11.842  12.045  68.794  1.00  0.00    -0.358 C  
BRANCH  12  13
HETATM   13  C   UNL     1     -11.343  11.323  67.554  1.00  0.00    -0.360 C  
BRANCH  13  14
HETATM   14  C   UNL     1     -10.960   9.878  67.855  1.00  0.00    -0.281 C  
BRANCH  14  15
HETATM   15  C   UNL     1      -9.517   9.574  67.445  1.00  0.00    -0.164 C  
BRANCH  15  16
HETATM   16  C   UNL     1      -9.027  10.514  66.341  1.00  0.00    -0.159 C  
BRANCH  16  17
HETATM   17  N   UNL     1      -8.366   9.796  65.158  1.00  0.00    -0.134 N  
HETATM   18  C   UNL     1      -6.913  10.212  64.998  1.00  0.00    -0.135 C  
HETATM   19  C   UNL     1      -9.132  10.199  63.894  1.00  0.00    -0.260 C  
HETATM   20  C   UNL     1      -8.464   8.282  65.309  1.00  0.00    -0.162 C  
ENDBRANCH  16  17
ENDBRANCH  15  16
ENDBRANCH  14  15
ENDBRANCH  13  14
ENDBRANCH  12  13
ENDBRANCH  11  12
ENDBRANCH  10  11
ENDBRANCH   9  10
ENDBRANCH   8   9
ENDBRANCH   7   8
ENDBRANCH   6   7
ENDBRANCH   5   6
ENDBRANCH   4   5
ENDBRANCH   3   4
ENDBRANCH   2   3
TORSDOF 15
ENDMDL
MODEL      191
REMARK 921   NORMALIZED FREE ENERGY PREDICTED BY IDOCK:   -3.22 KCAL/MOL
REMARK 922        TOTAL FREE ENERGY PREDICTED BY IDOCK:   -7.74 KCAL/MOL
REMARK 923 INTER-LIGAND FREE ENERGY PREDICTED BY IDOCK:   -6.19 KCAL/MOL
REMARK 924 INTRA-LIGAND FREE ENERGY PREDICTED BY IDOCK:   -1.55 KCAL/MOL
REMARK 927      BINDING AFFINITY PREDICTED BY RF-SCORE:    0.00 PKD
ROOT
HETATM    1  C   UNL     1     -10.667  19.591  67.121  1.00  0.00    -0.599 C  
HETATM    2  C   UNL     1      -9.798  18.351  67.243  1.00  0.00    -0.327 C  
ENDROOT
BRANCH   2   3
HETATM    3  C   UNL     1     -10.370  17.200  66.423  1.00  0.00    -0.307 C  
BRANCH   3   4
HETATM    4  C   UNL     1     -10.443  15.921  67.251  1.00  0.00    -0.310 C  
BRANCH   4   5
HETATM    5  C   UNL     1     -11.317  16.127  68.483  1.00  0.00    -0.359 C  
BRANCH   5   6
HETATM    6  C   UNL     1     -11.012  15.076  69.541  1.00  0.00    -0.281 C  
BRANCH   6   7
HETATM    7  C   UNL     1     -12.226  14.186  69.779  1.00  0.00    -0.397 C  
BRANCH   7   8
HETATM    8  C   UNL     1     -11.810  12.722  69.789  1.00  0.00    -0.380 C  
BRANCH   8   9
HETATM    9  C   UNL     1     -11.008  12.383  68.543  1.00  0.00    -0.277 C  
BRANCH   9  10
HETATM   10  C   UNL     1     -11.910  12.429  67.317  1.00  0.00    -0.357 C  
BRANCH  10  11
HETATM   11  C   UNL     1     -11.204  11.826  66.116  1.00  0.00    -0.363 C  
BRANCH  11  12
HETATM   12  C   UNL     1      -9.875  11.207  66.527  1.00  0.00    -0.242 C  
BRANCH  12  13
HETATM   13  C   UNL     1      -9.782   9.796  65.972  1.00  0.00    -0.319 C  
BRANCH  13  14
HETATM   14  C   UNL     1     -10.257   8.757  66.982  1.00  0.00    -0.351 C  
BRANCH  14  15
HETATM   15  C   UNL     1      -9.601   8.951  68.351  1.00  0.00    -0.157 C  
BRANCH  15  16
HETATM   16  C   UNL     1     -10.635   8.979  69.480  1.00  0.00    -0.225 C  
BRANCH  16  17
HETATM   17  N   UNL     1     -10.172   8.285  70.767  1.00  0.00    -0.190 N  
HETATM   18  C   UNL     1     -10.956   8.772  71.974  1.00  0.00    -0.368 C  
HETATM   19  C   UNL     1      -8.694   8.640  70.969  1.00  0.00    -0.186 C  
HETATM   20  C   UNL     1     -10.282   6.769  70.647  1.00  0.00    -0.195 C  
ENDBRANCH  16  17
ENDBRANCH  15  16
ENDBRANCH  14  15
ENDBRANCH  13  14
ENDBRANCH  12  13
ENDBRANCH  11  12
ENDBRANCH  10  11
ENDBRANCH   9  10
ENDBRANCH   8   9
ENDBRANCH   7   8
ENDBRANCH   6   7
ENDBRANCH   5   6
ENDBRANCH   4   5
ENDBRANCH   3   4
ENDBRANCH   2   3
TORSDOF 15
ENDMDL
MODEL      192
REMARK 921   NORMALIZED FREE ENERGY PREDICTED BY IDOCK:   -3.21 KCAL/MOL
REMARK 922        TOTAL FREE ENERGY PREDICTED BY IDOCK:   -7.72 KCAL/MOL
REMARK 923 INTER-LIGAND FREE ENERGY PREDICTED BY IDOCK:   -5.65 KCAL/MOL
REMARK 924 INTRA-LIGAND FREE ENERGY PREDICTED BY IDOCK:   -2.07 KCAL/MOL
REMARK 927      BINDING AFFINITY PREDICTED BY RF-SCORE:    0.00 PKD
ROOT
HETATM    1  C   UNL     1     -12.396   8.530  71.518  1.00  0.00    -0.354 C  
HETATM    2  C   UNL     1     -11.299   8.031  72.443  1.00  0.00    -0.443 C  
ENDROOT
BRANCH   2   3
HETATM    3  C   UNL     1      -9.983   8.750  72.166  1.00  0.00    -0.359 C  
BRANCH   3   4
HETATM    4  C   UNL     1      -8.837   7.755  72.014  1.00  0.00    -0.169 C  
BRANCH   4   5
HETATM    5  C   UNL     1      -9.200   6.416  72.648  1.00  0.00    -0.138 C  
BRANCH   5   6
HETATM    6  C   UNL     1      -8.918   5.272  71.685  1.00  0.00    -0.148 C  
BRANCH   6   7
HETATM    7  C   UNL     1      -9.121   5.720  70.243  1.00  0.00    -0.160 C  
BRANCH   7   8
HETATM    8  C   UNL     1     -10.529   5.378  69.780  1.00  0.00    -0.378 C  
BRANCH   8   9
HETATM    9  C   UNL     1     -11.002   6.367  68.726  1.00  0.00    -0.404 C  
BRANCH   9  10
HETATM   10  C   UNL     1      -9.907   7.385  68.440  1.00  0.00    -0.165 C  
BRANCH  10  11
HETATM   11  C   UNL     1     -10.481   8.597  67.731  1.00  0.00    -0.287 C  
BRANCH  11  12
HETATM   12  C   UNL     1     -10.572   9.784  68.680  1.00  0.00    -0.249 C  
BRANCH  12  13
HETATM   13  C   UNL     1     -10.072  11.034  67.976  1.00  0.00    -0.198 C  
BRANCH  13  14
HETATM   14  C   UNL     1     -11.125  11.614  67.036  1.00  0.00    -0.359 C  
BRANCH  14  15
HETATM   15  C   UNL     1     -11.560  13.018  67.465  1.00  0.00    -0.405 C  
BRANCH  15  16
HETATM   16  C   UNL     1     -10.780  13.508  68.687  1.00  0.00    -0.253 C  
BRANCH  16  17
HETATM   17  N   UNL     1     -10.802  15.030  68.871  1.00  0.00    -0.234 N  
HETATM   18  C   UNL     1     -11.988  15.471  69.713  1.00  0.00    -0.364 C  
HETATM   19  C   UNL     1     -10.932  15.655  67.477  1.00  0.00    -0.309 C  
HETATM   20  C   UNL     1      -9.503  15.529  69.494  1.00  0.00    -0.269 C  
ENDBRANCH  16  17
ENDBRANCH  15  16
ENDBRANCH  14  15
ENDBRANCH  13  14
ENDBRANCH  12  13
ENDBRANCH  11  12
ENDBRANCH  10  11
ENDBRANCH   9  10
ENDBRANCH   8   9
ENDBRANCH   7   8
ENDBRANCH   6   7
ENDBRANCH   5   6
ENDBRANCH   4   5
ENDBRANCH   3   4
ENDBRANCH   2   3
TORSDOF 15
ENDMDL
MODEL      193
REMARK 921   NORMALIZED FREE ENERGY PREDICTED BY IDOCK:   -3.21 KCAL/MOL
REMARK 922        TOTAL FREE ENERGY PREDICTED BY IDOCK:   -7.71 KCAL/MOL
REMARK 923 INTER-LIGAND FREE ENERGY PREDICTED BY IDOCK:   -5.83 KCAL/MOL
REMARK 924 INTRA-LIGAND FREE ENERGY PREDICTED BY IDOCK:   -1.88 KCAL/MOL
REMARK 927      BINDING AFFINITY PREDICTED BY RF-SCORE:    0.00 PKD
ROOT
HETATM    1  C   UNL     1      -6.384  16.225  69.524  1.00  0.00    -0.195 C  
HETATM    2  C   UNL     1      -5.777  16.108  68.137  1.00  0.00    -0.114 C  
ENDROOT
BRANCH   2   3
HETATM    3  C   UNL     1      -6.636  16.828  67.102  1.00  0.00    -0.227 C  
BRANCH   3   4
HETATM    4  C   UNL     1      -5.771  17.610  66.120  1.00  0.00    -0.245 C  
BRANCH   4   5
HETATM    5  C   UNL     1      -5.183  18.848  66.788  1.00  0.00    -0.145 C  
BRANCH   5   6
HETATM    6  C   UNL     1      -6.261  19.897  67.019  1.00  0.00    -0.199 C  
BRANCH   6   7
HETATM    7  C   UNL     1      -7.131  20.055  65.779  1.00  0.00    -0.324 C  
BRANCH   7   8
HETATM    8  C   UNL     1      -8.602  20.076  66.167  1.00  0.00    -0.301 C  
BRANCH   8   9
HETATM    9  C   UNL     1      -8.758  20.229  67.671  1.00  0.00    -0.351 C  
BRANCH   9  10
HETATM   10  C   UNL     1      -9.989  19.470  68.145  1.00  0.00    -0.522 C  
BRANCH  10  11
HETATM   11  C   UNL     1     -10.745  18.893  66.963  1.00  0.00    -0.477 C  
BRANCH  11  12
HETATM   12  C   UNL     1     -10.518  17.390  66.859  1.00  0.00    -0.279 C  
BRANCH  12  13
HETATM   13  C   UNL     1     -10.806  16.742  68.202  1.00  0.00    -0.353 C  
BRANCH  13  14
HETATM   14  C   UNL     1      -9.792  15.653  68.536  1.00  0.00    -0.205 C  
BRANCH  14  15
HETATM   15  C   UNL     1     -10.385  14.252  68.372  1.00  0.00    -0.247 C  
BRANCH  15  16
HETATM   16  C   UNL     1      -9.879  13.563  67.101  1.00  0.00    -0.245 C  
BRANCH  16  17
HETATM   17  N   UNL     1     -10.972  13.298  66.059  1.00  0.00    -0.278 N  
HETATM   18  C   UNL     1     -11.147  11.810  65.805  1.00  0.00    -0.297 C  
HETATM   19  C   UNL     1     -10.529  13.968  64.754  1.00  0.00    -0.421 C  
HETATM   20  C   UNL     1     -12.299  13.917  66.483  1.00  0.00    -0.404 C  
ENDBRANCH  16  17
ENDBRANCH  15  16
ENDBRANCH  14  15
ENDBRANCH  13  14
ENDBRANCH  12  13
ENDBRANCH  11  12
ENDBRANCH  10  11
ENDBRANCH   9  10
ENDBRANCH   8   9
ENDBRANCH   7   8
ENDBRANCH   6   7
ENDBRANCH   5   6
ENDBRANCH   4   5
ENDBRANCH   3   4
ENDBRANCH   2   3
TORSDOF 15
ENDMDL
MODEL      194
REMARK 921   NORMALIZED FREE ENERGY PREDICTED BY IDOCK:   -3.20 KCAL/MOL
REMARK 922        TOTAL FREE ENERGY PREDICTED BY IDOCK:   -7.70 KCAL/MOL
REMARK 923 INTER-LIGAND FREE ENERGY PREDICTED BY IDOCK:   -6.97 KCAL/MOL
REMARK 924 INTRA-LIGAND FREE ENERGY PREDICTED BY IDOCK:   -0.73 KCAL/MOL
REMARK 927      BINDING AFFINITY PREDICTED BY RF-SCORE:    0.00 PKD
ROOT
HETATM    1  C   UNL     1     -11.249   6.266  70.735  1.00  0.00    -0.387 C  
HETATM    2  C   UNL     1     -11.485   6.553  72.208  1.00  0.00    -0.326 C  
ENDROOT
BRANCH   2   3
HETATM    3  C   UNL     1     -11.538   8.054  72.472  1.00  0.00    -0.464 C  
BRANCH   3   4
HETATM    4  C   UNL     1     -11.962   8.815  71.220  1.00  0.00    -0.353 C  
BRANCH   4   5
HETATM    5  C   UNL     1     -12.917   9.949  71.579  1.00  0.00    -0.523 C  
BRANCH   5   6
HETATM    6  C   UNL     1     -12.484  11.248  70.913  1.00  0.00    -0.493 C  
BRANCH   6   7
HETATM    7  C   UNL     1     -11.439  10.977  69.838  1.00  0.00    -0.400 C  
BRANCH   7   8
HETATM    8  C   UNL     1     -11.899  11.543  68.503  1.00  0.00    -0.365 C  
BRANCH   8   9
HETATM    9  C   UNL     1     -10.712  12.027  67.687  1.00  0.00    -0.252 C  
BRANCH   9  10
HETATM   10  C   UNL     1     -10.130  13.286  68.314  1.00  0.00    -0.250 C  
BRANCH  10  11
HETATM   11  C   UNL     1     -10.745  14.524  67.689  1.00  0.00    -0.254 C  
BRANCH  11  12
HETATM   12  C   UNL     1     -11.414  15.388  68.750  1.00  0.00    -0.352 C  
BRANCH  12  13
HETATM   13  C   UNL     1     -10.690  16.720  68.846  1.00  0.00    -0.333 C  
BRANCH  13  14
HETATM   14  C   UNL     1     -10.750  17.494  67.533  1.00  0.00    -0.280 C  
BRANCH  14  15
HETATM   15  C   UNL     1     -10.476  18.986  67.737  1.00  0.00    -0.499 C  
BRANCH  15  16
HETATM   16  C   UNL     1      -9.215  19.225  68.571  1.00  0.00    -0.382 C  
BRANCH  16  17
HETATM   17  N   UNL     1      -7.908  19.070  67.783  1.00  0.00    -0.248 N  
HETATM   18  C   UNL     1      -7.181  17.789  68.158  1.00  0.00    -0.225 C  
HETATM   19  C   UNL     1      -7.015  20.263  68.143  1.00  0.00    -0.279 C  
HETATM   20  C   UNL     1      -8.164  19.107  66.280  1.00  0.00    -0.300 C  
ENDBRANCH  16  17
ENDBRANCH  15  16
ENDBRANCH  14  15
ENDBRANCH  13  14
ENDBRANCH  12  13
ENDBRANCH  11  12
ENDBRANCH  10  11
ENDBRANCH   9  10
ENDBRANCH   8   9
ENDBRANCH   7   8
ENDBRANCH   6   7
ENDBRANCH   5   6
ENDBRANCH   4   5
ENDBRANCH   3   4
ENDBRANCH   2   3
TORSDOF 15
ENDMDL
MODEL      195
REMARK 921   NORMALIZED FREE ENERGY PREDICTED BY IDOCK:   -3.20 KCAL/MOL
REMARK 922        TOTAL FREE ENERGY PREDICTED BY IDOCK:   -7.70 KCAL/MOL
REMARK 923 INTER-LIGAND FREE ENERGY PREDICTED BY IDOCK:   -6.20 KCAL/MOL
REMARK 924 INTRA-LIGAND FREE ENERGY PREDICTED BY IDOCK:   -1.49 KCAL/MOL
REMARK 927      BINDING AFFINITY PREDICTED BY RF-SCORE:    0.00 PKD
ROOT
HETATM    1  C   UNL     1      -7.771   5.162  71.330  1.00  0.00    -0.105 C  
HETATM    2  C   UNL     1      -8.735   3.994  71.455  1.00  0.00    -0.137 C  
ENDROOT
BRANCH   2   3
HETATM    3  C   UNL     1      -9.740   3.990  70.309  1.00  0.00    -0.263 C  
BRANCH   3   4
HETATM    4  C   UNL     1      -9.172   4.688  69.078  1.00  0.00    -0.183 C  
BRANCH   4   5
HETATM    5  C   UNL     1     -10.223   5.589  68.438  1.00  0.00    -0.242 C  
BRANCH   5   6
HETATM    6  C   UNL     1     -11.250   6.034  69.469  1.00  0.00    -0.416 C  
BRANCH   6   7
HETATM    7  C   UNL     1     -10.842   7.363  70.093  1.00  0.00    -0.270 C  
BRANCH   7   8
HETATM    8  C   UNL     1     -11.349   7.449  71.525  1.00  0.00    -0.285 C  
BRANCH   8   9
HETATM    9  C   UNL     1     -11.368   8.892  72.002  1.00  0.00    -0.427 C  
BRANCH   9  10
HETATM   10  C   UNL     1     -12.805   9.370  72.152  1.00  0.00    -0.480 C  
BRANCH  10  11
HETATM   11  C   UNL     1     -12.988  10.722  71.488  1.00  0.00    -0.562 C  
BRANCH  11  12
HETATM   12  C   UNL     1     -12.680  10.638  69.999  1.00  0.00    -0.157 C  
BRANCH  12  13
HETATM   13  C   UNL     1     -11.634  11.679  69.639  1.00  0.00    -0.401 C  
BRANCH  13  14
HETATM   14  C   UNL     1     -10.656  11.162  68.589  1.00  0.00    -0.222 C  
BRANCH  14  15
HETATM   15  C   UNL     1     -10.964  11.722  67.198  1.00  0.00    -0.326 C  
BRANCH  15  16
HETATM   16  C   UNL     1     -10.202  13.022  66.926  1.00  0.00    -0.244 C  
BRANCH  16  17
HETATM   17  N   UNL     1     -11.080  14.158  66.388  1.00  0.00    -0.315 N  
HETATM   18  C   UNL     1     -12.404  13.632  65.858  1.00  0.00    -0.471 C  
HETATM   19  C   UNL     1     -10.318  14.815  65.232  1.00  0.00    -0.398 C  
HETATM   20  C   UNL     1     -11.327  15.218  67.455  1.00  0.00    -0.297 C  
ENDBRANCH  16  17
ENDBRANCH  15  16
ENDBRANCH  14  15
ENDBRANCH  13  14
ENDBRANCH  12  13
ENDBRANCH  11  12
ENDBRANCH  10  11
ENDBRANCH   9  10
ENDBRANCH   8   9
ENDBRANCH   7   8
ENDBRANCH   6   7
ENDBRANCH   5   6
ENDBRANCH   4   5
ENDBRANCH   3   4
ENDBRANCH   2   3
TORSDOF 15
ENDMDL
MODEL      196
REMARK 921   NORMALIZED FREE ENERGY PREDICTED BY IDOCK:   -3.19 KCAL/MOL
REMARK 922        TOTAL FREE ENERGY PREDICTED BY IDOCK:   -7.69 KCAL/MOL
REMARK 923 INTER-LIGAND FREE ENERGY PREDICTED BY IDOCK:   -5.98 KCAL/MOL
REMARK 924 INTRA-LIGAND FREE ENERGY PREDICTED BY IDOCK:   -1.71 KCAL/MOL
REMARK 927      BINDING AFFINITY PREDICTED BY RF-SCORE:    0.00 PKD
ROOT
HETATM    1  C   UNL     1     -10.736   7.292  73.273  1.00  0.00    -0.428 C  
HETATM    2  C   UNL     1     -11.853   7.514  72.267  1.00  0.00    -0.331 C  
ENDROOT
BRANCH   2   3
HETATM    3  C   UNL     1     -11.309   8.095  70.966  1.00  0.00    -0.293 C  
BRANCH   3   4
HETATM    4  C   UNL     1      -9.883   7.620  70.707  1.00  0.00    -0.177 C  
BRANCH   4   5
HETATM    5  C   UNL     1      -9.868   6.513  69.659  1.00  0.00    -0.176 C  
BRANCH   5   6
HETATM    6  C   UNL     1     -11.240   6.360  69.018  1.00  0.00    -0.402 C  
BRANCH   6   7
HETATM    7  C   UNL     1     -11.153   6.556  67.510  1.00  0.00    -0.396 C  
BRANCH   7   8
HETATM    8  C   UNL     1      -9.925   7.381  67.157  1.00  0.00    -0.281 C  
BRANCH   8   9
HETATM    9  C   UNL     1     -10.330   8.729  66.583  1.00  0.00    -0.298 C  
BRANCH   9  10
HETATM   10  C   UNL     1     -10.078   9.827  67.607  1.00  0.00    -0.236 C  
BRANCH  10  11
HETATM   11  C   UNL     1     -11.392  10.391  68.115  1.00  0.00    -0.284 C  
BRANCH  11  12
HETATM   12  C   UNL     1     -11.166  11.253  69.351  1.00  0.00    -0.345 C  
BRANCH  12  13
HETATM   13  C   UNL     1     -10.721  12.641  68.923  1.00  0.00    -0.201 C  
BRANCH  13  14
HETATM   14  C   UNL     1     -11.908  13.538  68.587  1.00  0.00    -0.404 C  
BRANCH  14  15
HETATM   15  C   UNL     1     -11.574  14.532  67.472  1.00  0.00    -0.403 C  
BRANCH  15  16
HETATM   16  C   UNL     1     -10.066  14.626  67.226  1.00  0.00    -0.236 C  
BRANCH  16  17
HETATM   17  N   UNL     1      -9.456  15.981  67.606  1.00  0.00    -0.215 N  
HETATM   18  C   UNL     1     -10.523  17.057  67.722  1.00  0.00    -0.349 C  
HETATM   19  C   UNL     1      -8.486  16.374  66.486  1.00  0.00    -0.301 C  
HETATM   20  C   UNL     1      -8.664  15.885  68.905  1.00  0.00    -0.225 C  
ENDBRANCH  16  17
ENDBRANCH  15  16
ENDBRANCH  14  15
ENDBRANCH  13  14
ENDBRANCH  12  13
ENDBRANCH  11  12
ENDBRANCH  10  11
ENDBRANCH   9  10
ENDBRANCH   8   9
ENDBRANCH   7   8
ENDBRANCH   6   7
ENDBRANCH   5   6
ENDBRANCH   4   5
ENDBRANCH   3   4
ENDBRANCH   2   3
TORSDOF 15
ENDMDL
MODEL      197
REMARK 921   NORMALIZED FREE ENERGY PREDICTED BY IDOCK:   -3.19 KCAL/MOL
REMARK 922        TOTAL FREE ENERGY PREDICTED BY IDOCK:   -7.68 KCAL/MOL
REMARK 923 INTER-LIGAND FREE ENERGY PREDICTED BY IDOCK:   -6.12 KCAL/MOL
REMARK 924 INTRA-LIGAND FREE ENERGY PREDICTED BY IDOCK:   -1.57 KCAL/MOL
REMARK 927      BINDING AFFINITY PREDICTED BY RF-SCORE:    0.00 PKD
ROOT
HETATM    1  C   UNL     1     -11.957  14.098  67.684  1.00  0.00    -0.405 C  
HETATM    2  C   UNL     1     -11.745  14.371  66.205  1.00  0.00    -0.384 C  
ENDROOT
BRANCH   2   3
HETATM    3  C   UNL     1     -12.659  13.497  65.352  1.00  0.00    -0.531 C  
BRANCH   3   4
HETATM    4  C   UNL     1     -12.228  13.515  63.890  1.00  0.00    -0.458 C  
BRANCH   4   5
HETATM    5  C   UNL     1     -11.801  12.123  63.438  1.00  0.00    -0.553 C  
BRANCH   5   6
HETATM    6  C   UNL     1     -10.283  12.013  63.396  1.00  0.00    -0.457 C  
BRANCH   6   7
HETATM    7  C   UNL     1      -9.842  10.574  63.637  1.00  0.00    -0.354 C  
BRANCH   7   8
HETATM    8  C   UNL     1      -9.087  10.470  64.953  1.00  0.00    -0.235 C  
BRANCH   8   9
HETATM    9  C   UNL     1      -9.885   9.668  65.968  1.00  0.00    -0.345 C  
BRANCH   9  10
HETATM   10  C   UNL     1     -10.757  10.601  66.797  1.00  0.00    -0.272 C  
BRANCH  10  11
HETATM   11  C   UNL     1     -10.569  10.329  68.278  1.00  0.00    -0.255 C  
BRANCH  11  12
HETATM   12  C   UNL     1      -9.094  10.390  68.655  1.00  0.00    -0.157 C  
BRANCH  12  13
HETATM   13  C   UNL     1      -8.727   9.156  69.461  1.00  0.00    -0.140 C  
BRANCH  13  14
HETATM   14  C   UNL     1      -9.786   8.065  69.340  1.00  0.00    -0.181 C  
BRANCH  14  15
HETATM   15  C   UNL     1      -9.400   6.807  70.121  1.00  0.00    -0.159 C  
BRANCH  15  16
HETATM   16  C   UNL     1     -10.592   6.219  70.881  1.00  0.00    -0.241 C  
BRANCH  16  17
HETATM   17  N   UNL     1     -10.696   6.690  72.337  1.00  0.00    -0.215 N  
HETATM   18  C   UNL     1      -9.352   7.161  72.866  1.00  0.00    -0.148 C  
HETATM   19  C   UNL     1     -11.157   5.490  73.172  1.00  0.00    -0.287 C  
HETATM   20  C   UNL     1     -11.735   7.796  72.485  1.00  0.00    -0.339 C  
ENDBRANCH  16  17
ENDBRANCH  15  16
ENDBRANCH  14  15
ENDBRANCH  13  14
ENDBRANCH  12  13
ENDBRANCH  11  12
ENDBRANCH  10  11
ENDBRANCH   9  10
ENDBRANCH   8   9
ENDBRANCH   7   8
ENDBRANCH   6   7
ENDBRANCH   5   6
ENDBRANCH   4   5
ENDBRANCH   3   4
ENDBRANCH   2   3
TORSDOF 15
ENDMDL
MODEL      198
REMARK 921   NORMALIZED FREE ENERGY PREDICTED BY IDOCK:   -3.19 KCAL/MOL
REMARK 922        TOTAL FREE ENERGY PREDICTED BY IDOCK:   -7.68 KCAL/MOL
REMARK 923 INTER-LIGAND FREE ENERGY PREDICTED BY IDOCK:   -6.14 KCAL/MOL
REMARK 924 INTRA-LIGAND FREE ENERGY PREDICTED BY IDOCK:   -1.54 KCAL/MOL
REMARK 927      BINDING AFFINITY PREDICTED BY RF-SCORE:    0.00 PKD
ROOT
HETATM    1  C   UNL     1     -12.606  14.300  70.029  1.00  0.00    -0.277 C  
HETATM    2  C   UNL     1     -11.501  13.654  69.212  1.00  0.00    -0.344 C  
ENDROOT
BRANCH   2   3
HETATM    3  C   UNL     1     -12.023  13.189  67.857  1.00  0.00    -0.347 C  
BRANCH   3   4
HETATM    4  C   UNL     1     -11.953  14.313  66.828  1.00  0.00    -0.462 C  
BRANCH   4   5
HETATM    5  C   UNL     1     -12.652  13.902  65.536  1.00  0.00    -0.560 C  
BRANCH   5   6
HETATM    6  C   UNL     1     -11.640  13.711  64.415  1.00  0.00    -0.421 C  
BRANCH   6   7
HETATM    7  C   UNL     1     -11.896  12.401  63.679  1.00  0.00    -0.610 C  
BRANCH   7   8
HETATM    8  C   UNL     1     -10.722  11.453  63.869  1.00  0.00    -0.462 C  
BRANCH   8   9
HETATM    9  C   UNL     1     -10.681  10.930  65.296  1.00  0.00    -0.194 C  
BRANCH   9  10
HETATM   10  C   UNL     1      -9.245  10.615  65.692  1.00  0.00    -0.227 C  
BRANCH  10  11
HETATM   11  C   UNL     1      -8.786  11.538  66.806  1.00  0.00    -0.183 C  
BRANCH  11  12
HETATM   12  C   UNL     1      -9.213  10.998  68.164  1.00  0.00    -0.165 C  
BRANCH  12  13
HETATM   13  C   UNL     1      -7.980  10.623  68.968  1.00  0.00    -0.140 C  
BRANCH  13  14
HETATM   14  C   UNL     1      -8.331   9.756  70.174  1.00  0.00    -0.201 C  
BRANCH  14  15
HETATM   15  C   UNL     1      -9.424   8.737  69.845  1.00  0.00    -0.174 C  
BRANCH  15  16
HETATM   16  C   UNL     1     -10.571   8.785  70.858  1.00  0.00    -0.220 C  
BRANCH  16  17
HETATM   17  N   UNL     1     -10.974   7.411  71.408  1.00  0.00    -0.234 N  
HETATM   18  C   UNL     1     -12.376   7.025  70.966  1.00  0.00    -0.356 C  
HETATM   19  C   UNL     1     -10.953   7.509  72.938  1.00  0.00    -0.383 C  
HETATM   20  C   UNL     1      -9.978   6.336  70.989  1.00  0.00    -0.182 C  
ENDBRANCH  16  17
ENDBRANCH  15  16
ENDBRANCH  14  15
ENDBRANCH  13  14
ENDBRANCH  12  13
ENDBRANCH  11  12
ENDBRANCH  10  11
ENDBRANCH   9  10
ENDBRANCH   8   9
ENDBRANCH   7   8
ENDBRANCH   6   7
ENDBRANCH   5   6
ENDBRANCH   4   5
ENDBRANCH   3   4
ENDBRANCH   2   3
TORSDOF 15
ENDMDL
MODEL      199
REMARK 921   NORMALIZED FREE ENERGY PREDICTED BY IDOCK:   -3.19 KCAL/MOL
REMARK 922        TOTAL FREE ENERGY PREDICTED BY IDOCK:   -7.68 KCAL/MOL
REMARK 923 INTER-LIGAND FREE ENERGY PREDICTED BY IDOCK:   -6.37 KCAL/MOL
REMARK 924 INTRA-LIGAND FREE ENERGY PREDICTED BY IDOCK:   -1.30 KCAL/MOL
REMARK 927      BINDING AFFINITY PREDICTED BY RF-SCORE:    0.00 PKD
ROOT
HETATM    1  C   UNL     1     -13.147  14.900  72.973  1.00  0.00    -0.605 C  
HETATM    2  C   UNL     1     -12.395  13.848  72.175  1.00  0.00    -0.054 C  
ENDROOT
BRANCH   2   3
HETATM    3  C   UNL     1     -13.358  12.853  71.537  1.00  0.00    -0.260 C  
BRANCH   3   4
HETATM    4  C   UNL     1     -12.841  11.425  71.673  1.00  0.00    -0.497 C  
BRANCH   4   5
HETATM    5  C   UNL     1     -11.814  11.120  70.587  1.00  0.00    -0.403 C  
BRANCH   5   6
HETATM    6  C   UNL     1     -12.252  11.708  69.253  1.00  0.00    -0.228 C  
BRANCH   6   7
HETATM    7  C   UNL     1     -11.041  12.124  68.427  1.00  0.00    -0.289 C  
BRANCH   7   8
HETATM    8  C   UNL     1     -10.792  13.617  68.574  1.00  0.00    -0.275 C  
BRANCH   8   9
HETATM    9  C   UNL     1     -11.849  14.414  67.826  1.00  0.00    -0.402 C  
BRANCH   9  10
HETATM   10  C   UNL     1     -11.471  14.527  66.356  1.00  0.00    -0.362 C  
BRANCH  10  11
HETATM   11  C   UNL     1     -12.607  14.040  65.476  1.00  0.00    -0.543 C  
BRANCH  11  12
HETATM   12  C   UNL     1     -12.094  13.665  64.092  1.00  0.00    -0.484 C  
BRANCH  12  13
HETATM   13  C   UNL     1     -11.609  12.226  64.107  1.00  0.00    -0.463 C  
BRANCH  13  14
HETATM   14  C   UNL     1     -10.276  12.070  63.381  1.00  0.00    -0.457 C  
BRANCH  14  15
HETATM   15  C   UNL     1      -9.681  10.673  63.574  1.00  0.00    -0.389 C  
BRANCH  15  16
HETATM   16  C   UNL     1      -8.603  10.658  64.662  1.00  0.00    -0.120 C  
BRANCH  16  17
HETATM   17  N   UNL     1      -8.145   9.251  65.065  1.00  0.00    -0.121 N  
HETATM   18  C   UNL     1      -9.181   8.556  65.933  1.00  0.00    -0.182 C  
HETATM   19  C   UNL     1      -6.853   9.407  65.875  1.00  0.00    -0.089 C  
HETATM   20  C   UNL     1      -7.834   8.400  63.838  1.00  0.00    -0.151 C  
ENDBRANCH  16  17
ENDBRANCH  15  16
ENDBRANCH  14  15
ENDBRANCH  13  14
ENDBRANCH  12  13
ENDBRANCH  11  12
ENDBRANCH  10  11
ENDBRANCH   9  10
ENDBRANCH   8   9
ENDBRANCH   7   8
ENDBRANCH   6   7
ENDBRANCH   5   6
ENDBRANCH   4   5
ENDBRANCH   3   4
ENDBRANCH   2   3
TORSDOF 15
ENDMDL
MODEL      200
REMARK 921   NORMALIZED FREE ENERGY PREDICTED BY IDOCK:   -3.18 KCAL/MOL
REMARK 922        TOTAL FREE ENERGY PREDICTED BY IDOCK:   -7.66 KCAL/MOL
REMARK 923 INTER-LIGAND FREE ENERGY PREDICTED BY IDOCK:   -5.74 KCAL/MOL
REMARK 924 INTRA-LIGAND FREE ENERGY PREDICTED BY IDOCK:   -1.92 KCAL/MOL
REMARK 927      BINDING AFFINITY PREDICTED BY RF-SCORE:    0.00 PKD
ROOT
HETATM    1  C   UNL     1      -6.425  16.174  68.002  1.00  0.00    -0.143 C  
HETATM    2  C   UNL     1      -5.995  17.406  67.226  1.00  0.00    -0.163 C  
ENDROOT
BRANCH   2   3
HETATM    3  C   UNL     1      -6.995  17.734  66.122  1.00  0.00    -0.338 C  
BRANCH   3   4
HETATM    4  C   UNL     1      -7.212  19.239  66.008  1.00  0.00    -0.296 C  
BRANCH   4   5
HETATM    5  C   UNL     1      -7.199  19.890  67.387  1.00  0.00    -0.279 C  
BRANCH   5   6
HETATM    6  C   UNL     1      -8.562  19.768  68.052  1.00  0.00    -0.340 C  
BRANCH   6   7
HETATM    7  C   UNL     1      -9.677  19.931  67.027  1.00  0.00    -0.529 C  
BRANCH   7   8
HETATM    8  C   UNL     1     -10.676  18.792  67.150  1.00  0.00    -0.469 C  
BRANCH   8   9
HETATM    9  C   UNL     1     -10.174  17.740  68.126  1.00  0.00    -0.383 C  
BRANCH   9  10
HETATM   10  C   UNL     1     -10.591  16.354  67.655  1.00  0.00    -0.313 C  
BRANCH  10  11
HETATM   11  C   UNL     1     -10.355  16.205  66.164  1.00  0.00    -0.350 C  
BRANCH  11  12
HETATM   12  C   UNL     1      -9.430  15.029  65.880  1.00  0.00    -0.313 C  
BRANCH  12  13
HETATM   13  C   UNL     1      -9.762  13.886  66.823  1.00  0.00    -0.282 C  
BRANCH  13  14
HETATM   14  C   UNL     1      -9.899  12.560  66.082  1.00  0.00    -0.266 C  
BRANCH  14  15
HETATM   15  C   UNL     1      -9.345  11.390  66.898  1.00  0.00    -0.191 C  
BRANCH  15  16
HETATM   16  C   UNL     1     -10.420  10.340  67.192  1.00  0.00    -0.254 C  
BRANCH  16  17
HETATM   17  N   UNL     1      -9.871   9.035  67.782  1.00  0.00    -0.160 N  
HETATM   18  C   UNL     1      -8.360   8.954  67.641  1.00  0.00    -0.110 C  
HETATM   19  C   UNL     1     -10.498   7.880  66.992  1.00  0.00    -0.349 C  
HETATM   20  C   UNL     1     -10.271   8.880  69.245  1.00  0.00    -0.209 C  
ENDBRANCH  16  17
ENDBRANCH  15  16
ENDBRANCH  14  15
ENDBRANCH  13  14
ENDBRANCH  12  13
ENDBRANCH  11  12
ENDBRANCH  10  11
ENDBRANCH   9  10
ENDBRANCH   8   9
ENDBRANCH   7   8
ENDBRANCH   6   7
ENDBRANCH   5   6
ENDBRANCH   4   5
ENDBRANCH   3   4
ENDBRANCH   2   3
TORSDOF 15
ENDMDL
MODEL      201
REMARK 921   NORMALIZED FREE ENERGY PREDICTED BY IDOCK:   -3.17 KCAL/MOL
REMARK 922        TOTAL FREE ENERGY PREDICTED BY IDOCK:   -7.64 KCAL/MOL
REMARK 923 INTER-LIGAND FREE ENERGY PREDICTED BY IDOCK:   -6.55 KCAL/MOL
REMARK 924 INTRA-LIGAND FREE ENERGY PREDICTED BY IDOCK:   -1.09 KCAL/MOL
REMARK 927      BINDING AFFINITY PREDICTED BY RF-SCORE:    0.00 PKD
ROOT
HETATM    1  C   UNL     1      -9.664   9.629  68.487  1.00  0.00    -0.161 C  
HETATM    2  C   UNL     1      -9.730   8.224  69.060  1.00  0.00    -0.167 C  
ENDROOT
BRANCH   2   3
HETATM    3  C   UNL     1     -10.830   8.112  70.110  1.00  0.00    -0.241 C  
BRANCH   3   4
HETATM    4  C   UNL     1     -11.146   9.474  70.720  1.00  0.00    -0.390 C  
BRANCH   4   5
HETATM    5  C   UNL     1     -12.282   9.360  71.730  1.00  0.00    -0.465 C  
BRANCH   5   6
HETATM    6  C   UNL     1     -13.081  10.654  71.791  1.00  0.00    -0.571 C  
BRANCH   6   7
HETATM    7  C   UNL     1     -12.452  11.715  70.895  1.00  0.00    -0.440 C  
BRANCH   7   8
HETATM    8  C   UNL     1     -12.748  13.104  71.438  1.00  0.00    -0.390 C  
BRANCH   8   9
HETATM    9  C   UNL     1     -12.265  14.173  70.470  1.00  0.00    -0.431 C  
BRANCH   9  10
HETATM   10  C   UNL     1     -11.554  13.523  69.292  1.00  0.00    -0.369 C  
BRANCH  10  11
HETATM   11  C   UNL     1     -10.559  14.488  68.674  1.00  0.00    -0.255 C  
BRANCH  11  12
HETATM   12  C   UNL     1     -11.246  15.784  68.267  1.00  0.00    -0.356 C  
BRANCH  12  13
HETATM   13  C   UNL     1     -10.229  16.718  67.635  1.00  0.00    -0.289 C  
BRANCH  13  14
HETATM   14  C   UNL     1     -10.600  18.183  67.839  1.00  0.00    -0.389 C  
BRANCH  14  15
HETATM   15  C   UNL     1      -9.426  18.998  68.387  1.00  0.00    -0.417 C  
BRANCH  15  16
HETATM   16  C   UNL     1      -8.168  18.142  68.556  1.00  0.00    -0.307 C  
BRANCH  16  17
HETATM   17  N   UNL     1      -6.978  18.610  67.709  1.00  0.00    -0.213 N  
HETATM   18  C   UNL     1      -5.665  18.072  68.252  1.00  0.00    -0.161 C  
HETATM   19  C   UNL     1      -6.945  20.141  67.776  1.00  0.00    -0.278 C  
HETATM   20  C   UNL     1      -7.148  18.203  66.249  1.00  0.00    -0.263 C  
ENDBRANCH  16  17
ENDBRANCH  15  16
ENDBRANCH  14  15
ENDBRANCH  13  14
ENDBRANCH  12  13
ENDBRANCH  11  12
ENDBRANCH  10  11
ENDBRANCH   9  10
ENDBRANCH   8   9
ENDBRANCH   7   8
ENDBRANCH   6   7
ENDBRANCH   5   6
ENDBRANCH   4   5
ENDBRANCH   3   4
ENDBRANCH   2   3
TORSDOF 15
ENDMDL
MODEL      202
REMARK 921   NORMALIZED FREE ENERGY PREDICTED BY IDOCK:   -3.16 KCAL/MOL
REMARK 922        TOTAL FREE ENERGY PREDICTED BY IDOCK:   -7.62 KCAL/MOL
REMARK 923 INTER-LIGAND FREE ENERGY PREDICTED BY IDOCK:   -6.94 KCAL/MOL
REMARK 924 INTRA-LIGAND FREE ENERGY PREDICTED BY IDOCK:   -0.68 KCAL/MOL
REMARK 927      BINDING AFFINITY PREDICTED BY RF-SCORE:    0.00 PKD
ROOT
HETATM    1  C   UNL     1     -11.800  13.135  67.027  1.00  0.00    -0.435 C  
HETATM    2  C   UNL     1     -12.296  13.928  65.830  1.00  0.00    -0.517 C  
ENDROOT
BRANCH   2   3
HETATM    3  C   UNL     1     -11.141  14.309  64.910  1.00  0.00    -0.396 C  
BRANCH   3   4
HETATM    4  C   UNL     1     -10.892  15.813  64.937  1.00  0.00    -0.433 C  
BRANCH   4   5
HETATM    5  C   UNL     1     -10.193  16.220  66.229  1.00  0.00    -0.339 C  
BRANCH   5   6
HETATM    6  C   UNL     1     -10.205  17.733  66.395  1.00  0.00    -0.365 C  
BRANCH   6   7
HETATM    7  C   UNL     1     -10.738  18.118  67.769  1.00  0.00    -0.355 C  
BRANCH   7   8
HETATM    8  C   UNL     1     -10.275  17.114  68.813  1.00  0.00    -0.332 C  
BRANCH   8   9
HETATM    9  C   UNL     1     -11.369  16.099  69.104  1.00  0.00    -0.323 C  
BRANCH   9  10
HETATM   10  C   UNL     1     -11.645  16.047  70.600  1.00  0.00    -0.409 C  
BRANCH  10  11
HETATM   11  C   UNL     1     -11.544  14.622  71.110  1.00  0.00    -0.275 C  
BRANCH  11  12
HETATM   12  C   UNL     1     -12.709  14.297  72.036  1.00  0.00    -0.404 C  
BRANCH  12  13
HETATM   13  C   UNL     1     -13.461  13.092  71.498  1.00  0.00    -0.176 C  
BRANCH  13  14
HETATM   14  C   UNL     1     -13.111  11.818  72.261  1.00  0.00    -0.086 C  
BRANCH  14  15
HETATM   15  C   UNL     1     -12.752  10.668  71.317  1.00  0.00    -0.537 C  
BRANCH  15  16
HETATM   16  C   UNL     1     -12.944   9.303  71.983  1.00  0.00    -0.425 C  
BRANCH  16  17
HETATM   17  N   UNL     1     -11.962   8.229  71.499  1.00  0.00    -0.286 N  
HETATM   18  C   UNL     1     -11.271   8.650  70.212  1.00  0.00    -0.184 C  
HETATM   19  C   UNL     1     -12.775   6.959  71.224  1.00  0.00    -0.315 C  
HETATM   20  C   UNL     1     -10.927   7.906  72.570  1.00  0.00    -0.350 C  
ENDBRANCH  16  17
ENDBRANCH  15  16
ENDBRANCH  14  15
ENDBRANCH  13  14
ENDBRANCH  12  13
ENDBRANCH  11  12
ENDBRANCH  10  11
ENDBRANCH   9  10
ENDBRANCH   8   9
ENDBRANCH   7   8
ENDBRANCH   6   7
ENDBRANCH   5   6
ENDBRANCH   4   5
ENDBRANCH   3   4
ENDBRANCH   2   3
TORSDOF 15
ENDMDL
MODEL      203
REMARK 921   NORMALIZED FREE ENERGY PREDICTED BY IDOCK:   -3.15 KCAL/MOL
REMARK 922        TOTAL FREE ENERGY PREDICTED BY IDOCK:   -7.61 KCAL/MOL
REMARK 923 INTER-LIGAND FREE ENERGY PREDICTED BY IDOCK:   -6.53 KCAL/MOL
REMARK 924 INTRA-LIGAND FREE ENERGY PREDICTED BY IDOCK:   -1.09 KCAL/MOL
REMARK 927      BINDING AFFINITY PREDICTED BY RF-SCORE:    0.00 PKD
ROOT
HETATM    1  C   UNL     1      -7.346   8.292  63.331  1.00  0.00    -0.105 C  
HETATM    2  C   UNL     1      -8.495   8.658  62.407  1.00  0.00    -0.194 C  
ENDROOT
BRANCH   2   3
HETATM    3  C   UNL     1      -8.891  10.120  62.581  1.00  0.00    -0.245 C  
BRANCH   3   4
HETATM    4  C   UNL     1      -8.959  10.498  64.058  1.00  0.00    -0.235 C  
BRANCH   4   5
HETATM    5  C   UNL     1     -10.376  10.905  64.444  1.00  0.00    -0.430 C  
BRANCH   5   6
HETATM    6  C   UNL     1     -10.930  11.924  63.458  1.00  0.00    -0.505 C  
BRANCH   6   7
HETATM    7  C   UNL     1     -11.188  13.256  64.152  1.00  0.00    -0.412 C  
BRANCH   7   8
HETATM    8  C   UNL     1     -11.105  13.088  65.661  1.00  0.00    -0.301 C  
BRANCH   8   9
HETATM    9  C   UNL     1      -9.879  13.796  66.214  1.00  0.00    -0.314 C  
BRANCH   9  10
HETATM   10  C   UNL     1      -9.903  15.265  65.814  1.00  0.00    -0.395 C  
BRANCH  10  11
HETATM   11  C   UNL     1      -9.499  16.141  66.985  1.00  0.00    -0.233 C  
BRANCH  11  12
HETATM   12  C   UNL     1     -10.729  16.689  67.697  1.00  0.00    -0.306 C  
BRANCH  12  13
HETATM   13  C   UNL     1     -10.606  18.197  67.831  1.00  0.00    -0.389 C  
BRANCH  13  14
HETATM   14  C   UNL     1     -10.652  18.892  66.473  1.00  0.00    -0.462 C  
BRANCH  14  15
HETATM   15  C   UNL     1      -9.672  20.066  66.400  1.00  0.00    -0.557 C  
BRANCH  15  16
HETATM   16  C   UNL     1      -8.801  20.160  67.655  1.00  0.00    -0.309 C  
BRANCH  16  17
HETATM   17  N   UNL     1      -7.326  19.816  67.417  1.00  0.00    -0.244 N  
HETATM   18  C   UNL     1      -7.123  19.144  66.069  1.00  0.00    -0.266 C  
HETATM   19  C   UNL     1      -6.902  18.839  68.519  1.00  0.00    -0.264 C  
HETATM   20  C   UNL     1      -6.446  21.057  67.521  1.00  0.00    -0.359 C  
ENDBRANCH  16  17
ENDBRANCH  15  16
ENDBRANCH  14  15
ENDBRANCH  13  14
ENDBRANCH  12  13
ENDBRANCH  11  12
ENDBRANCH  10  11
ENDBRANCH   9  10
ENDBRANCH   8   9
ENDBRANCH   7   8
ENDBRANCH   6   7
ENDBRANCH   5   6
ENDBRANCH   4   5
ENDBRANCH   3   4
ENDBRANCH   2   3
TORSDOF 15
ENDMDL
MODEL      204
REMARK 921   NORMALIZED FREE ENERGY PREDICTED BY IDOCK:   -3.15 KCAL/MOL
REMARK 922        TOTAL FREE ENERGY PREDICTED BY IDOCK:   -7.61 KCAL/MOL
REMARK 923 INTER-LIGAND FREE ENERGY PREDICTED BY IDOCK:   -6.32 KCAL/MOL
REMARK 924 INTRA-LIGAND FREE ENERGY PREDICTED BY IDOCK:   -1.28 KCAL/MOL
REMARK 927      BINDING AFFINITY PREDICTED BY RF-SCORE:    0.00 PKD
ROOT
HETATM    1  C   UNL     1     -10.475  17.644  67.258  1.00  0.00    -0.338 C  
HETATM    2  C   UNL     1     -10.910  16.369  67.960  1.00  0.00    -0.342 C  
ENDROOT
BRANCH   2   3
HETATM    3  C   UNL     1     -10.560  15.140  67.127  1.00  0.00    -0.295 C  
BRANCH   3   4
HETATM    4  C   UNL     1     -10.249  15.525  65.685  1.00  0.00    -0.403 C  
BRANCH   4   5
HETATM    5  C   UNL     1     -11.208  14.831  64.724  1.00  0.00    -0.392 C  
BRANCH   5   6
HETATM    6  C   UNL     1     -12.219  13.988  65.490  1.00  0.00    -0.455 C  
BRANCH   6   7
HETATM    7  C   UNL     1     -12.441  12.652  64.792  1.00  0.00    -0.555 C  
BRANCH   7   8
HETATM    8  C   UNL     1     -11.535  12.537  63.575  1.00  0.00    -0.570 C  
BRANCH   8   9
HETATM    9  C   UNL     1     -10.685  11.279  63.657  1.00  0.00    -0.438 C  
BRANCH   9  10
HETATM   10  C   UNL     1      -9.990  11.209  65.009  1.00  0.00    -0.325 C  
BRANCH  10  11
HETATM   11  C   UNL     1      -9.922   9.774  65.498  1.00  0.00    -0.329 C  
BRANCH  11  12
HETATM   12  C   UNL     1      -9.079   9.675  66.763  1.00  0.00    -0.171 C  
BRANCH  12  13
HETATM   13  C   UNL     1      -9.439   8.403  67.511  1.00  0.00    -0.182 C  
BRANCH  13  14
HETATM   14  C   UNL     1     -10.648   7.706  66.895  1.00  0.00    -0.359 C  
BRANCH  14  15
HETATM   15  C   UNL     1     -10.704   6.223  67.269  1.00  0.00    -0.424 C  
BRANCH  15  16
HETATM   16  C   UNL     1      -9.307   5.640  67.497  1.00  0.00    -0.109 C  
BRANCH  16  17
HETATM   17  N   UNL     1      -9.129   4.963  68.861  1.00  0.00    -0.107 N  
HETATM   18  C   UNL     1      -7.800   5.336  69.497  1.00  0.00    -0.084 C  
HETATM   19  C   UNL     1      -9.150   3.448  68.624  1.00  0.00    -0.150 C  
HETATM   20  C   UNL     1     -10.277   5.310  69.803  1.00  0.00    -0.294 C  
ENDBRANCH  16  17
ENDBRANCH  15  16
ENDBRANCH  14  15
ENDBRANCH  13  14
ENDBRANCH  12  13
ENDBRANCH  11  12
ENDBRANCH  10  11
ENDBRANCH   9  10
ENDBRANCH   8   9
ENDBRANCH   7   8
ENDBRANCH   6   7
ENDBRANCH   5   6
ENDBRANCH   4   5
ENDBRANCH   3   4
ENDBRANCH   2   3
TORSDOF 15
ENDMDL
MODEL      205
REMARK 921   NORMALIZED FREE ENERGY PREDICTED BY IDOCK:   -3.14 KCAL/MOL
REMARK 922        TOTAL FREE ENERGY PREDICTED BY IDOCK:   -7.59 KCAL/MOL
REMARK 923 INTER-LIGAND FREE ENERGY PREDICTED BY IDOCK:   -6.17 KCAL/MOL
REMARK 924 INTRA-LIGAND FREE ENERGY PREDICTED BY IDOCK:   -1.42 KCAL/MOL
REMARK 927      BINDING AFFINITY PREDICTED BY RF-SCORE:    0.00 PKD
ROOT
HETATM    1  C   UNL     1      -5.653  20.835  65.653  1.00  0.00    -0.250 C  
HETATM    2  C   UNL     1      -6.293  21.172  66.988  1.00  0.00    -0.404 C  
ENDROOT
BRANCH   2   3
HETATM    3  C   UNL     1      -5.517  20.544  68.141  1.00  0.00    -0.276 C  
BRANCH   3   4
HETATM    4  C   UNL     1      -6.459  20.068  69.241  1.00  0.00    -0.360 C  
BRANCH   4   5
HETATM    5  C   UNL     1      -6.418  18.548  69.364  1.00  0.00    -0.257 C  
BRANCH   5   6
HETATM    6  C   UNL     1      -7.448  17.907  68.445  1.00  0.00    -0.272 C  
BRANCH   6   7
HETATM    7  C   UNL     1      -8.735  18.723  68.429  1.00  0.00    -0.369 C  
BRANCH   7   8
HETATM    8  C   UNL     1      -9.274  18.827  67.011  1.00  0.00    -0.305 C  
BRANCH   8   9
HETATM    9  C   UNL     1     -10.626  18.139  66.898  1.00  0.00    -0.326 C  
BRANCH   9  10
HETATM   10  C   UNL     1     -10.460  16.637  67.078  1.00  0.00    -0.283 C  
BRANCH  10  11
HETATM   11  C   UNL     1      -9.990  15.996  65.785  1.00  0.00    -0.382 C  
BRANCH  11  12
HETATM   12  C   UNL     1     -11.070  16.085  64.715  1.00  0.00    -0.378 C  
BRANCH  12  13
HETATM   13  C   UNL     1     -11.991  14.882  64.826  1.00  0.00    -0.364 C  
BRANCH  13  14
HETATM   14  C   UNL     1     -11.224  13.613  65.185  1.00  0.00    -0.318 C  
BRANCH  14  15
HETATM   15  C   UNL     1     -11.846  12.891  66.383  1.00  0.00    -0.478 C  
BRANCH  15  16
HETATM   16  C   UNL     1     -10.922  12.914  67.604  1.00  0.00    -0.247 C  
BRANCH  16  17
HETATM   17  N   UNL     1     -10.727  11.544  68.264  1.00  0.00    -0.200 N  
HETATM   18  C   UNL     1      -9.273  11.310  68.640  1.00  0.00    -0.161 C  
HETATM   19  C   UNL     1     -11.144  10.482  67.240  1.00  0.00    -0.213 C  
HETATM   20  C   UNL     1     -11.618  11.392  69.492  1.00  0.00    -0.331 C  
ENDBRANCH  16  17
ENDBRANCH  15  16
ENDBRANCH  14  15
ENDBRANCH  13  14
ENDBRANCH  12  13
ENDBRANCH  11  12
ENDBRANCH  10  11
ENDBRANCH   9  10
ENDBRANCH   8   9
ENDBRANCH   7   8
ENDBRANCH   6   7
ENDBRANCH   5   6
ENDBRANCH   4   5
ENDBRANCH   3   4
ENDBRANCH   2   3
TORSDOF 15
ENDMDL
MODEL      206
REMARK 921   NORMALIZED FREE ENERGY PREDICTED BY IDOCK:   -3.12 KCAL/MOL
REMARK 922        TOTAL FREE ENERGY PREDICTED BY IDOCK:   -7.55 KCAL/MOL
REMARK 923 INTER-LIGAND FREE ENERGY PREDICTED BY IDOCK:   -6.14 KCAL/MOL
REMARK 924 INTRA-LIGAND FREE ENERGY PREDICTED BY IDOCK:   -1.41 KCAL/MOL
REMARK 927      BINDING AFFINITY PREDICTED BY RF-SCORE:    0.00 PKD
ROOT
HETATM    1  C   UNL     1      -8.052  15.666  67.106  1.00  0.00    -0.247 C  
HETATM    2  C   UNL     1      -8.765  16.700  67.960  1.00  0.00    -0.194 C  
ENDROOT
BRANCH   2   3
HETATM    3  C   UNL     1      -9.532  16.034  69.097  1.00  0.00    -0.253 C  
BRANCH   3   4
HETATM    4  C   UNL     1     -11.010  16.408  69.054  1.00  0.00    -0.325 C  
BRANCH   4   5
HETATM    5  C   UNL     1     -11.833  15.443  69.901  1.00  0.00    -0.373 C  
BRANCH   5   6
HETATM    6  C   UNL     1     -11.921  15.931  71.340  1.00  0.00    -0.515 C  
BRANCH   6   7
HETATM    7  C   UNL     1     -13.154  15.357  72.027  1.00  0.00    -0.501 C  
BRANCH   7   8
HETATM    8  C   UNL     1     -13.642  14.122  71.286  1.00  0.00    -0.317 C  
BRANCH   8   9
HETATM    9  C   UNL     1     -13.902  12.981  72.257  1.00  0.00    -0.529 C  
BRANCH   9  10
HETATM   10  C   UNL     1     -13.092  11.759  71.850  1.00  0.00    -0.482 C  
BRANCH  10  11
HETATM   11  C   UNL     1     -12.349  12.021  70.553  1.00  0.00    -0.369 C  
BRANCH  11  12
HETATM   12  C   UNL     1     -12.128  10.723  69.787  1.00  0.00    -0.389 C  
BRANCH  12  13
HETATM   13  C   UNL     1     -10.755  10.748  69.139  1.00  0.00    -0.265 C  
BRANCH  13  14
HETATM   14  C   UNL     1     -10.479  12.078  68.445  1.00  0.00    -0.231 C  
BRANCH  14  15
HETATM   15  C   UNL     1      -9.959  11.881  67.019  1.00  0.00    -0.219 C  
BRANCH  15  16
HETATM   16  C   UNL     1      -8.721  10.982  66.983  1.00  0.00    -0.141 C  
BRANCH  16  17
HETATM   17  N   UNL     1      -8.839   9.797  66.016  1.00  0.00    -0.143 N  
HETATM   18  C   UNL     1      -7.476   9.358  65.507  1.00  0.00    -0.095 C  
HETATM   19  C   UNL     1      -9.680  10.266  64.823  1.00  0.00    -0.332 C  
HETATM   20  C   UNL     1      -9.559   8.622  66.669  1.00  0.00    -0.221 C  
ENDBRANCH  16  17
ENDBRANCH  15  16
ENDBRANCH  14  15
ENDBRANCH  13  14
ENDBRANCH  12  13
ENDBRANCH  11  12
ENDBRANCH  10  11
ENDBRANCH   9  10
ENDBRANCH   8   9
ENDBRANCH   7   8
ENDBRANCH   6   7
ENDBRANCH   5   6
ENDBRANCH   4   5
ENDBRANCH   3   4
ENDBRANCH   2   3
TORSDOF 15
ENDMDL
MODEL      207
REMARK 921   NORMALIZED FREE ENERGY PREDICTED BY IDOCK:   -3.12 KCAL/MOL
REMARK 922        TOTAL FREE ENERGY PREDICTED BY IDOCK:   -7.55 KCAL/MOL
REMARK 923 INTER-LIGAND FREE ENERGY PREDICTED BY IDOCK:   -6.22 KCAL/MOL
REMARK 924 INTRA-LIGAND FREE ENERGY PREDICTED BY IDOCK:   -1.33 KCAL/MOL
REMARK 927      BINDING AFFINITY PREDICTED BY RF-SCORE:    0.00 PKD
ROOT
HETATM    1  C   UNL     1     -11.182  16.247  69.437  1.00  0.00    -0.311 C  
HETATM    2  C   UNL     1     -10.244  17.247  68.782  1.00  0.00    -0.353 C  
ENDROOT
BRANCH   2   3
HETATM    3  C   UNL     1     -10.641  17.498  67.331  1.00  0.00    -0.311 C  
BRANCH   3   4
HETATM    4  C   UNL     1      -9.467  17.248  66.390  1.00  0.00    -0.282 C  
BRANCH   4   5
HETATM    5  C   UNL     1      -9.517  15.829  65.834  1.00  0.00    -0.377 C  
BRANCH   5   6
HETATM    6  C   UNL     1     -10.798  15.606  65.043  1.00  0.00    -0.468 C  
BRANCH   6   7
HETATM    7  C   UNL     1     -11.010  14.122  64.771  1.00  0.00    -0.409 C  
BRANCH   7   8
HETATM    8  C   UNL     1     -12.320  13.656  65.388  1.00  0.00    -0.510 C  
BRANCH   8   9
HETATM    9  C   UNL     1     -12.265  13.759  66.904  1.00  0.00    -0.408 C  
BRANCH   9  10
HETATM   10  C   UNL     1     -11.226  12.791  67.453  1.00  0.00    -0.337 C  
BRANCH  10  11
HETATM   11  C   UNL     1     -11.454  12.549  68.934  1.00  0.00    -0.355 C  
BRANCH  11  12
HETATM   12  C   UNL     1     -12.099  11.189  69.165  1.00  0.00    -0.352 C  
BRANCH  12  13
HETATM   13  C   UNL     1     -11.716  10.676  70.542  1.00  0.00    -0.451 C  
BRANCH  13  14
HETATM   14  C   UNL     1     -10.494   9.765  70.489  1.00  0.00    -0.366 C  
BRANCH  14  15
HETATM   15  C   UNL     1     -10.853   8.356  70.011  1.00  0.00    -0.225 C  
BRANCH  15  16
HETATM   16  C   UNL     1     -10.360   8.094  68.586  1.00  0.00    -0.200 C  
BRANCH  16  17
HETATM   17  N   UNL     1      -9.020   7.352  68.517  1.00  0.00    -0.129 N  
HETATM   18  C   UNL     1      -7.930   8.227  67.921  1.00  0.00    -0.123 C  
HETATM   19  C   UNL     1      -9.220   6.134  67.607  1.00  0.00    -0.107 C  
HETATM   20  C   UNL     1      -8.596   6.850  69.893  1.00  0.00    -0.141 C  
ENDBRANCH  16  17
ENDBRANCH  15  16
ENDBRANCH  14  15
ENDBRANCH  13  14
ENDBRANCH  12  13
ENDBRANCH  11  12
ENDBRANCH  10  11
ENDBRANCH   9  10
ENDBRANCH   8   9
ENDBRANCH   7   8
ENDBRANCH   6   7
ENDBRANCH   5   6
ENDBRANCH   4   5
ENDBRANCH   3   4
ENDBRANCH   2   3
TORSDOF 15
ENDMDL
MODEL      208
REMARK 921   NORMALIZED FREE ENERGY PREDICTED BY IDOCK:   -3.07 KCAL/MOL
REMARK 922        TOTAL FREE ENERGY PREDICTED BY IDOCK:   -7.46 KCAL/MOL
REMARK 923 INTER-LIGAND FREE ENERGY PREDICTED BY IDOCK:   -5.50 KCAL/MOL
REMARK 924 INTRA-LIGAND FREE ENERGY PREDICTED BY IDOCK:   -1.96 KCAL/MOL
REMARK 927      BINDING AFFINITY PREDICTED BY RF-SCORE:    0.00 PKD
ROOT
HETATM    1  C   UNL     1      -9.522   2.792  71.837  1.00  0.00    -0.200 C  
HETATM    2  C   UNL     1     -10.033   4.122  72.366  1.00  0.00    -0.229 C  
ENDROOT
BRANCH   2   3
HETATM    3  C   UNL     1      -9.054   5.248  72.051  1.00  0.00    -0.151 C  
BRANCH   3   4
HETATM    4  C   UNL     1      -9.792   6.541  71.724  1.00  0.00    -0.178 C  
BRANCH   4   5
HETATM    5  C   UNL     1     -10.264   6.540  70.274  1.00  0.00    -0.227 C  
BRANCH   5   6
HETATM    6  C   UNL     1     -11.785   6.552  70.204  1.00  0.00    -0.419 C  
BRANCH   6   7
HETATM    7  C   UNL     1     -12.380   7.019  71.527  1.00  0.00    -0.420 C  
BRANCH   7   8
HETATM    8  C   UNL     1     -13.878   7.239  71.381  1.00  0.00    -0.416 C  
BRANCH   8   9
HETATM    9  C   UNL     1     -14.256   8.651  71.798  1.00  0.00    -0.490 C  
BRANCH   9  10
HETATM   10  C   UNL     1     -13.022   9.397  72.284  1.00  0.00    -0.479 C  
BRANCH  10  11
HETATM   11  C   UNL     1     -13.050  10.838  71.809  1.00  0.00    -0.573 C  
BRANCH  11  12
HETATM   12  C   UNL     1     -12.689  10.926  70.332  1.00  0.00    -0.326 C  
BRANCH  12  13
HETATM   13  C   UNL     1     -11.283  10.390  70.123  1.00  0.00    -0.393 C  
BRANCH  13  14
HETATM   14  C   UNL     1     -10.956  10.217  68.643  1.00  0.00    -0.289 C  
BRANCH  14  15
HETATM   15  C   UNL     1      -9.636   9.473  68.434  1.00  0.00    -0.152 C  
BRANCH  15  16
HETATM   16  C   UNL     1      -9.068   9.702  67.031  1.00  0.00    -0.135 C  
BRANCH  16  17
HETATM   17  N   UNL     1      -7.871   8.806  66.689  1.00  0.00    -0.099 N  
HETATM   18  C   UNL     1      -8.126   7.997  65.428  1.00  0.00    -0.135 C  
HETATM   19  C   UNL     1      -7.678   7.838  67.861  1.00  0.00    -0.122 C  
HETATM   20  C   UNL     1      -6.595   9.626  66.537  1.00  0.00    -0.071 C  
ENDBRANCH  16  17
ENDBRANCH  15  16
ENDBRANCH  14  15
ENDBRANCH  13  14
ENDBRANCH  12  13
ENDBRANCH  11  12
ENDBRANCH  10  11
ENDBRANCH   9  10
ENDBRANCH   8   9
ENDBRANCH   7   8
ENDBRANCH   6   7
ENDBRANCH   5   6
ENDBRANCH   4   5
ENDBRANCH   3   4
ENDBRANCH   2   3
TORSDOF 15
ENDMDL
MODEL      209
REMARK 921   NORMALIZED FREE ENERGY PREDICTED BY IDOCK:   -3.07 KCAL/MOL
REMARK 922        TOTAL FREE ENERGY PREDICTED BY IDOCK:   -7.46 KCAL/MOL
REMARK 923 INTER-LIGAND FREE ENERGY PREDICTED BY IDOCK:   -6.58 KCAL/MOL
REMARK 924 INTRA-LIGAND FREE ENERGY PREDICTED BY IDOCK:   -0.88 KCAL/MOL
REMARK 927      BINDING AFFINITY PREDICTED BY RF-SCORE:    0.00 PKD
ROOT
HETATM    1  C   UNL     1     -12.046  16.313  73.149  1.00  0.00    -0.608 C  
HETATM    2  C   UNL     1     -12.937  15.139  73.518  1.00  0.00    -0.601 C  
ENDROOT
BRANCH   2   3
HETATM    3  C   UNL     1     -13.800  14.715  72.333  1.00  0.00    -0.580 C  
BRANCH   3   4
HETATM    4  C   UNL     1     -13.087  13.669  71.483  1.00  0.00    -0.431 C  
BRANCH   4   5
HETATM    5  C   UNL     1     -13.353  12.267  72.022  1.00  0.00    -0.491 C  
BRANCH   5   6
HETATM    6  C   UNL     1     -12.575  11.229  71.227  1.00  0.00    -0.487 C  
BRANCH   6   7
HETATM    7  C   UNL     1     -13.062   9.823  71.558  1.00  0.00    -0.506 C  
BRANCH   7   8
HETATM    8  C   UNL     1     -11.936   8.818  71.370  1.00  0.00    -0.367 C  
BRANCH   8   9
HETATM    9  C   UNL     1     -11.530   8.211  72.704  1.00  0.00    -0.454 C  
BRANCH   9  10
HETATM   10  C   UNL     1     -10.013   8.199  72.829  1.00  0.00    -0.361 C  
BRANCH  10  11
HETATM   11  C   UNL     1      -9.370   8.664  71.536  1.00  0.00    -0.319 C  
BRANCH  11  12
HETATM   12  C   UNL     1      -8.517   7.558  70.930  1.00  0.00    -0.125 C  
BRANCH  12  13
HETATM   13  C   UNL     1      -9.301   6.257  70.934  1.00  0.00    -0.171 C  
BRANCH  13  14
HETATM   14  C   UNL     1     -10.019   6.023  69.609  1.00  0.00    -0.217 C  
BRANCH  14  15
HETATM   15  C   UNL     1      -9.792   4.605  69.079  1.00  0.00    -0.224 C  
BRANCH  15  16
HETATM   16  C   UNL     1      -9.476   4.600  67.581  1.00  0.00    -0.153 C  
BRANCH  16  17
HETATM   17  N   UNL     1      -8.718   3.353  67.109  1.00  0.00    -0.113 N  
HETATM   18  C   UNL     1      -8.891   3.131  65.615  1.00  0.00    -0.137 C  
HETATM   19  C   UNL     1      -9.308   2.151  67.854  1.00  0.00    -0.176 C  
HETATM   20  C   UNL     1      -7.236   3.445  67.457  1.00  0.00    -0.058 C  
ENDBRANCH  16  17
ENDBRANCH  15  16
ENDBRANCH  14  15
ENDBRANCH  13  14
ENDBRANCH  12  13
ENDBRANCH  11  12
ENDBRANCH  10  11
ENDBRANCH   9  10
ENDBRANCH   8   9
ENDBRANCH   7   8
ENDBRANCH   6   7
ENDBRANCH   5   6
ENDBRANCH   4   5
ENDBRANCH   3   4
ENDBRANCH   2   3
TORSDOF 15
ENDMDL
MODEL      210
REMARK 921   NORMALIZED FREE ENERGY PREDICTED BY IDOCK:   -3.07 KCAL/MOL
REMARK 922        TOTAL FREE ENERGY PREDICTED BY IDOCK:   -7.45 KCAL/MOL
REMARK 923 INTER-LIGAND FREE ENERGY PREDICTED BY IDOCK:   -5.89 KCAL/MOL
REMARK 924 INTRA-LIGAND FREE ENERGY PREDICTED BY IDOCK:   -1.56 KCAL/MOL
REMARK 927      BINDING AFFINITY PREDICTED BY RF-SCORE:    0.00 PKD
ROOT
HETATM    1  C   UNL     1     -11.949  15.590  70.630  1.00  0.00    -0.416 C  
HETATM    2  C   UNL     1     -10.757  15.760  69.703  1.00  0.00    -0.292 C  
ENDROOT
BRANCH   2   3
HETATM    3  C   UNL     1     -11.212  16.010  68.269  1.00  0.00    -0.350 C  
BRANCH   3   4
HETATM    4  C   UNL     1     -10.351  15.234  67.277  1.00  0.00    -0.264 C  
BRANCH   4   5
HETATM    5  C   UNL     1     -11.221  14.360  66.380  1.00  0.00    -0.345 C  
BRANCH   5   6
HETATM    6  C   UNL     1     -11.690  13.120  67.129  1.00  0.00    -0.430 C  
BRANCH   6   7
HETATM    7  C   UNL     1     -10.500  12.282  67.579  1.00  0.00    -0.230 C  
BRANCH   7   8
HETATM    8  C   UNL     1     -10.769  11.680  68.950  1.00  0.00    -0.244 C  
BRANCH   8   9
HETATM    9  C   UNL     1     -11.974  12.342  69.600  1.00  0.00    -0.347 C  
BRANCH   9  10
HETATM   10  C   UNL     1     -12.204  11.754  70.985  1.00  0.00    -0.303 C  
BRANCH  10  11
HETATM   11  C   UNL     1     -12.996  10.463  70.889  1.00  0.00    -0.475 C  
BRANCH  11  12
HETATM   12  C   UNL     1     -12.681   9.549  72.066  1.00  0.00    -0.479 C  
BRANCH  12  13
HETATM   13  C   UNL     1     -11.735   8.450  71.613  1.00  0.00    -0.354 C  
BRANCH  13  14
HETATM   14  C   UNL     1     -10.278   8.806  71.891  1.00  0.00    -0.415 C  
BRANCH  14  15
HETATM   15  C   UNL     1      -9.403   7.558  72.033  1.00  0.00    -0.165 C  
BRANCH  15  16
HETATM   16  C   UNL     1     -10.134   6.295  71.570  1.00  0.00    -0.190 C  
BRANCH  16  17
HETATM   17  N   UNL     1      -9.268   5.348  70.728  1.00  0.00    -0.147 N  
HETATM   18  C   UNL     1      -9.942   5.005  69.410  1.00  0.00    -0.220 C  
HETATM   19  C   UNL     1      -9.087   4.058  71.535  1.00  0.00    -0.120 C  
HETATM   20  C   UNL     1      -7.889   5.944  70.472  1.00  0.00    -0.101 C  
ENDBRANCH  16  17
ENDBRANCH  15  16
ENDBRANCH  14  15
ENDBRANCH  13  14
ENDBRANCH  12  13
ENDBRANCH  11  12
ENDBRANCH  10  11
ENDBRANCH   9  10
ENDBRANCH   8   9
ENDBRANCH   7   8
ENDBRANCH   6   7
ENDBRANCH   5   6
ENDBRANCH   4   5
ENDBRANCH   3   4
ENDBRANCH   2   3
TORSDOF 15
ENDMDL
MODEL      211
REMARK 921   NORMALIZED FREE ENERGY PREDICTED BY IDOCK:   -3.06 KCAL/MOL
REMARK 922        TOTAL FREE ENERGY PREDICTED BY IDOCK:   -7.44 KCAL/MOL
REMARK 923 INTER-LIGAND FREE ENERGY PREDICTED BY IDOCK:   -5.41 KCAL/MOL
REMARK 924 INTRA-LIGAND FREE ENERGY PREDICTED BY IDOCK:   -2.03 KCAL/MOL
REMARK 927      BINDING AFFINITY PREDICTED BY RF-SCORE:    0.00 PKD
ROOT
HETATM    1  C   UNL     1      -8.056   8.624  65.296  1.00  0.00    -0.136 C  
HETATM    2  C   UNL     1      -7.357   8.181  66.570  1.00  0.00    -0.081 C  
ENDROOT
BRANCH   2   3
HETATM    3  C   UNL     1      -7.789   6.774  66.969  1.00  0.00    -0.104 C  
BRANCH   3   4
HETATM    4  C   UNL     1      -8.726   6.809  68.173  1.00  0.00    -0.122 C  
BRANCH   4   5
HETATM    5  C   UNL     1     -10.163   6.532  67.744  1.00  0.00    -0.201 C  
BRANCH   5   6
HETATM    6  C   UNL     1     -11.071   6.405  68.958  1.00  0.00    -0.424 C  
BRANCH   6   7
HETATM    7  C   UNL     1     -10.532   5.357  69.924  1.00  0.00    -0.378 C  
BRANCH   7   8
HETATM    8  C   UNL     1     -10.498   5.913  71.339  1.00  0.00    -0.291 C  
BRANCH   8   9
HETATM    9  C   UNL     1     -11.871   6.420  71.750  1.00  0.00    -0.374 C  
BRANCH   9  10
HETATM   10  C   UNL     1     -11.765   7.847  72.268  1.00  0.00    -0.408 C  
BRANCH  10  11
HETATM   11  C   UNL     1     -10.459   8.478  71.822  1.00  0.00    -0.370 C  
BRANCH  11  12
HETATM   12  C   UNL     1     -10.721   9.711  70.967  1.00  0.00    -0.393 C  
BRANCH  12  13
HETATM   13  C   UNL     1      -9.536   9.950  70.049  1.00  0.00    -0.246 C  
BRANCH  13  14
HETATM   14  C   UNL     1      -9.972  10.152  68.601  1.00  0.00    -0.181 C  
BRANCH  14  15
HETATM   15  C   UNL     1      -9.476  11.485  68.036  1.00  0.00    -0.181 C  
BRANCH  15  16
HETATM   16  C   UNL     1     -10.561  12.564  68.088  1.00  0.00    -0.226 C  
BRANCH  16  17
HETATM   17  N   UNL     1     -10.737  13.335  66.774  1.00  0.00    -0.275 N  
HETATM   18  C   UNL     1     -11.986  14.200  66.800  1.00  0.00    -0.447 C  
HETATM   19  C   UNL     1     -10.884  12.298  65.654  1.00  0.00    -0.285 C  
HETATM   20  C   UNL     1      -9.513  14.191  66.469  1.00  0.00    -0.285 C  
ENDBRANCH  16  17
ENDBRANCH  15  16
ENDBRANCH  14  15
ENDBRANCH  13  14
ENDBRANCH  12  13
ENDBRANCH  11  12
ENDBRANCH  10  11
ENDBRANCH   9  10
ENDBRANCH   8   9
ENDBRANCH   7   8
ENDBRANCH   6   7
ENDBRANCH   5   6
ENDBRANCH   4   5
ENDBRANCH   3   4
ENDBRANCH   2   3
TORSDOF 15
ENDMDL
MODEL      212
REMARK 921   NORMALIZED FREE ENERGY PREDICTED BY IDOCK:   -3.05 KCAL/MOL
REMARK 922        TOTAL FREE ENERGY PREDICTED BY IDOCK:   -7.42 KCAL/MOL
REMARK 923 INTER-LIGAND FREE ENERGY PREDICTED BY IDOCK:   -5.56 KCAL/MOL
REMARK 924 INTRA-LIGAND FREE ENERGY PREDICTED BY IDOCK:   -1.86 KCAL/MOL
REMARK 927      BINDING AFFINITY PREDICTED BY RF-SCORE:    0.00 PKD
ROOT
HETATM    1  C   UNL     1     -13.244   9.532  72.319  1.00  0.00    -0.507 C  
HETATM    2  C   UNL     1     -14.346   8.768  71.605  1.00  0.00    -0.387 C  
ENDROOT
BRANCH   2   3
HETATM    3  C   UNL     1     -14.091   7.266  71.654  1.00  0.00    -0.522 C  
BRANCH   3   4
HETATM    4  C   UNL     1     -12.739   6.919  71.041  1.00  0.00    -0.269 C  
BRANCH   4   5
HETATM    5  C   UNL     1     -11.899   6.102  72.017  1.00  0.00    -0.336 C  
BRANCH   5   6
HETATM    6  C   UNL     1     -10.656   5.554  71.330  1.00  0.00    -0.310 C  
BRANCH   6   7
HETATM    7  C   UNL     1      -9.396   6.042  72.034  1.00  0.00    -0.158 C  
BRANCH   7   8
HETATM    8  C   UNL     1      -9.751   7.069  73.098  1.00  0.00    -0.215 C  
BRANCH   8   9
HETATM    9  C   UNL     1      -9.437   8.475  72.614  1.00  0.00    -0.295 C  
BRANCH   9  10
HETATM   10  C   UNL     1      -8.376   8.424  71.524  1.00  0.00    -0.196 C  
BRANCH  10  11
HETATM   11  C   UNL     1      -8.746   9.347  70.378  1.00  0.00    -0.278 C  
BRANCH  11  12
HETATM   12  C   UNL     1     -10.224   9.216  70.036  1.00  0.00    -0.229 C  
BRANCH  12  13
HETATM   13  C   UNL     1     -10.807  10.594  69.777  1.00  0.00    -0.317 C  
BRANCH  13  14
HETATM   14  C   UNL     1     -11.366  10.717  68.364  1.00  0.00    -0.367 C  
BRANCH  14  15
HETATM   15  C   UNL     1     -10.258  10.913  67.327  1.00  0.00    -0.242 C  
BRANCH  15  16
HETATM   16  C   UNL     1     -10.342   9.879  66.200  1.00  0.00    -0.153 C  
BRANCH  16  17
HETATM   17  N   UNL     1      -9.044   9.723  65.400  1.00  0.00    -0.187 N  
HETATM   18  C   UNL     1      -7.955  10.647  65.922  1.00  0.00    -0.157 C  
HETATM   19  C   UNL     1      -9.354  10.105  63.948  1.00  0.00    -0.287 C  
HETATM   20  C   UNL     1      -8.557   8.278  65.415  1.00  0.00    -0.151 C  
ENDBRANCH  16  17
ENDBRANCH  15  16
ENDBRANCH  14  15
ENDBRANCH  13  14
ENDBRANCH  12  13
ENDBRANCH  11  12
ENDBRANCH  10  11
ENDBRANCH   9  10
ENDBRANCH   8   9
ENDBRANCH   7   8
ENDBRANCH   6   7
ENDBRANCH   5   6
ENDBRANCH   4   5
ENDBRANCH   3   4
ENDBRANCH   2   3
TORSDOF 15
ENDMDL
MODEL      213
REMARK 921   NORMALIZED FREE ENERGY PREDICTED BY IDOCK:   -3.05 KCAL/MOL
REMARK 922        TOTAL FREE ENERGY PREDICTED BY IDOCK:   -7.42 KCAL/MOL
REMARK 923 INTER-LIGAND FREE ENERGY PREDICTED BY IDOCK:   -5.70 KCAL/MOL
REMARK 924 INTRA-LIGAND FREE ENERGY PREDICTED BY IDOCK:   -1.72 KCAL/MOL
REMARK 927      BINDING AFFINITY PREDICTED BY RF-SCORE:    0.00 PKD
ROOT
HETATM    1  C   UNL     1      -6.860  19.563  65.384  1.00  0.00    -0.284 C  
HETATM    2  C   UNL     1      -6.299  18.894  66.628  1.00  0.00    -0.203 C  
ENDROOT
BRANCH   2   3
HETATM    3  C   UNL     1      -6.696  17.422  66.682  1.00  0.00    -0.264 C  
BRANCH   3   4
HETATM    4  C   UNL     1      -7.154  17.030  68.083  1.00  0.00    -0.178 C  
BRANCH   4   5
HETATM    5  C   UNL     1      -8.290  17.934  68.550  1.00  0.00    -0.305 C  
BRANCH   5   6
HETATM    6  C   UNL     1      -9.633  17.403  68.068  1.00  0.00    -0.276 C  
BRANCH   6   7
HETATM    7  C   UNL     1     -10.387  18.475  67.292  1.00  0.00    -0.430 C  
BRANCH   7   8
HETATM    8  C   UNL     1     -10.652  18.007  65.870  1.00  0.00    -0.225 C  
BRANCH   8   9
HETATM    9  C   UNL     1     -10.157  16.583  65.673  1.00  0.00    -0.278 C  
BRANCH   9  10
HETATM   10  C   UNL     1     -11.158  15.795  64.840  1.00  0.00    -0.411 C  
BRANCH  10  11
HETATM   11  C   UNL     1     -11.393  14.424  65.448  1.00  0.00    -0.339 C  
BRANCH  11  12
HETATM   12  C   UNL     1     -11.857  14.547  66.893  1.00  0.00    -0.399 C  
BRANCH  12  13
HETATM   13  C   UNL     1     -11.015  13.640  67.773  1.00  0.00    -0.276 C  
BRANCH  13  14
HETATM   14  C   UNL     1     -11.096  12.184  67.328  1.00  0.00    -0.341 C  
BRANCH  14  15
HETATM   15  C   UNL     1     -11.618  11.275  68.443  1.00  0.00    -0.378 C  
BRANCH  15  16
HETATM   16  C   UNL     1     -10.772  10.007  68.588  1.00  0.00    -0.226 C  
BRANCH  16  17
HETATM   17  N   UNL     1     -10.729   9.446  70.014  1.00  0.00    -0.226 N  
HETATM   18  C   UNL     1     -11.558  10.291  70.968  1.00  0.00    -0.343 C  
HETATM   19  C   UNL     1      -9.267   9.482  70.474  1.00  0.00    -0.225 C  
HETATM   20  C   UNL     1     -11.202   7.997  70.052  1.00  0.00    -0.090 C  
ENDBRANCH  16  17
ENDBRANCH  15  16
ENDBRANCH  14  15
ENDBRANCH  13  14
ENDBRANCH  12  13
ENDBRANCH  11  12
ENDBRANCH  10  11
ENDBRANCH   9  10
ENDBRANCH   8   9
ENDBRANCH   7   8
ENDBRANCH   6   7
ENDBRANCH   5   6
ENDBRANCH   4   5
ENDBRANCH   3   4
ENDBRANCH   2   3
TORSDOF 15
ENDMDL
MODEL      214
REMARK 921   NORMALIZED FREE ENERGY PREDICTED BY IDOCK:   -3.03 KCAL/MOL
REMARK 922        TOTAL FREE ENERGY PREDICTED BY IDOCK:   -7.37 KCAL/MOL
REMARK 923 INTER-LIGAND FREE ENERGY PREDICTED BY IDOCK:   -5.31 KCAL/MOL
REMARK 924 INTRA-LIGAND FREE ENERGY PREDICTED BY IDOCK:   -2.07 KCAL/MOL
REMARK 927      BINDING AFFINITY PREDICTED BY RF-SCORE:    0.00 PKD
ROOT
HETATM    1  C   UNL     1     -12.217   8.438  71.732  1.00  0.00    -0.377 C  
HETATM    2  C   UNL     1     -10.946   8.129  72.503  1.00  0.00    -0.439 C  
ENDROOT
BRANCH   2   3
HETATM    3  C   UNL     1      -9.753   8.875  71.914  1.00  0.00    -0.349 C  
BRANCH   3   4
HETATM    4  C   UNL     1      -8.561   7.942  71.727  1.00  0.00    -0.151 C  
BRANCH   4   5
HETATM    5  C   UNL     1      -8.848   6.574  72.337  1.00  0.00    -0.133 C  
BRANCH   5   6
HETATM    6  C   UNL     1      -8.584   5.468  71.326  1.00  0.00    -0.127 C  
BRANCH   6   7
HETATM    7  C   UNL     1      -8.964   5.923  69.922  1.00  0.00    -0.144 C  
BRANCH   7   8
HETATM    8  C   UNL     1     -10.445   5.684  69.674  1.00  0.00    -0.374 C  
BRANCH   8   9
HETATM    9  C   UNL     1     -10.988   6.678  68.660  1.00  0.00    -0.317 C  
BRANCH   9  10
HETATM   10  C   UNL     1      -9.904   7.678  68.283  1.00  0.00    -0.181 C  
BRANCH  10  11
HETATM   11  C   UNL     1     -10.486   8.801  67.444  1.00  0.00    -0.349 C  
BRANCH  11  12
HETATM   12  C   UNL     1     -11.253   9.785  68.318  1.00  0.00    -0.074 C  
BRANCH  12  13
HETATM   13  C   UNL     1     -11.085  11.189  67.764  1.00  0.00    -0.344 C  
BRANCH  13  14
HETATM   14  C   UNL     1     -10.692  12.184  68.851  1.00  0.00    -0.212 C  
BRANCH  14  15
HETATM   15  C   UNL     1     -11.863  13.086  69.248  1.00  0.00    -0.370 C  
BRANCH  15  16
HETATM   16  C   UNL     1     -12.100  13.079  70.761  1.00  0.00    -0.179 C  
BRANCH  16  17
HETATM   17  N   UNL     1     -12.748  14.362  71.296  1.00  0.00    -0.323 N  
HETATM   18  C   UNL     1     -13.054  15.340  70.173  1.00  0.00     0.005 C  
HETATM   19  C   UNL     1     -11.745  15.015  72.253  1.00  0.00    -0.330 C  
HETATM   20  C   UNL     1     -14.018  14.051  72.080  1.00  0.00    -0.538 C  
ENDBRANCH  16  17
ENDBRANCH  15  16
ENDBRANCH  14  15
ENDBRANCH  13  14
ENDBRANCH  12  13
ENDBRANCH  11  12
ENDBRANCH  10  11
ENDBRANCH   9  10
ENDBRANCH   8   9
ENDBRANCH   7   8
ENDBRANCH   6   7
ENDBRANCH   5   6
ENDBRANCH   4   5
ENDBRANCH   3   4
ENDBRANCH   2   3
TORSDOF 15
ENDMDL
MODEL      215
REMARK 921   NORMALIZED FREE ENERGY PREDICTED BY IDOCK:   -3.03 KCAL/MOL
REMARK 922        TOTAL FREE ENERGY PREDICTED BY IDOCK:   -7.37 KCAL/MOL
REMARK 923 INTER-LIGAND FREE ENERGY PREDICTED BY IDOCK:   -5.81 KCAL/MOL
REMARK 924 INTRA-LIGAND FREE ENERGY PREDICTED BY IDOCK:   -1.56 KCAL/MOL
REMARK 927      BINDING AFFINITY PREDICTED BY RF-SCORE:    0.00 PKD
ROOT
HETATM    1  C   UNL     1      -7.173  15.324  67.676  1.00  0.00    -0.204 C  
HETATM    2  C   UNL     1      -7.220  16.478  66.690  1.00  0.00    -0.246 C  
ENDROOT
BRANCH   2   3
HETATM    3  C   UNL     1      -8.624  17.068  66.606  1.00  0.00    -0.285 C  
BRANCH   3   4
HETATM    4  C   UNL     1      -9.340  16.972  67.949  1.00  0.00    -0.240 C  
BRANCH   4   5
HETATM    5  C   UNL     1     -10.738  16.387  67.772  1.00  0.00    -0.328 C  
BRANCH   5   6
HETATM    6  C   UNL     1     -10.743  15.327  66.680  1.00  0.00    -0.309 C  
BRANCH   6   7
HETATM    7  C   UNL     1     -11.843  14.304  66.931  1.00  0.00    -0.458 C  
BRANCH   7   8
HETATM    8  C   UNL     1     -12.680  14.113  65.675  1.00  0.00    -0.469 C  
BRANCH   8   9
HETATM    9  C   UNL     1     -12.612  12.670  65.199  1.00  0.00    -0.459 C  
BRANCH   9  10
HETATM   10  C   UNL     1     -12.321  12.629  63.705  1.00  0.00    -0.568 C  
BRANCH  10  11
HETATM   11  C   UNL     1     -11.197  11.654  63.409  1.00  0.00    -0.401 C  
BRANCH  11  12
HETATM   12  C   UNL     1      -9.913  12.084  64.106  1.00  0.00    -0.289 C  
BRANCH  12  13
HETATM   13  C   UNL     1      -9.630  11.145  65.267  1.00  0.00    -0.268 C  
BRANCH  13  14
HETATM   14  C   UNL     1      -9.163  11.902  66.507  1.00  0.00    -0.216 C  
BRANCH  14  15
HETATM   15  C   UNL     1      -8.989  10.972  67.710  1.00  0.00    -0.140 C  
BRANCH  15  16
HETATM   16  C   UNL     1     -10.295  10.259  68.072  1.00  0.00    -0.181 C  
BRANCH  16  17
HETATM   17  N   UNL     1     -10.099   8.834  68.604  1.00  0.00    -0.184 N  
HETATM   18  C   UNL     1     -10.777   8.646  69.952  1.00  0.00    -0.225 C  
HETATM   19  C   UNL     1      -8.592   8.616  68.780  1.00  0.00    -0.130 C  
HETATM   20  C   UNL     1     -10.614   7.799  67.610  1.00  0.00    -0.213 C  
ENDBRANCH  16  17
ENDBRANCH  15  16
ENDBRANCH  14  15
ENDBRANCH  13  14
ENDBRANCH  12  13
ENDBRANCH  11  12
ENDBRANCH  10  11
ENDBRANCH   9  10
ENDBRANCH   8   9
ENDBRANCH   7   8
ENDBRANCH   6   7
ENDBRANCH   5   6
ENDBRANCH   4   5
ENDBRANCH   3   4
ENDBRANCH   2   3
TORSDOF 15
ENDMDL
MODEL      216
REMARK 921   NORMALIZED FREE ENERGY PREDICTED BY IDOCK:   -3.02 KCAL/MOL
REMARK 922        TOTAL FREE ENERGY PREDICTED BY IDOCK:   -7.36 KCAL/MOL
REMARK 923 INTER-LIGAND FREE ENERGY PREDICTED BY IDOCK:   -5.73 KCAL/MOL
REMARK 924 INTRA-LIGAND FREE ENERGY PREDICTED BY IDOCK:   -1.62 KCAL/MOL
REMARK 927      BINDING AFFINITY PREDICTED BY RF-SCORE:    0.00 PKD
ROOT
HETATM    1  C   UNL     1     -10.389  10.986  64.448  1.00  0.00    -0.424 C  
HETATM    2  C   UNL     1      -9.328   9.899  64.424  1.00  0.00    -0.326 C  
ENDROOT
BRANCH   2   3
HETATM    3  C   UNL     1      -8.024  10.394  65.040  1.00  0.00    -0.126 C  
BRANCH   3   4
HETATM    4  C   UNL     1      -7.656   9.578  66.274  1.00  0.00    -0.097 C  
BRANCH   4   5
HETATM    5  C   UNL     1      -8.588   8.381  66.425  1.00  0.00    -0.139 C  
BRANCH   5   6
HETATM    6  C   UNL     1      -9.212   8.356  67.813  1.00  0.00    -0.142 C  
BRANCH   6   7
HETATM    7  C   UNL     1     -10.506   9.159  67.835  1.00  0.00    -0.293 C  
BRANCH   7   8
HETATM    8  C   UNL     1     -10.368  10.354  68.765  1.00  0.00    -0.213 C  
BRANCH   8   9
HETATM    9  C   UNL     1     -10.283  11.647  67.969  1.00  0.00    -0.202 C  
BRANCH   9  10
HETATM   10  C   UNL     1     -11.671  12.251  67.811  1.00  0.00    -0.403 C  
BRANCH  10  11
HETATM   11  C   UNL     1     -11.833  13.457  68.717  1.00  0.00    -0.386 C  
BRANCH  11  12
HETATM   12  C   UNL     1     -11.730  14.750  67.918  1.00  0.00    -0.367 C  
BRANCH  12  13
HETATM   13  C   UNL     1     -10.291  15.236  67.927  1.00  0.00    -0.246 C  
BRANCH  13  14
HETATM   14  C   UNL     1      -9.740  15.400  66.514  1.00  0.00    -0.292 C  
BRANCH  14  15
HETATM   15  C   UNL     1      -9.381  16.856  66.207  1.00  0.00    -0.292 C  
BRANCH  15  16
HETATM   16  C   UNL     1      -9.180  17.675  67.485  1.00  0.00    -0.243 C  
BRANCH  16  17
HETATM   17  N   UNL     1      -9.507  19.165  67.329  1.00  0.00    -0.307 N  
HETATM   18  C   UNL     1     -10.260  19.698  68.537  1.00  0.00    -0.421 C  
HETATM   19  C   UNL     1     -10.403  19.307  66.093  1.00  0.00    -0.494 C  
HETATM   20  C   UNL     1      -8.244  19.985  67.095  1.00  0.00    -0.322 C  
ENDBRANCH  16  17
ENDBRANCH  15  16
ENDBRANCH  14  15
ENDBRANCH  13  14
ENDBRANCH  12  13
ENDBRANCH  11  12
ENDBRANCH  10  11
ENDBRANCH   9  10
ENDBRANCH   8   9
ENDBRANCH   7   8
ENDBRANCH   6   7
ENDBRANCH   5   6
ENDBRANCH   4   5
ENDBRANCH   3   4
ENDBRANCH   2   3
TORSDOF 15
ENDMDL
MODEL      217
REMARK 921   NORMALIZED FREE ENERGY PREDICTED BY IDOCK:   -3.01 KCAL/MOL
REMARK 922        TOTAL FREE ENERGY PREDICTED BY IDOCK:   -7.35 KCAL/MOL
REMARK 923 INTER-LIGAND FREE ENERGY PREDICTED BY IDOCK:   -5.74 KCAL/MOL
REMARK 924 INTRA-LIGAND FREE ENERGY PREDICTED BY IDOCK:   -1.61 KCAL/MOL
REMARK 927      BINDING AFFINITY PREDICTED BY RF-SCORE:    0.00 PKD
ROOT
HETATM    1  C   UNL     1     -11.892   8.522  71.812  1.00  0.00    -0.395 C  
HETATM    2  C   UNL     1     -11.050   7.858  72.889  1.00  0.00    -0.442 C  
ENDROOT
BRANCH   2   3
HETATM    3  C   UNL     1      -9.574   8.197  72.715  1.00  0.00    -0.353 C  
BRANCH   3   4
HETATM    4  C   UNL     1      -8.690   7.017  73.106  1.00  0.00    -0.148 C  
BRANCH   4   5
HETATM    5  C   UNL     1      -9.543   5.821  73.516  1.00  0.00    -0.140 C  
BRANCH   5   6
HETATM    6  C   UNL     1      -9.269   4.630  72.609  1.00  0.00    -0.144 C  
BRANCH   6   7
HETATM    7  C   UNL     1      -9.194   5.071  71.152  1.00  0.00    -0.187 C  
BRANCH   7   8
HETATM    8  C   UNL     1     -10.589   5.138  70.551  1.00  0.00    -0.221 C  
BRANCH   8   9
HETATM    9  C   UNL     1     -10.570   5.900  69.235  1.00  0.00    -0.379 C  
BRANCH   9  10
HETATM   10  C   UNL     1      -9.484   6.966  69.268  1.00  0.00    -0.147 C  
BRANCH  10  11
HETATM   11  C   UNL     1      -9.145   7.423  67.861  1.00  0.00    -0.129 C  
BRANCH  11  12
HETATM   12  C   UNL     1     -10.336   8.123  67.220  1.00  0.00    -0.373 C  
BRANCH  12  13
HETATM   13  C   UNL     1      -9.842   9.074  66.144  1.00  0.00    -0.349 C  
BRANCH  13  14
HETATM   14  C   UNL     1      -9.682  10.495  66.674  1.00  0.00    -0.232 C  
BRANCH  14  15
HETATM   15  C   UNL     1     -10.839  11.399  66.242  1.00  0.00    -0.318 C  
BRANCH  15  16
HETATM   16  C   UNL     1     -10.436  12.877  66.237  1.00  0.00    -0.270 C  
BRANCH  16  17
HETATM   17  N   UNL     1     -11.116  13.703  65.138  1.00  0.00    -0.308 N  
HETATM   18  C   UNL     1     -12.562  14.012  65.490  1.00  0.00    -0.516 C  
HETATM   19  C   UNL     1     -11.093  12.863  63.856  1.00  0.00    -0.411 C  
HETATM   20  C   UNL     1     -10.354  14.996  64.870  1.00  0.00    -0.282 C  
ENDBRANCH  16  17
ENDBRANCH  15  16
ENDBRANCH  14  15
ENDBRANCH  13  14
ENDBRANCH  12  13
ENDBRANCH  11  12
ENDBRANCH  10  11
ENDBRANCH   9  10
ENDBRANCH   8   9
ENDBRANCH   7   8
ENDBRANCH   6   7
ENDBRANCH   5   6
ENDBRANCH   4   5
ENDBRANCH   3   4
ENDBRANCH   2   3
TORSDOF 15
ENDMDL
MODEL      218
REMARK 921   NORMALIZED FREE ENERGY PREDICTED BY IDOCK:   -3.01 KCAL/MOL
REMARK 922        TOTAL FREE ENERGY PREDICTED BY IDOCK:   -7.35 KCAL/MOL
REMARK 923 INTER-LIGAND FREE ENERGY PREDICTED BY IDOCK:   -6.04 KCAL/MOL
REMARK 924 INTRA-LIGAND FREE ENERGY PREDICTED BY IDOCK:   -1.30 KCAL/MOL
REMARK 927      BINDING AFFINITY PREDICTED BY RF-SCORE:    0.00 PKD
ROOT
HETATM    1  C   UNL     1      -9.241  18.611  66.821  1.00  0.00    -0.308 C  
HETATM    2  C   UNL     1     -10.520  18.054  67.424  1.00  0.00    -0.399 C  
ENDROOT
BRANCH   2   3
HETATM    3  C   UNL     1     -10.721  16.596  67.026  1.00  0.00    -0.174 C  
BRANCH   3   4
HETATM    4  C   UNL     1      -9.629  16.132  66.069  1.00  0.00    -0.381 C  
BRANCH   4   5
HETATM    5  C   UNL     1     -10.139  15.006  65.176  1.00  0.00    -0.350 C  
BRANCH   5   6
HETATM    6  C   UNL     1     -11.660  14.999  65.136  1.00  0.00    -0.294 C  
BRANCH   6   7
HETATM    7  C   UNL     1     -12.164  14.072  64.036  1.00  0.00    -0.395 C  
BRANCH   7   8
HETATM    8  C   UNL     1     -12.018  12.620  64.466  1.00  0.00    -0.464 C  
BRANCH   8   9
HETATM    9  C   UNL     1     -11.716  11.734  63.268  1.00  0.00    -0.340 C  
BRANCH   9  10
HETATM   10  C   UNL     1     -10.309  11.164  63.386  1.00  0.00    -0.419 C  
BRANCH  10  11
HETATM   11  C   UNL     1      -9.856  11.163  64.835  1.00  0.00    -0.316 C  
BRANCH  11  12
HETATM   12  C   UNL     1      -9.162   9.852  65.181  1.00  0.00    -0.288 C  
BRANCH  12  13
HETATM   13  C   UNL     1      -9.986   9.102  66.213  1.00  0.00    -0.352 C  
BRANCH  13  14
HETATM   14  C   UNL     1      -9.801   9.677  67.613  1.00  0.00    -0.202 C  
BRANCH  14  15
HETATM   15  C   UNL     1     -11.107  10.246  68.173  1.00  0.00    -0.324 C  
BRANCH  15  16
HETATM   16  C   UNL     1     -10.855  11.240  69.310  1.00  0.00    -0.212 C  
BRANCH  16  17
HETATM   17  N   UNL     1     -11.174  12.695  68.948  1.00  0.00    -0.266 N  
HETATM   18  C   UNL     1     -11.877  13.410  70.090  1.00  0.00    -0.272 C  
HETATM   19  C   UNL     1     -12.112  12.668  67.736  1.00  0.00    -0.096 C  
HETATM   20  C   UNL     1      -9.912  13.454  68.553  1.00  0.00    -0.193 C  
ENDBRANCH  16  17
ENDBRANCH  15  16
ENDBRANCH  14  15
ENDBRANCH  13  14
ENDBRANCH  12  13
ENDBRANCH  11  12
ENDBRANCH  10  11
ENDBRANCH   9  10
ENDBRANCH   8   9
ENDBRANCH   7   8
ENDBRANCH   6   7
ENDBRANCH   5   6
ENDBRANCH   4   5
ENDBRANCH   3   4
ENDBRANCH   2   3
TORSDOF 15
ENDMDL
MODEL      219
REMARK 921   NORMALIZED FREE ENERGY PREDICTED BY IDOCK:   -3.01 KCAL/MOL
REMARK 922        TOTAL FREE ENERGY PREDICTED BY IDOCK:   -7.34 KCAL/MOL
REMARK 923 INTER-LIGAND FREE ENERGY PREDICTED BY IDOCK:   -5.66 KCAL/MOL
REMARK 924 INTRA-LIGAND FREE ENERGY PREDICTED BY IDOCK:   -1.68 KCAL/MOL
REMARK 927      BINDING AFFINITY PREDICTED BY RF-SCORE:    0.00 PKD
ROOT
HETATM    1  C   UNL     1     -12.302  14.441  69.939  1.00  0.00    -0.365 C  
HETATM    2  C   UNL     1     -11.294  13.716  69.063  1.00  0.00    -0.333 C  
ENDROOT
BRANCH   2   3
HETATM    3  C   UNL     1     -11.974  13.088  67.852  1.00  0.00    -0.338 C  
BRANCH   3   4
HETATM    4  C   UNL     1     -12.007  14.059  66.676  1.00  0.00    -0.473 C  
BRANCH   4   5
HETATM    5  C   UNL     1     -12.719  13.433  65.482  1.00  0.00    -0.469 C  
BRANCH   5   6
HETATM    6  C   UNL     1     -11.758  13.255  64.315  1.00  0.00    -0.454 C  
BRANCH   6   7
HETATM    7  C   UNL     1     -11.884  11.856  63.725  1.00  0.00    -0.558 C  
BRANCH   7   8
HETATM    8  C   UNL     1     -10.535  11.154  63.746  1.00  0.00    -0.444 C  
BRANCH   8   9
HETATM    9  C   UNL     1     -10.264  10.551  65.115  1.00  0.00    -0.358 C  
BRANCH   9  10
HETATM   10  C   UNL     1      -8.786  10.676  65.454  1.00  0.00    -0.195 C  
BRANCH  10  11
HETATM   11  C   UNL     1      -8.582  11.667  66.585  1.00  0.00    -0.179 C  
BRANCH  11  12
HETATM   12  C   UNL     1      -9.191  11.141  67.879  1.00  0.00    -0.154 C  
BRANCH  12  13
HETATM   13  C   UNL     1      -8.082  10.693  68.813  1.00  0.00    -0.139 C  
BRANCH  13  14
HETATM   14  C   UNL     1      -8.470   9.441  69.595  1.00  0.00    -0.166 C  
BRANCH  14  15
HETATM   15  C   UNL     1      -9.471   8.576  68.826  1.00  0.00    -0.143 C  
BRANCH  15  16
HETATM   16  C   UNL     1      -9.022   7.114  68.753  1.00  0.00    -0.128 C  
BRANCH  16  17
HETATM   17  N   UNL     1      -9.317   6.439  67.408  1.00  0.00    -0.116 N  
HETATM   18  C   UNL     1      -8.529   7.083  66.279  1.00  0.00    -0.134 C  
HETATM   19  C   UNL     1     -10.813   6.619  67.125  1.00  0.00    -0.401 C  
HETATM   20  C   UNL     1      -9.023   4.944  67.465  1.00  0.00    -0.108 C  
ENDBRANCH  16  17
ENDBRANCH  15  16
ENDBRANCH  14  15
ENDBRANCH  13  14
ENDBRANCH  12  13
ENDBRANCH  11  12
ENDBRANCH  10  11
ENDBRANCH   9  10
ENDBRANCH   8   9
ENDBRANCH   7   8
ENDBRANCH   6   7
ENDBRANCH   5   6
ENDBRANCH   4   5
ENDBRANCH   3   4
ENDBRANCH   2   3
TORSDOF 15
ENDMDL
MODEL      220
REMARK 921   NORMALIZED FREE ENERGY PREDICTED BY IDOCK:   -2.99 KCAL/MOL
REMARK 922        TOTAL FREE ENERGY PREDICTED BY IDOCK:   -7.30 KCAL/MOL
REMARK 923 INTER-LIGAND FREE ENERGY PREDICTED BY IDOCK:   -6.21 KCAL/MOL
REMARK 924 INTRA-LIGAND FREE ENERGY PREDICTED BY IDOCK:   -1.09 KCAL/MOL
REMARK 927      BINDING AFFINITY PREDICTED BY RF-SCORE:    0.00 PKD
ROOT
HETATM    1  C   UNL     1     -10.800  19.699  65.790  1.00  0.00    -0.405 C  
HETATM    2  C   UNL     1      -9.532  20.008  66.566  1.00  0.00    -0.518 C  
ENDROOT
BRANCH   2   3
HETATM    3  C   UNL     1      -9.802  20.032  68.067  1.00  0.00    -0.522 C  
BRANCH   3   4
HETATM    4  C   UNL     1      -9.136  18.851  68.764  1.00  0.00    -0.352 C  
BRANCH   4   5
HETATM    5  C   UNL     1      -8.160  18.153  67.823  1.00  0.00    -0.240 C  
BRANCH   5   6
HETATM    6  C   UNL     1      -8.592  16.715  67.570  1.00  0.00    -0.199 C  
BRANCH   6   7
HETATM    7  C   UNL     1      -9.281  16.137  68.799  1.00  0.00    -0.224 C  
BRANCH   7   8
HETATM    8  C   UNL     1      -9.515  14.645  68.619  1.00  0.00    -0.211 C  
BRANCH   8   9
HETATM    9  C   UNL     1     -10.013  14.346  67.214  1.00  0.00    -0.247 C  
BRANCH   9  10
HETATM   10  C   UNL     1     -11.350  13.623  67.280  1.00  0.00    -0.346 C  
BRANCH  10  11
HETATM   11  C   UNL     1     -11.627  13.145  68.694  1.00  0.00    -0.356 C  
BRANCH  11  12
HETATM   12  C   UNL     1     -11.984  11.664  68.702  1.00  0.00    -0.311 C  
BRANCH  12  13
HETATM   13  C   UNL     1     -11.126  10.932  67.685  1.00  0.00    -0.376 C  
BRANCH  13  14
HETATM   14  C   UNL     1     -10.586   9.618  68.241  1.00  0.00    -0.268 C  
BRANCH  14  15
HETATM   15  C   UNL     1     -11.013   9.394  69.693  1.00  0.00    -0.216 C  
BRANCH  15  16
HETATM   16  C   UNL     1     -10.178   8.304  70.371  1.00  0.00    -0.201 C  
BRANCH  16  17
HETATM   17  N   UNL     1     -10.964   7.028  70.695  1.00  0.00    -0.250 N  
HETATM   18  C   UNL     1     -10.185   6.118  71.631  1.00  0.00    -0.198 C  
HETATM   19  C   UNL     1     -11.194   6.287  69.372  1.00  0.00    -0.420 C  
HETATM   20  C   UNL     1     -12.326   7.357  71.296  1.00  0.00    -0.346 C  
ENDBRANCH  16  17
ENDBRANCH  15  16
ENDBRANCH  14  15
ENDBRANCH  13  14
ENDBRANCH  12  13
ENDBRANCH  11  12
ENDBRANCH  10  11
ENDBRANCH   9  10
ENDBRANCH   8   9
ENDBRANCH   7   8
ENDBRANCH   6   7
ENDBRANCH   5   6
ENDBRANCH   4   5
ENDBRANCH   3   4
ENDBRANCH   2   3
TORSDOF 15
ENDMDL
MODEL      221
REMARK 921   NORMALIZED FREE ENERGY PREDICTED BY IDOCK:   -2.98 KCAL/MOL
REMARK 922        TOTAL FREE ENERGY PREDICTED BY IDOCK:   -7.29 KCAL/MOL
REMARK 923 INTER-LIGAND FREE ENERGY PREDICTED BY IDOCK:   -5.94 KCAL/MOL
REMARK 924 INTRA-LIGAND FREE ENERGY PREDICTED BY IDOCK:   -1.35 KCAL/MOL
REMARK 927      BINDING AFFINITY PREDICTED BY RF-SCORE:    0.00 PKD
ROOT
HETATM    1  C   UNL     1      -9.537   4.925  66.917  1.00  0.00    -0.171 C  
HETATM    2  C   UNL     1     -10.460   5.475  67.991  1.00  0.00    -0.240 C  
ENDROOT
BRANCH   2   3
HETATM    3  C   UNL     1      -9.741   6.510  68.850  1.00  0.00    -0.134 C  
BRANCH   3   4
HETATM    4  C   UNL     1     -10.733   7.306  69.693  1.00  0.00    -0.249 C  
BRANCH   4   5
HETATM    5  C   UNL     1     -10.265   7.383  71.142  1.00  0.00    -0.199 C  
BRANCH   5   6
HETATM    6  C   UNL     1     -11.436   7.189  72.095  1.00  0.00    -0.306 C  
BRANCH   6   7
HETATM    7  C   UNL     1     -12.671   7.922  71.586  1.00  0.00    -0.352 C  
BRANCH   7   8
HETATM    8  C   UNL     1     -13.145   8.934  72.619  1.00  0.00    -0.349 C  
BRANCH   8   9
HETATM    9  C   UNL     1     -13.267  10.316  71.999  1.00  0.00    -0.516 C  
BRANCH   9  10
HETATM   10  C   UNL     1     -12.929  10.252  70.516  1.00  0.00    -0.251 C  
BRANCH  10  11
HETATM   11  C   UNL     1     -11.759  11.165  70.198  1.00  0.00    -0.439 C  
BRANCH  11  12
HETATM   12  C   UNL     1     -12.131  12.622  70.440  1.00  0.00    -0.381 C  
BRANCH  12  13
HETATM   13  C   UNL     1     -11.222  13.519  69.618  1.00  0.00    -0.128 C  
BRANCH  13  14
HETATM   14  C   UNL     1     -12.007  14.597  68.878  1.00  0.00    -0.309 C  
BRANCH  14  15
HETATM   15  C   UNL     1     -11.405  14.899  67.504  1.00  0.00    -0.351 C  
BRANCH  15  16
HETATM   16  C   UNL     1     -12.073  14.081  66.395  1.00  0.00    -0.455 C  
BRANCH  16  17
HETATM   17  N   UNL     1     -11.156  13.029  65.760  1.00  0.00    -0.275 N  
HETATM   18  C   UNL     1     -11.382  11.655  66.369  1.00  0.00    -0.245 C  
HETATM   19  C   UNL     1      -9.711  13.456  66.038  1.00  0.00    -0.215 C  
HETATM   20  C   UNL     1     -11.350  12.970  64.248  1.00  0.00    -0.376 C  
ENDBRANCH  16  17
ENDBRANCH  15  16
ENDBRANCH  14  15
ENDBRANCH  13  14
ENDBRANCH  12  13
ENDBRANCH  11  12
ENDBRANCH  10  11
ENDBRANCH   9  10
ENDBRANCH   8   9
ENDBRANCH   7   8
ENDBRANCH   6   7
ENDBRANCH   5   6
ENDBRANCH   4   5
ENDBRANCH   3   4
ENDBRANCH   2   3
TORSDOF 15
ENDMDL
MODEL      222
REMARK 921   NORMALIZED FREE ENERGY PREDICTED BY IDOCK:   -2.98 KCAL/MOL
REMARK 922        TOTAL FREE ENERGY PREDICTED BY IDOCK:   -7.29 KCAL/MOL
REMARK 923 INTER-LIGAND FREE ENERGY PREDICTED BY IDOCK:   -6.19 KCAL/MOL
REMARK 924 INTRA-LIGAND FREE ENERGY PREDICTED BY IDOCK:   -1.09 KCAL/MOL
REMARK 927      BINDING AFFINITY PREDICTED BY RF-SCORE:    0.00 PKD
ROOT
HETATM    1  C   UNL     1      -6.173  20.539  65.618  1.00  0.00    -0.266 C  
HETATM    2  C   UNL     1      -7.248  20.510  66.690  1.00  0.00    -0.304 C  
ENDROOT
BRANCH   2   3
HETATM    3  C   UNL     1      -6.675  20.049  68.026  1.00  0.00    -0.314 C  
BRANCH   3   4
HETATM    4  C   UNL     1      -7.696  19.226  68.806  1.00  0.00    -0.397 C  
BRANCH   4   5
HETATM    5  C   UNL     1      -7.201  17.796  68.997  1.00  0.00    -0.207 C  
BRANCH   5   6
HETATM    6  C   UNL     1      -8.154  16.806  68.343  1.00  0.00    -0.219 C  
BRANCH   6   7
HETATM    7  C   UNL     1      -9.592  17.297  68.446  1.00  0.00    -0.285 C  
BRANCH   7   8
HETATM    8  C   UNL     1     -10.517  16.387  67.653  1.00  0.00    -0.302 C  
BRANCH   8   9
HETATM    9  C   UNL     1     -11.549  15.743  68.566  1.00  0.00    -0.367 C  
BRANCH   9  10
HETATM   10  C   UNL     1     -10.912  14.601  69.345  1.00  0.00    -0.279 C  
BRANCH  10  11
HETATM   11  C   UNL     1     -10.327  13.572  68.396  1.00  0.00    -0.249 C  
BRANCH  11  12
HETATM   12  C   UNL     1     -11.432  12.838  67.649  1.00  0.00    -0.387 C  
BRANCH  12  13
HETATM   13  C   UNL     1     -11.991  11.735  68.530  1.00  0.00    -0.279 C  
BRANCH  13  14
HETATM   14  C   UNL     1     -10.886  10.867  69.123  1.00  0.00    -0.280 C  
BRANCH  14  15
HETATM   15  C   UNL     1     -11.250  10.352  70.517  1.00  0.00    -0.395 C  
BRANCH  15  16
HETATM   16  C   UNL     1     -10.714   8.939  70.761  1.00  0.00    -0.233 C  
BRANCH  16  17
HETATM   17  N   UNL     1     -11.664   8.041  71.563  1.00  0.00    -0.274 N  
HETATM   18  C   UNL     1     -12.963   8.760  71.890  1.00  0.00    -0.376 C  
HETATM   19  C   UNL     1     -10.957   7.688  72.877  1.00  0.00    -0.400 C  
HETATM   20  C   UNL     1     -11.956   6.743  70.819  1.00  0.00    -0.378 C  
ENDBRANCH  16  17
ENDBRANCH  15  16
ENDBRANCH  14  15
ENDBRANCH  13  14
ENDBRANCH  12  13
ENDBRANCH  11  12
ENDBRANCH  10  11
ENDBRANCH   9  10
ENDBRANCH   8   9
ENDBRANCH   7   8
ENDBRANCH   6   7
ENDBRANCH   5   6
ENDBRANCH   4   5
ENDBRANCH   3   4
ENDBRANCH   2   3
TORSDOF 15
ENDMDL
MODEL      223
REMARK 921   NORMALIZED FREE ENERGY PREDICTED BY IDOCK:   -2.97 KCAL/MOL
REMARK 922        TOTAL FREE ENERGY PREDICTED BY IDOCK:   -7.27 KCAL/MOL
REMARK 923 INTER-LIGAND FREE ENERGY PREDICTED BY IDOCK:   -5.12 KCAL/MOL
REMARK 924 INTRA-LIGAND FREE ENERGY PREDICTED BY IDOCK:   -2.15 KCAL/MOL
REMARK 927      BINDING AFFINITY PREDICTED BY RF-SCORE:    0.00 PKD
ROOT
HETATM    1  C   UNL     1      -9.473   2.752  72.425  1.00  0.00    -0.173 C  
HETATM    2  C   UNL     1     -10.260   3.987  72.019  1.00  0.00    -0.186 C  
ENDROOT
BRANCH   2   3
HETATM    3  C   UNL     1      -9.341   5.050  71.427  1.00  0.00    -0.194 C  
BRANCH   3   4
HETATM    4  C   UNL     1     -10.016   6.417  71.420  1.00  0.00    -0.206 C  
BRANCH   4   5
HETATM    5  C   UNL     1     -11.331   6.363  70.649  1.00  0.00    -0.419 C  
BRANCH   5   6
HETATM    6  C   UNL     1     -12.473   6.907  71.495  1.00  0.00    -0.420 C  
BRANCH   6   7
HETATM    7  C   UNL     1     -12.080   8.230  72.141  1.00  0.00    -0.425 C  
BRANCH   7   8
HETATM    8  C   UNL     1     -13.278   9.165  72.195  1.00  0.00    -0.524 C  
BRANCH   8   9
HETATM    9  C   UNL     1     -13.156  10.254  71.141  1.00  0.00    -0.481 C  
BRANCH   9  10
HETATM   10  C   UNL     1     -11.695  10.452  70.765  1.00  0.00    -0.464 C  
BRANCH  10  11
HETATM   11  C   UNL     1     -11.555  10.663  69.268  1.00  0.00    -0.346 C  
BRANCH  11  12
HETATM   12  C   UNL     1     -10.305   9.971  68.741  1.00  0.00    -0.216 C  
BRANCH  12  13
HETATM   13  C   UNL     1      -9.385   9.636  69.903  1.00  0.00    -0.256 C  
BRANCH  13  14
HETATM   14  C   UNL     1      -8.117   8.929  69.436  1.00  0.00    -0.105 C  
BRANCH  14  15
HETATM   15  C   UNL     1      -8.353   8.118  68.160  1.00  0.00    -0.129 C  
BRANCH  15  16
HETATM   16  C   UNL     1      -8.011   6.638  68.353  1.00  0.00    -0.111 C  
BRANCH  16  17
HETATM   17  N   UNL     1      -8.485   5.734  67.209  1.00  0.00    -0.108 N  
HETATM   18  C   UNL     1      -9.580   4.786  67.668  1.00  0.00    -0.155 C  
HETATM   19  C   UNL     1      -7.279   4.904  66.754  1.00  0.00    -0.080 C  
HETATM   20  C   UNL     1      -8.968   6.557  66.020  1.00  0.00    -0.122 C  
ENDBRANCH  16  17
ENDBRANCH  15  16
ENDBRANCH  14  15
ENDBRANCH  13  14
ENDBRANCH  12  13
ENDBRANCH  11  12
ENDBRANCH  10  11
ENDBRANCH   9  10
ENDBRANCH   8   9
ENDBRANCH   7   8
ENDBRANCH   6   7
ENDBRANCH   5   6
ENDBRANCH   4   5
ENDBRANCH   3   4
ENDBRANCH   2   3
TORSDOF 15
ENDMDL
MODEL      224
REMARK 921   NORMALIZED FREE ENERGY PREDICTED BY IDOCK:   -2.97 KCAL/MOL
REMARK 922        TOTAL FREE ENERGY PREDICTED BY IDOCK:   -7.26 KCAL/MOL
REMARK 923 INTER-LIGAND FREE ENERGY PREDICTED BY IDOCK:   -5.87 KCAL/MOL
REMARK 924 INTRA-LIGAND FREE ENERGY PREDICTED BY IDOCK:   -1.39 KCAL/MOL
REMARK 927      BINDING AFFINITY PREDICTED BY RF-SCORE:    0.00 PKD
ROOT
HETATM    1  C   UNL     1     -10.659  16.411  65.556  1.00  0.00    -0.346 C  
HETATM    2  C   UNL     1     -10.562  15.076  64.837  1.00  0.00    -0.400 C  
ENDROOT
BRANCH   2   3
HETATM    3  C   UNL     1     -11.944  14.561  64.451  1.00  0.00    -0.467 C  
BRANCH   3   4
HETATM    4  C   UNL     1     -12.237  13.223  65.120  1.00  0.00    -0.487 C  
BRANCH   4   5
HETATM    5  C   UNL     1     -12.241  12.097  64.091  1.00  0.00    -0.509 C  
BRANCH   5   6
HETATM    6  C   UNL     1     -10.851  11.493  63.951  1.00  0.00    -0.469 C  
BRANCH   6   7
HETATM    7  C   UNL     1     -10.203  11.313  65.318  1.00  0.00    -0.328 C  
BRANCH   7   8
HETATM    8  C   UNL     1      -9.907   9.842  65.570  1.00  0.00    -0.381 C  
BRANCH   8   9
HETATM    9  C   UNL     1     -10.566   9.375  66.858  1.00  0.00    -0.238 C  
BRANCH   9  10
HETATM   10  C   UNL     1     -11.275  10.541  67.531  1.00  0.00    -0.299 C  
BRANCH  10  11
HETATM   11  C   UNL     1     -10.621  10.864  68.862  1.00  0.00    -0.241 C  
BRANCH  11  12
HETATM   12  C   UNL     1     -11.180   9.978  69.967  1.00  0.00    -0.345 C  
BRANCH  12  13
HETATM   13  C   UNL     1     -10.033   9.348  70.738  1.00  0.00    -0.358 C  
BRANCH  13  14
HETATM   14  C   UNL     1      -8.731   9.381  69.944  1.00  0.00    -0.209 C  
BRANCH  14  15
HETATM   15  C   UNL     1      -8.155   7.978  69.734  1.00  0.00    -0.115 C  
BRANCH  15  16
HETATM   16  C   UNL     1      -9.094   7.095  68.906  1.00  0.00    -0.131 C  
BRANCH  16  17
HETATM   17  N   UNL     1      -9.095   5.621  69.328  1.00  0.00    -0.113 N  
HETATM   18  C   UNL     1      -9.913   5.405  70.591  1.00  0.00    -0.214 C  
HETATM   19  C   UNL     1      -7.641   5.228  69.615  1.00  0.00    -0.069 C  
HETATM   20  C   UNL     1      -9.614   4.727  68.207  1.00  0.00    -0.149 C  
ENDBRANCH  16  17
ENDBRANCH  15  16
ENDBRANCH  14  15
ENDBRANCH  13  14
ENDBRANCH  12  13
ENDBRANCH  11  12
ENDBRANCH  10  11
ENDBRANCH   9  10
ENDBRANCH   8   9
ENDBRANCH   7   8
ENDBRANCH   6   7
ENDBRANCH   5   6
ENDBRANCH   4   5
ENDBRANCH   3   4
ENDBRANCH   2   3
TORSDOF 15
ENDMDL
MODEL      225
REMARK 921   NORMALIZED FREE ENERGY PREDICTED BY IDOCK:   -2.96 KCAL/MOL
REMARK 922        TOTAL FREE ENERGY PREDICTED BY IDOCK:   -7.25 KCAL/MOL
REMARK 923 INTER-LIGAND FREE ENERGY PREDICTED BY IDOCK:   -6.14 KCAL/MOL
REMARK 924 INTRA-LIGAND FREE ENERGY PREDICTED BY IDOCK:   -1.11 KCAL/MOL
REMARK 927      BINDING AFFINITY PREDICTED BY RF-SCORE:    0.00 PKD
ROOT
HETATM    1  C   UNL     1      -6.190  18.037  66.662  1.00  0.00    -0.208 C  
HETATM    2  C   UNL     1      -6.322  19.387  65.977  1.00  0.00    -0.215 C  
ENDROOT
BRANCH   2   3
HETATM    3  C   UNL     1      -7.448  20.206  66.599  1.00  0.00    -0.315 C  
BRANCH   3   4
HETATM    4  C   UNL     1      -8.371  19.325  67.434  1.00  0.00    -0.317 C  
BRANCH   4   5
HETATM    5  C   UNL     1      -9.825  19.745  67.251  1.00  0.00    -0.513 C  
BRANCH   5   6
HETATM    6  C   UNL     1     -10.766  18.637  67.703  1.00  0.00    -0.428 C  
BRANCH   6   7
HETATM    7  C   UNL     1     -10.139  17.270  67.462  1.00  0.00    -0.315 C  
BRANCH   7   8
HETATM    8  C   UNL     1     -11.119  16.169  67.837  1.00  0.00    -0.293 C  
BRANCH   8   9
HETATM    9  C   UNL     1     -11.279  16.083  69.346  1.00  0.00    -0.349 C  
BRANCH   9  10
HETATM   10  C   UNL     1     -11.824  14.716  69.735  1.00  0.00    -0.366 C  
BRANCH  10  11
HETATM   11  C   UNL     1     -11.829  13.786  68.536  1.00  0.00    -0.406 C  
BRANCH  11  12
HETATM   12  C   UNL     1     -11.028  12.524  68.829  1.00  0.00    -0.294 C  
BRANCH  12  13
HETATM   13  C   UNL     1     -11.982  11.375  69.107  1.00  0.00    -0.395 C  
BRANCH  13  14
HETATM   14  C   UNL     1     -11.695  10.712  70.451  1.00  0.00    -0.446 C  
BRANCH  14  15
HETATM   15  C   UNL     1     -10.446   9.829  70.396  1.00  0.00    -0.358 C  
BRANCH  15  16
HETATM   16  C   UNL     1     -10.649   8.611  69.491  1.00  0.00    -0.213 C  
BRANCH  16  17
HETATM   17  N   UNL     1      -9.574   8.452  68.409  1.00  0.00    -0.146 N  
HETATM   18  C   UNL     1      -8.638   9.650  68.377  1.00  0.00    -0.119 C  
HETATM   19  C   UNL     1     -10.295   8.359  67.060  1.00  0.00    -0.315 C  
HETATM   20  C   UNL     1      -8.776   7.169  68.609  1.00  0.00    -0.127 C  
ENDBRANCH  16  17
ENDBRANCH  15  16
ENDBRANCH  14  15
ENDBRANCH  13  14
ENDBRANCH  12  13
ENDBRANCH  11  12
ENDBRANCH  10  11
ENDBRANCH   9  10
ENDBRANCH   8   9
ENDBRANCH   7   8
ENDBRANCH   6   7
ENDBRANCH   5   6
ENDBRANCH   4   5
ENDBRANCH   3   4
ENDBRANCH   2   3
TORSDOF 15
ENDMDL
MODEL      226
REMARK 921   NORMALIZED FREE ENERGY PREDICTED BY IDOCK:   -2.95 KCAL/MOL
REMARK 922        TOTAL FREE ENERGY PREDICTED BY IDOCK:   -7.24 KCAL/MOL
REMARK 923 INTER-LIGAND FREE ENERGY PREDICTED BY IDOCK:   -5.57 KCAL/MOL
REMARK 924 INTRA-LIGAND FREE ENERGY PREDICTED BY IDOCK:   -1.67 KCAL/MOL
REMARK 927      BINDING AFFINITY PREDICTED BY RF-SCORE:    0.00 PKD
ROOT
HETATM    1  C   UNL     1     -13.442  14.047  72.461  1.00  0.00    -0.661 C  
HETATM    2  C   UNL     1     -12.742  13.082  71.519  1.00  0.00    -0.349 C  
ENDROOT
BRANCH   2   3
HETATM    3  C   UNL     1     -13.201  11.649  71.765  1.00  0.00    -0.438 C  
BRANCH   3   4
HETATM    4  C   UNL     1     -12.298  10.653  71.045  1.00  0.00    -0.507 C  
BRANCH   4   5
HETATM    5  C   UNL     1     -11.894  11.188  69.675  1.00  0.00    -0.419 C  
BRANCH   5   6
HETATM    6  C   UNL     1     -10.575  10.574  69.226  1.00  0.00    -0.265 C  
BRANCH   6   7
HETATM    7  C   UNL     1     -10.821   9.335  68.374  1.00  0.00    -0.125 C  
BRANCH   7   8
HETATM    8  C   UNL     1     -10.635   8.077  69.209  1.00  0.00    -0.193 C  
BRANCH   8   9
HETATM    9  C   UNL     1      -9.162   7.718  69.316  1.00  0.00    -0.145 C  
BRANCH   9  10
HETATM   10  C   UNL     1      -8.498   7.838  67.952  1.00  0.00    -0.122 C  
BRANCH  10  11
HETATM   11  C   UNL     1      -7.128   8.478  68.082  1.00  0.00    -0.085 C  
BRANCH  11  12
HETATM   12  C   UNL     1      -6.877   9.451  66.937  1.00  0.00    -0.080 C  
BRANCH  12  13
HETATM   13  C   UNL     1      -7.460  10.808  67.290  1.00  0.00    -0.101 C  
BRANCH  13  14
HETATM   14  C   UNL     1      -8.500  11.261  66.270  1.00  0.00    -0.156 C  
BRANCH  14  15
HETATM   15  C   UNL     1      -9.197  12.553  66.702  1.00  0.00    -0.223 C  
BRANCH  15  16
HETATM   16  C   UNL     1     -10.614  12.655  66.130  1.00  0.00    -0.258 C  
BRANCH  16  17
HETATM   17  N   UNL     1     -11.244  14.046  66.271  1.00  0.00    -0.315 N  
HETATM   18  C   UNL     1     -11.144  14.559  67.698  1.00  0.00    -0.304 C  
HETATM   19  C   UNL     1     -12.726  13.914  65.901  1.00  0.00    -0.421 C  
HETATM   20  C   UNL     1     -10.604  15.041  65.310  1.00  0.00    -0.397 C  
ENDBRANCH  16  17
ENDBRANCH  15  16
ENDBRANCH  14  15
ENDBRANCH  13  14
ENDBRANCH  12  13
ENDBRANCH  11  12
ENDBRANCH  10  11
ENDBRANCH   9  10
ENDBRANCH   8   9
ENDBRANCH   7   8
ENDBRANCH   6   7
ENDBRANCH   5   6
ENDBRANCH   4   5
ENDBRANCH   3   4
ENDBRANCH   2   3
TORSDOF 15
ENDMDL
MODEL      227
REMARK 921   NORMALIZED FREE ENERGY PREDICTED BY IDOCK:   -2.95 KCAL/MOL
REMARK 922        TOTAL FREE ENERGY PREDICTED BY IDOCK:   -7.22 KCAL/MOL
REMARK 923 INTER-LIGAND FREE ENERGY PREDICTED BY IDOCK:   -6.03 KCAL/MOL
REMARK 924 INTRA-LIGAND FREE ENERGY PREDICTED BY IDOCK:   -1.19 KCAL/MOL
REMARK 927      BINDING AFFINITY PREDICTED BY RF-SCORE:    0.00 PKD
ROOT
HETATM    1  C   UNL     1     -11.948  11.563  69.677  1.00  0.00    -0.407 C  
HETATM    2  C   UNL     1     -11.940  13.007  70.150  1.00  0.00    -0.374 C  
ENDROOT
BRANCH   2   3
HETATM    3  C   UNL     1     -12.013  13.969  68.969  1.00  0.00    -0.392 C  
BRANCH   3   4
HETATM    4  C   UNL     1     -11.300  13.394  67.749  1.00  0.00    -0.325 C  
BRANCH   4   5
HETATM    5  C   UNL     1     -11.660  14.183  66.495  1.00  0.00    -0.389 C  
BRANCH   5   6
HETATM    6  C   UNL     1     -11.046  13.540  65.260  1.00  0.00    -0.307 C  
BRANCH   6   7
HETATM    7  C   UNL     1     -11.488  12.087  65.135  1.00  0.00    -0.344 C  
BRANCH   7   8
HETATM    8  C   UNL     1     -10.339  11.229  64.629  1.00  0.00    -0.373 C  
BRANCH   8   9
HETATM    9  C   UNL     1      -9.483  10.740  65.787  1.00  0.00    -0.244 C  
BRANCH   9  10
HETATM   10  C   UNL     1     -10.278   9.765  66.644  1.00  0.00    -0.296 C  
BRANCH  10  11
HETATM   11  C   UNL     1      -9.664   8.379  66.581  1.00  0.00    -0.320 C  
BRANCH  11  12
HETATM   12  C   UNL     1     -10.584   7.351  67.226  1.00  0.00    -0.393 C  
BRANCH  12  13
HETATM   13  C   UNL     1     -10.303   7.288  68.717  1.00  0.00    -0.209 C  
BRANCH  13  14
HETATM   14  C   UNL     1     -11.363   6.481  69.461  1.00  0.00    -0.419 C  
BRANCH  14  15
HETATM   15  C   UNL     1     -10.897   6.083  70.863  1.00  0.00    -0.349 C  
BRANCH  15  16
HETATM   16  C   UNL     1      -9.495   6.617  71.171  1.00  0.00    -0.163 C  
BRANCH  16  17
HETATM   17  N   UNL     1      -9.188   6.731  72.669  1.00  0.00    -0.139 N  
HETATM   18  C   UNL     1      -7.863   7.436  72.912  1.00  0.00    -0.096 C  
HETATM   19  C   UNL     1      -9.093   5.306  73.225  1.00  0.00    -0.128 C  
HETATM   20  C   UNL     1     -10.309   7.454  73.408  1.00  0.00    -0.360 C  
ENDBRANCH  16  17
ENDBRANCH  15  16
ENDBRANCH  14  15
ENDBRANCH  13  14
ENDBRANCH  12  13
ENDBRANCH  11  12
ENDBRANCH  10  11
ENDBRANCH   9  10
ENDBRANCH   8   9
ENDBRANCH   7   8
ENDBRANCH   6   7
ENDBRANCH   5   6
ENDBRANCH   4   5
ENDBRANCH   3   4
ENDBRANCH   2   3
TORSDOF 15
ENDMDL
MODEL      228
REMARK 921   NORMALIZED FREE ENERGY PREDICTED BY IDOCK:   -2.94 KCAL/MOL
REMARK 922        TOTAL FREE ENERGY PREDICTED BY IDOCK:   -7.22 KCAL/MOL
REMARK 923 INTER-LIGAND FREE ENERGY PREDICTED BY IDOCK:   -6.12 KCAL/MOL
REMARK 924 INTRA-LIGAND FREE ENERGY PREDICTED BY IDOCK:   -1.09 KCAL/MOL
REMARK 927      BINDING AFFINITY PREDICTED BY RF-SCORE:    0.00 PKD
ROOT
HETATM    1  C   UNL     1     -12.709  11.117  70.599  1.00  0.00    -0.350 C  
HETATM    2  C   UNL     1     -13.145  10.200  71.729  1.00  0.00    -0.568 C  
ENDROOT
BRANCH   2   3
HETATM    3  C   UNL     1     -12.187   9.023  71.878  1.00  0.00    -0.451 C  
BRANCH   3   4
HETATM    4  C   UNL     1     -11.146   9.019  70.764  1.00  0.00    -0.328 C  
BRANCH   4   5
HETATM    5  C   UNL     1      -9.791   8.562  71.295  1.00  0.00    -0.279 C  
BRANCH   5   6
HETATM    6  C   UNL     1      -8.663   9.337  70.630  1.00  0.00    -0.282 C  
BRANCH   6   7
HETATM    7  C   UNL     1      -8.640   9.070  69.130  1.00  0.00    -0.133 C  
BRANCH   7   8
HETATM    8  C   UNL     1      -7.275   9.419  68.555  1.00  0.00    -0.072 C  
BRANCH   8   9
HETATM    9  C   UNL     1      -7.291   9.320  67.038  1.00  0.00    -0.091 C  
BRANCH   9  10
HETATM   10  C   UNL     1      -8.369  10.231  66.470  1.00  0.00    -0.126 C  
BRANCH  10  11
HETATM   11  C   UNL     1      -9.293   9.453  65.552  1.00  0.00    -0.315 C  
BRANCH  11  12
HETATM   12  C   UNL     1      -8.729   9.400  64.138  1.00  0.00    -0.224 C  
BRANCH  12  13
HETATM   13  C   UNL     1      -9.266  10.572  63.336  1.00  0.00    -0.299 C  
BRANCH  13  14
HETATM   14  C   UNL     1     -10.653  10.996  63.809  1.00  0.00    -0.365 C  
BRANCH  14  15
HETATM   15  C   UNL     1     -10.758  12.513  63.981  1.00  0.00    -0.449 C  
BRANCH  15  16
HETATM   16  C   UNL     1     -10.659  12.928  65.451  1.00  0.00    -0.289 C  
BRANCH  16  17
HETATM   17  N   UNL     1     -11.373  14.246  65.776  1.00  0.00    -0.320 N  
HETATM   18  C   UNL     1     -11.179  14.639  67.231  1.00  0.00    -0.337 C  
HETATM   19  C   UNL     1     -12.869  14.027  65.524  1.00  0.00    -0.419 C  
HETATM   20  C   UNL     1     -10.898  15.370  64.861  1.00  0.00    -0.425 C  
ENDBRANCH  16  17
ENDBRANCH  15  16
ENDBRANCH  14  15
ENDBRANCH  13  14
ENDBRANCH  12  13
ENDBRANCH  11  12
ENDBRANCH  10  11
ENDBRANCH   9  10
ENDBRANCH   8   9
ENDBRANCH   7   8
ENDBRANCH   6   7
ENDBRANCH   5   6
ENDBRANCH   4   5
ENDBRANCH   3   4
ENDBRANCH   2   3
TORSDOF 15
ENDMDL
MODEL      229
REMARK 921   NORMALIZED FREE ENERGY PREDICTED BY IDOCK:   -2.94 KCAL/MOL
REMARK 922        TOTAL FREE ENERGY PREDICTED BY IDOCK:   -7.21 KCAL/MOL
REMARK 923 INTER-LIGAND FREE ENERGY PREDICTED BY IDOCK:   -5.21 KCAL/MOL
REMARK 924 INTRA-LIGAND FREE ENERGY PREDICTED BY IDOCK:   -2.01 KCAL/MOL
REMARK 927      BINDING AFFINITY PREDICTED BY RF-SCORE:    0.00 PKD
ROOT
HETATM    1  C   UNL     1      -6.781   7.390  66.598  1.00  0.00    -0.061 C  
HETATM    2  C   UNL     1      -6.793   6.545  67.860  1.00  0.00    -0.074 C  
ENDROOT
BRANCH   2   3
HETATM    3  C   UNL     1      -7.364   5.158  67.583  1.00  0.00    -0.075 C  
BRANCH   3   4
HETATM    4  C   UNL     1      -8.017   4.575  68.831  1.00  0.00    -0.074 C  
BRANCH   4   5
HETATM    5  C   UNL     1      -8.006   5.591  69.968  1.00  0.00    -0.086 C  
BRANCH   5   6
HETATM    6  C   UNL     1      -9.369   5.657  70.643  1.00  0.00    -0.191 C  
BRANCH   6   7
HETATM    7  C   UNL     1     -10.461   5.176  69.696  1.00  0.00    -0.262 C  
BRANCH   7   8
HETATM    8  C   UNL     1     -11.270   6.358  69.182  1.00  0.00    -0.421 C  
BRANCH   8   9
HETATM    9  C   UNL     1     -10.960   6.624  67.718  1.00  0.00    -0.367 C  
BRANCH   9  10
HETATM   10  C   UNL     1     -10.241   7.958  67.574  1.00  0.00    -0.308 C  
BRANCH  10  11
HETATM   11  C   UNL     1     -10.319   8.747  68.868  1.00  0.00    -0.229 C  
BRANCH  11  12
HETATM   12  C   UNL     1     -10.018  10.219  68.621  1.00  0.00    -0.183 C  
BRANCH  12  13
HETATM   13  C   UNL     1     -11.055  11.072  69.331  1.00  0.00    -0.320 C  
BRANCH  13  14
HETATM   14  C   UNL     1     -11.566  12.200  68.441  1.00  0.00    -0.381 C  
BRANCH  14  15
HETATM   15  C   UNL     1     -10.816  12.261  67.108  1.00  0.00    -0.282 C  
BRANCH  15  16
HETATM   16  C   UNL     1     -11.763  12.115  65.914  1.00  0.00    -0.328 C  
BRANCH  16  17
HETATM   17  N   UNL     1     -11.670  13.263  64.902  1.00  0.00    -0.329 N  
HETATM   18  C   UNL     1     -10.345  13.999  65.016  1.00  0.00    -0.409 C  
HETATM   19  C   UNL     1     -12.803  14.245  65.221  1.00  0.00    -0.281 C  
HETATM   20  C   UNL     1     -11.868  12.759  63.476  1.00  0.00    -0.546 C  
ENDBRANCH  16  17
ENDBRANCH  15  16
ENDBRANCH  14  15
ENDBRANCH  13  14
ENDBRANCH  12  13
ENDBRANCH  11  12
ENDBRANCH  10  11
ENDBRANCH   9  10
ENDBRANCH   8   9
ENDBRANCH   7   8
ENDBRANCH   6   7
ENDBRANCH   5   6
ENDBRANCH   4   5
ENDBRANCH   3   4
ENDBRANCH   2   3
TORSDOF 15
ENDMDL
MODEL      230
REMARK 921   NORMALIZED FREE ENERGY PREDICTED BY IDOCK:   -2.94 KCAL/MOL
REMARK 922        TOTAL FREE ENERGY PREDICTED BY IDOCK:   -7.21 KCAL/MOL
REMARK 923 INTER-LIGAND FREE ENERGY PREDICTED BY IDOCK:   -6.09 KCAL/MOL
REMARK 924 INTRA-LIGAND FREE ENERGY PREDICTED BY IDOCK:   -1.12 KCAL/MOL
REMARK 927      BINDING AFFINITY PREDICTED BY RF-SCORE:    0.00 PKD
ROOT
HETATM    1  C   UNL     1      -6.012  19.482  64.696  1.00  0.00    -0.307 C  
HETATM    2  C   UNL     1      -5.210  19.237  65.962  1.00  0.00    -0.167 C  
ENDROOT
BRANCH   2   3
HETATM    3  C   UNL     1      -5.280  17.771  66.378  1.00  0.00    -0.209 C  
BRANCH   3   4
HETATM    4  C   UNL     1      -5.524  17.639  67.878  1.00  0.00    -0.135 C  
BRANCH   4   5
HETATM    5  C   UNL     1      -6.934  18.095  68.236  1.00  0.00    -0.233 C  
BRANCH   5   6
HETATM    6  C   UNL     1      -7.973  17.224  67.543  1.00  0.00    -0.194 C  
BRANCH   6   7
HETATM    7  C   UNL     1      -9.342  17.893  67.575  1.00  0.00    -0.253 C  
BRANCH   7   8
HETATM    8  C   UNL     1     -10.385  16.985  66.943  1.00  0.00    -0.303 C  
BRANCH   8   9
HETATM    9  C   UNL     1      -9.772  15.648  66.558  1.00  0.00    -0.286 C  
BRANCH   9  10
HETATM   10  C   UNL     1     -10.794  14.805  65.809  1.00  0.00    -0.334 C  
BRANCH  10  11
HETATM   11  C   UNL     1     -10.421  13.335  65.875  1.00  0.00    -0.289 C  
BRANCH  11  12
HETATM   12  C   UNL     1     -10.186  12.904  67.317  1.00  0.00    -0.234 C  
BRANCH  12  13
HETATM   13  C   UNL     1     -11.515  12.549  67.961  1.00  0.00    -0.368 C  
BRANCH  13  14
HETATM   14  C   UNL     1     -11.326  11.808  69.280  1.00  0.00    -0.348 C  
BRANCH  14  15
HETATM   15  C   UNL     1     -12.253  12.344  70.374  1.00  0.00    -0.370 C  
BRANCH  15  16
HETATM   16  C   UNL     1     -12.322  13.874  70.363  1.00  0.00    -0.363 C  
BRANCH  16  17
HETATM   17  N   UNL     1     -12.880  14.482  71.655  1.00  0.00    -0.321 N  
HETATM   18  C   UNL     1     -11.796  15.196  72.446  1.00  0.00    -0.390 C  
HETATM   19  C   UNL     1     -13.423  13.327  72.504  1.00  0.00    -0.516 C  
HETATM   20  C   UNL     1     -14.031  15.437  71.363  1.00  0.00    -0.467 C  
ENDBRANCH  16  17
ENDBRANCH  15  16
ENDBRANCH  14  15
ENDBRANCH  13  14
ENDBRANCH  12  13
ENDBRANCH  11  12
ENDBRANCH  10  11
ENDBRANCH   9  10
ENDBRANCH   8   9
ENDBRANCH   7   8
ENDBRANCH   6   7
ENDBRANCH   5   6
ENDBRANCH   4   5
ENDBRANCH   3   4
ENDBRANCH   2   3
TORSDOF 15
ENDMDL
MODEL      231
REMARK 921   NORMALIZED FREE ENERGY PREDICTED BY IDOCK:   -2.93 KCAL/MOL
REMARK 922        TOTAL FREE ENERGY PREDICTED BY IDOCK:   -7.20 KCAL/MOL
REMARK 923 INTER-LIGAND FREE ENERGY PREDICTED BY IDOCK:   -5.41 KCAL/MOL
REMARK 924 INTRA-LIGAND FREE ENERGY PREDICTED BY IDOCK:   -1.79 KCAL/MOL
REMARK 927      BINDING AFFINITY PREDICTED BY RF-SCORE:    0.00 PKD
ROOT
HETATM    1  C   UNL     1     -11.218  13.791  67.412  1.00  0.00    -0.330 C  
HETATM    2  C   UNL     1     -11.043  12.869  68.606  1.00  0.00    -0.307 C  
ENDROOT
BRANCH   2   3
HETATM    3  C   UNL     1     -11.764  11.544  68.383  1.00  0.00    -0.372 C  
BRANCH   3   4
HETATM    4  C   UNL     1     -11.787  10.711  69.661  1.00  0.00    -0.358 C  
BRANCH   4   5
HETATM    5  C   UNL     1     -12.495  11.465  70.781  1.00  0.00    -0.460 C  
BRANCH   5   6
HETATM    6  C   UNL     1     -12.982  10.501  71.854  1.00  0.00    -0.553 C  
BRANCH   6   7
HETATM    7  C   UNL     1     -13.774   9.359  71.229  1.00  0.00    -0.248 C  
BRANCH   7   8
HETATM    8  C   UNL     1     -13.175   8.020  71.633  1.00  0.00    -0.358 C  
BRANCH   8   9
HETATM    9  C   UNL     1     -12.062   8.216  72.650  1.00  0.00    -0.311 C  
BRANCH   9  10
HETATM   10  C   UNL     1     -11.053   7.081  72.541  1.00  0.00    -0.310 C  
BRANCH  10  11
HETATM   11  C   UNL     1      -9.644   7.600  72.756  1.00  0.00    -0.253 C  
BRANCH  11  12
HETATM   12  C   UNL     1      -9.365   8.794  71.852  1.00  0.00    -0.343 C  
BRANCH  12  13
HETATM   13  C   UNL     1      -8.448   8.366  70.719  1.00  0.00    -0.151 C  
BRANCH  13  14
HETATM   14  C   UNL     1      -9.086   8.601  69.354  1.00  0.00    -0.149 C  
BRANCH  14  15
HETATM   15  C   UNL     1      -8.036   8.736  68.249  1.00  0.00    -0.106 C  
BRANCH  15  16
HETATM   16  C   UNL     1      -8.289   9.963  67.369  1.00  0.00    -0.118 C  
BRANCH  16  17
HETATM   17  N   UNL     1      -8.551   9.630  65.895  1.00  0.00    -0.130 N  
HETATM   18  C   UNL     1      -8.713   8.133  65.685  1.00  0.00    -0.145 C  
HETATM   19  C   UNL     1      -7.332  10.107  65.097  1.00  0.00    -0.141 C  
HETATM   20  C   UNL     1      -9.778  10.369  65.372  1.00  0.00    -0.265 C  
ENDBRANCH  16  17
ENDBRANCH  15  16
ENDBRANCH  14  15
ENDBRANCH  13  14
ENDBRANCH  12  13
ENDBRANCH  11  12
ENDBRANCH  10  11
ENDBRANCH   9  10
ENDBRANCH   8   9
ENDBRANCH   7   8
ENDBRANCH   6   7
ENDBRANCH   5   6
ENDBRANCH   4   5
ENDBRANCH   3   4
ENDBRANCH   2   3
TORSDOF 15
ENDMDL
MODEL      232
REMARK 921   NORMALIZED FREE ENERGY PREDICTED BY IDOCK:   -2.92 KCAL/MOL
REMARK 922        TOTAL FREE ENERGY PREDICTED BY IDOCK:   -7.18 KCAL/MOL
REMARK 923 INTER-LIGAND FREE ENERGY PREDICTED BY IDOCK:   -5.77 KCAL/MOL
REMARK 924 INTRA-LIGAND FREE ENERGY PREDICTED BY IDOCK:   -1.41 KCAL/MOL
REMARK 927      BINDING AFFINITY PREDICTED BY RF-SCORE:    0.00 PKD
ROOT
HETATM    1  C   UNL     1     -10.651  14.317  66.944  1.00  0.00    -0.273 C  
HETATM    2  C   UNL     1     -10.252  12.886  67.263  1.00  0.00    -0.234 C  
ENDROOT
BRANCH   2   3
HETATM    3  C   UNL     1     -11.380  11.916  66.927  1.00  0.00    -0.392 C  
BRANCH   3   4
HETATM    4  C   UNL     1     -11.619  10.935  68.070  1.00  0.00    -0.295 C  
BRANCH   4   5
HETATM    5  C   UNL     1     -11.631  11.663  69.410  1.00  0.00    -0.392 C  
BRANCH   5   6
HETATM    6  C   UNL     1     -11.565  10.670  70.562  1.00  0.00    -0.444 C  
BRANCH   6   7
HETATM    7  C   UNL     1     -12.962  10.369  71.091  1.00  0.00    -0.506 C  
BRANCH   7   8
HETATM    8  C   UNL     1     -12.913   9.209  72.074  1.00  0.00    -0.496 C  
BRANCH   8   9
HETATM    9  C   UNL     1     -11.486   8.715  72.251  1.00  0.00    -0.423 C  
BRANCH   9  10
HETATM   10  C   UNL     1     -11.444   7.198  72.134  1.00  0.00    -0.306 C  
BRANCH  10  11
HETATM   11  C   UNL     1     -11.908   6.757  70.759  1.00  0.00    -0.446 C  
BRANCH  11  12
HETATM   12  C   UNL     1     -10.748   6.183  69.956  1.00  0.00    -0.370 C  
BRANCH  12  13
HETATM   13  C   UNL     1     -11.088   6.226  68.477  1.00  0.00    -0.397 C  
BRANCH  13  14
HETATM   14  C   UNL     1     -10.427   7.410  67.777  1.00  0.00    -0.298 C  
BRANCH  14  15
HETATM   15  C   UNL     1      -9.065   7.037  67.188  1.00  0.00    -0.137 C  
BRANCH  15  16
HETATM   16  C   UNL     1      -7.933   7.233  68.201  1.00  0.00    -0.123 C  
BRANCH  16  17
HETATM   17  N   UNL     1      -7.172   5.946  68.541  1.00  0.00    -0.081 N  
HETATM   18  C   UNL     1      -7.077   5.737  70.044  1.00  0.00    -0.067 C  
HETATM   19  C   UNL     1      -5.754   6.093  67.978  1.00  0.00    -0.009 C  
HETATM   20  C   UNL     1      -7.819   4.732  67.883  1.00  0.00    -0.082 C  
ENDBRANCH  16  17
ENDBRANCH  15  16
ENDBRANCH  14  15
ENDBRANCH  13  14
ENDBRANCH  12  13
ENDBRANCH  11  12
ENDBRANCH  10  11
ENDBRANCH   9  10
ENDBRANCH   8   9
ENDBRANCH   7   8
ENDBRANCH   6   7
ENDBRANCH   5   6
ENDBRANCH   4   5
ENDBRANCH   3   4
ENDBRANCH   2   3
TORSDOF 15
ENDMDL
MODEL      233
REMARK 921   NORMALIZED FREE ENERGY PREDICTED BY IDOCK:   -2.92 KCAL/MOL
REMARK 922        TOTAL FREE ENERGY PREDICTED BY IDOCK:   -7.18 KCAL/MOL
REMARK 923 INTER-LIGAND FREE ENERGY PREDICTED BY IDOCK:   -5.48 KCAL/MOL
REMARK 924 INTRA-LIGAND FREE ENERGY PREDICTED BY IDOCK:   -1.70 KCAL/MOL
REMARK 927      BINDING AFFINITY PREDICTED BY RF-SCORE:    0.00 PKD
ROOT
HETATM    1  C   UNL     1      -8.453   5.335  67.833  1.00  0.00    -0.101 C  
HETATM    2  C   UNL     1      -8.104   6.420  68.837  1.00  0.00    -0.111 C  
ENDROOT
BRANCH   2   3
HETATM    3  C   UNL     1      -9.155   6.503  69.939  1.00  0.00    -0.143 C  
BRANCH   3   4
HETATM    4  C   UNL     1     -10.485   5.920  69.473  1.00  0.00    -0.346 C  
BRANCH   4   5
HETATM    5  C   UNL     1     -11.623   6.393  70.372  1.00  0.00    -0.440 C  
BRANCH   5   6
HETATM    6  C   UNL     1     -11.213   6.328  71.836  1.00  0.00    -0.332 C  
BRANCH   6   7
HETATM    7  C   UNL     1     -11.461   7.666  72.523  1.00  0.00    -0.405 C  
BRANCH   7   8
HETATM    8  C   UNL     1     -11.831   8.724  71.495  1.00  0.00    -0.377 C  
BRANCH   8   9
HETATM    9  C   UNL     1     -12.966   9.596  72.007  1.00  0.00    -0.518 C  
BRANCH   9  10
HETATM   10  C   UNL     1     -12.880  10.980  71.380  1.00  0.00    -0.548 C  
BRANCH  10  11
HETATM   11  C   UNL     1     -11.689  11.066  70.443  1.00  0.00    -0.437 C  
BRANCH  11  12
HETATM   12  C   UNL     1     -11.857  12.220  69.462  1.00  0.00    -0.380 C  
BRANCH  12  13
HETATM   13  C   UNL     1     -11.398  11.780  68.082  1.00  0.00    -0.348 C  
BRANCH  13  14
HETATM   14  C   UNL     1     -10.945  10.324  68.073  1.00  0.00    -0.345 C  
BRANCH  14  15
HETATM   15  C   UNL     1      -9.492  10.182  67.613  1.00  0.00    -0.166 C  
BRANCH  15  16
HETATM   16  C   UNL     1      -8.506  10.379  68.768  1.00  0.00    -0.132 C  
BRANCH  16  17
HETATM   17  N   UNL     1      -7.073  10.688  68.318  1.00  0.00    -0.080 N  
HETATM   18  C   UNL     1      -6.139   9.523  68.601  1.00  0.00    -0.043 C  
HETATM   19  C   UNL     1      -6.596  11.904  69.120  1.00  0.00    -0.103 C  
HETATM   20  C   UNL     1      -7.026  11.050  66.838  1.00  0.00    -0.125 C  
ENDBRANCH  16  17
ENDBRANCH  15  16
ENDBRANCH  14  15
ENDBRANCH  13  14
ENDBRANCH  12  13
ENDBRANCH  11  12
ENDBRANCH  10  11
ENDBRANCH   9  10
ENDBRANCH   8   9
ENDBRANCH   7   8
ENDBRANCH   6   7
ENDBRANCH   5   6
ENDBRANCH   4   5
ENDBRANCH   3   4
ENDBRANCH   2   3
TORSDOF 15
ENDMDL
MODEL      234
REMARK 921   NORMALIZED FREE ENERGY PREDICTED BY IDOCK:   -2.92 KCAL/MOL
REMARK 922        TOTAL FREE ENERGY PREDICTED BY IDOCK:   -7.18 KCAL/MOL
REMARK 923 INTER-LIGAND FREE ENERGY PREDICTED BY IDOCK:   -6.29 KCAL/MOL
REMARK 924 INTRA-LIGAND FREE ENERGY PREDICTED BY IDOCK:   -0.88 KCAL/MOL
REMARK 927      BINDING AFFINITY PREDICTED BY RF-SCORE:    0.00 PKD
ROOT
HETATM    1  C   UNL     1     -10.909   6.795  71.040  1.00  0.00    -0.280 C  
HETATM    2  C   UNL     1     -11.283   7.463  72.352  1.00  0.00    -0.337 C  
ENDROOT
BRANCH   2   3
HETATM    3  C   UNL     1     -11.360   8.978  72.191  1.00  0.00    -0.311 C  
BRANCH   3   4
HETATM    4  C   UNL     1     -11.885   9.357  70.810  1.00  0.00    -0.323 C  
BRANCH   4   5
HETATM    5  C   UNL     1     -12.493  10.755  70.831  1.00  0.00    -0.500 C  
BRANCH   5   6
HETATM    6  C   UNL     1     -11.756  11.676  69.868  1.00  0.00    -0.414 C  
BRANCH   6   7
HETATM    7  C   UNL     1     -11.650  11.037  68.489  1.00  0.00    -0.380 C  
BRANCH   7   8
HETATM    8  C   UNL     1     -11.635  12.111  67.412  1.00  0.00    -0.410 C  
BRANCH   8   9
HETATM    9  C   UNL     1     -10.914  11.613  66.169  1.00  0.00    -0.339 C  
BRANCH   9  10
HETATM   10  C   UNL     1      -9.494  12.161  66.139  1.00  0.00    -0.231 C  
BRANCH  10  11
HETATM   11  C   UNL     1      -9.473  13.608  66.593  1.00  0.00    -0.285 C  
BRANCH  11  12
HETATM   12  C   UNL     1      -8.185  13.918  67.345  1.00  0.00    -0.198 C  
BRANCH  12  13
HETATM   13  C   UNL     1      -7.933  15.416  67.319  1.00  0.00    -0.231 C  
BRANCH  13  14
HETATM   14  C   UNL     1      -8.311  16.077  68.641  1.00  0.00    -0.203 C  
BRANCH  14  15
HETATM   15  C   UNL     1      -7.808  17.521  68.720  1.00  0.00    -0.242 C  
BRANCH  15  16
HETATM   16  C   UNL     1      -8.172  18.321  67.467  1.00  0.00    -0.237 C  
BRANCH  16  17
HETATM   17  N   UNL     1      -9.506  19.071  67.573  1.00  0.00    -0.299 N  
HETATM   18  C   UNL     1     -10.645  18.266  66.970  1.00  0.00    -0.349 C  
HETATM   19  C   UNL     1      -9.358  20.377  66.783  1.00  0.00    -0.306 C  
HETATM   20  C   UNL     1      -9.825  19.427  69.021  1.00  0.00    -0.419 C  
ENDBRANCH  16  17
ENDBRANCH  15  16
ENDBRANCH  14  15
ENDBRANCH  13  14
ENDBRANCH  12  13
ENDBRANCH  11  12
ENDBRANCH  10  11
ENDBRANCH   9  10
ENDBRANCH   8   9
ENDBRANCH   7   8
ENDBRANCH   6   7
ENDBRANCH   5   6
ENDBRANCH   4   5
ENDBRANCH   3   4
ENDBRANCH   2   3
TORSDOF 15
ENDMDL
MODEL      235
REMARK 921   NORMALIZED FREE ENERGY PREDICTED BY IDOCK:   -2.92 KCAL/MOL
REMARK 922        TOTAL FREE ENERGY PREDICTED BY IDOCK:   -7.17 KCAL/MOL
REMARK 923 INTER-LIGAND FREE ENERGY PREDICTED BY IDOCK:   -5.55 KCAL/MOL
REMARK 924 INTRA-LIGAND FREE ENERGY PREDICTED BY IDOCK:   -1.62 KCAL/MOL
REMARK 927      BINDING AFFINITY PREDICTED BY RF-SCORE:    0.00 PKD
ROOT
HETATM    1  C   UNL     1     -10.568  17.283  66.037  1.00  0.00    -0.217 C  
HETATM    2  C   UNL     1     -10.688  15.856  65.528  1.00  0.00    -0.386 C  
ENDROOT
BRANCH   2   3
HETATM    3  C   UNL     1     -11.522  15.800  64.252  1.00  0.00    -0.203 C  
BRANCH   3   4
HETATM    4  C   UNL     1     -12.533  14.660  64.308  1.00  0.00    -0.267 C  
BRANCH   4   5
HETATM    5  C   UNL     1     -12.426  13.911  65.633  1.00  0.00    -0.538 C  
BRANCH   5   6
HETATM    6  C   UNL     1     -11.990  12.471  65.402  1.00  0.00    -0.492 C  
BRANCH   6   7
HETATM    7  C   UNL     1     -10.612  12.225  66.002  1.00  0.00    -0.287 C  
BRANCH   7   8
HETATM    8  C   UNL     1     -10.692  11.159  67.084  1.00  0.00    -0.305 C  
BRANCH   8   9
HETATM    9  C   UNL     1     -11.846  11.442  68.032  1.00  0.00    -0.273 C  
BRANCH   9  10
HETATM   10  C   UNL     1     -11.322  11.627  69.449  1.00  0.00    -0.342 C  
BRANCH  10  11
HETATM   11  C   UNL     1     -12.364  12.307  70.317  1.00  0.00    -0.267 C  
BRANCH  11  12
HETATM   12  C   UNL     1     -12.064  13.794  70.455  1.00  0.00    -0.421 C  
BRANCH  12  13
HETATM   13  C   UNL     1     -11.562  14.333  69.127  1.00  0.00    -0.346 C  
BRANCH  13  14
HETATM   14  C   UNL     1     -10.727  15.596  69.307  1.00  0.00    -0.239 C  
BRANCH  14  15
HETATM   15  C   UNL     1      -9.276  15.274  69.671  1.00  0.00    -0.139 C  
BRANCH  15  16
HETATM   16  C   UNL     1      -8.521  14.639  68.500  1.00  0.00    -0.161 C  
BRANCH  16  17
HETATM   17  N   UNL     1      -7.156  15.278  68.219  1.00  0.00    -0.109 N  
HETATM   18  C   UNL     1      -7.214  16.203  67.014  1.00  0.00    -0.221 C  
HETATM   19  C   UNL     1      -6.174  14.141  67.915  1.00  0.00    -0.155 C  
HETATM   20  C   UNL     1      -6.640  16.036  69.437  1.00  0.00    -0.182 C  
ENDBRANCH  16  17
ENDBRANCH  15  16
ENDBRANCH  14  15
ENDBRANCH  13  14
ENDBRANCH  12  13
ENDBRANCH  11  12
ENDBRANCH  10  11
ENDBRANCH   9  10
ENDBRANCH   8   9
ENDBRANCH   7   8
ENDBRANCH   6   7
ENDBRANCH   5   6
ENDBRANCH   4   5
ENDBRANCH   3   4
ENDBRANCH   2   3
TORSDOF 15
ENDMDL
MODEL      236
REMARK 921   NORMALIZED FREE ENERGY PREDICTED BY IDOCK:   -2.91 KCAL/MOL
REMARK 922        TOTAL FREE ENERGY PREDICTED BY IDOCK:   -7.16 KCAL/MOL
REMARK 923 INTER-LIGAND FREE ENERGY PREDICTED BY IDOCK:   -5.98 KCAL/MOL
REMARK 924 INTRA-LIGAND FREE ENERGY PREDICTED BY IDOCK:   -1.18 KCAL/MOL
REMARK 927      BINDING AFFINITY PREDICTED BY RF-SCORE:    0.00 PKD
ROOT
HETATM    1  C   UNL     1     -10.168   5.378  71.306  1.00  0.00    -0.287 C  
HETATM    2  C   UNL     1     -11.113   6.361  70.637  1.00  0.00    -0.376 C  
ENDROOT
BRANCH   2   3
HETATM    3  C   UNL     1     -11.418   7.538  71.558  1.00  0.00    -0.293 C  
BRANCH   3   4
HETATM    4  C   UNL     1     -11.712   8.800  70.754  1.00  0.00    -0.253 C  
BRANCH   4   5
HETATM    5  C   UNL     1     -10.463   9.269  70.015  1.00  0.00    -0.254 C  
BRANCH   5   6
HETATM    6  C   UNL     1     -10.816   9.751  68.615  1.00  0.00    -0.223 C  
BRANCH   6   7
HETATM    7  C   UNL     1     -10.267   8.794  67.564  1.00  0.00    -0.309 C  
BRANCH   7   8
HETATM    8  C   UNL     1      -9.230   9.499  66.703  1.00  0.00    -0.190 C  
BRANCH   8   9
HETATM    9  C   UNL     1      -9.823   9.887  65.358  1.00  0.00    -0.384 C  
BRANCH   9  10
HETATM   10  C   UNL     1      -9.994  11.398  65.283  1.00  0.00    -0.303 C  
BRANCH  10  11
HETATM   11  C   UNL     1     -11.427  11.754  64.931  1.00  0.00    -0.269 C  
BRANCH  11  12
HETATM   12  C   UNL     1     -12.004  12.730  65.948  1.00  0.00    -0.506 C  
BRANCH  12  13
HETATM   13  C   UNL     1     -12.888  13.738  65.233  1.00  0.00    -0.430 C  
BRANCH  13  14
HETATM   14  C   UNL     1     -12.128  14.487  64.144  1.00  0.00    -0.377 C  
BRANCH  14  15
HETATM   15  C   UNL     1     -11.253  15.602  64.722  1.00  0.00    -0.391 C  
BRANCH  15  16
HETATM   16  C   UNL     1      -9.851  15.099  65.077  1.00  0.00    -0.020 C  
BRANCH  16  17
HETATM   17  N   UNL     1      -9.355  15.556  66.455  1.00  0.00    -0.272 N  
HETATM   18  C   UNL     1      -8.542  14.470  67.140  1.00  0.00    -0.222 C  
HETATM   19  C   UNL     1     -10.594  15.851  67.309  1.00  0.00    -0.314 C  
HETATM   20  C   UNL     1      -8.536  16.837  66.349  1.00  0.00    -0.303 C  
ENDBRANCH  16  17
ENDBRANCH  15  16
ENDBRANCH  14  15
ENDBRANCH  13  14
ENDBRANCH  12  13
ENDBRANCH  11  12
ENDBRANCH  10  11
ENDBRANCH   9  10
ENDBRANCH   8   9
ENDBRANCH   7   8
ENDBRANCH   6   7
ENDBRANCH   5   6
ENDBRANCH   4   5
ENDBRANCH   3   4
ENDBRANCH   2   3
TORSDOF 15
ENDMDL
MODEL      237
REMARK 921   NORMALIZED FREE ENERGY PREDICTED BY IDOCK:   -2.91 KCAL/MOL
REMARK 922        TOTAL FREE ENERGY PREDICTED BY IDOCK:   -7.16 KCAL/MOL
REMARK 923 INTER-LIGAND FREE ENERGY PREDICTED BY IDOCK:   -6.16 KCAL/MOL
REMARK 924 INTRA-LIGAND FREE ENERGY PREDICTED BY IDOCK:   -1.00 KCAL/MOL
REMARK 927      BINDING AFFINITY PREDICTED BY RF-SCORE:    0.00 PKD
ROOT
HETATM    1  C   UNL     1      -8.204   6.132  67.486  1.00  0.00    -0.109 C  
HETATM    2  C   UNL     1      -8.446   5.187  68.650  1.00  0.00    -0.088 C  
ENDROOT
BRANCH   2   3
HETATM    3  C   UNL     1      -7.717   5.665  69.902  1.00  0.00    -0.083 C  
BRANCH   3   4
HETATM    4  C   UNL     1      -8.566   5.444  71.149  1.00  0.00    -0.128 C  
BRANCH   4   5
HETATM    5  C   UNL     1      -9.545   6.596  71.345  1.00  0.00    -0.174 C  
BRANCH   5   6
HETATM    6  C   UNL     1      -9.617   6.998  72.811  1.00  0.00    -0.172 C  
BRANCH   6   7
HETATM    7  C   UNL     1     -10.985   7.582  73.141  1.00  0.00    -0.420 C  
BRANCH   7   8
HETATM    8  C   UNL     1     -11.727   7.937  71.862  1.00  0.00    -0.342 C  
BRANCH   8   9
HETATM    9  C   UNL     1     -13.026   8.662  72.179  1.00  0.00    -0.432 C  
BRANCH   9  10
HETATM   10  C   UNL     1     -13.016  10.046  71.546  1.00  0.00    -0.535 C  
BRANCH  10  11
HETATM   11  C   UNL     1     -11.672  10.325  70.899  1.00  0.00    -0.472 C  
BRANCH  11  12
HETATM   12  C   UNL     1     -11.845  11.149  69.630  1.00  0.00    -0.419 C  
BRANCH  12  13
HETATM   13  C   UNL     1     -11.230  10.406  68.457  1.00  0.00    -0.308 C  
BRANCH  13  14
HETATM   14  C   UNL     1     -10.765  11.361  67.362  1.00  0.00    -0.274 C  
BRANCH  14  15
HETATM   15  C   UNL     1     -11.552  12.673  67.377  1.00  0.00    -0.421 C  
BRANCH  15  16
HETATM   16  C   UNL     1     -10.783  13.807  66.694  1.00  0.00    -0.277 C  
BRANCH  16  17
HETATM   17  N   UNL     1     -11.333  14.191  65.315  1.00  0.00    -0.317 N  
HETATM   18  C   UNL     1     -11.040  15.646  64.986  1.00  0.00    -0.389 C  
HETATM   19  C   UNL     1     -12.853  13.996  65.360  1.00  0.00    -0.410 C  
HETATM   20  C   UNL     1     -10.772  13.284  64.226  1.00  0.00    -0.387 C  
ENDBRANCH  16  17
ENDBRANCH  15  16
ENDBRANCH  14  15
ENDBRANCH  13  14
ENDBRANCH  12  13
ENDBRANCH  11  12
ENDBRANCH  10  11
ENDBRANCH   9  10
ENDBRANCH   8   9
ENDBRANCH   7   8
ENDBRANCH   6   7
ENDBRANCH   5   6
ENDBRANCH   4   5
ENDBRANCH   3   4
ENDBRANCH   2   3
TORSDOF 15
ENDMDL
MODEL      238
REMARK 921   NORMALIZED FREE ENERGY PREDICTED BY IDOCK:   -2.91 KCAL/MOL
REMARK 922        TOTAL FREE ENERGY PREDICTED BY IDOCK:   -7.15 KCAL/MOL
REMARK 923 INTER-LIGAND FREE ENERGY PREDICTED BY IDOCK:   -5.56 KCAL/MOL
REMARK 924 INTRA-LIGAND FREE ENERGY PREDICTED BY IDOCK:   -1.59 KCAL/MOL
REMARK 927      BINDING AFFINITY PREDICTED BY RF-SCORE:    0.00 PKD
ROOT
HETATM    1  C   UNL     1     -12.312  11.188  70.714  1.00  0.00    -0.504 C  
HETATM    2  C   UNL     1     -13.283  10.869  71.838  1.00  0.00    -0.508 C  
ENDROOT
BRANCH   2   3
HETATM    3  C   UNL     1     -13.320   9.371  72.120  1.00  0.00    -0.545 C  
BRANCH   3   4
HETATM    4  C   UNL     1     -12.158   8.656  71.437  1.00  0.00    -0.351 C  
BRANCH   4   5
HETATM    5  C   UNL     1     -11.281   7.951  72.466  1.00  0.00    -0.436 C  
BRANCH   5   6
HETATM    6  C   UNL     1      -9.851   8.467  72.398  1.00  0.00    -0.358 C  
BRANCH   6   7
HETATM    7  C   UNL     1      -9.561   9.064  71.026  1.00  0.00    -0.348 C  
BRANCH   7   8
HETATM    8  C   UNL     1      -8.067   9.025  70.741  1.00  0.00    -0.194 C  
BRANCH   8   9
HETATM    9  C   UNL     1      -7.809   8.855  69.252  1.00  0.00    -0.096 C  
BRANCH   9  10
HETATM   10  C   UNL     1      -8.779   9.716  68.456  1.00  0.00    -0.120 C  
BRANCH  10  11
HETATM   11  C   UNL     1      -8.040  10.498  67.385  1.00  0.00    -0.111 C  
BRANCH  11  12
HETATM   12  C   UNL     1      -6.787  11.147  67.960  1.00  0.00    -0.067 C  
BRANCH  12  13
HETATM   13  C   UNL     1      -7.133  12.525  68.496  1.00  0.00    -0.107 C  
BRANCH  13  14
HETATM   14  C   UNL     1      -7.431  13.512  67.371  1.00  0.00    -0.136 C  
BRANCH  14  15
HETATM   15  C   UNL     1      -8.630  14.405  67.698  1.00  0.00    -0.189 C  
BRANCH  15  16
HETATM   16  C   UNL     1      -9.727  13.638  68.440  1.00  0.00    -0.217 C  
BRANCH  16  17
HETATM   17  N   UNL     1     -11.148  13.969  67.968  1.00  0.00    -0.255 N  
HETATM   18  C   UNL     1     -12.029  14.407  69.126  1.00  0.00    -0.322 C  
HETATM   19  C   UNL     1     -11.737  12.691  67.362  1.00  0.00    -0.369 C  
HETATM   20  C   UNL     1     -11.132  15.043  66.886  1.00  0.00    -0.331 C  
ENDBRANCH  16  17
ENDBRANCH  15  16
ENDBRANCH  14  15
ENDBRANCH  13  14
ENDBRANCH  12  13
ENDBRANCH  11  12
ENDBRANCH  10  11
ENDBRANCH   9  10
ENDBRANCH   8   9
ENDBRANCH   7   8
ENDBRANCH   6   7
ENDBRANCH   5   6
ENDBRANCH   4   5
ENDBRANCH   3   4
ENDBRANCH   2   3
TORSDOF 15
ENDMDL
MODEL      239
REMARK 921   NORMALIZED FREE ENERGY PREDICTED BY IDOCK:   -2.91 KCAL/MOL
REMARK 922        TOTAL FREE ENERGY PREDICTED BY IDOCK:   -7.15 KCAL/MOL
REMARK 923 INTER-LIGAND FREE ENERGY PREDICTED BY IDOCK:   -6.15 KCAL/MOL
REMARK 924 INTRA-LIGAND FREE ENERGY PREDICTED BY IDOCK:   -1.00 KCAL/MOL
REMARK 927      BINDING AFFINITY PREDICTED BY RF-SCORE:    0.00 PKD
ROOT
HETATM    1  C   UNL     1     -14.345  15.230  71.954  1.00  0.00    -0.691 C  
HETATM    2  C   UNL     1     -13.023  14.576  72.317  1.00  0.00    -0.441 C  
ENDROOT
BRANCH   2   3
HETATM    3  C   UNL     1     -12.715  13.410  71.384  1.00  0.00    -0.411 C  
BRANCH   3   4
HETATM    4  C   UNL     1     -13.229  12.096  71.961  1.00  0.00    -0.496 C  
BRANCH   4   5
HETATM    5  C   UNL     1     -12.488  10.913  71.346  1.00  0.00    -0.460 C  
BRANCH   5   6
HETATM    6  C   UNL     1     -12.486  11.010  69.827  1.00  0.00    -0.251 C  
BRANCH   6   7
HETATM    7  C   UNL     1     -11.092  11.342  69.312  1.00  0.00    -0.314 C  
BRANCH   7   8
HETATM    8  C   UNL     1     -11.176  12.351  68.177  1.00  0.00    -0.313 C  
BRANCH   8   9
HETATM    9  C   UNL     1     -11.190  11.644  66.831  1.00  0.00    -0.376 C  
BRANCH   9  10
HETATM   10  C   UNL     1      -9.814  11.066  66.534  1.00  0.00    -0.241 C  
BRANCH  10  11
HETATM   11  C   UNL     1      -9.922   9.912  65.554  1.00  0.00    -0.363 C  
BRANCH  11  12
HETATM   12  C   UNL     1      -9.553   8.596  66.227  1.00  0.00    -0.322 C  
BRANCH  12  13
HETATM   13  C   UNL     1     -10.654   8.198  67.195  1.00  0.00    -0.355 C  
BRANCH  13  14
HETATM   14  C   UNL     1     -10.137   7.274  68.292  1.00  0.00    -0.193 C  
BRANCH  14  15
HETATM   15  C   UNL     1     -10.232   5.800  67.888  1.00  0.00    -0.231 C  
BRANCH  15  16
HETATM   16  C   UNL     1      -8.948   5.311  67.213  1.00  0.00    -0.111 C  
BRANCH  16  17
HETATM   17  N   UNL     1      -9.184   4.559  65.897  1.00  0.00    -0.134 N  
HETATM   18  C   UNL     1      -8.762   3.103  66.006  1.00  0.00    -0.129 C  
HETATM   19  C   UNL     1      -8.326   5.238  64.824  1.00  0.00    -0.145 C  
HETATM   20  C   UNL     1     -10.644   4.651  65.464  1.00  0.00    -0.172 C  
ENDBRANCH  16  17
ENDBRANCH  15  16
ENDBRANCH  14  15
ENDBRANCH  13  14
ENDBRANCH  12  13
ENDBRANCH  11  12
ENDBRANCH  10  11
ENDBRANCH   9  10
ENDBRANCH   8   9
ENDBRANCH   7   8
ENDBRANCH   6   7
ENDBRANCH   5   6
ENDBRANCH   4   5
ENDBRANCH   3   4
ENDBRANCH   2   3
TORSDOF 15
ENDMDL
MODEL      240
REMARK 921   NORMALIZED FREE ENERGY PREDICTED BY IDOCK:   -2.89 KCAL/MOL
REMARK 922        TOTAL FREE ENERGY PREDICTED BY IDOCK:   -7.11 KCAL/MOL
REMARK 923 INTER-LIGAND FREE ENERGY PREDICTED BY IDOCK:   -5.43 KCAL/MOL
REMARK 924 INTRA-LIGAND FREE ENERGY PREDICTED BY IDOCK:   -1.67 KCAL/MOL
REMARK 927      BINDING AFFINITY PREDICTED BY RF-SCORE:    0.00 PKD
ROOT
HETATM    1  C   UNL     1     -10.285  17.230  66.297  1.00  0.00    -0.347 C  
HETATM    2  C   UNL     1      -9.965  15.746  66.338  1.00  0.00    -0.294 C  
ENDROOT
BRANCH   2   3
HETATM    3  C   UNL     1     -10.724  14.994  65.249  1.00  0.00    -0.406 C  
BRANCH   3   4
HETATM    4  C   UNL     1     -11.967  14.316  65.815  1.00  0.00    -0.399 C  
BRANCH   4   5
HETATM    5  C   UNL     1     -11.747  13.919  67.271  1.00  0.00    -0.418 C  
BRANCH   5   6
HETATM    6  C   UNL     1     -11.315  12.463  67.373  1.00  0.00    -0.381 C  
BRANCH   6   7
HETATM    7  C   UNL     1     -10.051  12.336  68.214  1.00  0.00    -0.218 C  
BRANCH   7   8
HETATM    8  C   UNL     1      -8.819  12.536  67.346  1.00  0.00    -0.187 C  
BRANCH   8   9
HETATM    9  C   UNL     1      -8.764  11.492  66.242  1.00  0.00    -0.159 C  
BRANCH   9  10
HETATM   10  C   UNL     1      -7.923  10.305  66.692  1.00  0.00    -0.116 C  
BRANCH  10  11
HETATM   11  C   UNL     1      -8.614   9.000  66.339  1.00  0.00    -0.136 C  
BRANCH  11  12
HETATM   12  C   UNL     1     -10.124   9.134  66.481  1.00  0.00    -0.357 C  
BRANCH  12  13
HETATM   13  C   UNL     1     -10.581   8.397  67.728  1.00  0.00    -0.238 C  
BRANCH  13  14
HETATM   14  C   UNL     1      -9.677   8.687  68.922  1.00  0.00    -0.171 C  
BRANCH  14  15
HETATM   15  C   UNL     1     -10.438   8.609  70.247  1.00  0.00    -0.229 C  
BRANCH  15  16
HETATM   16  C   UNL     1     -10.176   7.289  70.978  1.00  0.00    -0.192 C  
BRANCH  16  17
HETATM   17  N   UNL     1     -10.904   7.166  72.322  1.00  0.00    -0.223 N  
HETATM   18  C   UNL     1      -9.948   7.346  73.490  1.00  0.00    -0.326 C  
HETATM   19  C   UNL     1     -11.499   5.755  72.390  1.00  0.00    -0.288 C  
HETATM   20  C   UNL     1     -12.049   8.168  72.422  1.00  0.00    -0.348 C  
ENDBRANCH  16  17
ENDBRANCH  15  16
ENDBRANCH  14  15
ENDBRANCH  13  14
ENDBRANCH  12  13
ENDBRANCH  11  12
ENDBRANCH  10  11
ENDBRANCH   9  10
ENDBRANCH   8   9
ENDBRANCH   7   8
ENDBRANCH   6   7
ENDBRANCH   5   6
ENDBRANCH   4   5
ENDBRANCH   3   4
ENDBRANCH   2   3
TORSDOF 15
ENDMDL
MODEL      241
REMARK 921   NORMALIZED FREE ENERGY PREDICTED BY IDOCK:   -2.87 KCAL/MOL
REMARK 922        TOTAL FREE ENERGY PREDICTED BY IDOCK:   -7.09 KCAL/MOL
REMARK 923 INTER-LIGAND FREE ENERGY PREDICTED BY IDOCK:   -6.21 KCAL/MOL
REMARK 924 INTRA-LIGAND FREE ENERGY PREDICTED BY IDOCK:   -0.88 KCAL/MOL
REMARK 927      BINDING AFFINITY PREDICTED BY RF-SCORE:    0.00 PKD
ROOT
HETATM    1  C   UNL     1     -10.431   5.426  71.496  1.00  0.00    -0.289 C  
HETATM    2  C   UNL     1     -11.230   5.806  72.731  1.00  0.00    -0.336 C  
ENDROOT
BRANCH   2   3
HETATM    3  C   UNL     1     -10.941   7.245  73.146  1.00  0.00    -0.384 C  
BRANCH   3   4
HETATM    4  C   UNL     1     -11.661   8.234  72.235  1.00  0.00    -0.449 C  
BRANCH   4   5
HETATM    5  C   UNL     1     -10.656   9.114  71.499  1.00  0.00    -0.428 C  
BRANCH   5   6
HETATM    6  C   UNL     1     -11.256   9.648  70.206  1.00  0.00    -0.324 C  
BRANCH   6   7
HETATM    7  C   UNL     1     -10.220   9.634  69.088  1.00  0.00    -0.212 C  
BRANCH   7   8
HETATM    8  C   UNL     1     -10.438  10.814  68.154  1.00  0.00    -0.214 C  
BRANCH   8   9
HETATM    9  C   UNL     1     -11.776  11.479  68.432  1.00  0.00    -0.372 C  
BRANCH   9  10
HETATM   10  C   UNL     1     -11.610  12.991  68.456  1.00  0.00    -0.363 C  
BRANCH  10  11
HETATM   11  C   UNL     1     -11.901  13.580  67.088  1.00  0.00    -0.430 C  
BRANCH  11  12
HETATM   12  C   UNL     1     -10.624  14.096  66.440  1.00  0.00    -0.280 C  
BRANCH  12  13
HETATM   13  C   UNL     1     -10.909  15.413  65.739  1.00  0.00    -0.349 C  
BRANCH  13  14
HETATM   14  C   UNL     1      -9.734  16.380  65.848  1.00  0.00    -0.327 C  
BRANCH  14  15
HETATM   15  C   UNL     1      -9.272  16.556  67.296  1.00  0.00    -0.224 C  
BRANCH  15  16
HETATM   16  C   UNL     1      -9.183  18.033  67.691  1.00  0.00    -0.259 C  
BRANCH  16  17
HETATM   17  N   UNL     1      -7.748  18.540  67.883  1.00  0.00    -0.247 N  
HETATM   18  C   UNL     1      -7.656  19.518  69.043  1.00  0.00    -0.321 C  
HETATM   19  C   UNL     1      -7.346  19.268  66.596  1.00  0.00    -0.225 C  
HETATM   20  C   UNL     1      -6.778  17.383  68.096  1.00  0.00    -0.178 C  
ENDBRANCH  16  17
ENDBRANCH  15  16
ENDBRANCH  14  15
ENDBRANCH  13  14
ENDBRANCH  12  13
ENDBRANCH  11  12
ENDBRANCH  10  11
ENDBRANCH   9  10
ENDBRANCH   8   9
ENDBRANCH   7   8
ENDBRANCH   6   7
ENDBRANCH   5   6
ENDBRANCH   4   5
ENDBRANCH   3   4
ENDBRANCH   2   3
TORSDOF 15
ENDMDL
MODEL      242
REMARK 921   NORMALIZED FREE ENERGY PREDICTED BY IDOCK:   -2.85 KCAL/MOL
REMARK 922        TOTAL FREE ENERGY PREDICTED BY IDOCK:   -7.05 KCAL/MOL
REMARK 923 INTER-LIGAND FREE ENERGY PREDICTED BY IDOCK:   -6.25 KCAL/MOL
REMARK 924 INTRA-LIGAND FREE ENERGY PREDICTED BY IDOCK:   -0.80 KCAL/MOL
REMARK 927      BINDING AFFINITY PREDICTED BY RF-SCORE:    0.00 PKD
ROOT
HETATM    1  C   UNL     1      -9.013   7.969  72.655  1.00  0.00    -0.280 C  
HETATM    2  C   UNL     1      -9.766   6.666  72.446  1.00  0.00    -0.162 C  
ENDROOT
BRANCH   2   3
HETATM    3  C   UNL     1     -11.208   6.931  72.024  1.00  0.00    -0.292 C  
BRANCH   3   4
HETATM    4  C   UNL     1     -11.728   8.228  72.633  1.00  0.00    -0.406 C  
BRANCH   4   5
HETATM    5  C   UNL     1     -12.480   9.048  71.590  1.00  0.00    -0.418 C  
BRANCH   5   6
HETATM    6  C   UNL     1     -11.542  10.026  70.896  1.00  0.00    -0.463 C  
BRANCH   6   7
HETATM    7  C   UNL     1     -12.266  11.327  70.573  1.00  0.00    -0.474 C  
BRANCH   7   8
HETATM    8  C   UNL     1     -12.097  11.671  69.101  1.00  0.00    -0.315 C  
BRANCH   8   9
HETATM    9  C   UNL     1     -12.006  13.176  68.908  1.00  0.00    -0.317 C  
BRANCH   9  10
HETATM   10  C   UNL     1     -11.180  13.492  67.670  1.00  0.00    -0.304 C  
BRANCH  10  11
HETATM   11  C   UNL     1      -9.899  14.210  68.054  1.00  0.00    -0.223 C  
BRANCH  11  12
HETATM   12  C   UNL     1      -8.947  14.285  66.867  1.00  0.00    -0.255 C  
BRANCH  12  13
HETATM   13  C   UNL     1      -7.730  15.109  67.249  1.00  0.00    -0.241 C  
BRANCH  13  14
HETATM   14  C   UNL     1      -7.856  15.690  68.653  1.00  0.00    -0.152 C  
BRANCH  14  15
HETATM   15  C   UNL     1      -7.758  17.218  68.649  1.00  0.00    -0.265 C  
BRANCH  15  16
HETATM   16  C   UNL     1      -8.197  17.814  67.309  1.00  0.00    -0.215 C  
BRANCH  16  17
HETATM   17  N   UNL     1      -9.049  19.082  67.440  1.00  0.00    -0.291 N  
HETATM   18  C   UNL     1      -8.188  20.334  67.414  1.00  0.00    -0.338 C  
HETATM   19  C   UNL     1      -9.767  19.011  68.792  1.00  0.00    -0.416 C  
HETATM   20  C   UNL     1     -10.107  19.151  66.345  1.00  0.00    -0.419 C  
ENDBRANCH  16  17
ENDBRANCH  15  16
ENDBRANCH  14  15
ENDBRANCH  13  14
ENDBRANCH  12  13
ENDBRANCH  11  12
ENDBRANCH  10  11
ENDBRANCH   9  10
ENDBRANCH   8   9
ENDBRANCH   7   8
ENDBRANCH   6   7
ENDBRANCH   5   6
ENDBRANCH   4   5
ENDBRANCH   3   4
ENDBRANCH   2   3
TORSDOF 15
ENDMDL
MODEL      243
REMARK 921   NORMALIZED FREE ENERGY PREDICTED BY IDOCK:   -2.84 KCAL/MOL
REMARK 922        TOTAL FREE ENERGY PREDICTED BY IDOCK:   -7.02 KCAL/MOL
REMARK 923 INTER-LIGAND FREE ENERGY PREDICTED BY IDOCK:   -5.82 KCAL/MOL
REMARK 924 INTRA-LIGAND FREE ENERGY PREDICTED BY IDOCK:   -1.20 KCAL/MOL
REMARK 927      BINDING AFFINITY PREDICTED BY RF-SCORE:    0.00 PKD
ROOT
HETATM    1  C   UNL     1      -8.959   5.261  66.737  1.00  0.00    -0.111 C  
HETATM    2  C   UNL     1      -9.857   6.316  67.362  1.00  0.00    -0.154 C  
ENDROOT
BRANCH   2   3
HETATM    3  C   UNL     1      -9.364   7.720  67.029  1.00  0.00    -0.196 C  
BRANCH   3   4
HETATM    4  C   UNL     1     -10.390   8.772  67.435  1.00  0.00    -0.349 C  
BRANCH   4   5
HETATM    5  C   UNL     1      -9.878   9.599  68.609  1.00  0.00    -0.171 C  
BRANCH   5   6
HETATM    6  C   UNL     1     -10.875   9.576  69.759  1.00  0.00    -0.264 C  
BRANCH   6   7
HETATM    7  C   UNL     1     -12.008  10.563  69.507  1.00  0.00    -0.258 C  
BRANCH   7   8
HETATM    8  C   UNL     1     -12.218  11.446  70.727  1.00  0.00    -0.475 C  
BRANCH   8   9
HETATM    9  C   UNL     1     -12.066  12.914  70.361  1.00  0.00    -0.385 C  
BRANCH   9  10
HETATM   10  C   UNL     1     -11.900  13.058  68.855  1.00  0.00    -0.358 C  
BRANCH  10  11
HETATM   11  C   UNL     1     -10.618  13.802  68.531  1.00  0.00    -0.261 C  
BRANCH  11  12
HETATM   12  C   UNL     1      -9.864  13.111  67.402  1.00  0.00    -0.226 C  
BRANCH  12  13
HETATM   13  C   UNL     1      -9.945  13.961  66.146  1.00  0.00    -0.322 C  
BRANCH  13  14
HETATM   14  C   UNL     1      -9.045  15.189  66.234  1.00  0.00    -0.313 C  
BRANCH  14  15
HETATM   15  C   UNL     1      -9.818  16.484  65.971  1.00  0.00    -0.348 C  
BRANCH  15  16
HETATM   16  C   UNL     1      -8.983  17.724  66.302  1.00  0.00    -0.174 C  
BRANCH  16  17
HETATM   17  N   UNL     1      -9.544  18.563  67.457  1.00  0.00    -0.283 N  
HETATM   18  C   UNL     1     -10.499  17.753  68.318  1.00  0.00    -0.364 C  
HETATM   19  C   UNL     1     -10.317  19.732  66.836  1.00  0.00    -0.476 C  
HETATM   20  C   UNL     1      -8.423  19.138  68.315  1.00  0.00    -0.332 C  
ENDBRANCH  16  17
ENDBRANCH  15  16
ENDBRANCH  14  15
ENDBRANCH  13  14
ENDBRANCH  12  13
ENDBRANCH  11  12
ENDBRANCH  10  11
ENDBRANCH   9  10
ENDBRANCH   8   9
ENDBRANCH   7   8
ENDBRANCH   6   7
ENDBRANCH   5   6
ENDBRANCH   4   5
ENDBRANCH   3   4
ENDBRANCH   2   3
TORSDOF 15
ENDMDL
MODEL      244
REMARK 921   NORMALIZED FREE ENERGY PREDICTED BY IDOCK:   -2.83 KCAL/MOL
REMARK 922        TOTAL FREE ENERGY PREDICTED BY IDOCK:   -7.01 KCAL/MOL
REMARK 923 INTER-LIGAND FREE ENERGY PREDICTED BY IDOCK:   -5.77 KCAL/MOL
REMARK 924 INTRA-LIGAND FREE ENERGY PREDICTED BY IDOCK:   -1.24 KCAL/MOL
REMARK 927      BINDING AFFINITY PREDICTED BY RF-SCORE:    0.00 PKD
ROOT
HETATM    1  C   UNL     1     -10.131  16.267  69.295  1.00  0.00    -0.267 C  
HETATM    2  C   UNL     1      -9.302  17.368  68.655  1.00  0.00    -0.267 C  
ENDROOT
BRANCH   2   3
HETATM    3  C   UNL     1      -9.917  17.816  67.334  1.00  0.00    -0.323 C  
BRANCH   3   4
HETATM    4  C   UNL     1      -9.061  17.373  66.152  1.00  0.00    -0.177 C  
BRANCH   4   5
HETATM    5  C   UNL     1      -9.293  15.898  65.844  1.00  0.00    -0.353 C  
BRANCH   5   6
HETATM    6  C   UNL     1     -10.577  15.710  65.049  1.00  0.00    -0.422 C  
BRANCH   6   7
HETATM    7  C   UNL     1     -10.959  14.236  64.987  1.00  0.00    -0.394 C  
BRANCH   7   8
HETATM    8  C   UNL     1     -12.291  14.008  65.685  1.00  0.00    -0.502 C  
BRANCH   8   9
HETATM    9  C   UNL     1     -12.144  14.172  67.189  1.00  0.00    -0.432 C  
BRANCH   9  10
HETATM   10  C   UNL     1     -11.241  13.080  67.744  1.00  0.00    -0.313 C  
BRANCH  10  11
HETATM   11  C   UNL     1     -11.762  11.709  67.352  1.00  0.00    -0.278 C  
BRANCH  11  12
HETATM   12  C   UNL     1     -10.657  10.873  66.720  1.00  0.00    -0.313 C  
BRANCH  12  13
HETATM   13  C   UNL     1     -10.148   9.861  67.731  1.00  0.00    -0.221 C  
BRANCH  13  14
HETATM   14  C   UNL     1     -10.572   8.440  67.374  1.00  0.00    -0.313 C  
BRANCH  14  15
HETATM   15  C   UNL     1     -10.192   7.439  68.468  1.00  0.00    -0.201 C  
BRANCH  15  16
HETATM   16  C   UNL     1     -10.750   7.850  69.834  1.00  0.00    -0.244 C  
BRANCH  16  17
HETATM   17  N   UNL     1      -9.894   7.389  71.020  1.00  0.00    -0.180 N  
HETATM   18  C   UNL     1     -10.613   7.607  72.341  1.00  0.00    -0.260 C  
HETATM   19  C   UNL     1      -8.615   8.233  71.014  1.00  0.00    -0.144 C  
HETATM   20  C   UNL     1      -9.496   5.924  70.876  1.00  0.00    -0.165 C  
ENDBRANCH  16  17
ENDBRANCH  15  16
ENDBRANCH  14  15
ENDBRANCH  13  14
ENDBRANCH  12  13
ENDBRANCH  11  12
ENDBRANCH  10  11
ENDBRANCH   9  10
ENDBRANCH   8   9
ENDBRANCH   7   8
ENDBRANCH   6   7
ENDBRANCH   5   6
ENDBRANCH   4   5
ENDBRANCH   3   4
ENDBRANCH   2   3
TORSDOF 15
ENDMDL
MODEL      245
REMARK 921   NORMALIZED FREE ENERGY PREDICTED BY IDOCK:   -2.83 KCAL/MOL
REMARK 922        TOTAL FREE ENERGY PREDICTED BY IDOCK:   -7.00 KCAL/MOL
REMARK 923 INTER-LIGAND FREE ENERGY PREDICTED BY IDOCK:   -5.69 KCAL/MOL
REMARK 924 INTRA-LIGAND FREE ENERGY PREDICTED BY IDOCK:   -1.31 KCAL/MOL
REMARK 927      BINDING AFFINITY PREDICTED BY RF-SCORE:    0.00 PKD
ROOT
HETATM    1  C   UNL     1      -9.701   4.761  65.557  1.00  0.00    -0.166 C  
HETATM    2  C   UNL     1      -9.854   4.314  67.000  1.00  0.00    -0.216 C  
ENDROOT
BRANCH   2   3
HETATM    3  C   UNL     1      -8.602   4.637  67.808  1.00  0.00    -0.105 C  
BRANCH   3   4
HETATM    4  C   UNL     1      -8.885   5.712  68.853  1.00  0.00    -0.109 C  
BRANCH   4   5
HETATM    5  C   UNL     1      -7.818   6.799  68.808  1.00  0.00    -0.111 C  
BRANCH   5   6
HETATM    6  C   UNL     1      -8.370   8.070  68.179  1.00  0.00    -0.127 C  
BRANCH   6   7
HETATM    7  C   UNL     1      -9.894   8.067  68.213  1.00  0.00    -0.190 C  
BRANCH   7   8
HETATM    8  C   UNL     1     -10.451   8.385  66.834  1.00  0.00    -0.359 C  
BRANCH   8   9
HETATM    9  C   UNL     1      -9.370   8.974  65.941  1.00  0.00    -0.306 C  
BRANCH   9  10
HETATM   10  C   UNL     1      -9.841  10.299  65.360  1.00  0.00    -0.362 C  
BRANCH  10  11
HETATM   11  C   UNL     1      -9.758  10.275  63.845  1.00  0.00    -0.325 C  
BRANCH  11  12
HETATM   12  C   UNL     1     -10.151  11.627  63.263  1.00  0.00    -0.454 C  
BRANCH  12  13
HETATM   13  C   UNL     1     -11.631  11.869  63.504  1.00  0.00    -0.537 C  
BRANCH  13  14
HETATM   14  C   UNL     1     -11.930  13.344  63.757  1.00  0.00    -0.517 C  
BRANCH  14  15
HETATM   15  C   UNL     1     -11.751  13.717  65.231  1.00  0.00    -0.349 C  
BRANCH  15  16
HETATM   16  C   UNL     1     -10.292  14.036  65.565  1.00  0.00    -0.339 C  
BRANCH  16  17
HETATM   17  N   UNL     1     -10.109  15.299  66.416  1.00  0.00    -0.262 N  
HETATM   18  C   UNL     1     -10.794  15.163  67.766  1.00  0.00    -0.292 C  
HETATM   19  C   UNL     1     -10.759  16.459  65.653  1.00  0.00    -0.270 C  
HETATM   20  C   UNL     1      -8.633  15.626  66.607  1.00  0.00    -0.295 C  
ENDBRANCH  16  17
ENDBRANCH  15  16
ENDBRANCH  14  15
ENDBRANCH  13  14
ENDBRANCH  12  13
ENDBRANCH  11  12
ENDBRANCH  10  11
ENDBRANCH   9  10
ENDBRANCH   8   9
ENDBRANCH   7   8
ENDBRANCH   6   7
ENDBRANCH   5   6
ENDBRANCH   4   5
ENDBRANCH   3   4
ENDBRANCH   2   3
TORSDOF 15
ENDMDL
MODEL      246
REMARK 921   NORMALIZED FREE ENERGY PREDICTED BY IDOCK:   -2.83 KCAL/MOL
REMARK 922        TOTAL FREE ENERGY PREDICTED BY IDOCK:   -6.99 KCAL/MOL
REMARK 923 INTER-LIGAND FREE ENERGY PREDICTED BY IDOCK:   -5.64 KCAL/MOL
REMARK 924 INTRA-LIGAND FREE ENERGY PREDICTED BY IDOCK:   -1.35 KCAL/MOL
REMARK 927      BINDING AFFINITY PREDICTED BY RF-SCORE:    0.00 PKD
ROOT
HETATM    1  C   UNL     1      -7.029   8.683  66.064  1.00  0.00    -0.079 C  
HETATM    2  C   UNL     1      -6.022   8.686  64.927  1.00  0.00    -0.059 C  
ENDROOT
BRANCH   2   3
HETATM    3  C   UNL     1      -6.412   9.698  63.855  1.00  0.00    -0.111 C  
BRANCH   3   4
HETATM    4  C   UNL     1      -7.665   9.251  63.109  1.00  0.00    -0.118 C  
BRANCH   4   5
HETATM    5  C   UNL     1      -8.539  10.451  62.760  1.00  0.00    -0.208 C  
BRANCH   5   6
HETATM    6  C   UNL     1      -9.165  11.044  64.015  1.00  0.00    -0.178 C  
BRANCH   6   7
HETATM    7  C   UNL     1     -10.608  11.455  63.752  1.00  0.00    -0.464 C  
BRANCH   7   8
HETATM    8  C   UNL     1     -11.323  11.733  65.066  1.00  0.00    -0.288 C  
BRANCH   8   9
HETATM    9  C   UNL     1     -12.647  12.437  64.818  1.00  0.00    -0.419 C  
BRANCH   9  10
HETATM   10  C   UNL     1     -12.642  13.802  65.490  1.00  0.00    -0.551 C  
BRANCH  10  11
HETATM   11  C   UNL     1     -12.281  14.886  64.491  1.00  0.00    -0.396 C  
BRANCH  11  12
HETATM   12  C   UNL     1     -10.853  15.368  64.712  1.00  0.00    -0.385 C  
BRANCH  12  13
HETATM   13  C   UNL     1     -10.431  15.062  66.138  1.00  0.00    -0.313 C  
BRANCH  13  14
HETATM   14  C   UNL     1      -8.971  15.423  66.387  1.00  0.00    -0.351 C  
BRANCH  14  15
HETATM   15  C   UNL     1      -8.628  16.816  65.853  1.00  0.00    -0.065 C  
BRANCH  15  16
HETATM   16  C   UNL     1      -8.282  17.790  66.982  1.00  0.00    -0.221 C  
BRANCH  16  17
HETATM   17  N   UNL     1      -9.427  18.737  67.361  1.00  0.00    -0.294 N  
HETATM   18  C   UNL     1     -10.444  18.855  66.237  1.00  0.00    -0.445 C  
HETATM   19  C   UNL     1      -8.812  20.119  67.610  1.00  0.00    -0.309 C  
HETATM   20  C   UNL     1     -10.114  18.286  68.645  1.00  0.00    -0.385 C  
ENDBRANCH  16  17
ENDBRANCH  15  16
ENDBRANCH  14  15
ENDBRANCH  13  14
ENDBRANCH  12  13
ENDBRANCH  11  12
ENDBRANCH  10  11
ENDBRANCH   9  10
ENDBRANCH   8   9
ENDBRANCH   7   8
ENDBRANCH   6   7
ENDBRANCH   5   6
ENDBRANCH   4   5
ENDBRANCH   3   4
ENDBRANCH   2   3
TORSDOF 15
ENDMDL
MODEL      247
REMARK 921   NORMALIZED FREE ENERGY PREDICTED BY IDOCK:   -2.82 KCAL/MOL
REMARK 922        TOTAL FREE ENERGY PREDICTED BY IDOCK:   -6.98 KCAL/MOL
REMARK 923 INTER-LIGAND FREE ENERGY PREDICTED BY IDOCK:   -5.61 KCAL/MOL
REMARK 924 INTRA-LIGAND FREE ENERGY PREDICTED BY IDOCK:   -1.37 KCAL/MOL
REMARK 927      BINDING AFFINITY PREDICTED BY RF-SCORE:    0.00 PKD
ROOT
HETATM    1  C   UNL     1     -10.756  19.853  65.629  1.00  0.00    -0.377 C  
HETATM    2  C   UNL     1      -9.531  20.176  66.467  1.00  0.00    -0.497 C  
ENDROOT
BRANCH   2   3
HETATM    3  C   UNL     1      -9.917  20.448  67.917  1.00  0.00    -0.428 C  
BRANCH   3   4
HETATM    4  C   UNL     1      -9.512  19.287  68.820  1.00  0.00    -0.459 C  
BRANCH   4   5
HETATM    5  C   UNL     1      -8.310  18.550  68.240  1.00  0.00    -0.344 C  
BRANCH   5   6
HETATM    6  C   UNL     1      -8.687  17.127  67.852  1.00  0.00    -0.222 C  
BRANCH   6   7
HETATM    7  C   UNL     1     -10.070  16.774  68.385  1.00  0.00    -0.285 C  
BRANCH   7   8
HETATM    8  C   UNL     1     -10.467  15.377  67.933  1.00  0.00    -0.256 C  
BRANCH   8   9
HETATM    9  C   UNL     1      -9.517  14.870  66.860  1.00  0.00    -0.251 C  
BRANCH   9  10
HETATM   10  C   UNL     1     -10.303  14.183  65.752  1.00  0.00    -0.338 C  
BRANCH  10  11
HETATM   11  C   UNL     1     -11.744  13.969  66.178  1.00  0.00    -0.395 C  
BRANCH  11  12
HETATM   12  C   UNL     1     -12.104  12.489  66.139  1.00  0.00    -0.357 C  
BRANCH  12  13
HETATM   13  C   UNL     1     -10.831  11.662  66.087  1.00  0.00    -0.343 C  
BRANCH  13  14
HETATM   14  C   UNL     1     -10.471  11.089  67.454  1.00  0.00    -0.255 C  
BRANCH  14  15
HETATM   15  C   UNL     1     -11.711  10.853  68.318  1.00  0.00    -0.259 C  
BRANCH  15  16
HETATM   16  C   UNL     1     -11.584  11.518  69.692  1.00  0.00    -0.333 C  
BRANCH  16  17
HETATM   17  N   UNL     1     -12.316  10.773  70.815  1.00  0.00    -0.349 N  
HETATM   18  C   UNL     1     -11.420   9.732  71.467  1.00  0.00    -0.323 C  
HETATM   19  C   UNL     1     -13.514  10.057  70.181  1.00  0.00     0.688 C  
HETATM   20  C   UNL     1     -12.845  11.742  71.866  1.00  0.00    -0.232 C  
ENDBRANCH  16  17
ENDBRANCH  15  16
ENDBRANCH  14  15
ENDBRANCH  13  14
ENDBRANCH  12  13
ENDBRANCH  11  12
ENDBRANCH  10  11
ENDBRANCH   9  10
ENDBRANCH   8   9
ENDBRANCH   7   8
ENDBRANCH   6   7
ENDBRANCH   5   6
ENDBRANCH   4   5
ENDBRANCH   3   4
ENDBRANCH   2   3
TORSDOF 15
ENDMDL
MODEL      248
REMARK 921   NORMALIZED FREE ENERGY PREDICTED BY IDOCK:   -2.81 KCAL/MOL
REMARK 922        TOTAL FREE ENERGY PREDICTED BY IDOCK:   -6.98 KCAL/MOL
REMARK 923 INTER-LIGAND FREE ENERGY PREDICTED BY IDOCK:   -5.98 KCAL/MOL
REMARK 924 INTRA-LIGAND FREE ENERGY PREDICTED BY IDOCK:   -0.99 KCAL/MOL
REMARK 927      BINDING AFFINITY PREDICTED BY RF-SCORE:    0.00 PKD
ROOT
HETATM    1  C   UNL     1      -7.249   3.425  72.644  1.00  0.00    -0.048 C  
HETATM    2  C   UNL     1      -8.117   2.323  73.228  1.00  0.00    -0.051 C  
ENDROOT
BRANCH   2   3
HETATM    3  C   UNL     1      -9.158   2.897  74.183  1.00  0.00    -0.089 C  
BRANCH   3   4
HETATM    4  C   UNL     1     -10.533   2.953  73.525  1.00  0.00    -0.241 C  
BRANCH   4   5
HETATM    5  C   UNL     1     -11.128   4.352  73.641  1.00  0.00    -0.361 C  
BRANCH   5   6
HETATM    6  C   UNL     1     -10.281   5.222  74.558  1.00  0.00    -0.299 C  
BRANCH   6   7
HETATM    7  C   UNL     1     -10.398   6.690  74.165  1.00  0.00    -0.347 C  
BRANCH   7   8
HETATM    8  C   UNL     1     -10.702   6.813  72.680  1.00  0.00    -0.271 C  
BRANCH   8   9
HETATM    9  C   UNL     1     -11.841   7.793  72.445  1.00  0.00    -0.371 C  
BRANCH   9  10
HETATM   10  C   UNL     1     -11.904   8.172  70.972  1.00  0.00    -0.279 C  
BRANCH  10  11
HETATM   11  C   UNL     1     -11.153   9.467  70.724  1.00  0.00    -0.365 C  
BRANCH  11  12
HETATM   12  C   UNL     1     -12.066  10.668  70.934  1.00  0.00    -0.489 C  
BRANCH  12  13
HETATM   13  C   UNL     1     -12.117  11.492  69.659  1.00  0.00    -0.363 C  
BRANCH  13  14
HETATM   14  C   UNL     1     -11.433  10.780  68.496  1.00  0.00    -0.362 C  
BRANCH  14  15
HETATM   15  C   UNL     1     -11.393  11.651  67.238  1.00  0.00    -0.372 C  
BRANCH  15  16
HETATM   16  C   UNL     1     -11.828  13.090  67.527  1.00  0.00    -0.355 C  
BRANCH  16  17
HETATM   17  N   UNL     1     -11.209  14.129  66.584  1.00  0.00    -0.316 N  
HETATM   18  C   UNL     1      -9.797  13.738  66.177  1.00  0.00    -0.297 C  
HETATM   19  C   UNL     1     -11.148  15.457  67.346  1.00  0.00    -0.311 C  
HETATM   20  C   UNL     1     -12.074  14.333  65.345  1.00  0.00    -0.396 C  
ENDBRANCH  16  17
ENDBRANCH  15  16
ENDBRANCH  14  15
ENDBRANCH  13  14
ENDBRANCH  12  13
ENDBRANCH  11  12
ENDBRANCH  10  11
ENDBRANCH   9  10
ENDBRANCH   8   9
ENDBRANCH   7   8
ENDBRANCH   6   7
ENDBRANCH   5   6
ENDBRANCH   4   5
ENDBRANCH   3   4
ENDBRANCH   2   3
TORSDOF 15
ENDMDL
MODEL      249
REMARK 921   NORMALIZED FREE ENERGY PREDICTED BY IDOCK:   -2.80 KCAL/MOL
REMARK 922        TOTAL FREE ENERGY PREDICTED BY IDOCK:   -6.95 KCAL/MOL
REMARK 923 INTER-LIGAND FREE ENERGY PREDICTED BY IDOCK:   -6.02 KCAL/MOL
REMARK 924 INTRA-LIGAND FREE ENERGY PREDICTED BY IDOCK:   -0.92 KCAL/MOL
REMARK 927      BINDING AFFINITY PREDICTED BY RF-SCORE:    0.00 PKD
ROOT
HETATM    1  C   UNL     1      -7.696  15.656  67.005  1.00  0.00    -0.257 C  
HETATM    2  C   UNL     1      -8.769  16.519  66.364  1.00  0.00    -0.357 C  
ENDROOT
BRANCH   2   3
HETATM    3  C   UNL     1     -10.060  15.732  66.171  1.00  0.00    -0.337 C  
BRANCH   3   4
HETATM    4  C   UNL     1     -10.916  15.764  67.434  1.00  0.00    -0.279 C  
BRANCH   4   5
HETATM    5  C   UNL     1     -11.856  14.565  67.476  1.00  0.00    -0.404 C  
BRANCH   5   6
HETATM    6  C   UNL     1     -11.415  13.499  66.482  1.00  0.00    -0.365 C  
BRANCH   6   7
HETATM    7  C   UNL     1     -12.528  13.198  65.487  1.00  0.00    -0.516 C  
BRANCH   7   8
HETATM    8  C   UNL     1     -12.035  13.414  64.065  1.00  0.00    -0.520 C  
BRANCH   8   9
HETATM    9  C   UNL     1     -11.710  12.085  63.402  1.00  0.00    -0.519 C  
BRANCH   9  10
HETATM   10  C   UNL     1     -10.207  11.847  63.425  1.00  0.00    -0.478 C  
BRANCH  10  11
HETATM   11  C   UNL     1      -9.887  10.539  64.126  1.00  0.00    -0.401 C  
BRANCH  11  12
HETATM   12  C   UNL     1      -8.915  10.767  65.276  1.00  0.00    -0.211 C  
BRANCH  12  13
HETATM   13  C   UNL     1      -9.634  10.547  66.595  1.00  0.00    -0.210 C  
BRANCH  13  14
HETATM   14  C   UNL     1     -10.230   9.146  66.689  1.00  0.00    -0.328 C  
BRANCH  14  15
HETATM   15  C   UNL     1     -10.516   8.744  68.138  1.00  0.00    -0.243 C  
BRANCH  15  16
HETATM   16  C   UNL     1      -9.783   7.457  68.528  1.00  0.00    -0.151 C  
BRANCH  16  17
HETATM   17  N   UNL     1      -8.305   7.665  68.881  1.00  0.00    -0.128 N  
HETATM   18  C   UNL     1      -7.393   6.989  67.871  1.00  0.00    -0.097 C  
HETATM   19  C   UNL     1      -8.071   7.026  70.255  1.00  0.00    -0.119 C  
HETATM   20  C   UNL     1      -7.966   9.148  68.985  1.00  0.00    -0.101 C  
ENDBRANCH  16  17
ENDBRANCH  15  16
ENDBRANCH  14  15
ENDBRANCH  13  14
ENDBRANCH  12  13
ENDBRANCH  11  12
ENDBRANCH  10  11
ENDBRANCH   9  10
ENDBRANCH   8   9
ENDBRANCH   7   8
ENDBRANCH   6   7
ENDBRANCH   5   6
ENDBRANCH   4   5
ENDBRANCH   3   4
ENDBRANCH   2   3
TORSDOF 15
ENDMDL
MODEL      250
REMARK 921   NORMALIZED FREE ENERGY PREDICTED BY IDOCK:   -2.79 KCAL/MOL
REMARK 922        TOTAL FREE ENERGY PREDICTED BY IDOCK:   -6.92 KCAL/MOL
REMARK 923 INTER-LIGAND FREE ENERGY PREDICTED BY IDOCK:   -5.99 KCAL/MOL
REMARK 924 INTRA-LIGAND FREE ENERGY PREDICTED BY IDOCK:   -0.94 KCAL/MOL
REMARK 927      BINDING AFFINITY PREDICTED BY RF-SCORE:    0.00 PKD
ROOT
HETATM    1  C   UNL     1      -9.951  14.267  68.225  1.00  0.00    -0.239 C  
HETATM    2  C   UNL     1     -10.897  14.817  67.171  1.00  0.00    -0.311 C  
ENDROOT
BRANCH   2   3
HETATM    3  C   UNL     1     -12.132  13.935  67.031  1.00  0.00    -0.451 C  
BRANCH   3   4
HETATM    4  C   UNL     1     -12.513  13.752  65.566  1.00  0.00    -0.548 C  
BRANCH   4   5
HETATM    5  C   UNL     1     -11.994  12.418  65.038  1.00  0.00    -0.458 C  
BRANCH   5   6
HETATM    6  C   UNL     1     -10.589  12.574  64.473  1.00  0.00    -0.363 C  
BRANCH   6   7
HETATM    7  C   UNL     1      -9.717  11.388  64.868  1.00  0.00    -0.283 C  
BRANCH   7   8
HETATM    8  C   UNL     1     -10.527  10.387  65.678  1.00  0.00    -0.185 C  
BRANCH   8   9
HETATM    9  C   UNL     1      -9.632   9.281  66.213  1.00  0.00    -0.313 C  
BRANCH   9  10
HETATM   10  C   UNL     1     -10.332   8.550  67.350  1.00  0.00    -0.356 C  
BRANCH  10  11
HETATM   11  C   UNL     1     -10.451   7.070  67.037  1.00  0.00    -0.386 C  
BRANCH  11  12
HETATM   12  C   UNL     1     -11.328   6.371  68.068  1.00  0.00    -0.086 C  
BRANCH  12  13
HETATM   13  C   UNL     1     -10.712   6.532  69.447  1.00  0.00    -0.328 C  
BRANCH  13  14
HETATM   14  C   UNL     1     -11.772   6.547  70.544  1.00  0.00    -0.438 C  
BRANCH  14  15
HETATM   15  C   UNL     1     -11.280   5.864  71.822  1.00  0.00    -0.311 C  
BRANCH  15  16
HETATM   16  C   UNL     1     -10.726   6.873  72.831  1.00  0.00    -0.277 C  
BRANCH  16  17
HETATM   17  N   UNL     1      -9.291   6.577  73.283  1.00  0.00    -0.131 N  
HETATM   18  C   UNL     1      -9.265   5.596  74.443  1.00  0.00    -0.127 C  
HETATM   19  C   UNL     1      -8.678   7.902  73.750  1.00  0.00    -0.271 C  
HETATM   20  C   UNL     1      -8.447   6.046  72.129  1.00  0.00    -0.124 C  
ENDBRANCH  16  17
ENDBRANCH  15  16
ENDBRANCH  14  15
ENDBRANCH  13  14
ENDBRANCH  12  13
ENDBRANCH  11  12
ENDBRANCH  10  11
ENDBRANCH   9  10
ENDBRANCH   8   9
ENDBRANCH   7   8
ENDBRANCH   6   7
ENDBRANCH   5   6
ENDBRANCH   4   5
ENDBRANCH   3   4
ENDBRANCH   2   3
TORSDOF 15
ENDMDL
MODEL      251
REMARK 921   NORMALIZED FREE ENERGY PREDICTED BY IDOCK:   -2.78 KCAL/MOL
REMARK 922        TOTAL FREE ENERGY PREDICTED BY IDOCK:   -6.92 KCAL/MOL
REMARK 923 INTER-LIGAND FREE ENERGY PREDICTED BY IDOCK:   -6.17 KCAL/MOL
REMARK 924 INTRA-LIGAND FREE ENERGY PREDICTED BY IDOCK:   -0.75 KCAL/MOL
REMARK 927      BINDING AFFINITY PREDICTED BY RF-SCORE:    0.00 PKD
ROOT
HETATM    1  C   UNL     1      -9.226   8.628  70.427  1.00  0.00    -0.189 C  
HETATM    2  C   UNL     1     -10.731   8.597  70.222  1.00  0.00    -0.243 C  
ENDROOT
BRANCH   2   3
HETATM    3  C   UNL     1     -11.432   7.965  71.419  1.00  0.00    -0.293 C  
BRANCH   3   4
HETATM    4  C   UNL     1     -12.443   8.928  72.033  1.00  0.00    -0.461 C  
BRANCH   4   5
HETATM    5  C   UNL     1     -12.449  10.254  71.280  1.00  0.00    -0.514 C  
BRANCH   5   6
HETATM    6  C   UNL     1     -13.494  11.197  71.858  1.00  0.00    -0.284 C  
BRANCH   6   7
HETATM    7  C   UNL     1     -13.076  12.648  71.661  1.00  0.00    -0.421 C  
BRANCH   7   8
HETATM    8  C   UNL     1     -14.043  13.577  72.379  1.00  0.00    -0.563 C  
BRANCH   8   9
HETATM    9  C   UNL     1     -13.401  14.933  72.627  1.00  0.00    -0.553 C  
BRANCH   9  10
HETATM   10  C   UNL     1     -12.040  14.994  71.948  1.00  0.00    -0.443 C  
BRANCH  10  11
HETATM   11  C   UNL     1     -12.148  15.688  70.603  1.00  0.00    -0.443 C  
BRANCH  11  12
HETATM   12  C   UNL     1     -11.181  15.072  69.600  1.00  0.00    -0.296 C  
BRANCH  12  13
HETATM   13  C   UNL     1     -11.523  13.605  69.404  1.00  0.00    -0.343 C  
BRANCH  13  14
HETATM   14  C   UNL     1     -10.937  13.055  68.108  1.00  0.00    -0.269 C  
BRANCH  14  15
HETATM   15  C   UNL     1      -9.548  12.448  68.322  1.00  0.00    -0.211 C  
BRANCH  15  16
HETATM   16  C   UNL     1      -9.429  11.060  67.688  1.00  0.00    -0.164 C  
BRANCH  16  17
HETATM   17  N   UNL     1      -8.197  10.889  66.790  1.00  0.00    -0.135 N  
HETATM   18  C   UNL     1      -7.185  11.999  67.019  1.00  0.00    -0.096 C  
HETATM   19  C   UNL     1      -8.680  10.958  65.337  1.00  0.00    -0.155 C  
HETATM   20  C   UNL     1      -7.542   9.529  67.006  1.00  0.00    -0.091 C  
ENDBRANCH  16  17
ENDBRANCH  15  16
ENDBRANCH  14  15
ENDBRANCH  13  14
ENDBRANCH  12  13
ENDBRANCH  11  12
ENDBRANCH  10  11
ENDBRANCH   9  10
ENDBRANCH   8   9
ENDBRANCH   7   8
ENDBRANCH   6   7
ENDBRANCH   5   6
ENDBRANCH   4   5
ENDBRANCH   3   4
ENDBRANCH   2   3
TORSDOF 15
ENDMDL
MODEL      252
REMARK 921   NORMALIZED FREE ENERGY PREDICTED BY IDOCK:   -2.78 KCAL/MOL
REMARK 922        TOTAL FREE ENERGY PREDICTED BY IDOCK:   -6.91 KCAL/MOL
REMARK 923 INTER-LIGAND FREE ENERGY PREDICTED BY IDOCK:   -4.85 KCAL/MOL
REMARK 924 INTRA-LIGAND FREE ENERGY PREDICTED BY IDOCK:   -2.06 KCAL/MOL
REMARK 927      BINDING AFFINITY PREDICTED BY RF-SCORE:    0.00 PKD
ROOT
HETATM    1  C   UNL     1     -10.108   8.129  72.630  1.00  0.00    -0.379 C  
HETATM    2  C   UNL     1     -11.589   7.821  72.495  1.00  0.00    -0.422 C  
ENDROOT
BRANCH   2   3
HETATM    3  C   UNL     1     -12.160   8.428  71.218  1.00  0.00    -0.315 C  
BRANCH   3   4
HETATM    4  C   UNL     1     -11.866   9.923  71.143  1.00  0.00    -0.472 C  
BRANCH   4   5
HETATM    5  C   UNL     1     -11.495  10.327  69.720  1.00  0.00    -0.320 C  
BRANCH   5   6
HETATM    6  C   UNL     1     -10.008  10.114  69.472  1.00  0.00    -0.257 C  
BRANCH   6   7
HETATM    7  C   UNL     1      -9.766   8.783  68.771  1.00  0.00    -0.171 C  
BRANCH   7   8
HETATM    8  C   UNL     1      -8.535   8.101  69.348  1.00  0.00    -0.127 C  
BRANCH   8   9
HETATM    9  C   UNL     1      -7.327   8.327  68.453  1.00  0.00    -0.094 C  
BRANCH   9  10
HETATM   10  C   UNL     1      -6.417   9.381  69.067  1.00  0.00    -0.046 C  
BRANCH  10  11
HETATM   11  C   UNL     1      -6.316  10.591  68.158  1.00  0.00    -0.058 C  
BRANCH  11  12
HETATM   12  C   UNL     1      -6.945  11.813  68.815  1.00  0.00    -0.103 C  
BRANCH  12  13
HETATM   13  C   UNL     1      -7.552  12.705  67.746  1.00  0.00    -0.141 C  
BRANCH  13  14
HETATM   14  C   UNL     1      -8.298  11.896  66.689  1.00  0.00    -0.117 C  
BRANCH  14  15
HETATM   15  C   UNL     1      -9.698  12.454  66.427  1.00  0.00    -0.246 C  
BRANCH  15  16
HETATM   16  C   UNL     1     -10.186  13.335  67.581  1.00  0.00    -0.228 C  
BRANCH  16  17
HETATM   17  N   UNL     1     -11.084  14.498  67.140  1.00  0.00    -0.311 N  
HETATM   18  C   UNL     1     -11.420  15.412  68.307  1.00  0.00    -0.353 C  
HETATM   19  C   UNL     1     -12.385  13.890  66.604  1.00  0.00    -0.369 C  
HETATM   20  C   UNL     1     -10.437  15.299  66.016  1.00  0.00    -0.317 C  
ENDBRANCH  16  17
ENDBRANCH  15  16
ENDBRANCH  14  15
ENDBRANCH  13  14
ENDBRANCH  12  13
ENDBRANCH  11  12
ENDBRANCH  10  11
ENDBRANCH   9  10
ENDBRANCH   8   9
ENDBRANCH   7   8
ENDBRANCH   6   7
ENDBRANCH   5   6
ENDBRANCH   4   5
ENDBRANCH   3   4
ENDBRANCH   2   3
TORSDOF 15
ENDMDL
MODEL      253
REMARK 921   NORMALIZED FREE ENERGY PREDICTED BY IDOCK:   -2.78 KCAL/MOL
REMARK 922        TOTAL FREE ENERGY PREDICTED BY IDOCK:   -6.91 KCAL/MOL
REMARK 923 INTER-LIGAND FREE ENERGY PREDICTED BY IDOCK:   -5.41 KCAL/MOL
REMARK 924 INTRA-LIGAND FREE ENERGY PREDICTED BY IDOCK:   -1.49 KCAL/MOL
REMARK 927      BINDING AFFINITY PREDICTED BY RF-SCORE:    0.00 PKD
ROOT
HETATM    1  C   UNL     1     -12.143  11.530  70.472  1.00  0.00    -0.472 C  
HETATM    2  C   UNL     1     -12.768  12.765  71.097  1.00  0.00    -0.355 C  
ENDROOT
BRANCH   2   3
HETATM    3  C   UNL     1     -12.422  14.017  70.297  1.00  0.00    -0.403 C  
BRANCH   3   4
HETATM    4  C   UNL     1     -11.891  13.655  68.914  1.00  0.00    -0.402 C  
BRANCH   4   5
HETATM    5  C   UNL     1     -11.690  14.909  68.070  1.00  0.00    -0.344 C  
BRANCH   5   6
HETATM    6  C   UNL     1     -11.418  14.542  66.618  1.00  0.00    -0.373 C  
BRANCH   6   7
HETATM    7  C   UNL     1     -12.483  13.585  66.098  1.00  0.00    -0.424 C  
BRANCH   7   8
HETATM    8  C   UNL     1     -11.831  12.402  65.398  1.00  0.00    -0.460 C  
BRANCH   8   9
HETATM    9  C   UNL     1     -10.316  12.516  65.451  1.00  0.00    -0.305 C  
BRANCH   9  10
HETATM   10  C   UNL     1      -9.706  11.166  65.799  1.00  0.00    -0.266 C  
BRANCH  10  11
HETATM   11  C   UNL     1     -10.470  10.515  66.938  1.00  0.00    -0.303 C  
BRANCH  11  12
HETATM   12  C   UNL     1     -10.408   8.997  66.830  1.00  0.00    -0.310 C  
BRANCH  12  13
HETATM   13  C   UNL     1      -8.995   8.574  66.470  1.00  0.00    -0.194 C  
BRANCH  13  14
HETATM   14  C   UNL     1      -8.086   8.530  67.695  1.00  0.00    -0.107 C  
BRANCH  14  15
HETATM   15  C   UNL     1      -8.261   7.234  68.489  1.00  0.00    -0.125 C  
BRANCH  15  16
HETATM   16  C   UNL     1      -8.101   5.996  67.602  1.00  0.00    -0.106 C  
BRANCH  16  17
HETATM   17  N   UNL     1      -9.055   4.848  67.956  1.00  0.00    -0.110 N  
HETATM   18  C   UNL     1      -8.985   3.731  66.928  1.00  0.00    -0.142 C  
HETATM   19  C   UNL     1     -10.476   5.421  67.960  1.00  0.00    -0.123 C  
HETATM   20  C   UNL     1      -8.762   4.298  69.348  1.00  0.00    -0.087 C  
ENDBRANCH  16  17
ENDBRANCH  15  16
ENDBRANCH  14  15
ENDBRANCH  13  14
ENDBRANCH  12  13
ENDBRANCH  11  12
ENDBRANCH  10  11
ENDBRANCH   9  10
ENDBRANCH   8   9
ENDBRANCH   7   8
ENDBRANCH   6   7
ENDBRANCH   5   6
ENDBRANCH   4   5
ENDBRANCH   3   4
ENDBRANCH   2   3
TORSDOF 15
ENDMDL
MODEL      254
REMARK 921   NORMALIZED FREE ENERGY PREDICTED BY IDOCK:   -2.77 KCAL/MOL
REMARK 922        TOTAL FREE ENERGY PREDICTED BY IDOCK:   -6.89 KCAL/MOL
REMARK 923 INTER-LIGAND FREE ENERGY PREDICTED BY IDOCK:   -5.89 KCAL/MOL
REMARK 924 INTRA-LIGAND FREE ENERGY PREDICTED BY IDOCK:   -1.01 KCAL/MOL
REMARK 927      BINDING AFFINITY PREDICTED BY RF-SCORE:    0.00 PKD
ROOT
HETATM    1  C   UNL     1     -10.945   6.200  68.261  1.00  0.00    -0.397 C  
HETATM    2  C   UNL     1      -9.849   6.190  69.313  1.00  0.00    -0.182 C  
ENDROOT
BRANCH   2   3
HETATM    3  C   UNL     1     -10.432   6.372  70.711  1.00  0.00    -0.270 C  
BRANCH   3   4
HETATM    4  C   UNL     1     -11.905   6.759  70.644  1.00  0.00    -0.442 C  
BRANCH   4   5
HETATM    5  C   UNL     1     -12.204   7.904  71.605  1.00  0.00    -0.339 C  
BRANCH   5   6
HETATM    6  C   UNL     1     -11.361   9.125  71.266  1.00  0.00    -0.406 C  
BRANCH   6   7
HETATM    7  C   UNL     1     -12.236  10.247  70.720  1.00  0.00    -0.447 C  
BRANCH   7   8
HETATM    8  C   UNL     1     -11.410  11.185  69.854  1.00  0.00    -0.348 C  
BRANCH   8   9
HETATM    9  C   UNL     1     -11.314  10.656  68.431  1.00  0.00    -0.348 C  
BRANCH   9  10
HETATM   10  C   UNL     1     -10.391  11.544  67.609  1.00  0.00    -0.209 C  
BRANCH  10  11
HETATM   11  C   UNL     1      -9.216  12.011  68.448  1.00  0.00    -0.160 C  
BRANCH  11  12
HETATM   12  C   UNL     1      -8.290  12.902  67.631  1.00  0.00    -0.176 C  
BRANCH  12  13
HETATM   13  C   UNL     1      -8.265  14.295  68.237  1.00  0.00    -0.148 C  
BRANCH  13  14
HETATM   14  C   UNL     1      -8.212  15.379  67.165  1.00  0.00    -0.250 C  
BRANCH  14  15
HETATM   15  C   UNL     1      -9.057  16.597  67.544  1.00  0.00    -0.204 C  
BRANCH  15  16
HETATM   16  C   UNL     1      -8.415  17.406  68.675  1.00  0.00    -0.257 C  
BRANCH  16  17
HETATM   17  N   UNL     1      -8.237  18.895  68.353  1.00  0.00    -0.330 N  
HETATM   18  C   UNL     1      -7.178  19.532  69.238  1.00  0.00    -0.310 C  
HETATM   19  C   UNL     1      -9.580  19.583  68.625  1.00  0.00    -0.411 C  
HETATM   20  C   UNL     1      -7.887  19.103  66.884  1.00  0.00    -0.252 C  
ENDBRANCH  16  17
ENDBRANCH  15  16
ENDBRANCH  14  15
ENDBRANCH  13  14
ENDBRANCH  12  13
ENDBRANCH  11  12
ENDBRANCH  10  11
ENDBRANCH   9  10
ENDBRANCH   8   9
ENDBRANCH   7   8
ENDBRANCH   6   7
ENDBRANCH   5   6
ENDBRANCH   4   5
ENDBRANCH   3   4
ENDBRANCH   2   3
TORSDOF 15
ENDMDL
MODEL      255
REMARK 921   NORMALIZED FREE ENERGY PREDICTED BY IDOCK:   -2.74 KCAL/MOL
REMARK 922        TOTAL FREE ENERGY PREDICTED BY IDOCK:   -6.84 KCAL/MOL
REMARK 923 INTER-LIGAND FREE ENERGY PREDICTED BY IDOCK:   -5.56 KCAL/MOL
REMARK 924 INTRA-LIGAND FREE ENERGY PREDICTED BY IDOCK:   -1.28 KCAL/MOL
REMARK 927      BINDING AFFINITY PREDICTED BY RF-SCORE:    0.00 PKD
ROOT
HETATM    1  C   UNL     1      -6.823  19.132  65.592  1.00  0.00    -0.308 C  
HETATM    2  C   UNL     1      -6.353  18.486  66.883  1.00  0.00    -0.197 C  
ENDROOT
BRANCH   2   3
HETATM    3  C   UNL     1      -6.673  16.995  66.896  1.00  0.00    -0.252 C  
BRANCH   3   4
HETATM    4  C   UNL     1      -7.242  16.567  68.245  1.00  0.00    -0.159 C  
BRANCH   4   5
HETATM    5  C   UNL     1      -8.706  16.978  68.365  1.00  0.00    -0.247 C  
BRANCH   5   6
HETATM    6  C   UNL     1      -9.576  16.145  67.434  1.00  0.00    -0.229 C  
BRANCH   6   7
HETATM    7  C   UNL     1     -10.197  17.021  66.353  1.00  0.00    -0.330 C  
BRANCH   7   8
HETATM    8  C   UNL     1     -10.662  16.165  65.185  1.00  0.00    -0.391 C  
BRANCH   8   9
HETATM    9  C   UNL     1     -10.458  14.689  65.487  1.00  0.00    -0.374 C  
BRANCH   9  10
HETATM   10  C   UNL     1     -11.539  13.865  64.802  1.00  0.00    -0.383 C  
BRANCH  10  11
HETATM   11  C   UNL     1     -12.264  12.994  65.812  1.00  0.00    -0.511 C  
BRANCH  11  12
HETATM   12  C   UNL     1     -11.908  13.408  67.234  1.00  0.00    -0.422 C  
BRANCH  12  13
HETATM   13  C   UNL     1     -11.048  12.331  67.872  1.00  0.00    -0.290 C  
BRANCH  13  14
HETATM   14  C   UNL     1     -11.893  11.229  68.503  1.00  0.00    -0.355 C  
BRANCH  14  15
HETATM   15  C   UNL     1     -11.060   9.988  68.831  1.00  0.00    -0.219 C  
BRANCH  15  16
HETATM   16  C   UNL     1      -9.628  10.107  68.302  1.00  0.00    -0.141 C  
BRANCH  16  17
HETATM   17  N   UNL     1      -9.347   9.243  67.067  1.00  0.00    -0.140 N  
HETATM   18  C   UNL     1     -10.067   7.907  67.148  1.00  0.00    -0.258 C  
HETATM   19  C   UNL     1      -7.837   8.983  67.027  1.00  0.00    -0.098 C  
HETATM   20  C   UNL     1      -9.736   9.971  65.785  1.00  0.00    -0.257 C  
ENDBRANCH  16  17
ENDBRANCH  15  16
ENDBRANCH  14  15
ENDBRANCH  13  14
ENDBRANCH  12  13
ENDBRANCH  11  12
ENDBRANCH  10  11
ENDBRANCH   9  10
ENDBRANCH   8   9
ENDBRANCH   7   8
ENDBRANCH   6   7
ENDBRANCH   5   6
ENDBRANCH   4   5
ENDBRANCH   3   4
ENDBRANCH   2   3
TORSDOF 15
ENDMDL
MODEL      256
REMARK 921   NORMALIZED FREE ENERGY PREDICTED BY IDOCK:   -2.74 KCAL/MOL
REMARK 922        TOTAL FREE ENERGY PREDICTED BY IDOCK:   -6.83 KCAL/MOL
REMARK 923 INTER-LIGAND FREE ENERGY PREDICTED BY IDOCK:   -5.12 KCAL/MOL
REMARK 924 INTRA-LIGAND FREE ENERGY PREDICTED BY IDOCK:   -1.71 KCAL/MOL
REMARK 927      BINDING AFFINITY PREDICTED BY RF-SCORE:    0.00 PKD
ROOT
HETATM    1  C   UNL     1      -5.918  19.513  66.291  1.00  0.00    -0.173 C  
HETATM    2  C   UNL     1      -7.300  19.031  66.698  1.00  0.00    -0.235 C  
ENDROOT
BRANCH   2   3
HETATM    3  C   UNL     1      -7.233  18.189  67.968  1.00  0.00    -0.228 C  
BRANCH   3   4
HETATM    4  C   UNL     1      -8.629  17.920  68.521  1.00  0.00    -0.298 C  
BRANCH   4   5
HETATM    5  C   UNL     1      -8.774  16.456  68.923  1.00  0.00    -0.253 C  
BRANCH   5   6
HETATM    6  C   UNL     1      -9.282  15.625  67.753  1.00  0.00    -0.193 C  
BRANCH   6   7
HETATM    7  C   UNL     1     -10.565  16.223  67.187  1.00  0.00    -0.291 C  
BRANCH   7   8
HETATM    8  C   UNL     1     -10.413  16.478  65.695  1.00  0.00    -0.341 C  
BRANCH   8   9
HETATM    9  C   UNL     1     -11.122  15.399  64.892  1.00  0.00    -0.435 C  
BRANCH   9  10
HETATM   10  C   UNL     1     -10.267  14.141  64.845  1.00  0.00    -0.371 C  
BRANCH  10  11
HETATM   11  C   UNL     1     -11.139  12.902  64.938  1.00  0.00    -0.326 C  
BRANCH  11  12
HETATM   12  C   UNL     1     -12.359  13.167  65.811  1.00  0.00    -0.496 C  
BRANCH  12  13
HETATM   13  C   UNL     1     -12.035  12.816  67.252  1.00  0.00    -0.345 C  
BRANCH  13  14
HETATM   14  C   UNL     1     -11.184  11.553  67.351  1.00  0.00    -0.367 C  
BRANCH  14  15
HETATM   15  C   UNL     1     -10.034  11.717  68.348  1.00  0.00    -0.201 C  
BRANCH  15  16
HETATM   16  C   UNL     1      -8.676  11.789  67.646  1.00  0.00    -0.159 C  
BRANCH  16  17
HETATM   17  N   UNL     1      -7.592  10.921  68.296  1.00  0.00    -0.095 N  
HETATM   18  C   UNL     1      -6.543  11.773  68.993  1.00  0.00    -0.094 C  
HETATM   19  C   UNL     1      -6.911  10.127  67.176  1.00  0.00    -0.082 C  
HETATM   20  C   UNL     1      -8.198   9.927  69.280  1.00  0.00    -0.138 C  
ENDBRANCH  16  17
ENDBRANCH  15  16
ENDBRANCH  14  15
ENDBRANCH  13  14
ENDBRANCH  12  13
ENDBRANCH  11  12
ENDBRANCH  10  11
ENDBRANCH   9  10
ENDBRANCH   8   9
ENDBRANCH   7   8
ENDBRANCH   6   7
ENDBRANCH   5   6
ENDBRANCH   4   5
ENDBRANCH   3   4
ENDBRANCH   2   3
TORSDOF 15
ENDMDL
MODEL      257
REMARK 921   NORMALIZED FREE ENERGY PREDICTED BY IDOCK:   -2.74 KCAL/MOL
REMARK 922        TOTAL FREE ENERGY PREDICTED BY IDOCK:   -6.83 KCAL/MOL
REMARK 923 INTER-LIGAND FREE ENERGY PREDICTED BY IDOCK:   -4.65 KCAL/MOL
REMARK 924 INTRA-LIGAND FREE ENERGY PREDICTED BY IDOCK:   -2.18 KCAL/MOL
REMARK 927      BINDING AFFINITY PREDICTED BY RF-SCORE:    0.00 PKD
ROOT
HETATM    1  C   UNL     1      -9.947   4.142  71.743  1.00  0.00    -0.246 C  
HETATM    2  C   UNL     1     -10.296   5.610  71.565  1.00  0.00    -0.279 C  
ENDROOT
BRANCH   2   3
HETATM    3  C   UNL     1     -11.746   5.878  71.957  1.00  0.00    -0.255 C  
BRANCH   3   4
HETATM    4  C   UNL     1     -12.078   7.362  71.845  1.00  0.00    -0.341 C  
BRANCH   4   5
HETATM    5  C   UNL     1     -11.004   8.206  72.523  1.00  0.00    -0.439 C  
BRANCH   5   6
HETATM    6  C   UNL     1     -10.469   9.264  71.568  1.00  0.00    -0.385 C  
BRANCH   6   7
HETATM    7  C   UNL     1     -11.605  10.125  71.029  1.00  0.00    -0.462 C  
BRANCH   7   8
HETATM    8  C   UNL     1     -11.332  10.511  69.583  1.00  0.00    -0.345 C  
BRANCH   8   9
HETATM    9  C   UNL     1     -10.132   9.750  69.042  1.00  0.00    -0.195 C  
BRANCH   9  10
HETATM   10  C   UNL     1     -10.565   8.844  67.898  1.00  0.00    -0.244 C  
BRANCH  10  11
HETATM   11  C   UNL     1     -10.748   7.420  68.388  1.00  0.00    -0.142 C  
BRANCH  11  12
HETATM   12  C   UNL     1     -10.833   6.452  67.215  1.00  0.00    -0.463 C  
BRANCH  12  13
HETATM   13  C   UNL     1      -9.991   5.224  67.511  1.00  0.00    -0.206 C  
BRANCH  13  14
HETATM   14  C   UNL     1      -8.559   5.595  67.883  1.00  0.00    -0.101 C  
BRANCH  14  15
HETATM   15  C   UNL     1      -7.791   6.172  66.691  1.00  0.00    -0.104 C  
BRANCH  15  16
HETATM   16  C   UNL     1      -7.107   7.496  67.041  1.00  0.00    -0.084 C  
BRANCH  16  17
HETATM   17  N   UNL     1      -7.163   8.541  65.920  1.00  0.00    -0.075 N  
HETATM   18  C   UNL     1      -8.336   8.291  64.986  1.00  0.00    -0.148 C  
HETATM   19  C   UNL     1      -5.863   8.418  65.116  1.00  0.00    -0.044 C  
HETATM   20  C   UNL     1      -7.237   9.954  66.488  1.00  0.00    -0.095 C  
ENDBRANCH  16  17
ENDBRANCH  15  16
ENDBRANCH  14  15
ENDBRANCH  13  14
ENDBRANCH  12  13
ENDBRANCH  11  12
ENDBRANCH  10  11
ENDBRANCH   9  10
ENDBRANCH   8   9
ENDBRANCH   7   8
ENDBRANCH   6   7
ENDBRANCH   5   6
ENDBRANCH   4   5
ENDBRANCH   3   4
ENDBRANCH   2   3
TORSDOF 15
ENDMDL
MODEL      258
REMARK 921   NORMALIZED FREE ENERGY PREDICTED BY IDOCK:   -2.70 KCAL/MOL
REMARK 922        TOTAL FREE ENERGY PREDICTED BY IDOCK:   -6.75 KCAL/MOL
REMARK 923 INTER-LIGAND FREE ENERGY PREDICTED BY IDOCK:   -5.23 KCAL/MOL
REMARK 924 INTRA-LIGAND FREE ENERGY PREDICTED BY IDOCK:   -1.52 KCAL/MOL
REMARK 927      BINDING AFFINITY PREDICTED BY RF-SCORE:    0.00 PKD
ROOT
HETATM    1  C   UNL     1     -11.684  12.911  69.005  1.00  0.00    -0.375 C  
HETATM    2  C   UNL     1     -11.652  14.272  68.333  1.00  0.00    -0.354 C  
ENDROOT
BRANCH   2   3
HETATM    3  C   UNL     1     -11.795  14.138  66.820  1.00  0.00    -0.449 C  
BRANCH   3   4
HETATM    4  C   UNL     1     -10.701  13.247  66.243  1.00  0.00    -0.293 C  
BRANCH   4   5
HETATM    5  C   UNL     1     -11.305  12.011  65.585  1.00  0.00    -0.381 C  
BRANCH   5   6
HETATM    6  C   UNL     1     -10.274  11.307  64.714  1.00  0.00    -0.347 C  
BRANCH   6   7
HETATM    7  C   UNL     1     -10.005   9.900  65.232  1.00  0.00    -0.320 C  
BRANCH   7   8
HETATM    8  C   UNL     1      -8.778   9.314  64.551  1.00  0.00    -0.218 C  
BRANCH   8   9
HETATM    9  C   UNL     1      -7.573  10.221  64.744  1.00  0.00    -0.109 C  
BRANCH   9  10
HETATM   10  C   UNL     1      -7.105  10.162  66.191  1.00  0.00    -0.114 C  
BRANCH  10  11
HETATM   11  C   UNL     1      -6.648   8.759  66.545  1.00  0.00    -0.063 C  
BRANCH  11  12
HETATM   12  C   UNL     1      -7.348   8.266  67.806  1.00  0.00    -0.093 C  
BRANCH  12  13
HETATM   13  C   UNL     1      -8.200   9.385  68.380  1.00  0.00    -0.117 C  
BRANCH  13  14
HETATM   14  C   UNL     1      -9.622   8.920  68.674  1.00  0.00    -0.158 C  
BRANCH  14  15
HETATM   15  C   UNL     1      -9.747   8.318  70.076  1.00  0.00    -0.176 C  
BRANCH  15  16
HETATM   16  C   UNL     1     -11.105   7.642  70.287  1.00  0.00    -0.244 C  
BRANCH  16  17
HETATM   17  N   UNL     1     -11.847   8.115  71.543  1.00  0.00    -0.283 N  
HETATM   18  C   UNL     1     -11.030   7.861  72.799  1.00  0.00    -0.393 C  
HETATM   19  C   UNL     1     -13.148   7.308  71.634  1.00  0.00    -0.369 C  
HETATM   20  C   UNL     1     -12.212   9.592  71.444  1.00  0.00    -0.371 C  
ENDBRANCH  16  17
ENDBRANCH  15  16
ENDBRANCH  14  15
ENDBRANCH  13  14
ENDBRANCH  12  13
ENDBRANCH  11  12
ENDBRANCH  10  11
ENDBRANCH   9  10
ENDBRANCH   8   9
ENDBRANCH   7   8
ENDBRANCH   6   7
ENDBRANCH   5   6
ENDBRANCH   4   5
ENDBRANCH   3   4
ENDBRANCH   2   3
TORSDOF 15
ENDMDL
MODEL      259
REMARK 921   NORMALIZED FREE ENERGY PREDICTED BY IDOCK:   -2.70 KCAL/MOL
REMARK 922        TOTAL FREE ENERGY PREDICTED BY IDOCK:   -6.75 KCAL/MOL
REMARK 923 INTER-LIGAND FREE ENERGY PREDICTED BY IDOCK:   -5.64 KCAL/MOL
REMARK 924 INTRA-LIGAND FREE ENERGY PREDICTED BY IDOCK:   -1.11 KCAL/MOL
REMARK 927      BINDING AFFINITY PREDICTED BY RF-SCORE:    0.00 PKD
ROOT
HETATM    1  C   UNL     1      -6.038  18.188  66.330  1.00  0.00    -0.229 C  
HETATM    2  C   UNL     1      -6.186  19.543  65.660  1.00  0.00    -0.238 C  
ENDROOT
BRANCH   2   3
HETATM    3  C   UNL     1      -7.101  20.456  66.469  1.00  0.00    -0.300 C  
BRANCH   3   4
HETATM    4  C   UNL     1      -7.844  19.672  67.546  1.00  0.00    -0.309 C  
BRANCH   4   5
HETATM    5  C   UNL     1      -9.309  20.092  67.602  1.00  0.00    -0.476 C  
BRANCH   5   6
HETATM    6  C   UNL     1     -10.220  18.873  67.550  1.00  0.00    -0.456 C  
BRANCH   6   7
HETATM    7  C   UNL     1      -9.598  17.775  66.697  1.00  0.00    -0.311 C  
BRANCH   7   8
HETATM    8  C   UNL     1     -10.630  16.700  66.390  1.00  0.00    -0.200 C  
BRANCH   8   9
HETATM    9  C   UNL     1     -10.922  15.867  67.628  1.00  0.00    -0.298 C  
BRANCH   9  10
HETATM   10  C   UNL     1     -11.562  14.546  67.226  1.00  0.00    -0.405 C  
BRANCH  10  11
HETATM   11  C   UNL     1     -11.527  14.376  65.718  1.00  0.00    -0.335 C  
BRANCH  11  12
HETATM   12  C   UNL     1     -10.479  13.346  65.317  1.00  0.00    -0.334 C  
BRANCH  12  13
HETATM   13  C   UNL     1     -11.113  11.966  65.290  1.00  0.00    -0.354 C  
BRANCH  13  14
HETATM   14  C   UNL     1     -10.441  11.015  66.275  1.00  0.00    -0.310 C  
BRANCH  14  15
HETATM   15  C   UNL     1      -9.149  10.424  65.707  1.00  0.00    -0.197 C  
BRANCH  15  16
HETATM   16  C   UNL     1      -9.411   9.570  64.464  1.00  0.00    -0.098 C  
BRANCH  16  17
HETATM   17  N   UNL     1      -8.448   9.847  63.303  1.00  0.00    -0.163 N  
HETATM   18  C   UNL     1      -8.910  11.030  62.468  1.00  0.00    -0.315 C  
HETATM   19  C   UNL     1      -8.434   8.598  62.415  1.00  0.00    -0.194 C  
HETATM   20  C   UNL     1      -7.029  10.084  63.809  1.00  0.00    -0.124 C  
ENDBRANCH  16  17
ENDBRANCH  15  16
ENDBRANCH  14  15
ENDBRANCH  13  14
ENDBRANCH  12  13
ENDBRANCH  11  12
ENDBRANCH  10  11
ENDBRANCH   9  10
ENDBRANCH   8   9
ENDBRANCH   7   8
ENDBRANCH   6   7
ENDBRANCH   5   6
ENDBRANCH   4   5
ENDBRANCH   3   4
ENDBRANCH   2   3
TORSDOF 15
ENDMDL
MODEL      260
REMARK 921   NORMALIZED FREE ENERGY PREDICTED BY IDOCK:   -2.68 KCAL/MOL
REMARK 922        TOTAL FREE ENERGY PREDICTED BY IDOCK:   -6.73 KCAL/MOL
REMARK 923 INTER-LIGAND FREE ENERGY PREDICTED BY IDOCK:   -6.07 KCAL/MOL
REMARK 924 INTRA-LIGAND FREE ENERGY PREDICTED BY IDOCK:   -0.67 KCAL/MOL
REMARK 927      BINDING AFFINITY PREDICTED BY RF-SCORE:    0.00 PKD
ROOT
HETATM    1  C   UNL     1      -9.190  18.888  66.668  1.00  0.00    -0.343 C  
HETATM    2  C   UNL     1      -9.207  17.536  67.360  1.00  0.00    -0.238 C  
ENDROOT
BRANCH   2   3
HETATM    3  C   UNL     1      -9.032  16.405  66.353  1.00  0.00    -0.340 C  
BRANCH   3   4
HETATM    4  C   UNL     1     -10.344  15.659  66.132  1.00  0.00    -0.329 C  
BRANCH   4   5
HETATM    5  C   UNL     1     -11.004  15.326  67.466  1.00  0.00    -0.315 C  
BRANCH   5   6
HETATM    6  C   UNL     1     -11.545  13.903  67.458  1.00  0.00    -0.392 C  
BRANCH   6   7
HETATM    7  C   UNL     1     -11.882  13.449  68.872  1.00  0.00    -0.373 C  
BRANCH   7   8
HETATM    8  C   UNL     1     -11.175  12.140  69.187  1.00  0.00    -0.303 C  
BRANCH   8   9
HETATM    9  C   UNL     1     -12.176  11.081  69.621  1.00  0.00    -0.370 C  
BRANCH   9  10
HETATM   10  C   UNL     1     -11.811  10.559  71.004  1.00  0.00    -0.438 C  
BRANCH  10  11
HETATM   11  C   UNL     1     -12.957   9.751  71.586  1.00  0.00    -0.517 C  
BRANCH  11  12
HETATM   12  C   UNL     1     -12.450   8.437  72.166  1.00  0.00    -0.422 C  
BRANCH  12  13
HETATM   13  C   UNL     1     -12.926   7.286  71.298  1.00  0.00    -0.377 C  
BRANCH  13  14
HETATM   14  C   UNL     1     -11.770   6.396  70.852  1.00  0.00    -0.366 C  
BRANCH  14  15
HETATM   15  C   UNL     1     -10.682   6.295  71.924  1.00  0.00    -0.271 C  
BRANCH  15  16
HETATM   16  C   UNL     1      -9.360   6.907  71.453  1.00  0.00    -0.156 C  
BRANCH  16  17
HETATM   17  N   UNL     1      -8.238   6.844  72.497  1.00  0.00    -0.106 N  
HETATM   18  C   UNL     1      -8.361   7.968  73.512  1.00  0.00    -0.233 C  
HETATM   19  C   UNL     1      -6.910   7.006  71.748  1.00  0.00    -0.060 C  
HETATM   20  C   UNL     1      -8.220   5.495  73.207  1.00  0.00    -0.114 C  
ENDBRANCH  16  17
ENDBRANCH  15  16
ENDBRANCH  14  15
ENDBRANCH  13  14
ENDBRANCH  12  13
ENDBRANCH  11  12
ENDBRANCH  10  11
ENDBRANCH   9  10
ENDBRANCH   8   9
ENDBRANCH   7   8
ENDBRANCH   6   7
ENDBRANCH   5   6
ENDBRANCH   4   5
ENDBRANCH   3   4
ENDBRANCH   2   3
TORSDOF 15
ENDMDL
MODEL      261
REMARK 921   NORMALIZED FREE ENERGY PREDICTED BY IDOCK:   -2.68 KCAL/MOL
REMARK 922        TOTAL FREE ENERGY PREDICTED BY IDOCK:   -6.73 KCAL/MOL
REMARK 923 INTER-LIGAND FREE ENERGY PREDICTED BY IDOCK:   -5.69 KCAL/MOL
REMARK 924 INTRA-LIGAND FREE ENERGY PREDICTED BY IDOCK:   -1.04 KCAL/MOL
REMARK 927      BINDING AFFINITY PREDICTED BY RF-SCORE:    0.00 PKD
ROOT
HETATM    1  C   UNL     1     -12.105  10.823  69.755  1.00  0.00    -0.389 C  
HETATM    2  C   UNL     1     -12.120  12.070  70.623  1.00  0.00    -0.369 C  
ENDROOT
BRANCH   2   3
HETATM    3  C   UNL     1     -12.386  13.316  69.785  1.00  0.00    -0.189 C  
BRANCH   3   4
HETATM    4  C   UNL     1     -11.102  14.106  69.556  1.00  0.00    -0.222 C  
BRANCH   4   5
HETATM    5  C   UNL     1     -10.452  13.705  68.236  1.00  0.00    -0.253 C  
BRANCH   5   6
HETATM    6  C   UNL     1     -10.934  14.602  67.105  1.00  0.00    -0.316 C  
BRANCH   6   7
HETATM    7  C   UNL     1     -12.038  13.917  66.310  1.00  0.00    -0.484 C  
BRANCH   7   8
HETATM    8  C   UNL     1     -11.781  12.420  66.235  1.00  0.00    -0.457 C  
BRANCH   8   9
HETATM    9  C   UNL     1     -10.640  12.118  65.277  1.00  0.00    -0.319 C  
BRANCH   9  10
HETATM   10  C   UNL     1      -9.643  11.176  65.937  1.00  0.00    -0.250 C  
BRANCH  10  11
HETATM   11  C   UNL     1      -9.979   9.733  65.611  1.00  0.00    -0.352 C  
BRANCH  11  12
HETATM   12  C   UNL     1     -10.513   9.012  66.842  1.00  0.00    -0.293 C  
BRANCH  12  13
HETATM   13  C   UNL     1      -9.901   7.624  66.919  1.00  0.00    -0.304 C  
BRANCH  13  14
HETATM   14  C   UNL     1     -10.968   6.536  66.981  1.00  0.00    -0.466 C  
BRANCH  14  15
HETATM   15  C   UNL     1     -10.373   5.140  66.782  1.00  0.00    -0.306 C  
BRANCH  15  16
HETATM   16  C   UNL     1      -9.347   5.115  65.646  1.00  0.00    -0.138 C  
BRANCH  16  17
HETATM   17  N   UNL     1      -9.273   3.776  64.903  1.00  0.00    -0.139 N  
HETATM   18  C   UNL     1      -9.149   2.610  65.871  1.00  0.00    -0.113 C  
HETATM   19  C   UNL     1      -8.020   3.813  64.020  1.00  0.00    -0.085 C  
HETATM   20  C   UNL     1     -10.484   3.579  63.998  1.00  0.00    -0.248 C  
ENDBRANCH  16  17
ENDBRANCH  15  16
ENDBRANCH  14  15
ENDBRANCH  13  14
ENDBRANCH  12  13
ENDBRANCH  11  12
ENDBRANCH  10  11
ENDBRANCH   9  10
ENDBRANCH   8   9
ENDBRANCH   7   8
ENDBRANCH   6   7
ENDBRANCH   5   6
ENDBRANCH   4   5
ENDBRANCH   3   4
ENDBRANCH   2   3
TORSDOF 15
ENDMDL
MODEL      262
REMARK 921   NORMALIZED FREE ENERGY PREDICTED BY IDOCK:   -2.67 KCAL/MOL
REMARK 922        TOTAL FREE ENERGY PREDICTED BY IDOCK:   -6.71 KCAL/MOL
REMARK 923 INTER-LIGAND FREE ENERGY PREDICTED BY IDOCK:   -5.68 KCAL/MOL
REMARK 924 INTRA-LIGAND FREE ENERGY PREDICTED BY IDOCK:   -1.03 KCAL/MOL
REMARK 927      BINDING AFFINITY PREDICTED BY RF-SCORE:    0.00 PKD
ROOT
HETATM    1  C   UNL     1      -9.850  19.397  68.648  1.00  0.00    -0.522 C  
HETATM    2  C   UNL     1      -9.650  17.930  68.306  1.00  0.00    -0.312 C  
ENDROOT
BRANCH   2   3
HETATM    3  C   UNL     1     -10.517  17.522  67.120  1.00  0.00    -0.312 C  
BRANCH   3   4
HETATM    4  C   UNL     1     -10.440  16.019  66.876  1.00  0.00    -0.306 C  
BRANCH   4   5
HETATM    5  C   UNL     1     -10.521  15.712  65.384  1.00  0.00    -0.435 C  
BRANCH   5   6
HETATM    6  C   UNL     1     -11.655  14.739  65.096  1.00  0.00    -0.358 C  
BRANCH   6   7
HETATM    7  C   UNL     1     -11.164  13.581  64.237  1.00  0.00    -0.383 C  
BRANCH   7   8
HETATM    8  C   UNL     1     -11.576  12.254  64.858  1.00  0.00    -0.395 C  
BRANCH   8   9
HETATM    9  C   UNL     1     -11.401  12.290  66.367  1.00  0.00    -0.405 C  
BRANCH   9  10
HETATM   10  C   UNL     1      -9.935  12.085  66.725  1.00  0.00    -0.218 C  
BRANCH  10  11
HETATM   11  C   UNL     1      -9.808  11.340  68.040  1.00  0.00    -0.186 C  
BRANCH  11  12
HETATM   12  C   UNL     1     -11.074  10.545  68.334  1.00  0.00    -0.335 C  
BRANCH  12  13
HETATM   13  C   UNL     1     -10.723   9.077  68.496  1.00  0.00    -0.140 C  
BRANCH  13  14
HETATM   14  C   UNL     1     -10.336   8.437  67.166  1.00  0.00    -0.381 C  
BRANCH  14  15
HETATM   15  C   UNL     1     -10.174   6.920  67.288  1.00  0.00    -0.284 C  
BRANCH  15  16
HETATM   16  C   UNL     1      -9.383   6.335  66.115  1.00  0.00    -0.087 C  
BRANCH  16  17
HETATM   17  N   UNL     1      -9.227   4.810  66.169  1.00  0.00    -0.137 N  
HETATM   18  C   UNL     1      -9.514   4.271  67.560  1.00  0.00    -0.178 C  
HETATM   19  C   UNL     1      -7.771   4.489  65.811  1.00  0.00    -0.094 C  
HETATM   20  C   UNL     1     -10.127   4.127  65.145  1.00  0.00    -0.209 C  
ENDBRANCH  16  17
ENDBRANCH  15  16
ENDBRANCH  14  15
ENDBRANCH  13  14
ENDBRANCH  12  13
ENDBRANCH  11  12
ENDBRANCH  10  11
ENDBRANCH   9  10
ENDBRANCH   8   9
ENDBRANCH   7   8
ENDBRANCH   6   7
ENDBRANCH   5   6
ENDBRANCH   4   5
ENDBRANCH   3   4
ENDBRANCH   2   3
TORSDOF 15
ENDMDL
MODEL      263
REMARK 921   NORMALIZED FREE ENERGY PREDICTED BY IDOCK:   -2.67 KCAL/MOL
REMARK 922        TOTAL FREE ENERGY PREDICTED BY IDOCK:   -6.70 KCAL/MOL
REMARK 923 INTER-LIGAND FREE ENERGY PREDICTED BY IDOCK:   -5.27 KCAL/MOL
REMARK 924 INTRA-LIGAND FREE ENERGY PREDICTED BY IDOCK:   -1.43 KCAL/MOL
REMARK 927      BINDING AFFINITY PREDICTED BY RF-SCORE:    0.00 PKD
ROOT
HETATM    1  C   UNL     1     -10.887  15.936  66.698  1.00  0.00    -0.213 C  
HETATM    2  C   UNL     1      -9.530  15.508  67.230  1.00  0.00    -0.218 C  
ENDROOT
BRANCH   2   3
HETATM    3  C   UNL     1      -9.285  14.025  66.973  1.00  0.00    -0.262 C  
BRANCH   3   4
HETATM    4  C   UNL     1     -10.173  13.161  67.861  1.00  0.00    -0.233 C  
BRANCH   4   5
HETATM    5  C   UNL     1     -11.000  12.196  67.018  1.00  0.00    -0.319 C  
BRANCH   5   6
HETATM    6  C   UNL     1     -10.496  10.770  67.183  1.00  0.00    -0.285 C  
BRANCH   6   7
HETATM    7  C   UNL     1     -10.191  10.474  68.646  1.00  0.00    -0.197 C  
BRANCH   7   8
HETATM    8  C   UNL     1     -11.426   9.921  69.340  1.00  0.00    -0.079 C  
BRANCH   8   9
HETATM    9  C   UNL     1     -11.680  10.652  70.648  1.00  0.00    -0.454 C  
BRANCH   9  10
HETATM   10  C   UNL     1     -13.127  10.458  71.079  1.00  0.00    -0.450 C  
BRANCH  10  11
HETATM   11  C   UNL     1     -13.193   9.711  72.398  1.00  0.00    -0.413 C  
BRANCH  11  12
HETATM   12  C   UNL     1     -14.125   8.511  72.292  1.00  0.00    -0.446 C  
BRANCH  12  13
HETATM   13  C   UNL     1     -13.549   7.510  71.306  1.00  0.00    -0.329 C  
BRANCH  13  14
HETATM   14  C   UNL     1     -12.493   6.619  71.953  1.00  0.00    -0.334 C  
BRANCH  14  15
HETATM   15  C   UNL     1     -11.133   6.755  71.265  1.00  0.00    -0.303 C  
BRANCH  15  16
HETATM   16  C   UNL     1     -10.635   5.415  70.717  1.00  0.00    -0.223 C  
BRANCH  16  17
HETATM   17  N   UNL     1      -9.478   4.806  71.518  1.00  0.00    -0.146 N  
HETATM   18  C   UNL     1      -8.459   4.143  70.606  1.00  0.00    -0.070 C  
HETATM   19  C   UNL     1     -10.075   3.737  72.441  1.00  0.00    -0.167 C  
HETATM   20  C   UNL     1      -8.797   5.856  72.389  1.00  0.00    -0.134 C  
ENDBRANCH  16  17
ENDBRANCH  15  16
ENDBRANCH  14  15
ENDBRANCH  13  14
ENDBRANCH  12  13
ENDBRANCH  11  12
ENDBRANCH  10  11
ENDBRANCH   9  10
ENDBRANCH   8   9
ENDBRANCH   7   8
ENDBRANCH   6   7
ENDBRANCH   5   6
ENDBRANCH   4   5
ENDBRANCH   3   4
ENDBRANCH   2   3
TORSDOF 15
ENDMDL
MODEL      264
REMARK 921   NORMALIZED FREE ENERGY PREDICTED BY IDOCK:   -2.67 KCAL/MOL
REMARK 922        TOTAL FREE ENERGY PREDICTED BY IDOCK:   -6.70 KCAL/MOL
REMARK 923 INTER-LIGAND FREE ENERGY PREDICTED BY IDOCK:   -5.50 KCAL/MOL
REMARK 924 INTRA-LIGAND FREE ENERGY PREDICTED BY IDOCK:   -1.20 KCAL/MOL
REMARK 927      BINDING AFFINITY PREDICTED BY RF-SCORE:    0.00 PKD
ROOT
HETATM    1  C   UNL     1     -10.804  19.705  65.789  1.00  0.00    -0.405 C  
HETATM    2  C   UNL     1      -9.431  19.882  66.415  1.00  0.00    -0.513 C  
ENDROOT
BRANCH   2   3
HETATM    3  C   UNL     1      -9.544  20.163  67.910  1.00  0.00    -0.468 C  
BRANCH   3   4
HETATM    4  C   UNL     1      -8.534  19.339  68.701  1.00  0.00    -0.403 C  
BRANCH   4   5
HETATM    5  C   UNL     1      -7.559  18.638  67.761  1.00  0.00    -0.247 C  
BRANCH   5   6
HETATM    6  C   UNL     1      -7.572  17.134  67.996  1.00  0.00    -0.192 C  
BRANCH   6   7
HETATM    7  C   UNL     1      -8.769  16.735  68.851  1.00  0.00    -0.224 C  
BRANCH   7   8
HETATM    8  C   UNL     1      -8.846  15.221  68.974  1.00  0.00    -0.226 C  
BRANCH   8   9
HETATM    9  C   UNL     1      -9.205  14.592  67.638  1.00  0.00    -0.195 C  
BRANCH   9  10
HETATM   10  C   UNL     1     -10.718  14.497  67.498  1.00  0.00    -0.276 C  
BRANCH  10  11
HETATM   11  C   UNL     1     -11.310  13.711  68.653  1.00  0.00    -0.321 C  
BRANCH  11  12
HETATM   12  C   UNL     1     -12.015  12.459  68.147  1.00  0.00    -0.272 C  
BRANCH  12  13
HETATM   13  C   UNL     1     -11.844  12.357  66.642  1.00  0.00    -0.394 C  
BRANCH  13  14
HETATM   14  C   UNL     1     -10.892  11.229  66.254  1.00  0.00    -0.296 C  
BRANCH  14  15
HETATM   15  C   UNL     1     -10.655  10.259  67.413  1.00  0.00    -0.324 C  
BRANCH  15  16
HETATM   16  C   UNL     1     -10.593   8.805  66.936  1.00  0.00    -0.193 C  
BRANCH  16  17
HETATM   17  N   UNL     1      -9.194   8.183  67.015  1.00  0.00    -0.146 N  
HETATM   18  C   UNL     1      -8.338   8.873  68.065  1.00  0.00    -0.121 C  
HETATM   19  C   UNL     1      -8.533   8.371  65.645  1.00  0.00    -0.164 C  
HETATM   20  C   UNL     1      -9.271   6.688  67.302  1.00  0.00    -0.125 C  
ENDBRANCH  16  17
ENDBRANCH  15  16
ENDBRANCH  14  15
ENDBRANCH  13  14
ENDBRANCH  12  13
ENDBRANCH  11  12
ENDBRANCH  10  11
ENDBRANCH   9  10
ENDBRANCH   8   9
ENDBRANCH   7   8
ENDBRANCH   6   7
ENDBRANCH   5   6
ENDBRANCH   4   5
ENDBRANCH   3   4
ENDBRANCH   2   3
TORSDOF 15
ENDMDL
MODEL      265
REMARK 921   NORMALIZED FREE ENERGY PREDICTED BY IDOCK:   -2.66 KCAL/MOL
REMARK 922        TOTAL FREE ENERGY PREDICTED BY IDOCK:   -6.68 KCAL/MOL
REMARK 923 INTER-LIGAND FREE ENERGY PREDICTED BY IDOCK:   -5.32 KCAL/MOL
REMARK 924 INTRA-LIGAND FREE ENERGY PREDICTED BY IDOCK:   -1.37 KCAL/MOL
REMARK 927      BINDING AFFINITY PREDICTED BY RF-SCORE:    0.00 PKD
ROOT
HETATM    1  C   UNL     1     -12.325  11.229  70.671  1.00  0.00    -0.477 C  
HETATM    2  C   UNL     1     -13.258  11.050  71.857  1.00  0.00    -0.503 C  
ENDROOT
BRANCH   2   3
HETATM    3  C   UNL     1     -13.297   9.594  72.306  1.00  0.00    -0.498 C  
BRANCH   3   4
HETATM    4  C   UNL     1     -12.188   8.785  71.642  1.00  0.00    -0.399 C  
BRANCH   4   5
HETATM    5  C   UNL     1     -11.252   8.194  72.691  1.00  0.00    -0.447 C  
BRANCH   5   6
HETATM    6  C   UNL     1      -9.881   7.915  72.093  1.00  0.00    -0.264 C  
BRANCH   6   7
HETATM    7  C   UNL     1      -9.961   7.849  70.573  1.00  0.00    -0.191 C  
BRANCH   7   8
HETATM    8  C   UNL     1      -8.837   6.985  70.024  1.00  0.00    -0.142 C  
BRANCH   8   9
HETATM    9  C   UNL     1      -9.277   6.272  68.756  1.00  0.00    -0.125 C  
BRANCH   9  10
HETATM   10  C   UNL     1     -10.124   7.206  67.903  1.00  0.00    -0.211 C  
BRANCH  10  11
HETATM   11  C   UNL     1      -9.836   6.988  66.429  1.00  0.00    -0.103 C  
BRANCH  11  12
HETATM   12  C   UNL     1      -8.338   7.041  66.159  1.00  0.00    -0.130 C  
BRANCH  12  13
HETATM   13  C   UNL     1      -7.952   8.445  65.726  1.00  0.00    -0.108 C  
BRANCH  13  14
HETATM   14  C   UNL     1      -8.599   8.826  64.397  1.00  0.00    -0.110 C  
BRANCH  14  15
HETATM   15  C   UNL     1      -9.051  10.288  64.381  1.00  0.00    -0.275 C  
BRANCH  15  16
HETATM   16  C   UNL     1      -9.431  10.783  65.779  1.00  0.00    -0.204 C  
BRANCH  16  17
HETATM   17  N   UNL     1     -10.046  12.187  65.797  1.00  0.00    -0.242 N  
HETATM   18  C   UNL     1      -9.238  13.136  66.667  1.00  0.00    -0.215 C  
HETATM   19  C   UNL     1     -11.454  12.061  66.389  1.00  0.00    -0.353 C  
HETATM   20  C   UNL     1     -10.175  12.751  64.386  1.00  0.00    -0.319 C  
ENDBRANCH  16  17
ENDBRANCH  15  16
ENDBRANCH  14  15
ENDBRANCH  13  14
ENDBRANCH  12  13
ENDBRANCH  11  12
ENDBRANCH  10  11
ENDBRANCH   9  10
ENDBRANCH   8   9
ENDBRANCH   7   8
ENDBRANCH   6   7
ENDBRANCH   5   6
ENDBRANCH   4   5
ENDBRANCH   3   4
ENDBRANCH   2   3
TORSDOF 15
ENDMDL
MODEL      266
REMARK 921   NORMALIZED FREE ENERGY PREDICTED BY IDOCK:   -2.65 KCAL/MOL
REMARK 922        TOTAL FREE ENERGY PREDICTED BY IDOCK:   -6.67 KCAL/MOL
REMARK 923 INTER-LIGAND FREE ENERGY PREDICTED BY IDOCK:   -5.56 KCAL/MOL
REMARK 924 INTRA-LIGAND FREE ENERGY PREDICTED BY IDOCK:   -1.11 KCAL/MOL
REMARK 927      BINDING AFFINITY PREDICTED BY RF-SCORE:    0.00 PKD
ROOT
HETATM    1  C   UNL     1      -8.331   6.995  65.106  1.00  0.00    -0.078 C  
HETATM    2  C   UNL     1      -7.230   7.078  64.063  1.00  0.00    -0.069 C  
ENDROOT
BRANCH   2   3
HETATM    3  C   UNL     1      -7.120   8.490  63.496  1.00  0.00    -0.090 C  
BRANCH   3   4
HETATM    4  C   UNL     1      -8.231   8.764  62.488  1.00  0.00    -0.192 C  
BRANCH   4   5
HETATM    5  C   UNL     1      -8.713  10.207  62.598  1.00  0.00    -0.218 C  
BRANCH   5   6
HETATM    6  C   UNL     1      -9.384  10.448  63.943  1.00  0.00    -0.322 C  
BRANCH   6   7
HETATM    7  C   UNL     1     -10.137  11.773  63.936  1.00  0.00    -0.399 C  
BRANCH   7   8
HETATM    8  C   UNL     1     -11.203  11.777  65.022  1.00  0.00    -0.318 C  
BRANCH   8   9
HETATM    9  C   UNL     1     -11.370  13.171  65.604  1.00  0.00    -0.328 C  
BRANCH   9  10
HETATM   10  C   UNL     1     -11.684  13.079  67.090  1.00  0.00    -0.439 C  
BRANCH  10  11
HETATM   11  C   UNL     1     -10.405  12.938  67.895  1.00  0.00    -0.233 C  
BRANCH  11  12
HETATM   12  C   UNL     1     -10.544  11.838  68.941  1.00  0.00    -0.211 C  
BRANCH  12  13
HETATM   13  C   UNL     1     -11.987  11.366  68.986  1.00  0.00    -0.387 C  
BRANCH  13  14
HETATM   14  C   UNL     1     -12.303  10.633  70.287  1.00  0.00    -0.406 C  
BRANCH  14  15
HETATM   15  C   UNL     1     -11.105   9.825  70.791  1.00  0.00    -0.415 C  
BRANCH  15  16
HETATM   16  C   UNL     1     -11.133   8.383  70.275  1.00  0.00    -0.213 C  
BRANCH  16  17
HETATM   17  N   UNL     1     -11.442   7.341  71.357  1.00  0.00    -0.258 N  
HETATM   18  C   UNL     1     -12.934   7.063  71.449  1.00  0.00    -0.340 C  
HETATM   19  C   UNL     1     -10.969   7.919  72.695  1.00  0.00    -0.378 C  
HETATM   20  C   UNL     1     -10.682   6.043  71.106  1.00  0.00    -0.264 C  
ENDBRANCH  16  17
ENDBRANCH  15  16
ENDBRANCH  14  15
ENDBRANCH  13  14
ENDBRANCH  12  13
ENDBRANCH  11  12
ENDBRANCH  10  11
ENDBRANCH   9  10
ENDBRANCH   8   9
ENDBRANCH   7   8
ENDBRANCH   6   7
ENDBRANCH   5   6
ENDBRANCH   4   5
ENDBRANCH   3   4
ENDBRANCH   2   3
TORSDOF 15
ENDMDL
MODEL      267
REMARK 921   NORMALIZED FREE ENERGY PREDICTED BY IDOCK:   -2.63 KCAL/MOL
REMARK 922        TOTAL FREE ENERGY PREDICTED BY IDOCK:   -6.63 KCAL/MOL
REMARK 923 INTER-LIGAND FREE ENERGY PREDICTED BY IDOCK:   -6.04 KCAL/MOL
REMARK 924 INTRA-LIGAND FREE ENERGY PREDICTED BY IDOCK:   -0.60 KCAL/MOL
REMARK 927      BINDING AFFINITY PREDICTED BY RF-SCORE:    0.00 PKD
ROOT
HETATM    1  C   UNL     1      -7.191  20.052  65.810  1.00  0.00    -0.328 C  
HETATM    2  C   UNL     1      -7.380  18.552  65.955  1.00  0.00    -0.275 C  
ENDROOT
BRANCH   2   3
HETATM    3  C   UNL     1      -8.249  18.225  67.165  1.00  0.00    -0.239 C  
BRANCH   3   4
HETATM    4  C   UNL     1      -9.582  17.621  66.736  1.00  0.00    -0.297 C  
BRANCH   4   5
HETATM    5  C   UNL     1     -10.387  17.177  67.952  1.00  0.00    -0.350 C  
BRANCH   5   6
HETATM    6  C   UNL     1      -9.938  15.801  68.422  1.00  0.00    -0.217 C  
BRANCH   6   7
HETATM    7  C   UNL     1     -11.140  14.894  68.653  1.00  0.00    -0.272 C  
BRANCH   7   8
HETATM    8  C   UNL     1     -11.740  15.155  70.026  1.00  0.00    -0.341 C  
BRANCH   8   9
HETATM    9  C   UNL     1     -12.606  13.985  70.464  1.00  0.00    -0.399 C  
BRANCH   9  10
HETATM   10  C   UNL     1     -13.143  14.233  71.867  1.00  0.00    -0.445 C  
BRANCH  10  11
HETATM   11  C   UNL     1     -13.607  12.932  72.496  1.00  0.00    -0.460 C  
BRANCH  11  12
HETATM   12  C   UNL     1     -13.022  11.736  71.757  1.00  0.00    -0.466 C  
BRANCH  12  13
HETATM   13  C   UNL     1     -13.621  10.456  72.313  1.00  0.00    -0.109 C  
BRANCH  13  14
HETATM   14  C   UNL     1     -13.086   9.221  71.595  1.00  0.00    -0.451 C  
BRANCH  14  15
HETATM   15  C   UNL     1     -11.863   8.635  72.304  1.00  0.00    -0.436 C  
BRANCH  15  16
HETATM   16  C   UNL     1     -11.045   7.732  71.377  1.00  0.00    -0.238 C  
BRANCH  16  17
HETATM   17  N   UNL     1      -9.821   7.097  72.047  1.00  0.00    -0.159 N  
HETATM   18  C   UNL     1      -9.902   7.197  73.562  1.00  0.00    -0.280 C  
HETATM   19  C   UNL     1      -8.587   7.873  71.572  1.00  0.00    -0.121 C  
HETATM   20  C   UNL     1      -9.655   5.641  71.626  1.00  0.00    -0.154 C  
ENDBRANCH  16  17
ENDBRANCH  15  16
ENDBRANCH  14  15
ENDBRANCH  13  14
ENDBRANCH  12  13
ENDBRANCH  11  12
ENDBRANCH  10  11
ENDBRANCH   9  10
ENDBRANCH   8   9
ENDBRANCH   7   8
ENDBRANCH   6   7
ENDBRANCH   5   6
ENDBRANCH   4   5
ENDBRANCH   3   4
ENDBRANCH   2   3
TORSDOF 15
ENDMDL
MODEL      268
REMARK 921   NORMALIZED FREE ENERGY PREDICTED BY IDOCK:   -2.61 KCAL/MOL
REMARK 922        TOTAL FREE ENERGY PREDICTED BY IDOCK:   -6.59 KCAL/MOL
REMARK 923 INTER-LIGAND FREE ENERGY PREDICTED BY IDOCK:   -5.41 KCAL/MOL
REMARK 924 INTRA-LIGAND FREE ENERGY PREDICTED BY IDOCK:   -1.18 KCAL/MOL
REMARK 927      BINDING AFFINITY PREDICTED BY RF-SCORE:    0.00 PKD
ROOT
HETATM    1  C   UNL     1      -9.784  16.432  69.243  1.00  0.00    -0.221 C  
HETATM    2  C   UNL     1      -9.835  17.738  68.468  1.00  0.00    -0.355 C  
ENDROOT
BRANCH   2   3
HETATM    3  C   UNL     1     -10.899  17.685  67.377  1.00  0.00    -0.178 C  
BRANCH   3   4
HETATM    4  C   UNL     1     -10.263  17.546  65.997  1.00  0.00    -0.306 C  
BRANCH   4   5
HETATM    5  C   UNL     1      -9.835  16.104  65.746  1.00  0.00    -0.354 C  
BRANCH   5   6
HETATM    6  C   UNL     1     -11.026  15.254  65.328  1.00  0.00    -0.403 C  
BRANCH   6   7
HETATM    7  C   UNL     1     -10.909  13.847  65.902  1.00  0.00    -0.287 C  
BRANCH   7   8
HETATM    8  C   UNL     1     -11.502  13.799  67.302  1.00  0.00    -0.367 C  
BRANCH   8   9
HETATM    9  C   UNL     1     -10.438  13.432  68.323  1.00  0.00    -0.256 C  
BRANCH   9  10
HETATM   10  C   UNL     1      -9.790  12.108  67.945  1.00  0.00    -0.199 C  
BRANCH  10  11
HETATM   11  C   UNL     1     -10.706  10.949  68.293  1.00  0.00    -0.244 C  
BRANCH  11  12
HETATM   12  C   UNL     1     -10.824   9.984  67.120  1.00  0.00    -0.240 C  
BRANCH  12  13
HETATM   13  C   UNL     1      -9.874   8.818  67.329  1.00  0.00    -0.260 C  
BRANCH  13  14
HETATM   14  C   UNL     1     -10.500   7.723  68.187  1.00  0.00    -0.230 C  
BRANCH  14  15
HETATM   15  C   UNL     1      -9.710   7.488  69.477  1.00  0.00    -0.164 C  
BRANCH  15  16
HETATM   16  C   UNL     1     -10.582   6.874  70.575  1.00  0.00    -0.220 C  
BRANCH  16  17
HETATM   17  N   UNL     1     -10.851   7.815  71.756  1.00  0.00    -0.231 N  
HETATM   18  C   UNL     1     -10.754   7.081  73.084  1.00  0.00    -0.326 C  
HETATM   19  C   UNL     1     -12.278   8.351  71.597  1.00  0.00    -0.315 C  
HETATM   20  C   UNL     1      -9.895   9.003  71.743  1.00  0.00    -0.260 C  
ENDBRANCH  16  17
ENDBRANCH  15  16
ENDBRANCH  14  15
ENDBRANCH  13  14
ENDBRANCH  12  13
ENDBRANCH  11  12
ENDBRANCH  10  11
ENDBRANCH   9  10
ENDBRANCH   8   9
ENDBRANCH   7   8
ENDBRANCH   6   7
ENDBRANCH   5   6
ENDBRANCH   4   5
ENDBRANCH   3   4
ENDBRANCH   2   3
TORSDOF 15
ENDMDL
MODEL      269
REMARK 921   NORMALIZED FREE ENERGY PREDICTED BY IDOCK:   -2.61 KCAL/MOL
REMARK 922        TOTAL FREE ENERGY PREDICTED BY IDOCK:   -6.59 KCAL/MOL
REMARK 923 INTER-LIGAND FREE ENERGY PREDICTED BY IDOCK:   -5.55 KCAL/MOL
REMARK 924 INTRA-LIGAND FREE ENERGY PREDICTED BY IDOCK:   -1.04 KCAL/MOL
REMARK 927      BINDING AFFINITY PREDICTED BY RF-SCORE:    0.00 PKD
ROOT
HETATM    1  C   UNL     1      -5.640  20.853  65.665  1.00  0.00    -0.264 C  
HETATM    2  C   UNL     1      -6.230  21.294  66.994  1.00  0.00    -0.406 C  
ENDROOT
BRANCH   2   3
HETATM    3  C   UNL     1      -5.354  20.842  68.157  1.00  0.00    -0.318 C  
BRANCH   3   4
HETATM    4  C   UNL     1      -6.203  20.429  69.355  1.00  0.00    -0.326 C  
BRANCH   4   5
HETATM    5  C   UNL     1      -5.981  18.958  69.690  1.00  0.00    -0.282 C  
BRANCH   5   6
HETATM    6  C   UNL     1      -6.950  18.077  68.913  1.00  0.00    -0.263 C  
BRANCH   6   7
HETATM    7  C   UNL     1      -8.330  18.719  68.854  1.00  0.00    -0.244 C  
BRANCH   7   8
HETATM    8  C   UNL     1      -8.934  18.543  67.470  1.00  0.00    -0.286 C  
BRANCH   8   9
HETATM    9  C   UNL     1     -10.130  17.606  67.521  1.00  0.00    -0.337 C  
BRANCH   9  10
HETATM   10  C   UNL     1      -9.678  16.208  67.918  1.00  0.00    -0.225 C  
BRANCH  10  11
HETATM   11  C   UNL     1     -10.051  15.204  66.843  1.00  0.00    -0.256 C  
BRANCH  11  12
HETATM   12  C   UNL     1     -11.555  14.967  66.824  1.00  0.00    -0.275 C  
BRANCH  12  13
HETATM   13  C   UNL     1     -11.900  13.837  67.780  1.00  0.00    -0.404 C  
BRANCH  13  14
HETATM   14  C   UNL     1     -10.826  12.753  67.787  1.00  0.00    -0.248 C  
BRANCH  14  15
HETATM   15  C   UNL     1     -11.414  11.371  68.080  1.00  0.00    -0.377 C  
BRANCH  15  16
HETATM   16  C   UNL     1     -10.921  10.814  69.418  1.00  0.00    -0.254 C  
BRANCH  16  17
HETATM   17  N   UNL     1     -10.361   9.389  69.332  1.00  0.00    -0.204 N  
HETATM   18  C   UNL     1     -10.432   8.849  67.913  1.00  0.00    -0.223 C  
HETATM   19  C   UNL     1     -11.226   8.504  70.236  1.00  0.00    -0.179 C  
HETATM   20  C   UNL     1      -8.926   9.329  69.844  1.00  0.00    -0.183 C  
ENDBRANCH  16  17
ENDBRANCH  15  16
ENDBRANCH  14  15
ENDBRANCH  13  14
ENDBRANCH  12  13
ENDBRANCH  11  12
ENDBRANCH  10  11
ENDBRANCH   9  10
ENDBRANCH   8   9
ENDBRANCH   7   8
ENDBRANCH   6   7
ENDBRANCH   5   6
ENDBRANCH   4   5
ENDBRANCH   3   4
ENDBRANCH   2   3
TORSDOF 15
ENDMDL
MODEL      270
REMARK 921   NORMALIZED FREE ENERGY PREDICTED BY IDOCK:   -2.60 KCAL/MOL
REMARK 922        TOTAL FREE ENERGY PREDICTED BY IDOCK:   -6.58 KCAL/MOL
REMARK 923 INTER-LIGAND FREE ENERGY PREDICTED BY IDOCK:   -5.28 KCAL/MOL
REMARK 924 INTRA-LIGAND FREE ENERGY PREDICTED BY IDOCK:   -1.30 KCAL/MOL
REMARK 927      BINDING AFFINITY PREDICTED BY RF-SCORE:    0.00 PKD
ROOT
HETATM    1  C   UNL     1     -12.296  11.193  70.724  1.00  0.00    -0.504 C  
HETATM    2  C   UNL     1     -13.257  10.877  71.858  1.00  0.00    -0.508 C  
ENDROOT
BRANCH   2   3
HETATM    3  C   UNL     1     -13.273   9.383  72.161  1.00  0.00    -0.541 C  
BRANCH   3   4
HETATM    4  C   UNL     1     -12.096   8.676  71.497  1.00  0.00    -0.369 C  
BRANCH   4   5
HETATM    5  C   UNL     1     -11.224   7.987  72.542  1.00  0.00    -0.452 C  
BRANCH   5   6
HETATM    6  C   UNL     1      -9.797   8.512  72.482  1.00  0.00    -0.324 C  
BRANCH   6   7
HETATM    7  C   UNL     1      -9.500   9.106  71.111  1.00  0.00    -0.331 C  
BRANCH   7   8
HETATM    8  C   UNL     1      -8.009   9.037  70.819  1.00  0.00    -0.172 C  
BRANCH   8   9
HETATM    9  C   UNL     1      -7.760   8.883  69.327  1.00  0.00    -0.094 C  
BRANCH   9  10
HETATM   10  C   UNL     1      -8.693   9.801  68.549  1.00  0.00    -0.120 C  
BRANCH  10  11
HETATM   11  C   UNL     1      -7.925  10.555  67.479  1.00  0.00    -0.107 C  
BRANCH  11  12
HETATM   12  C   UNL     1      -6.612  11.091  68.035  1.00  0.00    -0.062 C  
BRANCH  12  13
HETATM   13  C   UNL     1      -6.844  12.463  68.645  1.00  0.00    -0.087 C  
BRANCH  13  14
HETATM   14  C   UNL     1      -7.156  13.511  67.581  1.00  0.00    -0.176 C  
BRANCH  14  15
HETATM   15  C   UNL     1      -8.250  14.479  68.038  1.00  0.00    -0.145 C  
BRANCH  15  16
HETATM   16  C   UNL     1      -8.721  15.385  66.897  1.00  0.00    -0.254 C  
BRANCH  16  17
HETATM   17  N   UNL     1      -8.954  16.842  67.315  1.00  0.00    -0.201 N  
HETATM   18  C   UNL     1     -10.362  17.300  66.970  1.00  0.00    -0.318 C  
HETATM   19  C   UNL     1      -7.955  17.705  66.535  1.00  0.00    -0.267 C  
HETATM   20  C   UNL     1      -8.688  17.038  68.803  1.00  0.00    -0.244 C  
ENDBRANCH  16  17
ENDBRANCH  15  16
ENDBRANCH  14  15
ENDBRANCH  13  14
ENDBRANCH  12  13
ENDBRANCH  11  12
ENDBRANCH  10  11
ENDBRANCH   9  10
ENDBRANCH   8   9
ENDBRANCH   7   8
ENDBRANCH   6   7
ENDBRANCH   5   6
ENDBRANCH   4   5
ENDBRANCH   3   4
ENDBRANCH   2   3
TORSDOF 15
ENDMDL
MODEL      271
REMARK 921   NORMALIZED FREE ENERGY PREDICTED BY IDOCK:   -2.59 KCAL/MOL
REMARK 922        TOTAL FREE ENERGY PREDICTED BY IDOCK:   -6.55 KCAL/MOL
REMARK 923 INTER-LIGAND FREE ENERGY PREDICTED BY IDOCK:   -5.70 KCAL/MOL
REMARK 924 INTRA-LIGAND FREE ENERGY PREDICTED BY IDOCK:   -0.86 KCAL/MOL
REMARK 927      BINDING AFFINITY PREDICTED BY RF-SCORE:    0.00 PKD
ROOT
HETATM    1  C   UNL     1      -6.088  18.947  66.440  1.00  0.00    -0.190 C  
HETATM    2  C   UNL     1      -6.956  20.049  65.857  1.00  0.00    -0.305 C  
ENDROOT
BRANCH   2   3
HETATM    3  C   UNL     1      -8.202  20.271  66.709  1.00  0.00    -0.317 C  
BRANCH   3   4
HETATM    4  C   UNL     1      -8.574  19.006  67.476  1.00  0.00    -0.311 C  
BRANCH   4   5
HETATM    5  C   UNL     1     -10.056  19.012  67.834  1.00  0.00    -0.455 C  
BRANCH   5   6
HETATM    6  C   UNL     1     -10.349  17.996  68.929  1.00  0.00    -0.244 C  
BRANCH   6   7
HETATM    7  C   UNL     1     -10.328  16.580  68.367  1.00  0.00    -0.294 C  
BRANCH   7   8
HETATM    8  C   UNL     1     -11.624  15.860  68.709  1.00  0.00    -0.389 C  
BRANCH   8   9
HETATM    9  C   UNL     1     -11.815  15.785  70.215  1.00  0.00    -0.369 C  
BRANCH   9  10
HETATM   10  C   UNL     1     -12.529  14.492  70.584  1.00  0.00    -0.409 C  
BRANCH  10  11
HETATM   11  C   UNL     1     -12.402  13.477  69.464  1.00  0.00    -0.198 C  
BRANCH  11  12
HETATM   12  C   UNL     1     -11.667  12.232  69.945  1.00  0.00    -0.346 C  
BRANCH  12  13
HETATM   13  C   UNL     1     -10.542  11.904  68.979  1.00  0.00    -0.152 C  
BRANCH  13  14
HETATM   14  C   UNL     1     -10.420  10.403  68.739  1.00  0.00    -0.219 C  
BRANCH  14  15
HETATM   15  C   UNL     1     -11.015   9.591  69.892  1.00  0.00    -0.263 C  
BRANCH  15  16
HETATM   16  C   UNL     1     -10.681   8.101  69.772  1.00  0.00    -0.229 C  
BRANCH  16  17
HETATM   17  N   UNL     1     -10.432   7.408  71.117  1.00  0.00    -0.209 N  
HETATM   18  C   UNL     1      -9.143   6.603  71.097  1.00  0.00    -0.152 C  
HETATM   19  C   UNL     1     -11.603   6.450  71.360  1.00  0.00    -0.311 C  
HETATM   20  C   UNL     1     -10.401   8.417  72.260  1.00  0.00    -0.333 C  
ENDBRANCH  16  17
ENDBRANCH  15  16
ENDBRANCH  14  15
ENDBRANCH  13  14
ENDBRANCH  12  13
ENDBRANCH  11  12
ENDBRANCH  10  11
ENDBRANCH   9  10
ENDBRANCH   8   9
ENDBRANCH   7   8
ENDBRANCH   6   7
ENDBRANCH   5   6
ENDBRANCH   4   5
ENDBRANCH   3   4
ENDBRANCH   2   3
TORSDOF 15
ENDMDL
MODEL      272
REMARK 921   NORMALIZED FREE ENERGY PREDICTED BY IDOCK:   -2.58 KCAL/MOL
REMARK 922        TOTAL FREE ENERGY PREDICTED BY IDOCK:   -6.53 KCAL/MOL
REMARK 923 INTER-LIGAND FREE ENERGY PREDICTED BY IDOCK:   -5.48 KCAL/MOL
REMARK 924 INTRA-LIGAND FREE ENERGY PREDICTED BY IDOCK:   -1.05 KCAL/MOL
REMARK 927      BINDING AFFINITY PREDICTED BY RF-SCORE:    0.00 PKD
ROOT
HETATM    1  C   UNL     1     -11.003   6.136  68.214  1.00  0.00    -0.397 C  
HETATM    2  C   UNL     1     -10.030   5.193  68.900  1.00  0.00    -0.245 C  
ENDROOT
BRANCH   2   3
HETATM    3  C   UNL     1      -8.595   5.482  68.473  1.00  0.00    -0.102 C  
BRANCH   3   4
HETATM    4  C   UNL     1      -7.780   6.043  69.633  1.00  0.00    -0.097 C  
BRANCH   4   5
HETATM    5  C   UNL     1      -8.159   7.496  69.902  1.00  0.00    -0.129 C  
BRANCH   5   6
HETATM    6  C   UNL     1      -8.306   7.745  71.397  1.00  0.00    -0.118 C  
BRANCH   6   7
HETATM    7  C   UNL     1      -9.309   8.862  71.659  1.00  0.00    -0.328 C  
BRANCH   7   8
HETATM    8  C   UNL     1     -10.430   8.813  70.633  1.00  0.00    -0.253 C  
BRANCH   8   9
HETATM    9  C   UNL     1     -11.633   9.608  71.114  1.00  0.00    -0.456 C  
BRANCH   9  10
HETATM   10  C   UNL     1     -12.084  10.575  70.028  1.00  0.00    -0.351 C  
BRANCH  10  11
HETATM   11  C   UNL     1     -12.155  11.990  70.571  1.00  0.00    -0.402 C  
BRANCH  11  12
HETATM   12  C   UNL     1     -11.341  12.942  69.704  1.00  0.00    -0.166 C  
BRANCH  12  13
HETATM   13  C   UNL     1     -12.277  13.728  68.803  1.00  0.00    -0.221 C  
BRANCH  13  14
HETATM   14  C   UNL     1     -11.519  14.724  67.930  1.00  0.00    -0.361 C  
BRANCH  14  15
HETATM   15  C   UNL     1     -11.946  14.635  66.463  1.00  0.00    -0.284 C  
BRANCH  15  16
HETATM   16  C   UNL     1     -11.968  13.189  65.962  1.00  0.00    -0.433 C  
BRANCH  16  17
HETATM   17  N   UNL     1     -11.906  13.057  64.435  1.00  0.00    -0.364 N  
HETATM   18  C   UNL     1     -10.503  12.712  63.964  1.00  0.00    -0.416 C  
HETATM   19  C   UNL     1     -12.300  14.415  63.844  1.00  0.00    -0.077 C  
HETATM   20  C   UNL     1     -12.900  12.016  63.931  1.00  0.00    -0.284 C  
ENDBRANCH  16  17
ENDBRANCH  15  16
ENDBRANCH  14  15
ENDBRANCH  13  14
ENDBRANCH  12  13
ENDBRANCH  11  12
ENDBRANCH  10  11
ENDBRANCH   9  10
ENDBRANCH   8   9
ENDBRANCH   7   8
ENDBRANCH   6   7
ENDBRANCH   5   6
ENDBRANCH   4   5
ENDBRANCH   3   4
ENDBRANCH   2   3
TORSDOF 15
ENDMDL
MODEL      273
REMARK 921   NORMALIZED FREE ENERGY PREDICTED BY IDOCK:   -2.57 KCAL/MOL
REMARK 922        TOTAL FREE ENERGY PREDICTED BY IDOCK:   -6.52 KCAL/MOL
REMARK 923 INTER-LIGAND FREE ENERGY PREDICTED BY IDOCK:   -5.24 KCAL/MOL
REMARK 924 INTRA-LIGAND FREE ENERGY PREDICTED BY IDOCK:   -1.28 KCAL/MOL
REMARK 927      BINDING AFFINITY PREDICTED BY RF-SCORE:    0.00 PKD
ROOT
HETATM    1  C   UNL     1     -10.643  16.202  66.238  1.00  0.00    -0.276 C  
HETATM    2  C   UNL     1      -9.374  15.777  66.955  1.00  0.00    -0.235 C  
ENDROOT
BRANCH   2   3
HETATM    3  C   UNL     1      -9.003  14.340  66.604  1.00  0.00    -0.212 C  
BRANCH   3   4
HETATM    4  C   UNL     1      -9.878  13.347  67.361  1.00  0.00    -0.227 C  
BRANCH   4   5
HETATM    5  C   UNL     1     -10.647  12.458  66.389  1.00  0.00    -0.271 C  
BRANCH   5   6
HETATM    6  C   UNL     1     -10.134  11.026  66.449  1.00  0.00    -0.275 C  
BRANCH   6   7
HETATM    7  C   UNL     1      -9.887  10.605  67.892  1.00  0.00    -0.181 C  
BRANCH   7   8
HETATM    8  C   UNL     1     -11.188  10.158  68.540  1.00  0.00    -0.226 C  
BRANCH   8   9
HETATM    9  C   UNL     1     -11.442  10.932  69.823  1.00  0.00    -0.390 C  
BRANCH   9  10
HETATM   10  C   UNL     1     -12.894  10.768  70.250  1.00  0.00    -0.226 C  
BRANCH  10  11
HETATM   11  C   UNL     1     -12.993  10.640  71.759  1.00  0.00    -0.577 C  
BRANCH  11  12
HETATM   12  C   UNL     1     -13.640   9.317  72.147  1.00  0.00    -0.536 C  
BRANCH  12  13
HETATM   13  C   UNL     1     -12.816   8.170  71.590  1.00  0.00    -0.347 C  
BRANCH  13  14
HETATM   14  C   UNL     1     -11.758   7.697  72.582  1.00  0.00    -0.323 C  
BRANCH  14  15
HETATM   15  C   UNL     1     -10.344   8.070  72.129  1.00  0.00    -0.318 C  
BRANCH  15  16
HETATM   16  C   UNL     1      -9.375   6.891  72.261  1.00  0.00    -0.137 C  
BRANCH  16  17
HETATM   17  N   UNL     1      -7.949   7.298  72.653  1.00  0.00    -0.097 N  
HETATM   18  C   UNL     1      -7.912   7.925  74.037  1.00  0.00    -0.213 C  
HETATM   19  C   UNL     1      -7.476   8.339  71.632  1.00  0.00    -0.093 C  
HETATM   20  C   UNL     1      -6.999   6.108  72.590  1.00  0.00    -0.075 C  
ENDBRANCH  16  17
ENDBRANCH  15  16
ENDBRANCH  14  15
ENDBRANCH  13  14
ENDBRANCH  12  13
ENDBRANCH  11  12
ENDBRANCH  10  11
ENDBRANCH   9  10
ENDBRANCH   8   9
ENDBRANCH   7   8
ENDBRANCH   6   7
ENDBRANCH   5   6
ENDBRANCH   4   5
ENDBRANCH   3   4
ENDBRANCH   2   3
TORSDOF 15
ENDMDL
MODEL      274
REMARK 921   NORMALIZED FREE ENERGY PREDICTED BY IDOCK:   -2.56 KCAL/MOL
REMARK 922        TOTAL FREE ENERGY PREDICTED BY IDOCK:   -6.50 KCAL/MOL
REMARK 923 INTER-LIGAND FREE ENERGY PREDICTED BY IDOCK:   -5.52 KCAL/MOL
REMARK 924 INTRA-LIGAND FREE ENERGY PREDICTED BY IDOCK:   -0.98 KCAL/MOL
REMARK 927      BINDING AFFINITY PREDICTED BY RF-SCORE:    0.00 PKD
ROOT
HETATM    1  C   UNL     1      -7.228  15.243  68.038  1.00  0.00    -0.138 C  
HETATM    2  C   UNL     1      -7.327  16.339  66.991  1.00  0.00    -0.264 C  
ENDROOT
BRANCH   2   3
HETATM    3  C   UNL     1      -8.764  16.828  66.845  1.00  0.00    -0.242 C  
BRANCH   3   4
HETATM    4  C   UNL     1      -9.568  16.552  68.111  1.00  0.00    -0.226 C  
BRANCH   4   5
HETATM    5  C   UNL     1     -10.978  16.088  67.762  1.00  0.00    -0.307 C  
BRANCH   5   6
HETATM    6  C   UNL     1     -10.937  14.983  66.716  1.00  0.00    -0.323 C  
BRANCH   6   7
HETATM    7  C   UNL     1     -12.272  14.252  66.654  1.00  0.00    -0.411 C  
BRANCH   7   8
HETATM    8  C   UNL     1     -12.696  14.051  65.207  1.00  0.00    -0.468 C  
BRANCH   8   9
HETATM    9  C   UNL     1     -12.461  12.613  64.774  1.00  0.00    -0.555 C  
BRANCH   9  10
HETATM   10  C   UNL     1     -11.636  12.585  63.495  1.00  0.00    -0.584 C  
BRANCH  10  11
HETATM   11  C   UNL     1     -10.347  11.813  63.711  1.00  0.00    -0.451 C  
BRANCH  11  12
HETATM   12  C   UNL     1     -10.054  11.658  65.198  1.00  0.00    -0.304 C  
BRANCH  12  13
HETATM   13  C   UNL     1     -10.230  10.203  65.598  1.00  0.00    -0.288 C  
BRANCH  13  14
HETATM   14  C   UNL     1      -9.149   9.314  64.993  1.00  0.00    -0.245 C  
BRANCH  14  15
HETATM   15  C   UNL     1      -8.573   8.336  66.020  1.00  0.00    -0.167 C  
BRANCH  15  16
HETATM   16  C   UNL     1      -9.478   7.116  66.215  1.00  0.00    -0.067 C  
BRANCH  16  17
HETATM   17  N   UNL     1      -8.779   5.922  66.876  1.00  0.00    -0.111 N  
HETATM   18  C   UNL     1      -9.769   5.044  67.623  1.00  0.00    -0.154 C  
HETATM   19  C   UNL     1      -7.769   6.485  67.882  1.00  0.00    -0.104 C  
HETATM   20  C   UNL     1      -8.014   5.094  65.850  1.00  0.00    -0.108 C  
ENDBRANCH  16  17
ENDBRANCH  15  16
ENDBRANCH  14  15
ENDBRANCH  13  14
ENDBRANCH  12  13
ENDBRANCH  11  12
ENDBRANCH  10  11
ENDBRANCH   9  10
ENDBRANCH   8   9
ENDBRANCH   7   8
ENDBRANCH   6   7
ENDBRANCH   5   6
ENDBRANCH   4   5
ENDBRANCH   3   4
ENDBRANCH   2   3
TORSDOF 15
ENDMDL
MODEL      275
REMARK 921   NORMALIZED FREE ENERGY PREDICTED BY IDOCK:   -2.54 KCAL/MOL
REMARK 922        TOTAL FREE ENERGY PREDICTED BY IDOCK:   -6.46 KCAL/MOL
REMARK 923 INTER-LIGAND FREE ENERGY PREDICTED BY IDOCK:   -4.64 KCAL/MOL
REMARK 924 INTRA-LIGAND FREE ENERGY PREDICTED BY IDOCK:   -1.82 KCAL/MOL
REMARK 927      BINDING AFFINITY PREDICTED BY RF-SCORE:    0.00 PKD
ROOT
HETATM    1  C   UNL     1     -12.632  12.643  64.765  1.00  0.00    -0.530 C  
HETATM    2  C   UNL     1     -12.099  11.939  63.529  1.00  0.00    -0.575 C  
ENDROOT
BRANCH   2   3
HETATM    3  C   UNL     1     -10.618  11.611  63.683  1.00  0.00    -0.493 C  
BRANCH   3   4
HETATM    4  C   UNL     1     -10.422  10.311  64.457  1.00  0.00     0.210 C  
BRANCH   4   5
HETATM    5  C   UNL     1      -9.688  10.572  65.768  1.00  0.00    -0.277 C  
BRANCH   5   6
HETATM    6  C   UNL     1      -8.670  11.691  65.601  1.00  0.00     0.125 C  
BRANCH   6   7
HETATM    7  C   UNL     1      -8.721  12.645  66.788  1.00  0.00    -0.135 C  
BRANCH   7   8
HETATM    8  C   UNL     1      -9.152  11.901  68.042  1.00  0.00    -0.189 C  
BRANCH   8   9
HETATM    9  C   UNL     1     -10.117  12.744  68.861  1.00  0.00     0.051 C  
BRANCH   9  10
HETATM   10  C   UNL     1     -11.450  12.860  68.135  1.00  0.00    -0.354 C  
BRANCH  10  11
HETATM   11  C   UNL     1     -12.206  14.089  68.604  1.00  0.00    -0.218 C  
BRANCH  11  12
HETATM   12  C   UNL     1     -12.224  14.163  70.126  1.00  0.00    -0.415 C  
BRANCH  12  13
HETATM   13  C   UNL     1     -11.501  15.420  70.579  1.00  0.00    -0.354 C  
BRANCH  13  14
HETATM   14  C   UNL     1     -11.081  16.289  69.398  1.00  0.00    -0.328 C  
BRANCH  14  15
HETATM   15  C   UNL     1      -9.559  16.368  69.261  1.00  0.00    -0.198 C  
BRANCH  15  16
HETATM   16  C   UNL     1      -9.108  16.197  67.807  1.00  0.00    -0.197 C  
BRANCH  16  17
HETATM   17  N   UNL     1      -7.791  16.910  67.476  1.00  0.00    -0.166 N  
HETATM   18  C   UNL     1      -7.944  17.829  66.275  1.00  0.00    -0.247 C  
HETATM   19  C   UNL     1      -6.760  15.827  67.135  1.00  0.00    -0.092 C  
HETATM   20  C   UNL     1      -7.273  17.696  68.675  1.00  0.00    -0.255 C  
ENDBRANCH  16  17
ENDBRANCH  15  16
ENDBRANCH  14  15
ENDBRANCH  13  14
ENDBRANCH  12  13
ENDBRANCH  11  12
ENDBRANCH  10  11
ENDBRANCH   9  10
ENDBRANCH   8   9
ENDBRANCH   7   8
ENDBRANCH   6   7
ENDBRANCH   5   6
ENDBRANCH   4   5
ENDBRANCH   3   4
ENDBRANCH   2   3
TORSDOF 15
ENDMDL
MODEL      276
REMARK 921   NORMALIZED FREE ENERGY PREDICTED BY IDOCK:   -2.54 KCAL/MOL
REMARK 922        TOTAL FREE ENERGY PREDICTED BY IDOCK:   -6.46 KCAL/MOL
REMARK 923 INTER-LIGAND FREE ENERGY PREDICTED BY IDOCK:   -5.48 KCAL/MOL
REMARK 924 INTRA-LIGAND FREE ENERGY PREDICTED BY IDOCK:   -0.98 KCAL/MOL
REMARK 927      BINDING AFFINITY PREDICTED BY RF-SCORE:    0.00 PKD
ROOT
HETATM    1  C   UNL     1     -11.408   6.466  69.904  1.00  0.00    -0.500 C  
HETATM    2  C   UNL     1     -10.059   6.101  70.499  1.00  0.00    -0.237 C  
ENDROOT
BRANCH   2   3
HETATM    3  C   UNL     1      -9.796   4.604  70.381  1.00  0.00    -0.306 C  
BRANCH   3   4
HETATM    4  C   UNL     1      -8.641   4.324  69.425  1.00  0.00    -0.109 C  
BRANCH   4   5
HETATM    5  C   UNL     1      -9.104   4.431  67.976  1.00  0.00    -0.158 C  
BRANCH   5   6
HETATM    6  C   UNL     1      -8.362   5.547  67.255  1.00  0.00    -0.104 C  
BRANCH   6   7
HETATM    7  C   UNL     1      -9.234   6.154  66.163  1.00  0.00    -0.150 C  
BRANCH   7   8
HETATM    8  C   UNL     1     -10.057   7.303  66.725  1.00  0.00    -0.291 C  
BRANCH   8   9
HETATM    9  C   UNL     1      -9.642   8.621  66.091  1.00  0.00    -0.305 C  
BRANCH   9  10
HETATM   10  C   UNL     1     -10.385   9.772  66.754  1.00  0.00    -0.289 C  
BRANCH  10  11
HETATM   11  C   UNL     1      -9.620  11.071  66.575  1.00  0.00    -0.223 C  
BRANCH  11  12
HETATM   12  C   UNL     1      -9.951  12.050  67.694  1.00  0.00    -0.196 C  
BRANCH  12  13
HETATM   13  C   UNL     1     -10.658  13.261  67.112  1.00  0.00    -0.259 C  
BRANCH  13  14
HETATM   14  C   UNL     1      -9.914  13.828  65.907  1.00  0.00    -0.308 C  
BRANCH  14  15
HETATM   15  C   UNL     1     -10.266  15.296  65.657  1.00  0.00    -0.398 C  
BRANCH  15  16
HETATM   16  C   UNL     1      -9.174  16.239  66.168  1.00  0.00    -0.341 C  
BRANCH  16  17
HETATM   17  N   UNL     1      -9.702  17.400  67.021  1.00  0.00    -0.266 N  
HETATM   18  C   UNL     1     -10.297  18.498  66.155  1.00  0.00    -0.426 C  
HETATM   19  C   UNL     1      -8.510  17.977  67.793  1.00  0.00    -0.247 C  
HETATM   20  C   UNL     1     -10.733  16.915  68.034  1.00  0.00    -0.364 C  
ENDBRANCH  16  17
ENDBRANCH  15  16
ENDBRANCH  14  15
ENDBRANCH  13  14
ENDBRANCH  12  13
ENDBRANCH  11  12
ENDBRANCH  10  11
ENDBRANCH   9  10
ENDBRANCH   8   9
ENDBRANCH   7   8
ENDBRANCH   6   7
ENDBRANCH   5   6
ENDBRANCH   4   5
ENDBRANCH   3   4
ENDBRANCH   2   3
TORSDOF 15
ENDMDL
MODEL      277
REMARK 921   NORMALIZED FREE ENERGY PREDICTED BY IDOCK:   -2.53 KCAL/MOL
REMARK 922        TOTAL FREE ENERGY PREDICTED BY IDOCK:   -6.44 KCAL/MOL
REMARK 923 INTER-LIGAND FREE ENERGY PREDICTED BY IDOCK:   -4.87 KCAL/MOL
REMARK 924 INTRA-LIGAND FREE ENERGY PREDICTED BY IDOCK:   -1.57 KCAL/MOL
REMARK 927      BINDING AFFINITY PREDICTED BY RF-SCORE:    0.00 PKD
ROOT
HETATM    1  C   UNL     1     -10.469   4.071  64.836  1.00  0.00    -0.175 C  
HETATM    2  C   UNL     1      -9.186   3.482  65.396  1.00  0.00    -0.154 C  
ENDROOT
BRANCH   2   3
HETATM    3  C   UNL     1      -7.997   3.813  64.502  1.00  0.00    -0.086 C  
BRANCH   3   4
HETATM    4  C   UNL     1      -7.181   4.966  65.078  1.00  0.00    -0.064 C  
BRANCH   4   5
HETATM    5  C   UNL     1      -7.620   6.292  64.466  1.00  0.00    -0.099 C  
BRANCH   5   6
HETATM    6  C   UNL     1      -7.869   7.329  65.553  1.00  0.00    -0.115 C  
BRANCH   6   7
HETATM    7  C   UNL     1      -7.935   6.665  66.923  1.00  0.00    -0.109 C  
BRANCH   7   8
HETATM    8  C   UNL     1      -9.319   6.843  67.527  1.00  0.00    -0.130 C  
BRANCH   8   9
HETATM    9  C   UNL     1     -10.113   7.883  66.753  1.00  0.00    -0.352 C  
BRANCH   9  10
HETATM   10  C   UNL     1     -10.493   9.036  67.672  1.00  0.00    -0.324 C  
BRANCH  10  11
HETATM   11  C   UNL     1     -10.210   8.677  69.119  1.00  0.00    -0.215 C  
BRANCH  11  12
HETATM   12  C   UNL     1     -10.222   9.923  69.995  1.00  0.00    -0.319 C  
BRANCH  12  13
HETATM   13  C   UNL     1     -11.506   9.957  70.807  1.00  0.00    -0.433 C  
BRANCH  13  14
HETATM   14  C   UNL     1     -12.229  11.293  70.669  1.00  0.00    -0.489 C  
BRANCH  14  15
HETATM   15  C   UNL     1     -11.826  12.030  69.389  1.00  0.00    -0.384 C  
BRANCH  15  16
HETATM   16  C   UNL     1     -11.830  13.549  69.582  1.00  0.00    -0.336 C  
BRANCH  16  17
HETATM   17  N   UNL     1     -10.881  14.299  68.639  1.00  0.00    -0.246 N  
HETATM   18  C   UNL     1      -9.717  13.421  68.210  1.00  0.00    -0.226 C  
HETATM   19  C   UNL     1     -10.328  15.502  69.410  1.00  0.00    -0.258 C  
HETATM   20  C   UNL     1     -11.623  14.822  67.413  1.00  0.00    -0.360 C  
ENDBRANCH  16  17
ENDBRANCH  15  16
ENDBRANCH  14  15
ENDBRANCH  13  14
ENDBRANCH  12  13
ENDBRANCH  11  12
ENDBRANCH  10  11
ENDBRANCH   9  10
ENDBRANCH   8   9
ENDBRANCH   7   8
ENDBRANCH   6   7
ENDBRANCH   5   6
ENDBRANCH   4   5
ENDBRANCH   3   4
ENDBRANCH   2   3
TORSDOF 15
ENDMDL
MODEL      278
REMARK 921   NORMALIZED FREE ENERGY PREDICTED BY IDOCK:   -2.53 KCAL/MOL
REMARK 922        TOTAL FREE ENERGY PREDICTED BY IDOCK:   -6.44 KCAL/MOL
REMARK 923 INTER-LIGAND FREE ENERGY PREDICTED BY IDOCK:   -5.75 KCAL/MOL
REMARK 924 INTRA-LIGAND FREE ENERGY PREDICTED BY IDOCK:   -0.69 KCAL/MOL
REMARK 927      BINDING AFFINITY PREDICTED BY RF-SCORE:    0.00 PKD
ROOT
HETATM    1  C   UNL     1      -8.369  19.923  66.190  1.00  0.00    -0.345 C  
HETATM    2  C   UNL     1      -8.817  20.412  67.556  1.00  0.00    -0.386 C  
ENDROOT
BRANCH   2   3
HETATM    3  C   UNL     1     -10.242  19.959  67.858  1.00  0.00    -0.571 C  
BRANCH   3   4
HETATM    4  C   UNL     1     -10.628  18.758  67.001  1.00  0.00    -0.483 C  
BRANCH   4   5
HETATM    5  C   UNL     1     -10.595  17.476  67.827  1.00  0.00    -0.375 C  
BRANCH   5   6
HETATM    6  C   UNL     1      -9.836  16.381  67.091  1.00  0.00    -0.249 C  
BRANCH   6   7
HETATM    7  C   UNL     1     -10.769  15.609  66.168  1.00  0.00    -0.305 C  
BRANCH   7   8
HETATM    8  C   UNL     1      -9.981  14.599  65.348  1.00  0.00    -0.365 C  
BRANCH   8   9
HETATM    9  C   UNL     1     -10.710  13.266  65.293  1.00  0.00    -0.322 C  
BRANCH   9  10
HETATM   10  C   UNL     1     -10.783  12.656  66.686  1.00  0.00    -0.275 C  
BRANCH  10  11
HETATM   11  C   UNL     1      -9.902  11.424  66.774  1.00  0.00    -0.232 C  
BRANCH  11  12
HETATM   12  C   UNL     1     -10.725  10.198  67.147  1.00  0.00    -0.286 C  
BRANCH  12  13
HETATM   13  C   UNL     1      -9.824   9.164  67.799  1.00  0.00    -0.214 C  
BRANCH  13  14
HETATM   14  C   UNL     1     -10.597   7.913  68.204  1.00  0.00    -0.179 C  
BRANCH  14  15
HETATM   15  C   UNL     1      -9.841   7.088  69.249  1.00  0.00    -0.159 C  
BRANCH  15  16
HETATM   16  C   UNL     1     -10.644   6.935  70.544  1.00  0.00    -0.220 C  
BRANCH  16  17
HETATM   17  N   UNL     1      -9.786   6.966  71.815  1.00  0.00    -0.164 N  
HETATM   18  C   UNL     1      -8.327   6.673  71.507  1.00  0.00    -0.120 C  
HETATM   19  C   UNL     1     -10.317   5.872  72.749  1.00  0.00    -0.196 C  
HETATM   20  C   UNL     1      -9.913   8.304  72.533  1.00  0.00    -0.303 C  
ENDBRANCH  16  17
ENDBRANCH  15  16
ENDBRANCH  14  15
ENDBRANCH  13  14
ENDBRANCH  12  13
ENDBRANCH  11  12
ENDBRANCH  10  11
ENDBRANCH   9  10
ENDBRANCH   8   9
ENDBRANCH   7   8
ENDBRANCH   6   7
ENDBRANCH   5   6
ENDBRANCH   4   5
ENDBRANCH   3   4
ENDBRANCH   2   3
TORSDOF 15
ENDMDL
MODEL      279
REMARK 921   NORMALIZED FREE ENERGY PREDICTED BY IDOCK:   -2.52 KCAL/MOL
REMARK 922        TOTAL FREE ENERGY PREDICTED BY IDOCK:   -6.43 KCAL/MOL
REMARK 923 INTER-LIGAND FREE ENERGY PREDICTED BY IDOCK:   -4.86 KCAL/MOL
REMARK 924 INTRA-LIGAND FREE ENERGY PREDICTED BY IDOCK:   -1.57 KCAL/MOL
REMARK 927      BINDING AFFINITY PREDICTED BY RF-SCORE:    0.00 PKD
ROOT
HETATM    1  C   UNL     1      -6.158   7.862  64.720  1.00  0.00    -0.045 C  
HETATM    2  C   UNL     1      -6.800   9.008  63.958  1.00  0.00    -0.088 C  
ENDROOT
BRANCH   2   3
HETATM    3  C   UNL     1      -7.066  10.195  64.877  1.00  0.00    -0.131 C  
BRANCH   3   4
HETATM    4  C   UNL     1      -8.212   9.897  65.840  1.00  0.00    -0.124 C  
BRANCH   4   5
HETATM    5  C   UNL     1      -9.543   9.864  65.097  1.00  0.00    -0.367 C  
BRANCH   5   6
HETATM    6  C   UNL     1     -10.058  11.276  64.854  1.00  0.00    -0.333 C  
BRANCH   6   7
HETATM    7  C   UNL     1     -10.030  12.087  66.144  1.00  0.00    -0.254 C  
BRANCH   7   8
HETATM    8  C   UNL     1     -11.402  12.081  66.800  1.00  0.00    -0.398 C  
BRANCH   8   9
HETATM    9  C   UNL     1     -11.411  11.171  68.018  1.00  0.00    -0.380 C  
BRANCH   9  10
HETATM   10  C   UNL     1     -10.112  11.331  68.795  1.00  0.00    -0.204 C  
BRANCH  10  11
HETATM   11  C   UNL     1      -9.840  10.098  69.636  1.00  0.00    -0.254 C  
BRANCH  11  12
HETATM   12  C   UNL     1     -10.898   9.939  70.719  1.00  0.00    -0.387 C  
BRANCH  12  13
HETATM   13  C   UNL     1     -11.619   8.616  70.530  1.00  0.00    -0.158 C  
BRANCH  13  14
HETATM   14  C   UNL     1     -11.232   7.602  71.602  1.00  0.00    -0.282 C  
BRANCH  14  15
HETATM   15  C   UNL     1     -10.845   6.251  70.996  1.00  0.00    -0.326 C  
BRANCH  15  16
HETATM   16  C   UNL     1     -11.144   6.193  69.495  1.00  0.00    -0.420 C  
BRANCH  16  17
HETATM   17  N   UNL     1      -9.987   5.643  68.651  1.00  0.00    -0.151 N  
HETATM   18  C   UNL     1      -8.766   6.544  68.729  1.00  0.00    -0.123 C  
HETATM   19  C   UNL     1     -10.468   5.596  67.196  1.00  0.00    -0.270 C  
HETATM   20  C   UNL     1      -9.621   4.225  69.075  1.00  0.00    -0.170 C  
ENDBRANCH  16  17
ENDBRANCH  15  16
ENDBRANCH  14  15
ENDBRANCH  13  14
ENDBRANCH  12  13
ENDBRANCH  11  12
ENDBRANCH  10  11
ENDBRANCH   9  10
ENDBRANCH   8   9
ENDBRANCH   7   8
ENDBRANCH   6   7
ENDBRANCH   5   6
ENDBRANCH   4   5
ENDBRANCH   3   4
ENDBRANCH   2   3
TORSDOF 15
ENDMDL
MODEL      280
REMARK 921   NORMALIZED FREE ENERGY PREDICTED BY IDOCK:   -2.52 KCAL/MOL
REMARK 922        TOTAL FREE ENERGY PREDICTED BY IDOCK:   -6.42 KCAL/MOL
REMARK 923 INTER-LIGAND FREE ENERGY PREDICTED BY IDOCK:   -5.30 KCAL/MOL
REMARK 924 INTRA-LIGAND FREE ENERGY PREDICTED BY IDOCK:   -1.12 KCAL/MOL
REMARK 927      BINDING AFFINITY PREDICTED BY RF-SCORE:    0.00 PKD
ROOT
HETATM    1  C   UNL     1      -8.588   5.402  65.130  1.00  0.00    -0.149 C  
HETATM    2  C   UNL     1      -9.198   4.098  65.616  1.00  0.00    -0.149 C  
ENDROOT
BRANCH   2   3
HETATM    3  C   UNL     1      -8.391   3.513  66.770  1.00  0.00    -0.100 C  
BRANCH   3   4
HETATM    4  C   UNL     1      -9.287   3.202  67.963  1.00  0.00    -0.248 C  
BRANCH   4   5
HETATM    5  C   UNL     1      -9.540   4.459  68.788  1.00  0.00    -0.224 C  
BRANCH   5   6
HETATM    6  C   UNL     1      -9.651   4.118  70.268  1.00  0.00    -0.269 C  
BRANCH   6   7
HETATM    7  C   UNL     1     -10.428   5.198  71.011  1.00  0.00    -0.241 C  
BRANCH   7   8
HETATM    8  C   UNL     1     -11.077   6.154  70.021  1.00  0.00    -0.462 C  
BRANCH   8   9
HETATM    9  C   UNL     1     -11.180   7.550  70.612  1.00  0.00    -0.286 C  
BRANCH   9  10
HETATM   10  C   UNL     1     -10.652   8.575  69.618  1.00  0.00    -0.221 C  
BRANCH  10  11
HETATM   11  C   UNL     1     -10.524   7.959  68.237  1.00  0.00    -0.212 C  
BRANCH  11  12
HETATM   12  C   UNL     1      -9.935   8.960  67.252  1.00  0.00    -0.277 C  
BRANCH  12  13
HETATM   13  C   UNL     1     -10.653  10.291  67.396  1.00  0.00    -0.324 C  
BRANCH  13  14
HETATM   14  C   UNL     1      -9.684  11.427  67.707  1.00  0.00    -0.184 C  
BRANCH  14  15
HETATM   15  C   UNL     1      -9.768  12.549  66.668  1.00  0.00    -0.244 C  
BRANCH  15  16
HETATM   16  C   UNL     1      -9.767  13.933  67.323  1.00  0.00    -0.245 C  
BRANCH  16  17
HETATM   17  N   UNL     1     -10.906  14.846  66.852  1.00  0.00    -0.313 N  
HETATM   18  C   UNL     1     -10.421  15.848  65.816  1.00  0.00    -0.370 C  
HETATM   19  C   UNL     1     -11.410  15.615  68.078  1.00  0.00    -0.324 C  
HETATM   20  C   UNL     1     -12.068  14.033  66.291  1.00  0.00    -0.456 C  
ENDBRANCH  16  17
ENDBRANCH  15  16
ENDBRANCH  14  15
ENDBRANCH  13  14
ENDBRANCH  12  13
ENDBRANCH  11  12
ENDBRANCH  10  11
ENDBRANCH   9  10
ENDBRANCH   8   9
ENDBRANCH   7   8
ENDBRANCH   6   7
ENDBRANCH   5   6
ENDBRANCH   4   5
ENDBRANCH   3   4
ENDBRANCH   2   3
TORSDOF 15
ENDMDL
MODEL      281
REMARK 921   NORMALIZED FREE ENERGY PREDICTED BY IDOCK:   -2.51 KCAL/MOL
REMARK 922        TOTAL FREE ENERGY PREDICTED BY IDOCK:   -6.41 KCAL/MOL
REMARK 923 INTER-LIGAND FREE ENERGY PREDICTED BY IDOCK:   -5.17 KCAL/MOL
REMARK 924 INTRA-LIGAND FREE ENERGY PREDICTED BY IDOCK:   -1.24 KCAL/MOL
REMARK 927      BINDING AFFINITY PREDICTED BY RF-SCORE:    0.00 PKD
ROOT
HETATM    1  C   UNL     1     -10.377   4.100  64.653  1.00  0.00    -0.193 C  
HETATM    2  C   UNL     1      -8.890   4.102  64.964  1.00  0.00    -0.131 C  
ENDROOT
BRANCH   2   3
HETATM    3  C   UNL     1      -8.115   4.905  63.925  1.00  0.00    -0.112 C  
BRANCH   3   4
HETATM    4  C   UNL     1      -7.463   6.132  64.555  1.00  0.00    -0.083 C  
BRANCH   4   5
HETATM    5  C   UNL     1      -8.156   7.408  64.089  1.00  0.00    -0.046 C  
BRANCH   5   6
HETATM    6  C   UNL     1      -8.423   8.335  65.265  1.00  0.00    -0.179 C  
BRANCH   6   7
HETATM    7  C   UNL     1      -8.698   7.532  66.530  1.00  0.00    -0.151 C  
BRANCH   7   8
HETATM    8  C   UNL     1     -10.118   7.782  67.014  1.00  0.00    -0.343 C  
BRANCH   8   9
HETATM    9  C   UNL     1     -10.502   9.241  66.820  1.00  0.00    -0.263 C  
BRANCH   9  10
HETATM   10  C   UNL     1     -10.803   9.882  68.167  1.00  0.00    -0.282 C  
BRANCH  10  11
HETATM   11  C   UNL     1     -10.561   8.893  69.293  1.00  0.00    -0.219 C  
BRANCH  11  12
HETATM   12  C   UNL     1     -10.826   9.541  70.645  1.00  0.00    -0.371 C  
BRANCH  12  13
HETATM   13  C   UNL     1     -12.105   8.972  71.235  1.00  0.00    -0.375 C  
BRANCH  13  14
HETATM   14  C   UNL     1     -12.865  10.012  72.051  1.00  0.00    -0.484 C  
BRANCH  14  15
HETATM   15  C   UNL     1     -13.026  11.329  71.289  1.00  0.00    -0.427 C  
BRANCH  15  16
HETATM   16  C   UNL     1     -13.488  12.466  72.205  1.00  0.00    -0.378 C  
BRANCH  16  17
HETATM   17  N   UNL     1     -13.091  13.863  71.713  1.00  0.00    -0.356 N  
HETATM   18  C   UNL     1     -12.442  13.805  70.340  1.00  0.00    -0.314 C  
HETATM   19  C   UNL     1     -12.073  14.426  72.711  1.00  0.00     0.096 C  
HETATM   20  C   UNL     1     -14.294  14.800  71.684  1.00  0.00    -0.557 C  
ENDBRANCH  16  17
ENDBRANCH  15  16
ENDBRANCH  14  15
ENDBRANCH  13  14
ENDBRANCH  12  13
ENDBRANCH  11  12
ENDBRANCH  10  11
ENDBRANCH   9  10
ENDBRANCH   8   9
ENDBRANCH   7   8
ENDBRANCH   6   7
ENDBRANCH   5   6
ENDBRANCH   4   5
ENDBRANCH   3   4
ENDBRANCH   2   3
TORSDOF 15
ENDMDL
MODEL      282
REMARK 921   NORMALIZED FREE ENERGY PREDICTED BY IDOCK:   -2.51 KCAL/MOL
REMARK 922        TOTAL FREE ENERGY PREDICTED BY IDOCK:   -6.41 KCAL/MOL
REMARK 923 INTER-LIGAND FREE ENERGY PREDICTED BY IDOCK:   -6.21 KCAL/MOL
REMARK 924 INTRA-LIGAND FREE ENERGY PREDICTED BY IDOCK:   -0.20 KCAL/MOL
REMARK 927      BINDING AFFINITY PREDICTED BY RF-SCORE:    0.00 PKD
ROOT
HETATM    1  C   UNL     1      -6.114  19.127  66.587  1.00  0.00    -0.176 C  
HETATM    2  C   UNL     1      -6.776  20.493  66.531  1.00  0.00    -0.308 C  
ENDROOT
BRANCH   2   3
HETATM    3  C   UNL     1      -8.126  20.475  67.241  1.00  0.00    -0.362 C  
BRANCH   3   4
HETATM    4  C   UNL     1      -8.547  19.050  67.583  1.00  0.00    -0.317 C  
BRANCH   4   5
HETATM    5  C   UNL     1     -10.047  18.982  67.851  1.00  0.00    -0.455 C  
BRANCH   5   6
HETATM    6  C   UNL     1     -10.358  17.926  68.902  1.00  0.00    -0.272 C  
BRANCH   6   7
HETATM    7  C   UNL     1     -10.451  16.545  68.264  1.00  0.00    -0.313 C  
BRANCH   7   8
HETATM    8  C   UNL     1     -11.632  15.778  68.839  1.00  0.00    -0.400 C  
BRANCH   8   9
HETATM    9  C   UNL     1     -11.382  15.418  70.294  1.00  0.00    -0.332 C  
BRANCH   9  10
HETATM   10  C   UNL     1     -11.876  14.006  70.572  1.00  0.00    -0.339 C  
BRANCH  10  11
HETATM   11  C   UNL     1     -12.028  13.231  69.276  1.00  0.00    -0.354 C  
BRANCH  11  12
HETATM   12  C   UNL     1     -11.283  11.905  69.350  1.00  0.00    -0.278 C  
BRANCH  12  13
HETATM   13  C   UNL     1      -9.918  12.056  68.702  1.00  0.00    -0.151 C  
BRANCH  13  14
HETATM   14  C   UNL     1      -9.981  11.847  67.192  1.00  0.00    -0.209 C  
BRANCH  14  15
HETATM   15  C   UNL     1     -11.388  11.465  66.727  1.00  0.00    -0.252 C  
BRANCH  15  16
HETATM   16  C   UNL     1     -11.957  12.483  65.735  1.00  0.00    -0.420 C  
BRANCH  16  17
HETATM   17  N   UNL     1     -11.238  12.501  64.381  1.00  0.00    -0.319 N  
HETATM   18  C   UNL     1     -10.728  11.119  64.004  1.00  0.00    -0.339 C  
HETATM   19  C   UNL     1     -10.038  13.445  64.514  1.00  0.00    -0.192 C  
HETATM   20  C   UNL     1     -12.146  13.042  63.282  1.00  0.00    -0.422 C  
ENDBRANCH  16  17
ENDBRANCH  15  16
ENDBRANCH  14  15
ENDBRANCH  13  14
ENDBRANCH  12  13
ENDBRANCH  11  12
ENDBRANCH  10  11
ENDBRANCH   9  10
ENDBRANCH   8   9
ENDBRANCH   7   8
ENDBRANCH   6   7
ENDBRANCH   5   6
ENDBRANCH   4   5
ENDBRANCH   3   4
ENDBRANCH   2   3
TORSDOF 15
ENDMDL
MODEL      283
REMARK 921   NORMALIZED FREE ENERGY PREDICTED BY IDOCK:   -2.50 KCAL/MOL
REMARK 922        TOTAL FREE ENERGY PREDICTED BY IDOCK:   -6.38 KCAL/MOL
REMARK 923 INTER-LIGAND FREE ENERGY PREDICTED BY IDOCK:   -4.61 KCAL/MOL
REMARK 924 INTRA-LIGAND FREE ENERGY PREDICTED BY IDOCK:   -1.77 KCAL/MOL
REMARK 927      BINDING AFFINITY PREDICTED BY RF-SCORE:    0.00 PKD
ROOT
HETATM    1  C   UNL     1      -7.245   8.605  64.262  1.00  0.00    -0.094 C  
HETATM    2  C   UNL     1      -6.639   7.866  65.443  1.00  0.00    -0.045 C  
ENDROOT
BRANCH   2   3
HETATM    3  C   UNL     1      -7.381   6.560  65.708  1.00  0.00    -0.079 C  
BRANCH   3   4
HETATM    4  C   UNL     1      -8.381   6.719  66.848  1.00  0.00    -0.114 C  
BRANCH   4   5
HETATM    5  C   UNL     1      -9.605   5.839  66.615  1.00  0.00    -0.168 C  
BRANCH   5   6
HETATM    6  C   UNL     1     -10.852   6.485  67.202  1.00  0.00    -0.472 C  
BRANCH   6   7
HETATM    7  C   UNL     1     -10.773   6.519  68.723  1.00  0.00    -0.320 C  
BRANCH   7   8
HETATM    8  C   UNL     1     -10.656   7.955  69.212  1.00  0.00    -0.195 C  
BRANCH   8   9
HETATM    9  C   UNL     1     -10.222   7.992  70.668  1.00  0.00    -0.205 C  
BRANCH   9  10
HETATM   10  C   UNL     1      -9.080   8.984  70.844  1.00  0.00    -0.309 C  
BRANCH  10  11
HETATM   11  C   UNL     1      -8.202   9.008  69.606  1.00  0.00    -0.116 C  
BRANCH  11  12
HETATM   12  C   UNL     1      -8.201  10.393  68.973  1.00  0.00    -0.141 C  
BRANCH  12  13
HETATM   13  C   UNL     1      -8.236  10.258  67.461  1.00  0.00    -0.114 C  
BRANCH  13  14
HETATM   14  C   UNL     1      -9.638  10.477  66.903  1.00  0.00    -0.206 C  
BRANCH  14  15
HETATM   15  C   UNL     1     -10.220  11.825  67.337  1.00  0.00    -0.220 C  
BRANCH  15  16
HETATM   16  C   UNL     1     -10.220  12.841  66.191  1.00  0.00    -0.275 C  
BRANCH  16  17
HETATM   17  N   UNL     1     -11.352  13.872  66.273  1.00  0.00    -0.317 N  
HETATM   18  C   UNL     1     -10.854  15.270  65.948  1.00  0.00    -0.342 C  
HETATM   19  C   UNL     1     -11.875  13.861  67.714  1.00  0.00    -0.380 C  
HETATM   20  C   UNL     1     -12.505  13.498  65.348  1.00  0.00    -0.497 C  
ENDBRANCH  16  17
ENDBRANCH  15  16
ENDBRANCH  14  15
ENDBRANCH  13  14
ENDBRANCH  12  13
ENDBRANCH  11  12
ENDBRANCH  10  11
ENDBRANCH   9  10
ENDBRANCH   8   9
ENDBRANCH   7   8
ENDBRANCH   6   7
ENDBRANCH   5   6
ENDBRANCH   4   5
ENDBRANCH   3   4
ENDBRANCH   2   3
TORSDOF 15
ENDMDL
MODEL      284
REMARK 921   NORMALIZED FREE ENERGY PREDICTED BY IDOCK:   -2.48 KCAL/MOL
REMARK 922        TOTAL FREE ENERGY PREDICTED BY IDOCK:   -6.35 KCAL/MOL
REMARK 923 INTER-LIGAND FREE ENERGY PREDICTED BY IDOCK:   -5.21 KCAL/MOL
REMARK 924 INTRA-LIGAND FREE ENERGY PREDICTED BY IDOCK:   -1.14 KCAL/MOL
REMARK 927      BINDING AFFINITY PREDICTED BY RF-SCORE:    0.00 PKD
ROOT
HETATM    1  C   UNL     1      -6.179  20.547  65.609  1.00  0.00    -0.266 C  
HETATM    2  C   UNL     1      -7.251  20.521  66.686  1.00  0.00    -0.304 C  
ENDROOT
BRANCH   2   3
HETATM    3  C   UNL     1      -6.675  20.053  68.018  1.00  0.00    -0.314 C  
BRANCH   3   4
HETATM    4  C   UNL     1      -7.698  19.235  68.800  1.00  0.00    -0.397 C  
BRANCH   4   5
HETATM    5  C   UNL     1      -7.232  17.790  68.944  1.00  0.00    -0.256 C  
BRANCH   5   6
HETATM    6  C   UNL     1      -8.240  16.835  68.320  1.00  0.00    -0.204 C  
BRANCH   6   7
HETATM    7  C   UNL     1      -9.660  17.352  68.513  1.00  0.00    -0.298 C  
BRANCH   7   8
HETATM    8  C   UNL     1     -10.648  16.467  67.769  1.00  0.00    -0.321 C  
BRANCH   8   9
HETATM    9  C   UNL     1     -11.621  15.815  68.738  1.00  0.00    -0.401 C  
BRANCH   9  10
HETATM   10  C   UNL     1     -10.937  14.665  69.465  1.00  0.00    -0.269 C  
BRANCH  10  11
HETATM   11  C   UNL     1     -10.416  13.643  68.472  1.00  0.00    -0.249 C  
BRANCH  11  12
HETATM   12  C   UNL     1     -11.568  12.879  67.831  1.00  0.00    -0.391 C  
BRANCH  12  13
HETATM   13  C   UNL     1     -12.003  11.754  68.753  1.00  0.00    -0.317 C  
BRANCH  13  14
HETATM   14  C   UNL     1     -10.817  10.918  69.226  1.00  0.00    -0.286 C  
BRANCH  14  15
HETATM   15  C   UNL     1     -10.496   9.781  68.253  1.00  0.00    -0.255 C  
BRANCH  15  16
HETATM   16  C   UNL     1      -8.990   9.531  68.147  1.00  0.00    -0.123 C  
BRANCH  16  17
HETATM   17  N   UNL     1      -8.510   9.211  66.726  1.00  0.00    -0.122 N  
HETATM   18  C   UNL     1      -8.730  10.388  65.788  1.00  0.00    -0.168 C  
HETATM   19  C   UNL     1      -9.338   8.024  66.222  1.00  0.00    -0.184 C  
HETATM   20  C   UNL     1      -7.042   8.802  66.718  1.00  0.00    -0.081 C  
ENDBRANCH  16  17
ENDBRANCH  15  16
ENDBRANCH  14  15
ENDBRANCH  13  14
ENDBRANCH  12  13
ENDBRANCH  11  12
ENDBRANCH  10  11
ENDBRANCH   9  10
ENDBRANCH   8   9
ENDBRANCH   7   8
ENDBRANCH   6   7
ENDBRANCH   5   6
ENDBRANCH   4   5
ENDBRANCH   3   4
ENDBRANCH   2   3
TORSDOF 15
ENDMDL
MODEL      285
REMARK 921   NORMALIZED FREE ENERGY PREDICTED BY IDOCK:   -2.45 KCAL/MOL
REMARK 922        TOTAL FREE ENERGY PREDICTED BY IDOCK:   -6.28 KCAL/MOL
REMARK 923 INTER-LIGAND FREE ENERGY PREDICTED BY IDOCK:   -5.02 KCAL/MOL
REMARK 924 INTRA-LIGAND FREE ENERGY PREDICTED BY IDOCK:   -1.26 KCAL/MOL
REMARK 927      BINDING AFFINITY PREDICTED BY RF-SCORE:    0.00 PKD
ROOT
HETATM    1  C   UNL     1      -6.869  15.942  68.048  1.00  0.00    -0.137 C  
HETATM    2  C   UNL     1      -7.186  16.817  66.847  1.00  0.00    -0.258 C  
ENDROOT
BRANCH   2   3
HETATM    3  C   UNL     1      -8.688  16.864  66.587  1.00  0.00    -0.279 C  
BRANCH   3   4
HETATM    4  C   UNL     1      -9.390  17.773  67.591  1.00  0.00    -0.250 C  
BRANCH   4   5
HETATM    5  C   UNL     1     -10.647  17.103  68.135  1.00  0.00    -0.380 C  
BRANCH   5   6
HETATM    6  C   UNL     1     -10.424  15.608  68.315  1.00  0.00    -0.252 C  
BRANCH   6   7
HETATM    7  C   UNL     1     -11.754  14.864  68.319  1.00  0.00    -0.342 C  
BRANCH   7   8
HETATM    8  C   UNL     1     -12.013  14.243  66.955  1.00  0.00    -0.467 C  
BRANCH   8   9
HETATM    9  C   UNL     1     -11.369  12.869  66.858  1.00  0.00    -0.358 C  
BRANCH   9  10
HETATM   10  C   UNL     1     -10.089  12.953  66.039  1.00  0.00    -0.290 C  
BRANCH  10  11
HETATM   11  C   UNL     1      -9.113  11.873  66.468  1.00  0.00    -0.211 C  
BRANCH  11  12
HETATM   12  C   UNL     1      -8.937  11.874  67.981  1.00  0.00    -0.185 C  
BRANCH  12  13
HETATM   13  C   UNL     1      -8.797  10.445  68.474  1.00  0.00    -0.142 C  
BRANCH  13  14
HETATM   14  C   UNL     1      -9.602  10.202  69.747  1.00  0.00    -0.213 C  
BRANCH  14  15
HETATM   15  C   UNL     1      -9.443   8.768  70.258  1.00  0.00    -0.194 C  
BRANCH  15  16
HETATM   16  C   UNL     1      -9.531   8.695  71.785  1.00  0.00    -0.284 C  
BRANCH  16  17
HETATM   17  N   UNL     1     -10.035   7.347  72.315  1.00  0.00    -0.165 N  
HETATM   18  C   UNL     1      -9.263   6.912  73.550  1.00  0.00    -0.152 C  
HETATM   19  C   UNL     1      -9.812   6.310  71.209  1.00  0.00    -0.175 C  
HETATM   20  C   UNL     1     -11.528   7.399  72.622  1.00  0.00    -0.291 C  
ENDBRANCH  16  17
ENDBRANCH  15  16
ENDBRANCH  14  15
ENDBRANCH  13  14
ENDBRANCH  12  13
ENDBRANCH  11  12
ENDBRANCH  10  11
ENDBRANCH   9  10
ENDBRANCH   8   9
ENDBRANCH   7   8
ENDBRANCH   6   7
ENDBRANCH   5   6
ENDBRANCH   4   5
ENDBRANCH   3   4
ENDBRANCH   2   3
TORSDOF 15
ENDMDL
MODEL      286
REMARK 921   NORMALIZED FREE ENERGY PREDICTED BY IDOCK:   -2.44 KCAL/MOL
REMARK 922        TOTAL FREE ENERGY PREDICTED BY IDOCK:   -6.26 KCAL/MOL
REMARK 923 INTER-LIGAND FREE ENERGY PREDICTED BY IDOCK:   -5.14 KCAL/MOL
REMARK 924 INTRA-LIGAND FREE ENERGY PREDICTED BY IDOCK:   -1.12 KCAL/MOL
REMARK 927      BINDING AFFINITY PREDICTED BY RF-SCORE:    0.00 PKD
ROOT
HETATM    1  C   UNL     1      -6.463   6.180  66.983  1.00  0.00    -0.053 C  
HETATM    2  C   UNL     1      -7.585   6.128  68.005  1.00  0.00    -0.101 C  
ENDROOT
BRANCH   2   3
HETATM    3  C   UNL     1      -8.641   5.103  67.606  1.00  0.00    -0.104 C  
BRANCH   3   4
HETATM    4  C   UNL     1     -10.011   5.756  67.459  1.00  0.00    -0.171 C  
BRANCH   4   5
HETATM    5  C   UNL     1      -9.996   7.171  68.028  1.00  0.00    -0.184 C  
BRANCH   5   6
HETATM    6  C   UNL     1     -10.545   8.164  67.014  1.00  0.00    -0.346 C  
BRANCH   6   7
HETATM    7  C   UNL     1      -9.495   8.492  65.960  1.00  0.00    -0.256 C  
BRANCH   7   8
HETATM    8  C   UNL     1      -9.683   9.913  65.453  1.00  0.00    -0.375 C  
BRANCH   8   9
HETATM    9  C   UNL     1      -8.519  10.793  65.880  1.00  0.00    -0.166 C  
BRANCH   9  10
HETATM   10  C   UNL     1      -8.846  11.485  67.196  1.00  0.00    -0.168 C  
BRANCH  10  11
HETATM   11  C   UNL     1     -10.061  12.381  67.038  1.00  0.00    -0.223 C  
BRANCH  11  12
HETATM   12  C   UNL     1      -9.754  13.545  66.105  1.00  0.00    -0.264 C  
BRANCH  12  13
HETATM   13  C   UNL     1     -10.931  14.505  66.093  1.00  0.00    -0.322 C  
BRANCH  13  14
HETATM   14  C   UNL     1     -10.634  15.776  66.884  1.00  0.00    -0.317 C  
BRANCH  14  15
HETATM   15  C   UNL     1     -10.265  16.945  65.968  1.00  0.00    -0.350 C  
BRANCH  15  16
HETATM   16  C   UNL     1      -8.928  17.578  66.362  1.00  0.00    -0.238 C  
BRANCH  16  17
HETATM   17  N   UNL     1      -9.006  19.088  66.619  1.00  0.00    -0.314 N  
HETATM   18  C   UNL     1      -7.846  19.823  65.968  1.00  0.00    -0.336 C  
HETATM   19  C   UNL     1      -8.928  19.297  68.135  1.00  0.00    -0.325 C  
HETATM   20  C   UNL     1     -10.331  19.663  66.130  1.00  0.00    -0.530 C  
ENDBRANCH  16  17
ENDBRANCH  15  16
ENDBRANCH  14  15
ENDBRANCH  13  14
ENDBRANCH  12  13
ENDBRANCH  11  12
ENDBRANCH  10  11
ENDBRANCH   9  10
ENDBRANCH   8   9
ENDBRANCH   7   8
ENDBRANCH   6   7
ENDBRANCH   5   6
ENDBRANCH   4   5
ENDBRANCH   3   4
ENDBRANCH   2   3
TORSDOF 15
ENDMDL
MODEL      287
REMARK 921   NORMALIZED FREE ENERGY PREDICTED BY IDOCK:   -2.43 KCAL/MOL
REMARK 922        TOTAL FREE ENERGY PREDICTED BY IDOCK:   -6.25 KCAL/MOL
REMARK 923 INTER-LIGAND FREE ENERGY PREDICTED BY IDOCK:   -5.02 KCAL/MOL
REMARK 924 INTRA-LIGAND FREE ENERGY PREDICTED BY IDOCK:   -1.24 KCAL/MOL
REMARK 927      BINDING AFFINITY PREDICTED BY RF-SCORE:    0.00 PKD
ROOT
HETATM    1  C   UNL     1      -8.056   5.684  70.771  1.00  0.00    -0.117 C  
HETATM    2  C   UNL     1      -8.876   4.424  70.551  1.00  0.00    -0.136 C  
ENDROOT
BRANCH   2   3
HETATM    3  C   UNL     1      -9.943   4.646  69.484  1.00  0.00    -0.266 C  
BRANCH   3   4
HETATM    4  C   UNL     1      -9.310   4.995  68.141  1.00  0.00    -0.156 C  
BRANCH   4   5
HETATM    5  C   UNL     1     -10.382   5.372  67.124  1.00  0.00    -0.288 C  
BRANCH   5   6
HETATM    6  C   UNL     1     -11.034   6.696  67.495  1.00  0.00    -0.416 C  
BRANCH   6   7
HETATM    7  C   UNL     1      -9.978   7.777  67.692  1.00  0.00    -0.230 C  
BRANCH   7   8
HETATM    8  C   UNL     1     -10.226   8.522  68.995  1.00  0.00    -0.218 C  
BRANCH   8   9
HETATM    9  C   UNL     1     -10.084  10.022  68.791  1.00  0.00    -0.197 C  
BRANCH   9  10
HETATM   10  C   UNL     1     -11.395  10.602  68.279  1.00  0.00    -0.357 C  
BRANCH  10  11
HETATM   11  C   UNL     1     -11.163  11.397  67.007  1.00  0.00    -0.350 C  
BRANCH  11  12
HETATM   12  C   UNL     1      -9.757  11.983  66.986  1.00  0.00    -0.204 C  
BRANCH  12  13
HETATM   13  C   UNL     1      -9.842  13.498  66.923  1.00  0.00    -0.257 C  
BRANCH  13  14
HETATM   14  C   UNL     1      -8.518  14.156  67.299  1.00  0.00    -0.228 C  
BRANCH  14  15
HETATM   15  C   UNL     1      -8.712  15.298  68.299  1.00  0.00    -0.165 C  
BRANCH  15  16
HETATM   16  C   UNL     1      -8.533  16.669  67.640  1.00  0.00    -0.192 C  
BRANCH  16  17
HETATM   17  N   UNL     1      -9.761  17.580  67.756  1.00  0.00    -0.267 N  
HETATM   18  C   UNL     1     -10.810  16.983  68.679  1.00  0.00    -0.284 C  
HETATM   19  C   UNL     1     -10.363  17.713  66.353  1.00  0.00    -0.345 C  
HETATM   20  C   UNL     1      -9.370  18.973  68.237  1.00  0.00    -0.343 C  
ENDBRANCH  16  17
ENDBRANCH  15  16
ENDBRANCH  14  15
ENDBRANCH  13  14
ENDBRANCH  12  13
ENDBRANCH  11  12
ENDBRANCH  10  11
ENDBRANCH   9  10
ENDBRANCH   8   9
ENDBRANCH   7   8
ENDBRANCH   6   7
ENDBRANCH   5   6
ENDBRANCH   4   5
ENDBRANCH   3   4
ENDBRANCH   2   3
TORSDOF 15
ENDMDL
MODEL      288
REMARK 921   NORMALIZED FREE ENERGY PREDICTED BY IDOCK:   -2.42 KCAL/MOL
REMARK 922        TOTAL FREE ENERGY PREDICTED BY IDOCK:   -6.24 KCAL/MOL
REMARK 923 INTER-LIGAND FREE ENERGY PREDICTED BY IDOCK:   -5.31 KCAL/MOL
REMARK 924 INTRA-LIGAND FREE ENERGY PREDICTED BY IDOCK:   -0.93 KCAL/MOL
REMARK 927      BINDING AFFINITY PREDICTED BY RF-SCORE:    0.00 PKD
ROOT
HETATM    1  C   UNL     1      -6.020  19.017  66.462  1.00  0.00    -0.181 C  
HETATM    2  C   UNL     1      -6.718  20.353  66.274  1.00  0.00    -0.280 C  
ENDROOT
BRANCH   2   3
HETATM    3  C   UNL     1      -7.951  20.456  67.165  1.00  0.00    -0.379 C  
BRANCH   3   4
HETATM    4  C   UNL     1      -8.419  19.076  67.616  1.00  0.00    -0.316 C  
BRANCH   4   5
HETATM    5  C   UNL     1      -9.810  19.156  68.235  1.00  0.00    -0.462 C  
BRANCH   5   6
HETATM    6  C   UNL     1     -10.104  17.911  69.059  1.00  0.00    -0.292 C  
BRANCH   6   7
HETATM    7  C   UNL     1     -10.455  16.738  68.153  1.00  0.00    -0.332 C  
BRANCH   7   8
HETATM    8  C   UNL     1     -11.580  15.917  68.766  1.00  0.00    -0.389 C  
BRANCH   8   9
HETATM    9  C   UNL     1     -11.145  15.319  70.094  1.00  0.00    -0.312 C  
BRANCH   9  10
HETATM   10  C   UNL     1     -11.563  13.857  70.166  1.00  0.00    -0.249 C  
BRANCH  10  11
HETATM   11  C   UNL     1     -11.949  13.346  68.790  1.00  0.00    -0.359 C  
BRANCH  11  12
HETATM   12  C   UNL     1     -10.886  12.398  68.250  1.00  0.00    -0.264 C  
BRANCH  12  13
HETATM   13  C   UNL     1     -10.366  12.926  66.924  1.00  0.00    -0.247 C  
BRANCH  13  14
HETATM   14  C   UNL     1     -10.219  11.815  65.890  1.00  0.00    -0.272 C  
BRANCH  14  15
HETATM   15  C   UNL     1      -9.959  10.456  66.544  1.00  0.00    -0.271 C  
BRANCH  15  16
HETATM   16  C   UNL     1      -9.511   9.407  65.523  1.00  0.00    -0.260 C  
BRANCH  16  17
HETATM   17  N   UNL     1      -8.407   8.473  66.032  1.00  0.00    -0.123 N  
HETATM   18  C   UNL     1      -8.681   8.013  67.454  1.00  0.00    -0.124 C  
HETATM   19  C   UNL     1      -7.096   9.268  66.019  1.00  0.00    -0.090 C  
HETATM   20  C   UNL     1      -8.238   7.268  65.114  1.00  0.00    -0.110 C  
ENDBRANCH  16  17
ENDBRANCH  15  16
ENDBRANCH  14  15
ENDBRANCH  13  14
ENDBRANCH  12  13
ENDBRANCH  11  12
ENDBRANCH  10  11
ENDBRANCH   9  10
ENDBRANCH   8   9
ENDBRANCH   7   8
ENDBRANCH   6   7
ENDBRANCH   5   6
ENDBRANCH   4   5
ENDBRANCH   3   4
ENDBRANCH   2   3
TORSDOF 15
ENDMDL
MODEL      289
REMARK 921   NORMALIZED FREE ENERGY PREDICTED BY IDOCK:   -2.42 KCAL/MOL
REMARK 922        TOTAL FREE ENERGY PREDICTED BY IDOCK:   -6.23 KCAL/MOL
REMARK 923 INTER-LIGAND FREE ENERGY PREDICTED BY IDOCK:   -5.42 KCAL/MOL
REMARK 924 INTRA-LIGAND FREE ENERGY PREDICTED BY IDOCK:   -0.81 KCAL/MOL
REMARK 927      BINDING AFFINITY PREDICTED BY RF-SCORE:    0.00 PKD
ROOT
HETATM    1  C   UNL     1     -10.157  19.807  68.574  1.00  0.00    -0.555 C  
HETATM    2  C   UNL     1     -10.754  19.205  67.314  1.00  0.00    -0.585 C  
ENDROOT
BRANCH   2   3
HETATM    3  C   UNL     1     -10.425  17.720  67.209  1.00  0.00    -0.356 C  
BRANCH   3   4
HETATM    4  C   UNL     1     -10.282  17.291  65.752  1.00  0.00    -0.212 C  
BRANCH   4   5
HETATM    5  C   UNL     1     -10.660  15.823  65.585  1.00  0.00    -0.393 C  
BRANCH   5   6
HETATM    6  C   UNL     1     -10.765  15.137  66.939  1.00  0.00    -0.308 C  
BRANCH   6   7
HETATM    7  C   UNL     1     -12.031  14.293  67.017  1.00  0.00    -0.463 C  
BRANCH   7   8
HETATM    8  C   UNL     1     -11.681  12.847  67.334  1.00  0.00    -0.428 C  
BRANCH   8   9
HETATM    9  C   UNL     1     -10.934  12.209  66.173  1.00  0.00    -0.335 C  
BRANCH   9  10
HETATM   10  C   UNL     1     -10.019  11.107  66.688  1.00  0.00    -0.244 C  
BRANCH  10  11
HETATM   11  C   UNL     1      -9.984   9.946  65.712  1.00  0.00    -0.347 C  
BRANCH  11  12
HETATM   12  C   UNL     1      -8.549   9.599  65.338  1.00  0.00    -0.167 C  
BRANCH  12  13
HETATM   13  C   UNL     1      -8.308   8.119  65.579  1.00  0.00    -0.160 C  
BRANCH  13  14
HETATM   14  C   UNL     1      -8.984   7.635  66.858  1.00  0.00    -0.156 C  
BRANCH  14  15
HETATM   15  C   UNL     1      -8.643   6.176  67.166  1.00  0.00    -0.103 C  
BRANCH  15  16
HETATM   16  C   UNL     1      -7.773   5.550  66.073  1.00  0.00    -0.095 C  
BRANCH  16  17
HETATM   17  N   UNL     1      -8.299   4.209  65.549  1.00  0.00    -0.109 N  
HETATM   18  C   UNL     1      -7.165   3.227  65.300  1.00  0.00    -0.070 C  
HETATM   19  C   UNL     1      -9.007   4.485  64.218  1.00  0.00    -0.150 C  
HETATM   20  C   UNL     1      -9.316   3.602  66.509  1.00  0.00    -0.187 C  
ENDBRANCH  16  17
ENDBRANCH  15  16
ENDBRANCH  14  15
ENDBRANCH  13  14
ENDBRANCH  12  13
ENDBRANCH  11  12
ENDBRANCH  10  11
ENDBRANCH   9  10
ENDBRANCH   8   9
ENDBRANCH   7   8
ENDBRANCH   6   7
ENDBRANCH   5   6
ENDBRANCH   4   5
ENDBRANCH   3   4
ENDBRANCH   2   3
TORSDOF 15
ENDMDL
MODEL      290
REMARK 921   NORMALIZED FREE ENERGY PREDICTED BY IDOCK:   -2.41 KCAL/MOL
REMARK 922        TOTAL FREE ENERGY PREDICTED BY IDOCK:   -6.22 KCAL/MOL
REMARK 923 INTER-LIGAND FREE ENERGY PREDICTED BY IDOCK:   -5.06 KCAL/MOL
REMARK 924 INTRA-LIGAND FREE ENERGY PREDICTED BY IDOCK:   -1.15 KCAL/MOL
REMARK 927      BINDING AFFINITY PREDICTED BY RF-SCORE:    0.00 PKD
ROOT
HETATM    1  C   UNL     1     -10.471   4.221  65.047  1.00  0.00    -0.189 C  
HETATM    2  C   UNL     1      -8.960   4.323  65.168  1.00  0.00    -0.139 C  
ENDROOT
BRANCH   2   3
HETATM    3  C   UNL     1      -8.358   4.997  63.939  1.00  0.00    -0.132 C  
BRANCH   3   4
HETATM    4  C   UNL     1      -7.520   6.209  64.334  1.00  0.00    -0.080 C  
BRANCH   4   5
HETATM    5  C   UNL     1      -7.761   7.366  63.370  1.00  0.00    -0.125 C  
BRANCH   5   6
HETATM    6  C   UNL     1      -7.890   8.679  64.128  1.00  0.00    -0.141 C  
BRANCH   6   7
HETATM    7  C   UNL     1      -8.311   8.427  65.571  1.00  0.00    -0.161 C  
BRANCH   7   8
HETATM    8  C   UNL     1      -9.674   9.048  65.837  1.00  0.00    -0.306 C  
BRANCH   8   9
HETATM    9  C   UNL     1      -9.859  10.310  65.011  1.00  0.00    -0.397 C  
BRANCH   9  10
HETATM   10  C   UNL     1     -10.051  11.509  65.929  1.00  0.00    -0.271 C  
BRANCH  10  11
HETATM   11  C   UNL     1      -9.818  11.112  67.375  1.00  0.00    -0.195 C  
BRANCH  11  12
HETATM   12  C   UNL     1     -10.056  12.296  68.304  1.00  0.00    -0.218 C  
BRANCH  12  13
HETATM   13  C   UNL     1     -11.486  12.259  68.814  1.00  0.00    -0.360 C  
BRANCH  13  14
HETATM   14  C   UNL     1     -12.087  13.656  68.922  1.00  0.00    -0.335 C  
BRANCH  14  15
HETATM   15  C   UNL     1     -11.570  14.586  67.821  1.00  0.00    -0.390 C  
BRANCH  15  16
HETATM   16  C   UNL     1     -11.300  15.998  68.347  1.00  0.00    -0.355 C  
BRANCH  16  17
HETATM   17  N   UNL     1     -10.302  16.798  67.500  1.00  0.00    -0.294 N  
HETATM   18  C   UNL     1     -10.274  16.305  66.063  1.00  0.00    -0.358 C  
HETATM   19  C   UNL     1      -8.914  16.590  68.116  1.00  0.00    -0.207 C  
HETATM   20  C   UNL     1     -10.618  18.289  67.538  1.00  0.00    -0.409 C  
ENDBRANCH  16  17
ENDBRANCH  15  16
ENDBRANCH  14  15
ENDBRANCH  13  14
ENDBRANCH  12  13
ENDBRANCH  11  12
ENDBRANCH  10  11
ENDBRANCH   9  10
ENDBRANCH   8   9
ENDBRANCH   7   8
ENDBRANCH   6   7
ENDBRANCH   5   6
ENDBRANCH   4   5
ENDBRANCH   3   4
ENDBRANCH   2   3
TORSDOF 15
ENDMDL
MODEL      291
REMARK 921   NORMALIZED FREE ENERGY PREDICTED BY IDOCK:   -2.41 KCAL/MOL
REMARK 922        TOTAL FREE ENERGY PREDICTED BY IDOCK:   -6.21 KCAL/MOL
REMARK 923 INTER-LIGAND FREE ENERGY PREDICTED BY IDOCK:   -4.92 KCAL/MOL
REMARK 924 INTRA-LIGAND FREE ENERGY PREDICTED BY IDOCK:   -1.29 KCAL/MOL
REMARK 927      BINDING AFFINITY PREDICTED BY RF-SCORE:    0.00 PKD
ROOT
HETATM    1  C   UNL     1      -6.331   6.681  66.606  1.00  0.00    -0.042 C  
HETATM    2  C   UNL     1      -6.963   6.321  67.940  1.00  0.00    -0.072 C  
ENDROOT
BRANCH   2   3
HETATM    3  C   UNL     1      -7.759   5.024  67.835  1.00  0.00    -0.084 C  
BRANCH   3   4
HETATM    4  C   UNL     1      -9.178   5.207  68.361  1.00  0.00    -0.142 C  
BRANCH   4   5
HETATM    5  C   UNL     1      -9.333   6.571  69.027  1.00  0.00    -0.128 C  
BRANCH   5   6
HETATM    6  C   UNL     1     -10.569   7.287  68.503  1.00  0.00    -0.207 C  
BRANCH   6   7
HETATM    7  C   UNL     1     -10.500   7.440  66.989  1.00  0.00    -0.404 C  
BRANCH   7   8
HETATM    8  C   UNL     1     -10.521   8.912  66.607  1.00  0.00    -0.231 C  
BRANCH   8   9
HETATM    9  C   UNL     1      -9.275   9.618  67.120  1.00  0.00    -0.156 C  
BRANCH   9  10
HETATM   10  C   UNL     1      -9.668  10.739  68.071  1.00  0.00    -0.174 C  
BRANCH  10  11
HETATM   11  C   UNL     1     -10.962  11.390  67.619  1.00  0.00    -0.303 C  
BRANCH  11  12
HETATM   12  C   UNL     1     -11.012  12.849  68.053  1.00  0.00    -0.271 C  
BRANCH  12  13
HETATM   13  C   UNL     1     -11.949  13.617  67.137  1.00  0.00    -0.434 C  
BRANCH  13  14
HETATM   14  C   UNL     1     -11.266  14.832  66.517  1.00  0.00    -0.342 C  
BRANCH  14  15
HETATM   15  C   UNL     1     -10.245  15.460  67.469  1.00  0.00    -0.244 C  
BRANCH  15  16
HETATM   16  C   UNL     1     -10.720  16.815  68.001  1.00  0.00    -0.355 C  
BRANCH  16  17
HETATM   17  N   UNL     1      -9.913  18.008  67.475  1.00  0.00    -0.314 N  
HETATM   18  C   UNL     1     -10.132  19.246  68.330  1.00  0.00    -0.431 C  
HETATM   19  C   UNL     1     -10.406  18.302  66.054  1.00  0.00    -0.363 C  
HETATM   20  C   UNL     1      -8.426  17.678  67.401  1.00  0.00    -0.221 C  
ENDBRANCH  16  17
ENDBRANCH  15  16
ENDBRANCH  14  15
ENDBRANCH  13  14
ENDBRANCH  12  13
ENDBRANCH  11  12
ENDBRANCH  10  11
ENDBRANCH   9  10
ENDBRANCH   8   9
ENDBRANCH   7   8
ENDBRANCH   6   7
ENDBRANCH   5   6
ENDBRANCH   4   5
ENDBRANCH   3   4
ENDBRANCH   2   3
TORSDOF 15
ENDMDL
MODEL      292
REMARK 921   NORMALIZED FREE ENERGY PREDICTED BY IDOCK:   -2.41 KCAL/MOL
REMARK 922        TOTAL FREE ENERGY PREDICTED BY IDOCK:   -6.21 KCAL/MOL
REMARK 923 INTER-LIGAND FREE ENERGY PREDICTED BY IDOCK:   -5.33 KCAL/MOL
REMARK 924 INTRA-LIGAND FREE ENERGY PREDICTED BY IDOCK:   -0.88 KCAL/MOL
REMARK 927      BINDING AFFINITY PREDICTED BY RF-SCORE:    0.00 PKD
ROOT
HETATM    1  C   UNL     1     -11.755  15.556  69.077  1.00  0.00    -0.392 C  
HETATM    2  C   UNL     1     -10.243  15.672  68.994  1.00  0.00    -0.225 C  
ENDROOT
BRANCH   2   3
HETATM    3  C   UNL     1      -9.789  15.882  67.554  1.00  0.00    -0.230 C  
BRANCH   3   4
HETATM    4  C   UNL     1     -10.976  15.857  66.596  1.00  0.00    -0.136 C  
BRANCH   4   5
HETATM    5  C   UNL     1     -10.664  14.996  65.377  1.00  0.00    -0.389 C  
BRANCH   5   6
HETATM    6  C   UNL     1     -11.945  14.607  64.651  1.00  0.00    -0.472 C  
BRANCH   6   7
HETATM    7  C   UNL     1     -12.434  13.243  65.120  1.00  0.00    -0.525 C  
BRANCH   7   8
HETATM    8  C   UNL     1     -12.246  12.210  64.019  1.00  0.00    -0.544 C  
BRANCH   8   9
HETATM    9  C   UNL     1     -10.840  12.286  63.446  1.00  0.00    -0.457 C  
BRANCH   9  10
HETATM   10  C   UNL     1     -10.270  10.885  63.280  1.00  0.00    -0.317 C  
BRANCH  10  11
HETATM   11  C   UNL     1      -8.994  10.731  64.087  1.00  0.00    -0.167 C  
BRANCH  11  12
HETATM   12  C   UNL     1      -9.294  10.761  65.580  1.00  0.00    -0.241 C  
BRANCH  12  13
HETATM   13  C   UNL     1      -9.337   9.340  66.115  1.00  0.00    -0.270 C  
BRANCH  13  14
HETATM   14  C   UNL     1      -9.745   9.300  67.585  1.00  0.00    -0.195 C  
BRANCH  14  15
HETATM   15  C   UNL     1      -9.118   8.112  68.318  1.00  0.00    -0.135 C  
BRANCH  15  16
HETATM   16  C   UNL     1      -8.381   8.551  69.587  1.00  0.00    -0.121 C  
BRANCH  16  17
HETATM   17  N   UNL     1      -8.350   7.485  70.689  1.00  0.00    -0.125 N  
HETATM   18  C   UNL     1      -8.314   8.116  72.071  1.00  0.00    -0.152 C  
HETATM   19  C   UNL     1      -7.070   6.664  70.493  1.00  0.00    -0.068 C  
HETATM   20  C   UNL     1      -9.540   6.539  70.575  1.00  0.00    -0.169 C  
ENDBRANCH  16  17
ENDBRANCH  15  16
ENDBRANCH  14  15
ENDBRANCH  13  14
ENDBRANCH  12  13
ENDBRANCH  11  12
ENDBRANCH  10  11
ENDBRANCH   9  10
ENDBRANCH   8   9
ENDBRANCH   7   8
ENDBRANCH   6   7
ENDBRANCH   5   6
ENDBRANCH   4   5
ENDBRANCH   3   4
ENDBRANCH   2   3
TORSDOF 15
ENDMDL
MODEL      293
REMARK 921   NORMALIZED FREE ENERGY PREDICTED BY IDOCK:   -2.39 KCAL/MOL
REMARK 922        TOTAL FREE ENERGY PREDICTED BY IDOCK:   -6.18 KCAL/MOL
REMARK 923 INTER-LIGAND FREE ENERGY PREDICTED BY IDOCK:   -4.79 KCAL/MOL
REMARK 924 INTRA-LIGAND FREE ENERGY PREDICTED BY IDOCK:   -1.40 KCAL/MOL
REMARK 927      BINDING AFFINITY PREDICTED BY RF-SCORE:    0.00 PKD
ROOT
HETATM    1  C   UNL     1      -6.162   6.770  68.680  1.00  0.00    -0.027 C  
HETATM    2  C   UNL     1      -7.082   5.566  68.576  1.00  0.00    -0.066 C  
ENDROOT
BRANCH   2   3
HETATM    3  C   UNL     1      -7.145   5.048  67.143  1.00  0.00    -0.069 C  
BRANCH   3   4
HETATM    4  C   UNL     1      -8.582   4.749  66.731  1.00  0.00    -0.108 C  
BRANCH   4   5
HETATM    5  C   UNL     1      -9.531   4.945  67.908  1.00  0.00    -0.172 C  
BRANCH   5   6
HETATM    6  C   UNL     1     -10.641   5.921  67.548  1.00  0.00    -0.347 C  
BRANCH   6   7
HETATM    7  C   UNL     1     -10.095   7.069  66.707  1.00  0.00    -0.270 C  
BRANCH   7   8
HETATM    8  C   UNL     1     -10.573   8.401  67.262  1.00  0.00    -0.328 C  
BRANCH   8   9
HETATM    9  C   UNL     1      -9.448   9.112  67.998  1.00  0.00    -0.157 C  
BRANCH   9  10
HETATM   10  C   UNL     1      -9.508   8.782  69.482  1.00  0.00    -0.165 C  
BRANCH  10  11
HETATM   11  C   UNL     1     -10.592   9.597  70.164  1.00  0.00    -0.320 C  
BRANCH  11  12
HETATM   12  C   UNL     1     -10.781  10.936  69.463  1.00  0.00    -0.251 C  
BRANCH  12  13
HETATM   13  C   UNL     1     -11.976  11.655  70.064  1.00  0.00    -0.429 C  
BRANCH  13  14
HETATM   14  C   UNL     1     -12.068  13.100  69.583  1.00  0.00    -0.317 C  
BRANCH  14  15
HETATM   15  C   UNL     1     -11.991  13.199  68.057  1.00  0.00    -0.345 C  
BRANCH  15  16
HETATM   16  C   UNL     1     -11.506  14.577  67.600  1.00  0.00    -0.353 C  
BRANCH  16  17
HETATM   17  N   UNL     1     -10.197  14.543  66.801  1.00  0.00    -0.262 N  
HETATM   18  C   UNL     1      -8.995  14.360  67.714  1.00  0.00    -0.192 C  
HETATM   19  C   UNL     1     -10.065  15.891  66.084  1.00  0.00    -0.315 C  
HETATM   20  C   UNL     1     -10.224  13.445  65.744  1.00  0.00    -0.295 C  
ENDBRANCH  16  17
ENDBRANCH  15  16
ENDBRANCH  14  15
ENDBRANCH  13  14
ENDBRANCH  12  13
ENDBRANCH  11  12
ENDBRANCH  10  11
ENDBRANCH   9  10
ENDBRANCH   8   9
ENDBRANCH   7   8
ENDBRANCH   6   7
ENDBRANCH   5   6
ENDBRANCH   4   5
ENDBRANCH   3   4
ENDBRANCH   2   3
TORSDOF 15
ENDMDL
MODEL      294
REMARK 921   NORMALIZED FREE ENERGY PREDICTED BY IDOCK:   -2.39 KCAL/MOL
REMARK 922        TOTAL FREE ENERGY PREDICTED BY IDOCK:   -6.18 KCAL/MOL
REMARK 923 INTER-LIGAND FREE ENERGY PREDICTED BY IDOCK:   -5.40 KCAL/MOL
REMARK 924 INTRA-LIGAND FREE ENERGY PREDICTED BY IDOCK:   -0.77 KCAL/MOL
REMARK 927      BINDING AFFINITY PREDICTED BY RF-SCORE:    0.00 PKD
ROOT
HETATM    1  C   UNL     1     -10.064  19.241  68.831  1.00  0.00    -0.434 C  
HETATM    2  C   UNL     1     -10.639  18.784  67.502  1.00  0.00    -0.497 C  
ENDROOT
BRANCH   2   3
HETATM    3  C   UNL     1     -10.184  17.367  67.167  1.00  0.00    -0.323 C  
BRANCH   3   4
HETATM    4  C   UNL     1     -10.100  17.160  65.658  1.00  0.00    -0.101 C  
BRANCH   4   5
HETATM    5  C   UNL     1     -10.710  15.819  65.265  1.00  0.00    -0.446 C  
BRANCH   5   6
HETATM    6  C   UNL     1     -10.760  14.880  66.462  1.00  0.00    -0.309 C  
BRANCH   6   7
HETATM    7  C   UNL     1     -12.077  14.114  66.488  1.00  0.00    -0.481 C  
BRANCH   7   8
HETATM    8  C   UNL     1     -11.845  12.683  66.949  1.00  0.00    -0.425 C  
BRANCH   8   9
HETATM    9  C   UNL     1     -10.962  12.655  68.187  1.00  0.00    -0.265 C  
BRANCH   9  10
HETATM   10  C   UNL     1     -10.805  11.224  68.680  1.00  0.00    -0.246 C  
BRANCH  10  11
HETATM   11  C   UNL     1      -9.640  10.546  67.982  1.00  0.00    -0.159 C  
BRANCH  11  12
HETATM   12  C   UNL     1      -8.601  10.082  68.995  1.00  0.00    -0.153 C  
BRANCH  12  13
HETATM   13  C   UNL     1      -9.182   8.959  69.835  1.00  0.00    -0.171 C  
BRANCH  13  14
HETATM   14  C   UNL     1      -8.792   9.089  71.304  1.00  0.00    -0.259 C  
BRANCH  14  15
HETATM   15  C   UNL     1      -9.689   8.242  72.210  1.00  0.00    -0.362 C  
BRANCH  15  16
HETATM   16  C   UNL     1      -9.388   6.747  72.074  1.00  0.00    -0.141 C  
BRANCH  16  17
HETATM   17  N   UNL     1      -9.036   6.060  73.399  1.00  0.00    -0.129 N  
HETATM   18  C   UNL     1     -10.219   6.051  74.352  1.00  0.00    -0.294 C  
HETATM   19  C   UNL     1      -7.897   6.862  74.039  1.00  0.00    -0.106 C  
HETATM   20  C   UNL     1      -8.539   4.637  73.166  1.00  0.00    -0.102 C  
ENDBRANCH  16  17
ENDBRANCH  15  16
ENDBRANCH  14  15
ENDBRANCH  13  14
ENDBRANCH  12  13
ENDBRANCH  11  12
ENDBRANCH  10  11
ENDBRANCH   9  10
ENDBRANCH   8   9
ENDBRANCH   7   8
ENDBRANCH   6   7
ENDBRANCH   5   6
ENDBRANCH   4   5
ENDBRANCH   3   4
ENDBRANCH   2   3
TORSDOF 15
ENDMDL
MODEL      295
REMARK 921   NORMALIZED FREE ENERGY PREDICTED BY IDOCK:   -2.38 KCAL/MOL
REMARK 922        TOTAL FREE ENERGY PREDICTED BY IDOCK:   -6.15 KCAL/MOL
REMARK 923 INTER-LIGAND FREE ENERGY PREDICTED BY IDOCK:   -4.58 KCAL/MOL
REMARK 924 INTRA-LIGAND FREE ENERGY PREDICTED BY IDOCK:   -1.57 KCAL/MOL
REMARK 927      BINDING AFFINITY PREDICTED BY RF-SCORE:    0.00 PKD
ROOT
HETATM    1  C   UNL     1      -6.074   6.229  68.495  1.00  0.00    -0.031 C  
HETATM    2  C   UNL     1      -7.278   5.357  68.809  1.00  0.00    -0.066 C  
ENDROOT
BRANCH   2   3
HETATM    3  C   UNL     1      -7.809   4.684  67.548  1.00  0.00    -0.090 C  
BRANCH   3   4
HETATM    4  C   UNL     1      -9.323   4.510  67.616  1.00  0.00    -0.176 C  
BRANCH   4   5
HETATM    5  C   UNL     1      -9.906   5.320  68.769  1.00  0.00    -0.224 C  
BRANCH   5   6
HETATM    6  C   UNL     1     -10.907   6.344  68.255  1.00  0.00    -0.384 C  
BRANCH   6   7
HETATM    7  C   UNL     1     -10.496   6.853  66.879  1.00  0.00    -0.349 C  
BRANCH   7   8
HETATM    8  C   UNL     1     -10.292   8.360  66.914  1.00  0.00    -0.378 C  
BRANCH   8   9
HETATM    9  C   UNL     1      -8.849   8.699  67.252  1.00  0.00    -0.141 C  
BRANCH   9  10
HETATM   10  C   UNL     1      -8.705   8.921  68.750  1.00  0.00    -0.137 C  
BRANCH  10  11
HETATM   11  C   UNL     1      -8.984  10.371  69.102  1.00  0.00    -0.188 C  
BRANCH  11  12
HETATM   12  C   UNL     1      -8.518  11.296  67.986  1.00  0.00    -0.138 C  
BRANCH  12  13
HETATM   13  C   UNL     1      -8.877  12.730  68.336  1.00  0.00    -0.117 C  
BRANCH  13  14
HETATM   14  C   UNL     1      -9.083  13.583  67.088  1.00  0.00    -0.232 C  
BRANCH  14  15
HETATM   15  C   UNL     1      -9.945  12.869  66.044  1.00  0.00    -0.275 C  
BRANCH  15  16
HETATM   16  C   UNL     1     -10.398  13.819  64.932  1.00  0.00    -0.398 C  
BRANCH  16  17
HETATM   17  N   UNL     1     -11.910  13.807  64.681  1.00  0.00    -0.383 N  
HETATM   18  C   UNL     1     -12.312  12.661  63.767  1.00  0.00    -0.478 C  
HETATM   19  C   UNL     1     -12.268  15.130  63.993  1.00  0.00    -0.045 C  
HETATM   20  C   UNL     1     -12.687  13.730  65.991  1.00  0.00    -0.354 C  
ENDBRANCH  16  17
ENDBRANCH  15  16
ENDBRANCH  14  15
ENDBRANCH  13  14
ENDBRANCH  12  13
ENDBRANCH  11  12
ENDBRANCH  10  11
ENDBRANCH   9  10
ENDBRANCH   8   9
ENDBRANCH   7   8
ENDBRANCH   6   7
ENDBRANCH   5   6
ENDBRANCH   4   5
ENDBRANCH   3   4
ENDBRANCH   2   3
TORSDOF 15
ENDMDL
MODEL      296
REMARK 921   NORMALIZED FREE ENERGY PREDICTED BY IDOCK:   -2.37 KCAL/MOL
REMARK 922        TOTAL FREE ENERGY PREDICTED BY IDOCK:   -6.15 KCAL/MOL
REMARK 923 INTER-LIGAND FREE ENERGY PREDICTED BY IDOCK:   -5.38 KCAL/MOL
REMARK 924 INTRA-LIGAND FREE ENERGY PREDICTED BY IDOCK:   -0.77 KCAL/MOL
REMARK 927      BINDING AFFINITY PREDICTED BY RF-SCORE:    0.00 PKD
ROOT
HETATM    1  C   UNL     1      -8.913  19.191  66.813  1.00  0.00    -0.335 C  
HETATM    2  C   UNL     1      -9.070  17.870  67.547  1.00  0.00    -0.245 C  
ENDROOT
BRANCH   2   3
HETATM    3  C   UNL     1      -8.594  16.706  66.684  1.00  0.00    -0.293 C  
BRANCH   3   4
HETATM    4  C   UNL     1      -9.688  16.251  65.724  1.00  0.00    -0.299 C  
BRANCH   4   5
HETATM    5  C   UNL     1     -10.881  15.694  66.493  1.00  0.00    -0.260 C  
BRANCH   5   6
HETATM    6  C   UNL     1     -11.637  14.678  65.650  1.00  0.00    -0.328 C  
BRANCH   6   7
HETATM    7  C   UNL     1     -12.264  13.607  66.534  1.00  0.00    -0.454 C  
BRANCH   7   8
HETATM    8  C   UNL     1     -11.232  13.060  67.509  1.00  0.00    -0.320 C  
BRANCH   8   9
HETATM    9  C   UNL     1     -11.600  11.651  67.946  1.00  0.00    -0.369 C  
BRANCH   9  10
HETATM   10  C   UNL     1     -11.296  11.471  69.426  1.00  0.00    -0.355 C  
BRANCH  10  11
HETATM   11  C   UNL     1     -12.382  10.648  70.095  1.00  0.00    -0.370 C  
BRANCH  11  12
HETATM   12  C   UNL     1     -11.956  10.231  71.497  1.00  0.00    -0.357 C  
BRANCH  12  13
HETATM   13  C   UNL     1     -11.776   8.724  71.542  1.00  0.00    -0.377 C  
BRANCH  13  14
HETATM   14  C   UNL     1     -10.550   8.324  72.358  1.00  0.00    -0.408 C  
BRANCH  14  15
HETATM   15  C   UNL     1      -9.246   8.679  71.640  1.00  0.00    -0.326 C  
BRANCH  15  16
HETATM   16  C   UNL     1      -8.252   7.515  71.655  1.00  0.00    -0.103 C  
BRANCH  16  17
HETATM   17  N   UNL     1      -6.853   7.884  71.148  1.00  0.00    -0.044 N  
HETATM   18  C   UNL     1      -6.618   7.362  69.740  1.00  0.00    -0.039 C  
HETATM   19  C   UNL     1      -5.838   7.224  72.089  1.00  0.00    -0.037 C  
HETATM   20  C   UNL     1      -6.630   9.391  71.193  1.00  0.00    -0.057 C  
ENDBRANCH  16  17
ENDBRANCH  15  16
ENDBRANCH  14  15
ENDBRANCH  13  14
ENDBRANCH  12  13
ENDBRANCH  11  12
ENDBRANCH  10  11
ENDBRANCH   9  10
ENDBRANCH   8   9
ENDBRANCH   7   8
ENDBRANCH   6   7
ENDBRANCH   5   6
ENDBRANCH   4   5
ENDBRANCH   3   4
ENDBRANCH   2   3
TORSDOF 15
ENDMDL
MODEL      297
REMARK 921   NORMALIZED FREE ENERGY PREDICTED BY IDOCK:   -2.37 KCAL/MOL
REMARK 922        TOTAL FREE ENERGY PREDICTED BY IDOCK:   -6.14 KCAL/MOL
REMARK 923 INTER-LIGAND FREE ENERGY PREDICTED BY IDOCK:   -4.41 KCAL/MOL
REMARK 924 INTRA-LIGAND FREE ENERGY PREDICTED BY IDOCK:   -1.73 KCAL/MOL
REMARK 927      BINDING AFFINITY PREDICTED BY RF-SCORE:    0.00 PKD
ROOT
HETATM    1  C   UNL     1      -5.990   7.499  65.776  1.00  0.00    -0.038 C  
HETATM    2  C   UNL     1      -6.628   6.160  65.449  1.00  0.00    -0.043 C  
ENDROOT
BRANCH   2   3
HETATM    3  C   UNL     1      -7.353   6.213  64.108  1.00  0.00    -0.070 C  
BRANCH   3   4
HETATM    4  C   UNL     1      -8.480   5.187  64.054  1.00  0.00    -0.123 C  
BRANCH   4   5
HETATM    5  C   UNL     1      -8.152   3.980  64.926  1.00  0.00    -0.093 C  
BRANCH   5   6
HETATM    6  C   UNL     1      -9.344   3.603  65.793  1.00  0.00    -0.164 C  
BRANCH   6   7
HETATM    7  C   UNL     1     -10.348   4.748  65.854  1.00  0.00    -0.303 C  
BRANCH   7   8
HETATM    8  C   UNL     1     -10.236   5.475  67.185  1.00  0.00    -0.260 C  
BRANCH   8   9
HETATM    9  C   UNL     1     -10.699   6.917  67.050  1.00  0.00    -0.432 C  
BRANCH   9  10
HETATM   10  C   UNL     1      -9.510   7.817  66.748  1.00  0.00    -0.251 C  
BRANCH  10  11
HETATM   11  C   UNL     1      -9.226   8.735  67.922  1.00  0.00    -0.149 C  
BRANCH  11  12
HETATM   12  C   UNL     1     -10.371   8.697  68.926  1.00  0.00    -0.228 C  
BRANCH  12  13
HETATM   13  C   UNL     1     -10.020   9.560  70.125  1.00  0.00    -0.285 C  
BRANCH  13  14
HETATM   14  C   UNL     1     -11.200   9.710  71.080  1.00  0.00    -0.454 C  
BRANCH  14  15
HETATM   15  C   UNL     1     -11.059   8.806  72.307  1.00  0.00    -0.340 C  
BRANCH  15  16
HETATM   16  C   UNL     1     -11.652   7.416  72.062  1.00  0.00    -0.284 C  
BRANCH  16  17
HETATM   17  N   UNL     1     -10.675   6.265  72.335  1.00  0.00    -0.215 N  
HETATM   18  C   UNL     1     -11.352   5.129  73.084  1.00  0.00    -0.313 C  
HETATM   19  C   UNL     1      -9.547   6.824  73.210  1.00  0.00    -0.162 C  
HETATM   20  C   UNL     1     -10.059   5.747  71.041  1.00  0.00    -0.205 C  
ENDBRANCH  16  17
ENDBRANCH  15  16
ENDBRANCH  14  15
ENDBRANCH  13  14
ENDBRANCH  12  13
ENDBRANCH  11  12
ENDBRANCH  10  11
ENDBRANCH   9  10
ENDBRANCH   8   9
ENDBRANCH   7   8
ENDBRANCH   6   7
ENDBRANCH   5   6
ENDBRANCH   4   5
ENDBRANCH   3   4
ENDBRANCH   2   3
TORSDOF 15
ENDMDL
MODEL      298
REMARK 921   NORMALIZED FREE ENERGY PREDICTED BY IDOCK:   -2.36 KCAL/MOL
REMARK 922        TOTAL FREE ENERGY PREDICTED BY IDOCK:   -6.12 KCAL/MOL
REMARK 923 INTER-LIGAND FREE ENERGY PREDICTED BY IDOCK:   -5.49 KCAL/MOL
REMARK 924 INTRA-LIGAND FREE ENERGY PREDICTED BY IDOCK:   -0.63 KCAL/MOL
REMARK 927      BINDING AFFINITY PREDICTED BY RF-SCORE:    0.00 PKD
ROOT
HETATM    1  C   UNL     1      -8.375  19.921  66.191  1.00  0.00    -0.345 C  
HETATM    2  C   UNL     1      -8.794  20.443  67.555  1.00  0.00    -0.386 C  
ENDROOT
BRANCH   2   3
HETATM    3  C   UNL     1     -10.236  20.058  67.868  1.00  0.00    -0.545 C  
BRANCH   3   4
HETATM    4  C   UNL     1     -10.681  18.867  67.026  1.00  0.00    -0.477 C  
BRANCH   4   5
HETATM    5  C   UNL     1     -10.331  17.556  67.723  1.00  0.00    -0.367 C  
BRANCH   5   6
HETATM    6  C   UNL     1      -9.683  16.584  66.747  1.00  0.00    -0.268 C  
BRANCH   6   7
HETATM    7  C   UNL     1     -10.744  15.775  66.012  1.00  0.00    -0.311 C  
BRANCH   7   8
HETATM    8  C   UNL     1     -10.094  14.883  64.965  1.00  0.00    -0.300 C  
BRANCH   8   9
HETATM    9  C   UNL     1     -10.721  13.498  64.976  1.00  0.00    -0.366 C  
BRANCH   9  10
HETATM   10  C   UNL     1     -10.438  12.811  66.304  1.00  0.00    -0.273 C  
BRANCH  10  11
HETATM   11  C   UNL     1      -9.481  11.649  66.109  1.00  0.00    -0.240 C  
BRANCH  11  12
HETATM   12  C   UNL     1     -10.119  10.343  66.564  1.00  0.00    -0.285 C  
BRANCH  12  13
HETATM   13  C   UNL     1      -9.029   9.350  66.928  1.00  0.00    -0.148 C  
BRANCH  13  14
HETATM   14  C   UNL     1      -9.155   8.054  66.133  1.00  0.00    -0.224 C  
BRANCH  14  15
HETATM   15  C   UNL     1      -8.394   6.903  66.795  1.00  0.00    -0.116 C  
BRANCH  15  16
HETATM   16  C   UNL     1      -9.321   5.739  67.156  1.00  0.00    -0.115 C  
BRANCH  16  17
HETATM   17  N   UNL     1      -9.405   5.453  68.660  1.00  0.00    -0.114 N  
HETATM   18  C   UNL     1      -8.225   6.055  69.406  1.00  0.00    -0.115 C  
HETATM   19  C   UNL     1      -9.371   3.931  68.838  1.00  0.00    -0.164 C  
HETATM   20  C   UNL     1     -10.715   5.969  69.247  1.00  0.00    -0.332 C  
ENDBRANCH  16  17
ENDBRANCH  15  16
ENDBRANCH  14  15
ENDBRANCH  13  14
ENDBRANCH  12  13
ENDBRANCH  11  12
ENDBRANCH  10  11
ENDBRANCH   9  10
ENDBRANCH   8   9
ENDBRANCH   7   8
ENDBRANCH   6   7
ENDBRANCH   5   6
ENDBRANCH   4   5
ENDBRANCH   3   4
ENDBRANCH   2   3
TORSDOF 15
ENDMDL
MODEL      299
REMARK 921   NORMALIZED FREE ENERGY PREDICTED BY IDOCK:   -2.35 KCAL/MOL
REMARK 922        TOTAL FREE ENERGY PREDICTED BY IDOCK:   -6.11 KCAL/MOL
REMARK 923 INTER-LIGAND FREE ENERGY PREDICTED BY IDOCK:   -4.75 KCAL/MOL
REMARK 924 INTRA-LIGAND FREE ENERGY PREDICTED BY IDOCK:   -1.36 KCAL/MOL
REMARK 927      BINDING AFFINITY PREDICTED BY RF-SCORE:    0.00 PKD
ROOT
HETATM    1  C   UNL     1      -7.855   8.482  63.927  1.00  0.00    -0.149 C  
HETATM    2  C   UNL     1      -7.339   8.076  65.297  1.00  0.00    -0.070 C  
ENDROOT
BRANCH   2   3
HETATM    3  C   UNL     1      -7.894   6.716  65.708  1.00  0.00    -0.105 C  
BRANCH   3   4
HETATM    4  C   UNL     1      -8.826   6.844  66.908  1.00  0.00    -0.122 C  
BRANCH   4   5
HETATM    5  C   UNL     1     -10.202   6.271  66.584  1.00  0.00    -0.226 C  
BRANCH   5   6
HETATM    6  C   UNL     1     -11.120   6.358  67.795  1.00  0.00    -0.376 C  
BRANCH   6   7
HETATM    7  C   UNL     1     -10.473   5.700  69.007  1.00  0.00    -0.321 C  
BRANCH   7   8
HETATM    8  C   UNL     1     -11.141   6.182  70.286  1.00  0.00    -0.436 C  
BRANCH   8   9
HETATM    9  C   UNL     1     -10.706   5.334  71.471  1.00  0.00    -0.221 C  
BRANCH   9  10
HETATM   10  C   UNL     1     -10.527   6.213  72.700  1.00  0.00    -0.233 C  
BRANCH  10  11
HETATM   11  C   UNL     1      -9.429   7.235  72.467  1.00  0.00    -0.180 C  
BRANCH  11  12
HETATM   12  C   UNL     1      -9.976   8.651  72.590  1.00  0.00    -0.165 C  
BRANCH  12  13
HETATM   13  C   UNL     1     -10.102   9.266  71.207  1.00  0.00    -0.361 C  
BRANCH  13  14
HETATM   14  C   UNL     1     -11.512   9.785  70.944  1.00  0.00    -0.447 C  
BRANCH  14  15
HETATM   15  C   UNL     1     -11.598  10.560  69.627  1.00  0.00    -0.342 C  
BRANCH  15  16
HETATM   16  C   UNL     1     -10.586  10.048  68.598  1.00  0.00    -0.212 C  
BRANCH  16  17
HETATM   17  N   UNL     1     -10.020  11.141  67.684  1.00  0.00    -0.172 N  
HETATM   18  C   UNL     1      -8.555  11.412  67.985  1.00  0.00    -0.147 C  
HETATM   19  C   UNL     1     -10.819  12.421  67.955  1.00  0.00    -0.222 C  
HETATM   20  C   UNL     1     -10.195  10.776  66.214  1.00  0.00    -0.245 C  
ENDBRANCH  16  17
ENDBRANCH  15  16
ENDBRANCH  14  15
ENDBRANCH  13  14
ENDBRANCH  12  13
ENDBRANCH  11  12
ENDBRANCH  10  11
ENDBRANCH   9  10
ENDBRANCH   8   9
ENDBRANCH   7   8
ENDBRANCH   6   7
ENDBRANCH   5   6
ENDBRANCH   4   5
ENDBRANCH   3   4
ENDBRANCH   2   3
TORSDOF 15
ENDMDL
MODEL      300
REMARK 921   NORMALIZED FREE ENERGY PREDICTED BY IDOCK:   -2.34 KCAL/MOL
REMARK 922        TOTAL FREE ENERGY PREDICTED BY IDOCK:   -6.09 KCAL/MOL
REMARK 923 INTER-LIGAND FREE ENERGY PREDICTED BY IDOCK:   -5.51 KCAL/MOL
REMARK 924 INTRA-LIGAND FREE ENERGY PREDICTED BY IDOCK:   -0.58 KCAL/MOL
REMARK 927      BINDING AFFINITY PREDICTED BY RF-SCORE:    0.00 PKD
ROOT
HETATM    1  C   UNL     1      -7.073  19.566  65.751  1.00  0.00    -0.318 C  
HETATM    2  C   UNL     1      -7.381  18.116  66.082  1.00  0.00    -0.309 C  
ENDROOT
BRANCH   2   3
HETATM    3  C   UNL     1      -8.609  18.009  66.980  1.00  0.00    -0.254 C  
BRANCH   3   4
HETATM    4  C   UNL     1      -9.626  17.030  66.403  1.00  0.00    -0.301 C  
BRANCH   4   5
HETATM    5  C   UNL     1     -10.431  16.372  67.519  1.00  0.00    -0.304 C  
BRANCH   5   6
HETATM    6  C   UNL     1      -9.941  14.954  67.772  1.00  0.00    -0.222 C  
BRANCH   6   7
HETATM    7  C   UNL     1     -10.339  14.036  66.622  1.00  0.00    -0.278 C  
BRANCH   7   8
HETATM    8  C   UNL     1     -11.815  13.681  66.719  1.00  0.00    -0.452 C  
BRANCH   8   9
HETATM    9  C   UNL     1     -12.500  13.863  65.374  1.00  0.00    -0.528 C  
BRANCH   9  10
HETATM   10  C   UNL     1     -12.681  12.512  64.697  1.00  0.00    -0.434 C  
BRANCH  10  11
HETATM   11  C   UNL     1     -11.685  12.347  63.564  1.00  0.00    -0.592 C  
BRANCH  11  12
HETATM   12  C   UNL     1     -10.631  11.307  63.920  1.00  0.00    -0.455 C  
BRANCH  12  13
HETATM   13  C   UNL     1      -9.481  11.396  62.933  1.00  0.00    -0.372 C  
BRANCH  13  14
HETATM   14  C   UNL     1      -8.408  10.349  63.217  1.00  0.00    -0.163 C  
BRANCH  14  15
HETATM   15  C   UNL     1      -8.910   9.261  64.168  1.00  0.00    -0.178 C  
BRANCH  15  16
HETATM   16  C   UNL     1      -7.950   9.040  65.339  1.00  0.00    -0.111 C  
BRANCH  16  17
HETATM   17  N   UNL     1      -6.875   7.979  65.073  1.00  0.00    -0.054 N  
HETATM   18  C   UNL     1      -6.440   7.983  63.616  1.00  0.00    -0.071 C  
HETATM   19  C   UNL     1      -7.493   6.614  65.394  1.00  0.00    -0.080 C  
HETATM   20  C   UNL     1      -5.667   8.178  65.982  1.00  0.00    -0.037 C  
ENDBRANCH  16  17
ENDBRANCH  15  16
ENDBRANCH  14  15
ENDBRANCH  13  14
ENDBRANCH  12  13
ENDBRANCH  11  12
ENDBRANCH  10  11
ENDBRANCH   9  10
ENDBRANCH   8   9
ENDBRANCH   7   8
ENDBRANCH   6   7
ENDBRANCH   5   6
ENDBRANCH   4   5
ENDBRANCH   3   4
ENDBRANCH   2   3
TORSDOF 15
ENDMDL
MODEL      301
REMARK 921   NORMALIZED FREE ENERGY PREDICTED BY IDOCK:   -2.33 KCAL/MOL
REMARK 922        TOTAL FREE ENERGY PREDICTED BY IDOCK:   -6.07 KCAL/MOL
REMARK 923 INTER-LIGAND FREE ENERGY PREDICTED BY IDOCK:   -5.00 KCAL/MOL
REMARK 924 INTRA-LIGAND FREE ENERGY PREDICTED BY IDOCK:   -1.07 KCAL/MOL
REMARK 927      BINDING AFFINITY PREDICTED BY RF-SCORE:    0.00 PKD
ROOT
HETATM    1  C   UNL     1      -9.837  19.778  68.511  1.00  0.00    -0.506 C  
HETATM    2  C   UNL     1      -9.564  18.284  68.463  1.00  0.00    -0.358 C  
ENDROOT
BRANCH   2   3
HETATM    3  C   UNL     1     -10.780  17.523  67.943  1.00  0.00    -0.340 C  
BRANCH   3   4
HETATM    4  C   UNL     1     -10.451  16.050  67.722  1.00  0.00    -0.298 C  
BRANCH   4   5
HETATM    5  C   UNL     1     -10.396  15.729  66.233  1.00  0.00    -0.320 C  
BRANCH   5   6
HETATM    6  C   UNL     1     -11.485  14.734  65.857  1.00  0.00    -0.319 C  
BRANCH   6   7
HETATM    7  C   UNL     1     -11.003  13.805  64.749  1.00  0.00    -0.396 C  
BRANCH   7   8
HETATM    8  C   UNL     1     -11.026  12.361  65.228  1.00  0.00    -0.335 C  
BRANCH   8   9
HETATM    9  C   UNL     1     -11.255  12.296  66.729  1.00  0.00    -0.371 C  
BRANCH   9  10
HETATM   10  C   UNL     1      -9.919  12.247  67.457  1.00  0.00    -0.201 C  
BRANCH  10  11
HETATM   11  C   UNL     1      -9.818  10.988  68.299  1.00  0.00    -0.185 C  
BRANCH  11  12
HETATM   12  C   UNL     1     -10.808   9.936  67.815  1.00  0.00    -0.321 C  
BRANCH  12  13
HETATM   13  C   UNL     1     -10.051   8.800  67.149  1.00  0.00    -0.320 C  
BRANCH  13  14
HETATM   14  C   UNL     1      -9.667   9.140  65.712  1.00  0.00    -0.299 C  
BRANCH  14  15
HETATM   15  C   UNL     1      -8.220   8.752  65.401  1.00  0.00    -0.137 C  
BRANCH  15  16
HETATM   16  C   UNL     1      -7.366   8.671  66.669  1.00  0.00    -0.081 C  
BRANCH  16  17
HETATM   17  N   UNL     1      -6.613   7.345  66.830  1.00  0.00    -0.055 N  
HETATM   18  C   UNL     1      -5.913   7.263  68.177  1.00  0.00    -0.030 C  
HETATM   19  C   UNL     1      -5.553   7.286  65.724  1.00  0.00    -0.032 C  
HETATM   20  C   UNL     1      -7.549   6.154  66.653  1.00  0.00    -0.095 C  
ENDBRANCH  16  17
ENDBRANCH  15  16
ENDBRANCH  14  15
ENDBRANCH  13  14
ENDBRANCH  12  13
ENDBRANCH  11  12
ENDBRANCH  10  11
ENDBRANCH   9  10
ENDBRANCH   8   9
ENDBRANCH   7   8
ENDBRANCH   6   7
ENDBRANCH   5   6
ENDBRANCH   4   5
ENDBRANCH   3   4
ENDBRANCH   2   3
TORSDOF 15
ENDMDL
MODEL      302
REMARK 921   NORMALIZED FREE ENERGY PREDICTED BY IDOCK:   -2.33 KCAL/MOL
REMARK 922        TOTAL FREE ENERGY PREDICTED BY IDOCK:   -6.06 KCAL/MOL
REMARK 923 INTER-LIGAND FREE ENERGY PREDICTED BY IDOCK:   -4.21 KCAL/MOL
REMARK 924 INTRA-LIGAND FREE ENERGY PREDICTED BY IDOCK:   -1.85 KCAL/MOL
REMARK 927      BINDING AFFINITY PREDICTED BY RF-SCORE:    0.00 PKD
ROOT
HETATM    1  C   UNL     1      -6.092   6.823  68.195  1.00  0.00    -0.032 C  
HETATM    2  C   UNL     1      -6.636   5.846  67.166  1.00  0.00    -0.056 C  
ENDROOT
BRANCH   2   3
HETATM    3  C   UNL     1      -6.847   6.531  65.820  1.00  0.00    -0.053 C  
BRANCH   3   4
HETATM    4  C   UNL     1      -8.246   6.256  65.278  1.00  0.00    -0.138 C  
BRANCH   4   5
HETATM    5  C   UNL     1      -8.674   4.828  65.596  1.00  0.00    -0.131 C  
BRANCH   5   6
HETATM    6  C   UNL     1     -10.133   4.787  66.027  1.00  0.00    -0.282 C  
BRANCH   6   7
HETATM    7  C   UNL     1     -10.499   6.048  66.801  1.00  0.00    -0.329 C  
BRANCH   7   8
HETATM    8  C   UNL     1     -10.891   5.694  68.227  1.00  0.00    -0.159 C  
BRANCH   8   9
HETATM    9  C   UNL     1      -9.655   5.510  69.093  1.00  0.00    -0.189 C  
BRANCH   9  10
HETATM   10  C   UNL     1      -9.624   4.098  69.660  1.00  0.00    -0.277 C  
BRANCH  10  11
HETATM   11  C   UNL     1      -9.703   4.131  71.175  1.00  0.00    -0.258 C  
BRANCH  11  12
HETATM   12  C   UNL     1      -8.764   5.188  71.741  1.00  0.00    -0.136 C  
BRANCH  12  13
HETATM   13  C   UNL     1      -8.944   5.269  73.247  1.00  0.00    -0.120 C  
BRANCH  13  14
HETATM   14  C   UNL     1      -9.192   6.701  73.711  1.00  0.00    -0.176 C  
BRANCH  14  15
HETATM   15  C   UNL     1     -10.652   7.118  73.519  1.00  0.00    -0.416 C  
BRANCH  15  16
HETATM   16  C   UNL     1     -10.778   8.361  72.632  1.00  0.00    -0.242 C  
BRANCH  16  17
HETATM   17  N   UNL     1     -11.913   8.281  71.605  1.00  0.00    -0.288 N  
HETATM   18  C   UNL     1     -11.496   8.877  70.270  1.00  0.00    -0.105 C  
HETATM   19  C   UNL     1     -13.087   9.095  72.159  1.00  0.00    -0.446 C  
HETATM   20  C   UNL     1     -12.382   6.843  71.413  1.00  0.00    -0.376 C  
ENDBRANCH  16  17
ENDBRANCH  15  16
ENDBRANCH  14  15
ENDBRANCH  13  14
ENDBRANCH  12  13
ENDBRANCH  11  12
ENDBRANCH  10  11
ENDBRANCH   9  10
ENDBRANCH   8   9
ENDBRANCH   7   8
ENDBRANCH   6   7
ENDBRANCH   5   6
ENDBRANCH   4   5
ENDBRANCH   3   4
ENDBRANCH   2   3
TORSDOF 15
ENDMDL
MODEL      303
REMARK 921   NORMALIZED FREE ENERGY PREDICTED BY IDOCK:   -2.32 KCAL/MOL
REMARK 922        TOTAL FREE ENERGY PREDICTED BY IDOCK:   -6.05 KCAL/MOL
REMARK 923 INTER-LIGAND FREE ENERGY PREDICTED BY IDOCK:   -4.57 KCAL/MOL
REMARK 924 INTRA-LIGAND FREE ENERGY PREDICTED BY IDOCK:   -1.48 KCAL/MOL
REMARK 927      BINDING AFFINITY PREDICTED BY RF-SCORE:    0.00 PKD
ROOT
HETATM    1  C   UNL     1      -5.859   7.479  65.955  1.00  0.00    -0.037 C  
HETATM    2  C   UNL     1      -6.467   6.115  65.675  1.00  0.00    -0.043 C  
ENDROOT
BRANCH   2   3
HETATM    3  C   UNL     1      -7.350   6.154  64.432  1.00  0.00    -0.069 C  
BRANCH   3   4
HETATM    4  C   UNL     1      -8.601   5.303  64.621  1.00  0.00    -0.125 C  
BRANCH   4   5
HETATM    5  C   UNL     1      -8.367   4.232  65.681  1.00  0.00    -0.110 C  
BRANCH   5   6
HETATM    6  C   UNL     1      -9.555   4.144  66.628  1.00  0.00    -0.225 C  
BRANCH   6   7
HETATM    7  C   UNL     1     -10.598   5.198  66.280  1.00  0.00    -0.325 C  
BRANCH   7   8
HETATM    8  C   UNL     1     -10.799   6.147  67.452  1.00  0.00    -0.431 C  
BRANCH   8   9
HETATM    9  C   UNL     1     -11.022   7.568  66.961  1.00  0.00    -0.106 C  
BRANCH   9  10
HETATM   10  C   UNL     1      -9.683   8.254  66.731  1.00  0.00    -0.307 C  
BRANCH  10  11
HETATM   11  C   UNL     1      -9.531   9.447  67.656  1.00  0.00    -0.154 C  
BRANCH  11  12
HETATM   12  C   UNL     1      -8.861  10.608  66.934  1.00  0.00    -0.143 C  
BRANCH  12  13
HETATM   13  C   UNL     1      -8.891  11.840  67.822  1.00  0.00    -0.163 C  
BRANCH  13  14
HETATM   14  C   UNL     1      -8.552  13.108  67.044  1.00  0.00    -0.168 C  
BRANCH  14  15
HETATM   15  C   UNL     1      -9.799  13.942  66.741  1.00  0.00    -0.274 C  
BRANCH  15  16
HETATM   16  C   UNL     1     -10.072  14.032  65.237  1.00  0.00    -0.318 C  
BRANCH  16  17
HETATM   17  N   UNL     1     -11.487  13.600  64.834  1.00  0.00    -0.328 N  
HETATM   18  C   UNL     1     -12.249  13.022  66.015  1.00  0.00    -0.399 C  
HETATM   19  C   UNL     1     -11.343  12.510  63.765  1.00  0.00    -0.466 C  
HETATM   20  C   UNL     1     -12.265  14.761  64.225  1.00  0.00    -0.379 C  
ENDBRANCH  16  17
ENDBRANCH  15  16
ENDBRANCH  14  15
ENDBRANCH  13  14
ENDBRANCH  12  13
ENDBRANCH  11  12
ENDBRANCH  10  11
ENDBRANCH   9  10
ENDBRANCH   8   9
ENDBRANCH   7   8
ENDBRANCH   6   7
ENDBRANCH   5   6
ENDBRANCH   4   5
ENDBRANCH   3   4
ENDBRANCH   2   3
TORSDOF 15
ENDMDL
MODEL      304
REMARK 921   NORMALIZED FREE ENERGY PREDICTED BY IDOCK:   -2.31 KCAL/MOL
REMARK 922        TOTAL FREE ENERGY PREDICTED BY IDOCK:   -6.04 KCAL/MOL
REMARK 923 INTER-LIGAND FREE ENERGY PREDICTED BY IDOCK:   -4.59 KCAL/MOL
REMARK 924 INTRA-LIGAND FREE ENERGY PREDICTED BY IDOCK:   -1.45 KCAL/MOL
REMARK 927      BINDING AFFINITY PREDICTED BY RF-SCORE:    0.00 PKD
ROOT
HETATM    1  C   UNL     1     -12.081  11.579  70.261  1.00  0.00    -0.444 C  
HETATM    2  C   UNL     1     -13.002  11.606  71.469  1.00  0.00    -0.463 C  
ENDROOT
BRANCH   2   3
HETATM    3  C   UNL     1     -13.408  10.195  71.878  1.00  0.00    -0.505 C  
BRANCH   3   4
HETATM    4  C   UNL     1     -12.227   9.235  71.784  1.00  0.00    -0.457 C  
BRANCH   4   5
HETATM    5  C   UNL     1     -12.600   7.867  72.345  1.00  0.00    -0.160 C  
BRANCH   5   6
HETATM    6  C   UNL     1     -11.373   7.164  72.909  1.00  0.00    -0.257 C  
BRANCH   6   7
HETATM    7  C   UNL     1     -10.111   7.634  72.197  1.00  0.00    -0.246 C  
BRANCH   7   8
HETATM    8  C   UNL     1      -8.959   7.743  73.184  1.00  0.00    -0.270 C  
BRANCH   8   9
HETATM    9  C   UNL     1      -7.855   6.758  72.832  1.00  0.00    -0.098 C  
BRANCH   9  10
HETATM   10  C   UNL     1      -8.272   5.919  71.633  1.00  0.00    -0.119 C  
BRANCH  10  11
HETATM   11  C   UNL     1      -7.265   6.066  70.506  1.00  0.00    -0.083 C  
BRANCH  11  12
HETATM   12  C   UNL     1      -6.966   7.535  70.239  1.00  0.00    -0.055 C  
BRANCH  12  13
HETATM   13  C   UNL     1      -7.417   7.895  68.834  1.00  0.00    -0.094 C  
BRANCH  13  14
HETATM   14  C   UNL     1      -8.793   7.318  68.515  1.00  0.00    -0.129 C  
BRANCH  14  15
HETATM   15  C   UNL     1      -9.816   8.416  68.216  1.00  0.00    -0.189 C  
BRANCH  15  16
HETATM   16  C   UNL     1      -9.999   8.629  66.711  1.00  0.00    -0.273 C  
BRANCH  16  17
HETATM   17  N   UNL     1      -9.358   9.918  66.182  1.00  0.00    -0.170 N  
HETATM   18  C   UNL     1     -10.100  10.449  64.967  1.00  0.00    -0.309 C  
HETATM   19  C   UNL     1      -7.922   9.575  65.767  1.00  0.00    -0.111 C  
HETATM   20  C   UNL     1      -9.294  10.987  67.267  1.00  0.00    -0.156 C  
ENDBRANCH  16  17
ENDBRANCH  15  16
ENDBRANCH  14  15
ENDBRANCH  13  14
ENDBRANCH  12  13
ENDBRANCH  11  12
ENDBRANCH  10  11
ENDBRANCH   9  10
ENDBRANCH   8   9
ENDBRANCH   7   8
ENDBRANCH   6   7
ENDBRANCH   5   6
ENDBRANCH   4   5
ENDBRANCH   3   4
ENDBRANCH   2   3
TORSDOF 15
ENDMDL
MODEL      305
REMARK 921   NORMALIZED FREE ENERGY PREDICTED BY IDOCK:   -2.31 KCAL/MOL
REMARK 922        TOTAL FREE ENERGY PREDICTED BY IDOCK:   -6.03 KCAL/MOL
REMARK 923 INTER-LIGAND FREE ENERGY PREDICTED BY IDOCK:   -4.97 KCAL/MOL
REMARK 924 INTRA-LIGAND FREE ENERGY PREDICTED BY IDOCK:   -1.07 KCAL/MOL
REMARK 927      BINDING AFFINITY PREDICTED BY RF-SCORE:    0.00 PKD
ROOT
HETATM    1  C   UNL     1      -6.815   7.754  66.434  1.00  0.00    -0.062 C  
HETATM    2  C   UNL     1      -7.849   7.537  67.526  1.00  0.00    -0.116 C  
ENDROOT
BRANCH   2   3
HETATM    3  C   UNL     1      -8.999   6.670  67.024  1.00  0.00    -0.120 C  
BRANCH   3   4
HETATM    4  C   UNL     1     -10.322   7.428  67.079  1.00  0.00    -0.384 C  
BRANCH   4   5
HETATM    5  C   UNL     1     -10.199   8.658  67.973  1.00  0.00    -0.261 C  
BRANCH   5   6
HETATM    6  C   UNL     1     -10.885   9.857  67.334  1.00  0.00    -0.293 C  
BRANCH   6   7
HETATM    7  C   UNL     1     -10.063  10.386  66.165  1.00  0.00    -0.299 C  
BRANCH   7   8
HETATM    8  C   UNL     1     -10.025  11.906  66.193  1.00  0.00    -0.254 C  
BRANCH   8   9
HETATM    9  C   UNL     1      -8.964  12.399  67.164  1.00  0.00    -0.195 C  
BRANCH   9  10
HETATM   10  C   UNL     1      -9.613  13.223  68.267  1.00  0.00    -0.221 C  
BRANCH  10  11
HETATM   11  C   UNL     1     -10.186  14.509  67.702  1.00  0.00    -0.225 C  
BRANCH  11  12
HETATM   12  C   UNL     1     -10.186  15.609  68.756  1.00  0.00    -0.215 C  
BRANCH  12  13
HETATM   13  C   UNL     1     -10.767  16.879  68.160  1.00  0.00    -0.375 C  
BRANCH  13  14
HETATM   14  C   UNL     1      -9.961  18.112  68.558  1.00  0.00    -0.408 C  
BRANCH  14  15
HETATM   15  C   UNL     1      -9.059  18.596  67.420  1.00  0.00    -0.290 C  
BRANCH  15  16
HETATM   16  C   UNL     1      -7.589  18.248  67.670  1.00  0.00    -0.220 C  
BRANCH  16  17
HETATM   17  N   UNL     1      -6.654  19.463  67.675  1.00  0.00    -0.215 N  
HETATM   18  C   UNL     1      -5.373  19.181  66.908  1.00  0.00    -0.163 C  
HETATM   19  C   UNL     1      -6.295  19.755  69.137  1.00  0.00    -0.314 C  
HETATM   20  C   UNL     1      -7.347  20.695  67.104  1.00  0.00    -0.337 C  
ENDBRANCH  16  17
ENDBRANCH  15  16
ENDBRANCH  14  15
ENDBRANCH  13  14
ENDBRANCH  12  13
ENDBRANCH  11  12
ENDBRANCH  10  11
ENDBRANCH   9  10
ENDBRANCH   8   9
ENDBRANCH   7   8
ENDBRANCH   6   7
ENDBRANCH   5   6
ENDBRANCH   4   5
ENDBRANCH   3   4
ENDBRANCH   2   3
TORSDOF 15
ENDMDL
MODEL      306
REMARK 921   NORMALIZED FREE ENERGY PREDICTED BY IDOCK:   -2.28 KCAL/MOL
REMARK 922        TOTAL FREE ENERGY PREDICTED BY IDOCK:   -5.98 KCAL/MOL
REMARK 923 INTER-LIGAND FREE ENERGY PREDICTED BY IDOCK:   -4.90 KCAL/MOL
REMARK 924 INTRA-LIGAND FREE ENERGY PREDICTED BY IDOCK:   -1.08 KCAL/MOL
REMARK 927      BINDING AFFINITY PREDICTED BY RF-SCORE:    0.00 PKD
ROOT
HETATM    1  C   UNL     1      -8.793  15.270  69.109  1.00  0.00    -0.238 C  
HETATM    2  C   UNL     1      -9.083  16.741  68.863  1.00  0.00    -0.230 C  
ENDROOT
BRANCH   2   3
HETATM    3  C   UNL     1     -10.435  16.924  68.181  1.00  0.00    -0.350 C  
BRANCH   3   4
HETATM    4  C   UNL     1     -10.263  17.316  66.718  1.00  0.00    -0.318 C  
BRANCH   4   5
HETATM    5  C   UNL     1      -9.901  16.098  65.875  1.00  0.00    -0.384 C  
BRANCH   5   6
HETATM    6  C   UNL     1     -11.054  15.105  65.842  1.00  0.00    -0.319 C  
BRANCH   6   7
HETATM    7  C   UNL     1     -10.534  13.686  65.642  1.00  0.00    -0.304 C  
BRANCH   7   8
HETATM    8  C   UNL     1     -11.627  12.677  65.958  1.00  0.00    -0.443 C  
BRANCH   8   9
HETATM    9  C   UNL     1     -11.464  12.133  67.368  1.00  0.00    -0.415 C  
BRANCH   9  10
HETATM   10  C   UNL     1     -10.266  11.196  67.428  1.00  0.00    -0.221 C  
BRANCH  10  11
HETATM   11  C   UNL     1     -10.606   9.857  66.800  1.00  0.00    -0.214 C  
BRANCH  11  12
HETATM   12  C   UNL     1      -9.746   9.604  65.569  1.00  0.00    -0.372 C  
BRANCH  12  13
HETATM   13  C   UNL     1      -8.575   8.714  65.945  1.00  0.00    -0.177 C  
BRANCH  13  14
HETATM   14  C   UNL     1      -9.038   7.347  66.440  1.00  0.00    -0.196 C  
BRANCH  14  15
HETATM   15  C   UNL     1      -8.191   6.848  67.613  1.00  0.00    -0.117 C  
BRANCH  15  16
HETATM   16  C   UNL     1      -9.032   6.086  68.640  1.00  0.00    -0.118 C  
BRANCH  16  17
HETATM   17  N   UNL     1      -8.483   6.156  70.070  1.00  0.00    -0.127 N  
HETATM   18  C   UNL     1      -6.996   5.843  70.110  1.00  0.00    -0.069 C  
HETATM   19  C   UNL     1      -9.228   5.101  70.897  1.00  0.00    -0.146 C  
HETATM   20  C   UNL     1      -8.748   7.521  70.696  1.00  0.00    -0.141 C  
ENDBRANCH  16  17
ENDBRANCH  15  16
ENDBRANCH  14  15
ENDBRANCH  13  14
ENDBRANCH  12  13
ENDBRANCH  11  12
ENDBRANCH  10  11
ENDBRANCH   9  10
ENDBRANCH   8   9
ENDBRANCH   7   8
ENDBRANCH   6   7
ENDBRANCH   5   6
ENDBRANCH   4   5
ENDBRANCH   3   4
ENDBRANCH   2   3
TORSDOF 15
ENDMDL
MODEL      307
REMARK 921   NORMALIZED FREE ENERGY PREDICTED BY IDOCK:   -2.28 KCAL/MOL
REMARK 922        TOTAL FREE ENERGY PREDICTED BY IDOCK:   -5.97 KCAL/MOL
REMARK 923 INTER-LIGAND FREE ENERGY PREDICTED BY IDOCK:   -4.98 KCAL/MOL
REMARK 924 INTRA-LIGAND FREE ENERGY PREDICTED BY IDOCK:   -1.00 KCAL/MOL
REMARK 927      BINDING AFFINITY PREDICTED BY RF-SCORE:    0.00 PKD
ROOT
HETATM    1  C   UNL     1      -6.468   4.122  73.015  1.00  0.00    -0.040 C  
HETATM    2  C   UNL     1      -6.893   2.739  72.553  1.00  0.00    -0.023 C  
ENDROOT
BRANCH   2   3
HETATM    3  C   UNL     1      -8.222   2.337  73.184  1.00  0.00    -0.058 C  
BRANCH   3   4
HETATM    4  C   UNL     1      -9.345   2.349  72.152  1.00  0.00    -0.161 C  
BRANCH   4   5
HETATM    5  C   UNL     1     -10.521   3.184  72.648  1.00  0.00    -0.175 C  
BRANCH   5   6
HETATM    6  C   UNL     1     -10.241   3.734  74.039  1.00  0.00    -0.221 C  
BRANCH   6   7
HETATM    7  C   UNL     1     -10.466   5.241  74.076  1.00  0.00    -0.318 C  
BRANCH   7   8
HETATM    8  C   UNL     1     -11.041   5.719  72.752  1.00  0.00    -0.327 C  
BRANCH   8   9
HETATM    9  C   UNL     1     -11.644   7.107  72.899  1.00  0.00    -0.109 C  
BRANCH   9  10
HETATM   10  C   UNL     1     -12.328   7.516  71.602  1.00  0.00    -0.362 C  
BRANCH  10  11
HETATM   11  C   UNL     1     -11.332   8.163  70.657  1.00  0.00    -0.256 C  
BRANCH  11  12
HETATM   12  C   UNL     1     -10.939   9.548  71.154  1.00  0.00    -0.438 C  
BRANCH  12  13
HETATM   13  C   UNL     1     -10.753  10.476  69.966  1.00  0.00    -0.282 C  
BRANCH  13  14
HETATM   14  C   UNL     1     -12.016  11.278  69.668  1.00  0.00    -0.423 C  
BRANCH  14  15
HETATM   15  C   UNL     1     -11.791  12.782  69.841  1.00  0.00    -0.371 C  
BRANCH  15  16
HETATM   16  C   UNL     1     -10.824  13.337  68.792  1.00  0.00    -0.243 C  
BRANCH  16  17
HETATM   17  N   UNL     1     -10.736  14.868  68.776  1.00  0.00    -0.244 N  
HETATM   18  C   UNL     1     -11.781  15.494  69.685  1.00  0.00    -0.357 C  
HETATM   19  C   UNL     1     -11.002  15.325  67.337  1.00  0.00    -0.321 C  
HETATM   20  C   UNL     1      -9.343  15.344  69.173  1.00  0.00    -0.246 C  
ENDBRANCH  16  17
ENDBRANCH  15  16
ENDBRANCH  14  15
ENDBRANCH  13  14
ENDBRANCH  12  13
ENDBRANCH  11  12
ENDBRANCH  10  11
ENDBRANCH   9  10
ENDBRANCH   8   9
ENDBRANCH   7   8
ENDBRANCH   6   7
ENDBRANCH   5   6
ENDBRANCH   4   5
ENDBRANCH   3   4
ENDBRANCH   2   3
TORSDOF 15
ENDMDL
MODEL      308
REMARK 921   NORMALIZED FREE ENERGY PREDICTED BY IDOCK:   -2.27 KCAL/MOL
REMARK 922        TOTAL FREE ENERGY PREDICTED BY IDOCK:   -5.95 KCAL/MOL
REMARK 923 INTER-LIGAND FREE ENERGY PREDICTED BY IDOCK:   -3.86 KCAL/MOL
REMARK 924 INTRA-LIGAND FREE ENERGY PREDICTED BY IDOCK:   -2.09 KCAL/MOL
REMARK 927      BINDING AFFINITY PREDICTED BY RF-SCORE:    0.00 PKD
ROOT
HETATM    1  C   UNL     1      -7.156   6.428  71.579  1.00  0.00    -0.078 C  
HETATM    2  C   UNL     1      -6.973   5.151  70.776  1.00  0.00    -0.055 C  
ENDROOT
BRANCH   2   3
HETATM    3  C   UNL     1      -7.577   5.290  69.383  1.00  0.00    -0.069 C  
BRANCH   3   4
HETATM    4  C   UNL     1      -7.118   6.582  68.713  1.00  0.00    -0.082 C  
BRANCH   4   5
HETATM    5  C   UNL     1      -6.791   6.339  67.244  1.00  0.00    -0.066 C  
BRANCH   5   6
HETATM    6  C   UNL     1      -7.918   6.841  66.352  1.00  0.00    -0.106 C  
BRANCH   6   7
HETATM    7  C   UNL     1      -8.183   8.320  66.604  1.00  0.00    -0.106 C  
BRANCH   7   8
HETATM    8  C   UNL     1      -9.637   8.652  66.306  1.00  0.00    -0.322 C  
BRANCH   8   9
HETATM    9  C   UNL     1     -10.531   8.234  67.462  1.00  0.00    -0.325 C  
BRANCH   9  10
HETATM   10  C   UNL     1     -10.321   9.170  68.644  1.00  0.00    -0.233 C  
BRANCH  10  11
HETATM   11  C   UNL     1     -10.240   8.381  69.938  1.00  0.00    -0.201 C  
BRANCH  11  12
HETATM   12  C   UNL     1     -10.772   6.968  69.743  1.00  0.00    -0.265 C  
BRANCH  12  13
HETATM   13  C   UNL     1     -12.024   6.779  70.581  1.00  0.00    -0.418 C  
BRANCH  13  14
HETATM   14  C   UNL     1     -11.725   6.865  72.075  1.00  0.00    -0.336 C  
BRANCH  14  15
HETATM   15  C   UNL     1     -10.676   5.837  72.507  1.00  0.00    -0.279 C  
BRANCH  15  16
HETATM   16  C   UNL     1     -11.311   4.647  73.231  1.00  0.00    -0.304 C  
BRANCH  16  17
HETATM   17  N   UNL     1     -10.417   3.402  73.284  1.00  0.00    -0.162 N  
HETATM   18  C   UNL     1      -9.907   3.025  71.902  1.00  0.00    -0.166 C  
HETATM   19  C   UNL     1     -11.272   2.249  73.820  1.00  0.00    -0.197 C  
HETATM   20  C   UNL     1      -9.244   3.605  74.237  1.00  0.00    -0.088 C  
ENDBRANCH  16  17
ENDBRANCH  15  16
ENDBRANCH  14  15
ENDBRANCH  13  14
ENDBRANCH  12  13
ENDBRANCH  11  12
ENDBRANCH  10  11
ENDBRANCH   9  10
ENDBRANCH   8   9
ENDBRANCH   7   8
ENDBRANCH   6   7
ENDBRANCH   5   6
ENDBRANCH   4   5
ENDBRANCH   3   4
ENDBRANCH   2   3
TORSDOF 15
ENDMDL
MODEL      309
REMARK 921   NORMALIZED FREE ENERGY PREDICTED BY IDOCK:   -2.25 KCAL/MOL
REMARK 922        TOTAL FREE ENERGY PREDICTED BY IDOCK:   -5.92 KCAL/MOL
REMARK 923 INTER-LIGAND FREE ENERGY PREDICTED BY IDOCK:   -4.75 KCAL/MOL
REMARK 924 INTRA-LIGAND FREE ENERGY PREDICTED BY IDOCK:   -1.17 KCAL/MOL
REMARK 927      BINDING AFFINITY PREDICTED BY RF-SCORE:    0.00 PKD
ROOT
HETATM    1  C   UNL     1      -9.132   9.441  65.052  1.00  0.00    -0.271 C  
HETATM    2  C   UNL     1      -8.146   8.342  65.409  1.00  0.00    -0.135 C  
ENDROOT
BRANCH   2   3
HETATM    3  C   UNL     1      -6.827   8.929  65.898  1.00  0.00    -0.072 C  
BRANCH   3   4
HETATM    4  C   UNL     1      -6.529   8.492  67.329  1.00  0.00    -0.058 C  
BRANCH   4   5
HETATM    5  C   UNL     1      -6.532   6.970  67.437  1.00  0.00    -0.054 C  
BRANCH   5   6
HETATM    6  C   UNL     1      -7.220   6.524  68.720  1.00  0.00    -0.085 C  
BRANCH   6   7
HETATM    7  C   UNL     1      -8.657   7.029  68.761  1.00  0.00    -0.125 C  
BRANCH   7   8
HETATM    8  C   UNL     1      -9.011   7.493  70.166  1.00  0.00    -0.147 C  
BRANCH   8   9
HETATM    9  C   UNL     1      -9.152   9.006  70.213  1.00  0.00    -0.227 C  
BRANCH   9  10
HETATM   10  C   UNL     1     -10.485   9.422  69.607  1.00  0.00    -0.236 C  
BRANCH  10  11
HETATM   11  C   UNL     1     -11.343  10.126  70.642  1.00  0.00    -0.433 C  
BRANCH  11  12
HETATM   12  C   UNL     1     -12.147  11.250  70.001  1.00  0.00    -0.425 C  
BRANCH  12  13
HETATM   13  C   UNL     1     -11.264  12.012  69.028  1.00  0.00    -0.313 C  
BRANCH  13  14
HETATM   14  C   UNL     1     -11.873  13.356  68.643  1.00  0.00    -0.397 C  
BRANCH  14  15
HETATM   15  C   UNL     1     -11.045  14.530  69.171  1.00  0.00    -0.284 C  
BRANCH  15  16
HETATM   16  C   UNL     1     -11.217  15.783  68.307  1.00  0.00    -0.356 C  
BRANCH  16  17
HETATM   17  N   UNL     1      -9.939  16.618  68.160  1.00  0.00    -0.251 N  
HETATM   18  C   UNL     1      -9.444  16.627  66.723  1.00  0.00    -0.244 C  
HETATM   19  C   UNL     1      -8.867  15.969  69.043  1.00  0.00    -0.244 C  
HETATM   20  C   UNL     1     -10.155  18.046  68.650  1.00  0.00    -0.394 C  
ENDBRANCH  16  17
ENDBRANCH  15  16
ENDBRANCH  14  15
ENDBRANCH  13  14
ENDBRANCH  12  13
ENDBRANCH  11  12
ENDBRANCH  10  11
ENDBRANCH   9  10
ENDBRANCH   8   9
ENDBRANCH   7   8
ENDBRANCH   6   7
ENDBRANCH   5   6
ENDBRANCH   4   5
ENDBRANCH   3   4
ENDBRANCH   2   3
TORSDOF 15
ENDMDL
MODEL      310
REMARK 921   NORMALIZED FREE ENERGY PREDICTED BY IDOCK:   -2.25 KCAL/MOL
REMARK 922        TOTAL FREE ENERGY PREDICTED BY IDOCK:   -5.91 KCAL/MOL
REMARK 923 INTER-LIGAND FREE ENERGY PREDICTED BY IDOCK:   -4.46 KCAL/MOL
REMARK 924 INTRA-LIGAND FREE ENERGY PREDICTED BY IDOCK:   -1.45 KCAL/MOL
REMARK 927      BINDING AFFINITY PREDICTED BY RF-SCORE:    0.00 PKD
ROOT
HETATM    1  C   UNL     1     -10.667  10.239  66.730  1.00  0.00    -0.216 C  
HETATM    2  C   UNL     1      -9.907   9.003  66.281  1.00  0.00    -0.361 C  
ENDROOT
BRANCH   2   3
HETATM    3  C   UNL     1      -8.699   8.748  67.177  1.00  0.00    -0.127 C  
BRANCH   3   4
HETATM    4  C   UNL     1      -8.492   7.255  67.405  1.00  0.00    -0.119 C  
BRANCH   4   5
HETATM    5  C   UNL     1      -8.335   6.524  66.076  1.00  0.00    -0.133 C  
BRANCH   5   6
HETATM    6  C   UNL     1      -9.021   5.166  66.125  1.00  0.00    -0.135 C  
BRANCH   6   7
HETATM    7  C   UNL     1     -10.008   5.105  67.283  1.00  0.00    -0.218 C  
BRANCH   7   8
HETATM    8  C   UNL     1      -9.691   3.920  68.182  1.00  0.00    -0.124 C  
BRANCH   8   9
HETATM    9  C   UNL     1      -9.356   4.389  69.589  1.00  0.00    -0.228 C  
BRANCH   9  10
HETATM   10  C   UNL     1      -9.515   3.237  70.572  1.00  0.00    -0.242 C  
BRANCH  10  11
HETATM   11  C   UNL     1      -8.422   3.281  71.624  1.00  0.00    -0.087 C  
BRANCH  11  12
HETATM   12  C   UNL     1      -8.954   3.857  72.930  1.00  0.00    -0.112 C  
BRANCH  12  13
HETATM   13  C   UNL     1     -10.419   3.490  73.083  1.00  0.00    -0.258 C  
BRANCH  13  14
HETATM   14  C   UNL     1     -11.273   4.703  73.442  1.00  0.00    -0.423 C  
BRANCH  14  15
HETATM   15  C   UNL     1     -10.699   5.997  72.859  1.00  0.00    -0.277 C  
BRANCH  15  16
HETATM   16  C   UNL     1     -11.765   6.810  72.120  1.00  0.00    -0.297 C  
BRANCH  16  17
HETATM   17  N   UNL     1     -11.216   8.050  71.403  1.00  0.00    -0.246 N  
HETATM   18  C   UNL     1     -10.939   7.766  69.936  1.00  0.00    -0.190 C  
HETATM   19  C   UNL     1      -9.896   8.424  72.087  1.00  0.00    -0.302 C  
HETATM   20  C   UNL     1     -12.170   9.232  71.538  1.00  0.00    -0.362 C  
ENDBRANCH  16  17
ENDBRANCH  15  16
ENDBRANCH  14  15
ENDBRANCH  13  14
ENDBRANCH  12  13
ENDBRANCH  11  12
ENDBRANCH  10  11
ENDBRANCH   9  10
ENDBRANCH   8   9
ENDBRANCH   7   8
ENDBRANCH   6   7
ENDBRANCH   5   6
ENDBRANCH   4   5
ENDBRANCH   3   4
ENDBRANCH   2   3
TORSDOF 15
ENDMDL
MODEL      311
REMARK 921   NORMALIZED FREE ENERGY PREDICTED BY IDOCK:   -2.25 KCAL/MOL
REMARK 922        TOTAL FREE ENERGY PREDICTED BY IDOCK:   -5.91 KCAL/MOL
REMARK 923 INTER-LIGAND FREE ENERGY PREDICTED BY IDOCK:   -4.31 KCAL/MOL
REMARK 924 INTRA-LIGAND FREE ENERGY PREDICTED BY IDOCK:   -1.60 KCAL/MOL
REMARK 927      BINDING AFFINITY PREDICTED BY RF-SCORE:    0.00 PKD
ROOT
HETATM    1  C   UNL     1     -12.118  11.450  70.129  1.00  0.00    -0.439 C  
HETATM    2  C   UNL     1     -13.010  11.377  71.356  1.00  0.00    -0.468 C  
ENDROOT
BRANCH   2   3
HETATM    3  C   UNL     1     -13.313   9.929  71.726  1.00  0.00    -0.501 C  
BRANCH   3   4
HETATM    4  C   UNL     1     -12.100   9.036  71.486  1.00  0.00    -0.410 C  
BRANCH   4   5
HETATM    5  C   UNL     1     -11.970   7.997  72.595  1.00  0.00    -0.334 C  
BRANCH   5   6
HETATM    6  C   UNL     1     -10.507   7.765  72.946  1.00  0.00    -0.412 C  
BRANCH   6   7
HETATM    7  C   UNL     1      -9.626   7.937  71.715  1.00  0.00    -0.214 C  
BRANCH   7   8
HETATM    8  C   UNL     1      -8.361   8.701  72.076  1.00  0.00    -0.169 C  
BRANCH   8   9
HETATM    9  C   UNL     1      -7.150   8.088  71.392  1.00  0.00    -0.063 C  
BRANCH   9  10
HETATM   10  C   UNL     1      -7.538   6.774  70.729  1.00  0.00    -0.092 C  
BRANCH  10  11
HETATM   11  C   UNL     1      -6.995   6.711  69.314  1.00  0.00    -0.074 C  
BRANCH  11  12
HETATM   12  C   UNL     1      -7.415   7.941  68.520  1.00  0.00    -0.096 C  
BRANCH  12  13
HETATM   13  C   UNL     1      -8.415   7.535  67.452  1.00  0.00    -0.115 C  
BRANCH  13  14
HETATM   14  C   UNL     1      -9.756   7.129  68.056  1.00  0.00    -0.152 C  
BRANCH  14  15
HETATM   15  C   UNL     1     -10.326   5.875  67.389  1.00  0.00    -0.274 C  
BRANCH  15  16
HETATM   16  C   UNL     1      -9.793   4.593  68.035  1.00  0.00    -0.113 C  
BRANCH  16  17
HETATM   17  N   UNL     1      -9.139   3.622  67.045  1.00  0.00    -0.153 N  
HETATM   18  C   UNL     1      -9.531   2.183  67.337  1.00  0.00     0.020 C  
HETATM   19  C   UNL     1      -7.621   3.758  67.209  1.00  0.00    -0.075 C  
HETATM   20  C   UNL     1      -9.493   3.980  65.606  1.00  0.00    -0.176 C  
ENDBRANCH  16  17
ENDBRANCH  15  16
ENDBRANCH  14  15
ENDBRANCH  13  14
ENDBRANCH  12  13
ENDBRANCH  11  12
ENDBRANCH  10  11
ENDBRANCH   9  10
ENDBRANCH   8   9
ENDBRANCH   7   8
ENDBRANCH   6   7
ENDBRANCH   5   6
ENDBRANCH   4   5
ENDBRANCH   3   4
ENDBRANCH   2   3
TORSDOF 15
ENDMDL
MODEL      312
REMARK 921   NORMALIZED FREE ENERGY PREDICTED BY IDOCK:   -2.24 KCAL/MOL
REMARK 922        TOTAL FREE ENERGY PREDICTED BY IDOCK:   -5.90 KCAL/MOL
REMARK 923 INTER-LIGAND FREE ENERGY PREDICTED BY IDOCK:   -4.73 KCAL/MOL
REMARK 924 INTRA-LIGAND FREE ENERGY PREDICTED BY IDOCK:   -1.17 KCAL/MOL
REMARK 927      BINDING AFFINITY PREDICTED BY RF-SCORE:    0.00 PKD
ROOT
HETATM    1  C   UNL     1     -11.449  16.169  69.338  1.00  0.00    -0.296 C  
HETATM    2  C   UNL     1     -10.069  15.546  69.216  1.00  0.00    -0.256 C  
ENDROOT
BRANCH   2   3
HETATM    3  C   UNL     1      -9.435  15.882  67.870  1.00  0.00    -0.213 C  
BRANCH   3   4
HETATM    4  C   UNL     1     -10.483  16.373  66.878  1.00  0.00    -0.289 C  
BRANCH   4   5
HETATM    5  C   UNL     1     -10.677  15.359  65.756  1.00  0.00    -0.360 C  
BRANCH   5   6
HETATM    6  C   UNL     1     -12.023  14.660  65.889  1.00  0.00    -0.242 C  
BRANCH   6   7
HETATM    7  C   UNL     1     -11.990  13.644  67.023  1.00  0.00    -0.448 C  
BRANCH   7   8
HETATM    8  C   UNL     1     -11.748  12.247  66.471  1.00  0.00    -0.420 C  
BRANCH   8   9
HETATM    9  C   UNL     1     -10.265  12.016  66.227  1.00  0.00    -0.251 C  
BRANCH   9  10
HETATM   10  C   UNL     1     -10.037  10.596  65.728  1.00  0.00    -0.327 C  
BRANCH  10  11
HETATM   11  C   UNL     1      -8.767  10.020  66.329  1.00  0.00    -0.148 C  
BRANCH  11  12
HETATM   12  C   UNL     1      -8.863   9.973  67.848  1.00  0.00    -0.125 C  
BRANCH  12  13
HETATM   13  C   UNL     1     -10.053   9.120  68.253  1.00  0.00    -0.221 C  
BRANCH  13  14
HETATM   14  C   UNL     1     -10.673   9.597  69.562  1.00  0.00    -0.252 C  
BRANCH  14  15
HETATM   15  C   UNL     1     -10.588   8.529  70.655  1.00  0.00    -0.241 C  
BRANCH  15  16
HETATM   16  C   UNL     1      -9.926   7.245  70.148  1.00  0.00    -0.184 C  
BRANCH  16  17
HETATM   17  N   UNL     1      -8.764   6.756  71.021  1.00  0.00    -0.137 N  
HETATM   18  C   UNL     1      -8.207   5.436  70.515  1.00  0.00    -0.110 C  
HETATM   19  C   UNL     1      -9.316   6.544  72.436  1.00  0.00    -0.136 C  
HETATM   20  C   UNL     1      -7.655   7.799  71.097  1.00  0.00    -0.079 C  
ENDBRANCH  16  17
ENDBRANCH  15  16
ENDBRANCH  14  15
ENDBRANCH  13  14
ENDBRANCH  12  13
ENDBRANCH  11  12
ENDBRANCH  10  11
ENDBRANCH   9  10
ENDBRANCH   8   9
ENDBRANCH   7   8
ENDBRANCH   6   7
ENDBRANCH   5   6
ENDBRANCH   4   5
ENDBRANCH   3   4
ENDBRANCH   2   3
TORSDOF 15
ENDMDL
MODEL      313
REMARK 921   NORMALIZED FREE ENERGY PREDICTED BY IDOCK:   -2.24 KCAL/MOL
REMARK 922        TOTAL FREE ENERGY PREDICTED BY IDOCK:   -5.90 KCAL/MOL
REMARK 923 INTER-LIGAND FREE ENERGY PREDICTED BY IDOCK:   -5.07 KCAL/MOL
REMARK 924 INTRA-LIGAND FREE ENERGY PREDICTED BY IDOCK:   -0.83 KCAL/MOL
REMARK 927      BINDING AFFINITY PREDICTED BY RF-SCORE:    0.00 PKD
ROOT
HETATM    1  C   UNL     1      -7.684  19.511  66.230  1.00  0.00    -0.320 C  
HETATM    2  C   UNL     1      -7.361  18.325  67.123  1.00  0.00    -0.215 C  
ENDROOT
BRANCH   2   3
HETATM    3  C   UNL     1      -7.596  17.009  66.390  1.00  0.00    -0.350 C  
BRANCH   3   4
HETATM    4  C   UNL     1      -9.084  16.681  66.315  1.00  0.00    -0.333 C  
BRANCH   4   5
HETATM    5  C   UNL     1      -9.628  16.328  67.695  1.00  0.00    -0.227 C  
BRANCH   5   6
HETATM    6  C   UNL     1     -11.063  15.833  67.597  1.00  0.00    -0.283 C  
BRANCH   6   7
HETATM    7  C   UNL     1     -11.301  14.681  68.566  1.00  0.00    -0.305 C  
BRANCH   7   8
HETATM    8  C   UNL     1     -10.226  13.619  68.394  1.00  0.00    -0.245 C  
BRANCH   8   9
HETATM    9  C   UNL     1     -10.740  12.467  67.545  1.00  0.00    -0.250 C  
BRANCH   9  10
HETATM   10  C   UNL     1     -10.416  11.141  68.218  1.00  0.00    -0.215 C  
BRANCH  10  11
HETATM   11  C   UNL     1     -11.550  10.718  69.134  1.00  0.00    -0.376 C  
BRANCH  11  12
HETATM   12  C   UNL     1     -11.014  10.295  70.495  1.00  0.00    -0.343 C  
BRANCH  12  13
HETATM   13  C   UNL     1     -12.042   9.421  71.192  1.00  0.00    -0.406 C  
BRANCH  13  14
HETATM   14  C   UNL     1     -11.692   7.940  71.088  1.00  0.00    -0.306 C  
BRANCH  14  15
HETATM   15  C   UNL     1     -10.352   7.719  70.383  1.00  0.00    -0.212 C  
BRANCH  15  16
HETATM   16  C   UNL     1      -9.884   6.265  70.490  1.00  0.00    -0.177 C  
BRANCH  16  17
HETATM   17  N   UNL     1      -9.423   5.659  69.158  1.00  0.00    -0.123 N  
HETATM   18  C   UNL     1      -7.929   5.847  68.951  1.00  0.00    -0.102 C  
HETATM   19  C   UNL     1     -10.168   6.397  68.040  1.00  0.00    -0.164 C  
HETATM   20  C   UNL     1      -9.783   4.180  69.072  1.00  0.00    -0.118 C  
ENDBRANCH  16  17
ENDBRANCH  15  16
ENDBRANCH  14  15
ENDBRANCH  13  14
ENDBRANCH  12  13
ENDBRANCH  11  12
ENDBRANCH  10  11
ENDBRANCH   9  10
ENDBRANCH   8   9
ENDBRANCH   7   8
ENDBRANCH   6   7
ENDBRANCH   5   6
ENDBRANCH   4   5
ENDBRANCH   3   4
ENDBRANCH   2   3
TORSDOF 15
ENDMDL
MODEL      314
REMARK 921   NORMALIZED FREE ENERGY PREDICTED BY IDOCK:   -2.24 KCAL/MOL
REMARK 922        TOTAL FREE ENERGY PREDICTED BY IDOCK:   -5.89 KCAL/MOL
REMARK 923 INTER-LIGAND FREE ENERGY PREDICTED BY IDOCK:   -4.79 KCAL/MOL
REMARK 924 INTRA-LIGAND FREE ENERGY PREDICTED BY IDOCK:   -1.09 KCAL/MOL
REMARK 927      BINDING AFFINITY PREDICTED BY RF-SCORE:    0.00 PKD
ROOT
HETATM    1  C   UNL     1      -6.248   7.827  64.758  1.00  0.00    -0.041 C  
HETATM    2  C   UNL     1      -6.869   8.998  64.016  1.00  0.00    -0.088 C  
ENDROOT
BRANCH   2   3
HETATM    3  C   UNL     1      -7.145  10.161  64.964  1.00  0.00    -0.135 C  
BRANCH   3   4
HETATM    4  C   UNL     1      -8.336   9.861  65.868  1.00  0.00    -0.126 C  
BRANCH   4   5
HETATM    5  C   UNL     1      -9.631   9.850  65.064  1.00  0.00    -0.364 C  
BRANCH   5   6
HETATM    6  C   UNL     1     -10.106  11.270  64.789  1.00  0.00    -0.338 C  
BRANCH   6   7
HETATM    7  C   UNL     1     -10.120  12.089  66.074  1.00  0.00    -0.257 C  
BRANCH   7   8
HETATM    8  C   UNL     1     -11.530  12.158  66.639  1.00  0.00    -0.426 C  
BRANCH   8   9
HETATM    9  C   UNL     1     -11.720  11.125  67.738  1.00  0.00    -0.220 C  
BRANCH   9  10
HETATM   10  C   UNL     1     -11.146  11.648  69.047  1.00  0.00    -0.297 C  
BRANCH  10  11
HETATM   11  C   UNL     1     -10.880  10.503  70.007  1.00  0.00    -0.320 C  
BRANCH  11  12
HETATM   12  C   UNL     1     -12.129  10.179  70.817  1.00  0.00    -0.438 C  
BRANCH  12  13
HETATM   13  C   UNL     1     -12.163   8.690  71.116  1.00  0.00    -0.272 C  
BRANCH  13  14
HETATM   14  C   UNL     1     -11.847   8.398  72.580  1.00  0.00    -0.427 C  
BRANCH  14  15
HETATM   15  C   UNL     1     -10.858   7.240  72.730  1.00  0.00    -0.356 C  
BRANCH  15  16
HETATM   16  C   UNL     1      -9.504   7.561  72.090  1.00  0.00    -0.147 C  
BRANCH  16  17
HETATM   17  N   UNL     1      -8.298   7.126  72.932  1.00  0.00    -0.105 N  
HETATM   18  C   UNL     1      -8.258   7.857  74.264  1.00  0.00    -0.251 C  
HETATM   19  C   UNL     1      -7.036   7.484  72.140  1.00  0.00    -0.067 C  
HETATM   20  C   UNL     1      -8.302   5.618  73.162  1.00  0.00    -0.118 C  
ENDBRANCH  16  17
ENDBRANCH  15  16
ENDBRANCH  14  15
ENDBRANCH  13  14
ENDBRANCH  12  13
ENDBRANCH  11  12
ENDBRANCH  10  11
ENDBRANCH   9  10
ENDBRANCH   8   9
ENDBRANCH   7   8
ENDBRANCH   6   7
ENDBRANCH   5   6
ENDBRANCH   4   5
ENDBRANCH   3   4
ENDBRANCH   2   3
TORSDOF 15
ENDMDL
MODEL      315
REMARK 921   NORMALIZED FREE ENERGY PREDICTED BY IDOCK:   -2.23 KCAL/MOL
REMARK 922        TOTAL FREE ENERGY PREDICTED BY IDOCK:   -5.87 KCAL/MOL
REMARK 923 INTER-LIGAND FREE ENERGY PREDICTED BY IDOCK:   -4.53 KCAL/MOL
REMARK 924 INTRA-LIGAND FREE ENERGY PREDICTED BY IDOCK:   -1.34 KCAL/MOL
REMARK 927      BINDING AFFINITY PREDICTED BY RF-SCORE:    0.00 PKD
ROOT
HETATM    1  C   UNL     1     -11.728  12.017  69.005  1.00  0.00    -0.382 C  
HETATM    2  C   UNL     1     -11.755  12.921  67.785  1.00  0.00    -0.412 C  
ENDROOT
BRANCH   2   3
HETATM    3  C   UNL     1     -11.464  12.131  66.513  1.00  0.00    -0.430 C  
BRANCH   3   4
HETATM    4  C   UNL     1     -10.139  11.385  66.622  1.00  0.00    -0.247 C  
BRANCH   4   5
HETATM    5  C   UNL     1     -10.277   9.963  66.089  1.00  0.00    -0.277 C  
BRANCH   5   6
HETATM    6  C   UNL     1      -8.972   9.494  65.463  1.00  0.00    -0.236 C  
BRANCH   6   7
HETATM    7  C   UNL     1      -8.780   7.998  65.679  1.00  0.00    -0.156 C  
BRANCH   7   8
HETATM    8  C   UNL     1      -7.399   7.571  65.206  1.00  0.00    -0.072 C  
BRANCH   8   9
HETATM    9  C   UNL     1      -6.317   8.205  66.066  1.00  0.00    -0.046 C  
BRANCH   9  10
HETATM   10  C   UNL     1      -6.267   7.521  67.424  1.00  0.00    -0.049 C  
BRANCH  10  11
HETATM   11  C   UNL     1      -6.279   6.012  67.261  1.00  0.00    -0.033 C  
BRANCH  11  12
HETATM   12  C   UNL     1      -7.434   5.395  68.040  1.00  0.00    -0.077 C  
BRANCH  12  13
HETATM   13  C   UNL     1      -7.829   6.322  69.176  1.00  0.00    -0.105 C  
BRANCH  13  14
HETATM   14  C   UNL     1      -9.287   6.758  69.071  1.00  0.00    -0.134 C  
BRANCH  14  15
HETATM   15  C   UNL     1     -10.175   6.027  70.081  1.00  0.00    -0.267 C  
BRANCH  15  16
HETATM   16  C   UNL     1     -11.613   6.552  70.059  1.00  0.00    -0.390 C  
BRANCH  16  17
HETATM   17  N   UNL     1     -11.995   7.375  71.296  1.00  0.00    -0.301 N  
HETATM   18  C   UNL     1     -13.486   7.293  71.579  1.00  0.00    -0.363 C  
HETATM   19  C   UNL     1     -11.632   8.834  71.002  1.00  0.00    -0.288 C  
HETATM   20  C   UNL     1     -11.204   6.928  72.521  1.00  0.00    -0.267 C  
ENDBRANCH  16  17
ENDBRANCH  15  16
ENDBRANCH  14  15
ENDBRANCH  13  14
ENDBRANCH  12  13
ENDBRANCH  11  12
ENDBRANCH  10  11
ENDBRANCH   9  10
ENDBRANCH   8   9
ENDBRANCH   7   8
ENDBRANCH   6   7
ENDBRANCH   5   6
ENDBRANCH   4   5
ENDBRANCH   3   4
ENDBRANCH   2   3
TORSDOF 15
ENDMDL
MODEL      316
REMARK 921   NORMALIZED FREE ENERGY PREDICTED BY IDOCK:   -2.21 KCAL/MOL
REMARK 922        TOTAL FREE ENERGY PREDICTED BY IDOCK:   -5.85 KCAL/MOL
REMARK 923 INTER-LIGAND FREE ENERGY PREDICTED BY IDOCK:   -5.17 KCAL/MOL
REMARK 924 INTRA-LIGAND FREE ENERGY PREDICTED BY IDOCK:   -0.68 KCAL/MOL
REMARK 927      BINDING AFFINITY PREDICTED BY RF-SCORE:    0.00 PKD
ROOT
HETATM    1  C   UNL     1      -6.863   5.109  72.402  1.00  0.00    -0.077 C  
HETATM    2  C   UNL     1      -7.495   6.486  72.520  1.00  0.00    -0.090 C  
ENDROOT
BRANCH   2   3
HETATM    3  C   UNL     1      -8.896   6.497  71.919  1.00  0.00    -0.134 C  
BRANCH   3   4
HETATM    4  C   UNL     1      -8.919   7.255  70.596  1.00  0.00    -0.156 C  
BRANCH   4   5
HETATM    5  C   UNL     1      -9.085   6.290  69.427  1.00  0.00    -0.139 C  
BRANCH   5   6
HETATM    6  C   UNL     1      -9.609   7.019  68.198  1.00  0.00    -0.131 C  
BRANCH   6   7
HETATM    7  C   UNL     1      -9.123   8.463  68.183  1.00  0.00    -0.138 C  
BRANCH   7   8
HETATM    8  C   UNL     1     -10.238   9.389  67.723  1.00  0.00    -0.273 C  
BRANCH   8   9
HETATM    9  C   UNL     1     -10.279   9.467  66.205  1.00  0.00    -0.272 C  
BRANCH   9  10
HETATM   10  C   UNL     1      -9.787  10.832  65.743  1.00  0.00    -0.292 C  
BRANCH  10  11
HETATM   11  C   UNL     1     -10.907  11.599  65.064  1.00  0.00    -0.346 C  
BRANCH  11  12
HETATM   12  C   UNL     1     -11.053  12.988  65.670  1.00  0.00    -0.301 C  
BRANCH  12  13
HETATM   13  C   UNL     1     -10.423  14.012  64.742  1.00  0.00    -0.445 C  
BRANCH  13  14
HETATM   14  C   UNL     1     -10.817  15.437  65.119  1.00  0.00    -0.447 C  
BRANCH  14  15
HETATM   15  C   UNL     1      -9.954  15.986  66.257  1.00  0.00    -0.329 C  
BRANCH  15  16
HETATM   16  C   UNL     1     -10.533  17.277  66.841  1.00  0.00    -0.272 C  
BRANCH  16  17
HETATM   17  N   UNL     1      -9.531  18.436  66.905  1.00  0.00    -0.281 N  
HETATM   18  C   UNL     1      -8.139  17.990  66.487  1.00  0.00    -0.269 C  
HETATM   19  C   UNL     1      -9.476  18.910  68.362  1.00  0.00    -0.356 C  
HETATM   20  C   UNL     1      -9.988  19.608  66.043  1.00  0.00    -0.422 C  
ENDBRANCH  16  17
ENDBRANCH  15  16
ENDBRANCH  14  15
ENDBRANCH  13  14
ENDBRANCH  12  13
ENDBRANCH  11  12
ENDBRANCH  10  11
ENDBRANCH   9  10
ENDBRANCH   8   9
ENDBRANCH   7   8
ENDBRANCH   6   7
ENDBRANCH   5   6
ENDBRANCH   4   5
ENDBRANCH   3   4
ENDBRANCH   2   3
TORSDOF 15
ENDMDL
MODEL      317
REMARK 921   NORMALIZED FREE ENERGY PREDICTED BY IDOCK:   -2.17 KCAL/MOL
REMARK 922        TOTAL FREE ENERGY PREDICTED BY IDOCK:   -5.77 KCAL/MOL
REMARK 923 INTER-LIGAND FREE ENERGY PREDICTED BY IDOCK:   -4.80 KCAL/MOL
REMARK 924 INTRA-LIGAND FREE ENERGY PREDICTED BY IDOCK:   -0.98 KCAL/MOL
REMARK 927      BINDING AFFINITY PREDICTED BY RF-SCORE:    0.00 PKD
ROOT
HETATM    1  C   UNL     1      -8.466   5.278  66.608  1.00  0.00    -0.107 C  
HETATM    2  C   UNL     1      -9.070   4.068  67.300  1.00  0.00    -0.169 C  
ENDROOT
BRANCH   2   3
HETATM    3  C   UNL     1      -8.261   3.687  68.536  1.00  0.00    -0.084 C  
BRANCH   3   4
HETATM    4  C   UNL     1      -9.177   3.385  69.718  1.00  0.00    -0.220 C  
BRANCH   4   5
HETATM    5  C   UNL     1      -9.161   4.536  70.717  1.00  0.00    -0.182 C  
BRANCH   5   6
HETATM    6  C   UNL     1      -8.643   4.067  72.070  1.00  0.00    -0.116 C  
BRANCH   6   7
HETATM    7  C   UNL     1      -8.877   5.133  73.133  1.00  0.00    -0.115 C  
BRANCH   7   8
HETATM    8  C   UNL     1     -10.085   5.983  72.769  1.00  0.00    -0.201 C  
BRANCH   8   9
HETATM    9  C   UNL     1      -9.949   7.383  73.344  1.00  0.00    -0.365 C  
BRANCH   9  10
HETATM   10  C   UNL     1     -10.485   8.406  72.352  1.00  0.00    -0.402 C  
BRANCH  10  11
HETATM   11  C   UNL     1     -11.418   7.743  71.357  1.00  0.00    -0.289 C  
BRANCH  11  12
HETATM   12  C   UNL     1     -12.121   8.786  70.498  1.00  0.00     0.094 C  
BRANCH  12  13
HETATM   13  C   UNL     1     -11.471  10.141  70.718  1.00  0.00    -0.442 C  
BRANCH  13  14
HETATM   14  C   UNL     1     -12.126  11.228  69.872  1.00  0.00    -0.414 C  
BRANCH  14  15
HETATM   15  C   UNL     1     -11.156  11.811  68.841  1.00  0.00    -0.297 C  
BRANCH  15  16
HETATM   16  C   UNL     1     -11.862  12.758  67.867  1.00  0.00    -0.339 C  
BRANCH  16  17
HETATM   17  N   UNL     1     -10.924  13.762  67.185  1.00  0.00    -0.286 N  
HETATM   18  C   UNL     1      -9.700  13.072  66.605  1.00  0.00    -0.256 C  
HETATM   19  C   UNL     1     -10.464  14.756  68.257  1.00  0.00    -0.241 C  
HETATM   20  C   UNL     1     -11.651  14.543  66.096  1.00  0.00    -0.365 C  
ENDBRANCH  16  17
ENDBRANCH  15  16
ENDBRANCH  14  15
ENDBRANCH  13  14
ENDBRANCH  12  13
ENDBRANCH  11  12
ENDBRANCH  10  11
ENDBRANCH   9  10
ENDBRANCH   8   9
ENDBRANCH   7   8
ENDBRANCH   6   7
ENDBRANCH   5   6
ENDBRANCH   4   5
ENDBRANCH   3   4
ENDBRANCH   2   3
TORSDOF 15
ENDMDL
MODEL      318
REMARK 921   NORMALIZED FREE ENERGY PREDICTED BY IDOCK:   -2.16 KCAL/MOL
REMARK 922        TOTAL FREE ENERGY PREDICTED BY IDOCK:   -5.74 KCAL/MOL
REMARK 923 INTER-LIGAND FREE ENERGY PREDICTED BY IDOCK:   -4.62 KCAL/MOL
REMARK 924 INTRA-LIGAND FREE ENERGY PREDICTED BY IDOCK:   -1.12 KCAL/MOL
REMARK 927      BINDING AFFINITY PREDICTED BY RF-SCORE:    0.00 PKD
ROOT
HETATM    1  C   UNL     1     -11.076  12.064  69.496  1.00  0.00    -0.140 C  
HETATM    2  C   UNL     1     -11.209  12.449  68.033  1.00  0.00    -0.317 C  
ENDROOT
BRANCH   2   3
HETATM    3  C   UNL     1     -11.198  11.213  67.140  1.00  0.00    -0.320 C  
BRANCH   3   4
HETATM    4  C   UNL     1     -10.064  10.269  67.524  1.00  0.00    -0.239 C  
BRANCH   4   5
HETATM    5  C   UNL     1     -10.617   8.923  67.980  1.00  0.00    -0.226 C  
BRANCH   5   6
HETATM    6  C   UNL     1     -10.079   7.797  67.108  1.00  0.00    -0.328 C  
BRANCH   6   7
HETATM    7  C   UNL     1     -10.607   6.450  67.584  1.00  0.00    -0.340 C  
BRANCH   7   8
HETATM    8  C   UNL     1     -10.971   5.577  66.393  1.00  0.00    -0.088 C  
BRANCH   8   9
HETATM    9  C   UNL     1      -9.726   4.945  65.790  1.00  0.00    -0.184 C  
BRANCH   9  10
HETATM   10  C   UNL     1      -8.886   4.306  66.887  1.00  0.00    -0.118 C  
BRANCH  10  11
HETATM   11  C   UNL     1      -9.117   2.807  66.928  1.00  0.00    -0.172 C  
BRANCH  11  12
HETATM   12  C   UNL     1      -9.184   2.311  68.367  1.00  0.00    -0.241 C  
BRANCH  12  13
HETATM   13  C   UNL     1      -9.246   3.501  69.308  1.00  0.00    -0.230 C  
BRANCH  13  14
HETATM   14  C   UNL     1      -9.613   3.082  70.729  1.00  0.00    -0.203 C  
BRANCH  14  15
HETATM   15  C   UNL     1      -9.851   4.291  71.637  1.00  0.00    -0.257 C  
BRANCH  15  16
HETATM   16  C   UNL     1     -10.671   5.378  70.936  1.00  0.00    -0.173 C  
BRANCH  16  17
HETATM   17  N   UNL     1     -11.038   6.561  71.840  1.00  0.00    -0.249 N  
HETATM   18  C   UNL     1     -10.232   7.800  71.486  1.00  0.00    -0.182 C  
HETATM   19  C   UNL     1     -10.705   6.155  73.280  1.00  0.00    -0.260 C  
HETATM   20  C   UNL     1     -12.530   6.867  71.768  1.00  0.00    -0.356 C  
ENDBRANCH  16  17
ENDBRANCH  15  16
ENDBRANCH  14  15
ENDBRANCH  13  14
ENDBRANCH  12  13
ENDBRANCH  11  12
ENDBRANCH  10  11
ENDBRANCH   9  10
ENDBRANCH   8   9
ENDBRANCH   7   8
ENDBRANCH   6   7
ENDBRANCH   5   6
ENDBRANCH   4   5
ENDBRANCH   3   4
ENDBRANCH   2   3
TORSDOF 15
ENDMDL
MODEL      319
REMARK 921   NORMALIZED FREE ENERGY PREDICTED BY IDOCK:   -2.15 KCAL/MOL
REMARK 922        TOTAL FREE ENERGY PREDICTED BY IDOCK:   -5.72 KCAL/MOL
REMARK 923 INTER-LIGAND FREE ENERGY PREDICTED BY IDOCK:   -4.38 KCAL/MOL
REMARK 924 INTRA-LIGAND FREE ENERGY PREDICTED BY IDOCK:   -1.34 KCAL/MOL
REMARK 927      BINDING AFFINITY PREDICTED BY RF-SCORE:    0.00 PKD
ROOT
HETATM    1  C   UNL     1      -9.145   9.254  65.055  1.00  0.00    -0.245 C  
HETATM    2  C   UNL     1      -8.021   8.232  65.038  1.00  0.00    -0.141 C  
ENDROOT
BRANCH   2   3
HETATM    3  C   UNL     1      -6.766   8.790  65.702  1.00  0.00    -0.068 C  
BRANCH   3   4
HETATM    4  C   UNL     1      -6.412   7.998  66.957  1.00  0.00    -0.056 C  
BRANCH   4   5
HETATM    5  C   UNL     1      -6.423   6.501  66.669  1.00  0.00    -0.043 C  
BRANCH   5   6
HETATM    6  C   UNL     1      -6.916   5.724  67.881  1.00  0.00    -0.066 C  
BRANCH   6   7
HETATM    7  C   UNL     1      -8.249   6.279  68.369  1.00  0.00    -0.116 C  
BRANCH   7   8
HETATM    8  C   UNL     1      -8.401   6.044  69.864  1.00  0.00    -0.123 C  
BRANCH   8   9
HETATM    9  C   UNL     1      -8.738   7.342  70.580  1.00  0.00    -0.148 C  
BRANCH   9  10
HETATM   10  C   UNL     1     -10.219   7.374  70.927  1.00  0.00    -0.195 C  
BRANCH  10  11
HETATM   11  C   UNL     1     -10.430   7.987  72.299  1.00  0.00    -0.344 C  
BRANCH  11  12
HETATM   12  C   UNL     1     -11.905   8.287  72.535  1.00  0.00    -0.439 C  
BRANCH  12  13
HETATM   13  C   UNL     1     -12.571   8.612  71.209  1.00  0.00    -0.266 C  
BRANCH  13  14
HETATM   14  C   UNL     1     -12.968  10.083  71.119  1.00  0.00    -0.478 C  
BRANCH  14  15
HETATM   15  C   UNL     1     -11.806  10.959  70.645  1.00  0.00    -0.453 C  
BRANCH  15  16
HETATM   16  C   UNL     1     -12.141  11.695  69.345  1.00  0.00    -0.263 C  
BRANCH  16  17
HETATM   17  N   UNL     1     -10.958  11.820  68.377  1.00  0.00    -0.216 N  
HETATM   18  C   UNL     1     -11.365  11.471  66.955  1.00  0.00    -0.269 C  
HETATM   19  C   UNL     1      -9.886  10.825  68.837  1.00  0.00    -0.199 C  
HETATM   20  C   UNL     1     -10.355  13.220  68.421  1.00  0.00    -0.251 C  
ENDBRANCH  16  17
ENDBRANCH  15  16
ENDBRANCH  14  15
ENDBRANCH  13  14
ENDBRANCH  12  13
ENDBRANCH  11  12
ENDBRANCH  10  11
ENDBRANCH   9  10
ENDBRANCH   8   9
ENDBRANCH   7   8
ENDBRANCH   6   7
ENDBRANCH   5   6
ENDBRANCH   4   5
ENDBRANCH   3   4
ENDBRANCH   2   3
TORSDOF 15
ENDMDL
MODEL      320
REMARK 921   NORMALIZED FREE ENERGY PREDICTED BY IDOCK:   -2.14 KCAL/MOL
REMARK 922        TOTAL FREE ENERGY PREDICTED BY IDOCK:   -5.70 KCAL/MOL
REMARK 923 INTER-LIGAND FREE ENERGY PREDICTED BY IDOCK:   -4.56 KCAL/MOL
REMARK 924 INTRA-LIGAND FREE ENERGY PREDICTED BY IDOCK:   -1.14 KCAL/MOL
REMARK 927      BINDING AFFINITY PREDICTED BY RF-SCORE:    0.00 PKD
ROOT
HETATM    1  C   UNL     1     -11.968  15.976  69.134  1.00  0.00    -0.187 C  
HETATM    2  C   UNL     1     -10.689  15.189  69.360  1.00  0.00    -0.269 C  
ENDROOT
BRANCH   2   3
HETATM    3  C   UNL     1      -9.955  14.949  68.045  1.00  0.00    -0.220 C  
BRANCH   3   4
HETATM    4  C   UNL     1     -10.938  14.754  66.896  1.00  0.00    -0.328 C  
BRANCH   4   5
HETATM    5  C   UNL     1     -10.727  13.397  66.233  1.00  0.00    -0.290 C  
BRANCH   5   6
HETATM    6  C   UNL     1     -11.821  12.422  66.643  1.00  0.00    -0.394 C  
BRANCH   6   7
HETATM    7  C   UNL     1     -11.379  11.595  67.844  1.00  0.00    -0.369 C  
BRANCH   7   8
HETATM    8  C   UNL     1     -11.123  10.155  67.425  1.00  0.00    -0.219 C  
BRANCH   8   9
HETATM    9  C   UNL     1      -9.813  10.043  66.662  1.00  0.00    -0.259 C  
BRANCH   9  10
HETATM   10  C   UNL     1      -9.484   8.579  66.408  1.00  0.00    -0.297 C  
BRANCH  10  11
HETATM   11  C   UNL     1      -8.010   8.315  66.652  1.00  0.00    -0.098 C  
BRANCH  11  12
HETATM   12  C   UNL     1      -7.622   8.694  68.075  1.00  0.00    -0.098 C  
BRANCH  12  13
HETATM   13  C   UNL     1      -8.007   7.569  69.020  1.00  0.00    -0.122 C  
BRANCH  13  14
HETATM   14  C   UNL     1      -9.311   7.865  69.753  1.00  0.00    -0.153 C  
BRANCH  14  15
HETATM   15  C   UNL     1      -9.120   7.885  71.271  1.00  0.00    -0.161 C  
BRANCH  15  16
HETATM   16  C   UNL     1      -9.442   6.528  71.904  1.00  0.00    -0.151 C  
BRANCH  16  17
HETATM   17  N   UNL     1     -10.683   6.539  72.805  1.00  0.00    -0.229 N  
HETATM   18  C   UNL     1     -11.243   7.944  72.961  1.00  0.00    -0.283 C  
HETATM   19  C   UNL     1     -10.249   6.030  74.184  1.00  0.00    -0.297 C  
HETATM   20  C   UNL     1     -11.760   5.602  72.272  1.00  0.00    -0.138 C  
ENDBRANCH  16  17
ENDBRANCH  15  16
ENDBRANCH  14  15
ENDBRANCH  13  14
ENDBRANCH  12  13
ENDBRANCH  11  12
ENDBRANCH  10  11
ENDBRANCH   9  10
ENDBRANCH   8   9
ENDBRANCH   7   8
ENDBRANCH   6   7
ENDBRANCH   5   6
ENDBRANCH   4   5
ENDBRANCH   3   4
ENDBRANCH   2   3
TORSDOF 15
ENDMDL
MODEL      321
REMARK 921   NORMALIZED FREE ENERGY PREDICTED BY IDOCK:   -2.11 KCAL/MOL
REMARK 922        TOTAL FREE ENERGY PREDICTED BY IDOCK:   -5.66 KCAL/MOL
REMARK 923 INTER-LIGAND FREE ENERGY PREDICTED BY IDOCK:   -4.55 KCAL/MOL
REMARK 924 INTRA-LIGAND FREE ENERGY PREDICTED BY IDOCK:   -1.11 KCAL/MOL
REMARK 927      BINDING AFFINITY PREDICTED BY RF-SCORE:    0.00 PKD
ROOT
HETATM    1  C   UNL     1     -11.308  16.051  69.355  1.00  0.00    -0.355 C  
HETATM    2  C   UNL     1      -9.873  15.572  69.224  1.00  0.00    -0.270 C  
ENDROOT
BRANCH   2   3
HETATM    3  C   UNL     1      -9.300  15.929  67.857  1.00  0.00    -0.207 C  
BRANCH   3   4
HETATM    4  C   UNL     1     -10.393  16.427  66.918  1.00  0.00    -0.300 C  
BRANCH   4   5
HETATM    5  C   UNL     1     -10.591  15.455  65.759  1.00  0.00    -0.361 C  
BRANCH   5   6
HETATM    6  C   UNL     1     -11.811  14.577  65.996  1.00  0.00    -0.339 C  
BRANCH   6   7
HETATM    7  C   UNL     1     -11.404  13.251  66.626  1.00  0.00    -0.353 C  
BRANCH   7   8
HETATM    8  C   UNL     1     -11.470  12.136  65.593  1.00  0.00    -0.408 C  
BRANCH   8   9
HETATM    9  C   UNL     1     -10.405  12.330  64.526  1.00  0.00    -0.339 C  
BRANCH   9  10
HETATM   10  C   UNL     1     -10.557  11.271  63.442  1.00  0.00    -0.393 C  
BRANCH  10  11
HETATM   11  C   UNL     1      -9.210  10.662  63.102  1.00  0.00    -0.308 C  
BRANCH  11  12
HETATM   12  C   UNL     1      -8.465  10.259  64.367  1.00  0.00    -0.182 C  
BRANCH  12  13
HETATM   13  C   UNL     1      -9.015   8.939  64.879  1.00  0.00    -0.128 C  
BRANCH  13  14
HETATM   14  C   UNL     1      -9.247   8.968  66.387  1.00  0.00    -0.239 C  
BRANCH  14  15
HETATM   15  C   UNL     1      -8.355   7.962  67.120  1.00  0.00    -0.117 C  
BRANCH  15  16
HETATM   16  C   UNL     1      -8.107   6.705  66.282  1.00  0.00    -0.115 C  
BRANCH  16  17
HETATM   17  N   UNL     1      -6.623   6.379  66.073  1.00  0.00    -0.046 N  
HETATM   18  C   UNL     1      -5.854   6.431  67.383  1.00  0.00    -0.016 C  
HETATM   19  C   UNL     1      -6.052   7.441  65.128  1.00  0.00    -0.038 C  
HETATM   20  C   UNL     1      -6.446   5.015  65.415  1.00  0.00    -0.036 C  
ENDBRANCH  16  17
ENDBRANCH  15  16
ENDBRANCH  14  15
ENDBRANCH  13  14
ENDBRANCH  12  13
ENDBRANCH  11  12
ENDBRANCH  10  11
ENDBRANCH   9  10
ENDBRANCH   8   9
ENDBRANCH   7   8
ENDBRANCH   6   7
ENDBRANCH   5   6
ENDBRANCH   4   5
ENDBRANCH   3   4
ENDBRANCH   2   3
TORSDOF 15
ENDMDL
MODEL      322
REMARK 921   NORMALIZED FREE ENERGY PREDICTED BY IDOCK:   -1.99 KCAL/MOL
REMARK 922        TOTAL FREE ENERGY PREDICTED BY IDOCK:   -5.44 KCAL/MOL
REMARK 923 INTER-LIGAND FREE ENERGY PREDICTED BY IDOCK:   -4.32 KCAL/MOL
REMARK 924 INTRA-LIGAND FREE ENERGY PREDICTED BY IDOCK:   -1.12 KCAL/MOL
REMARK 927      BINDING AFFINITY PREDICTED BY RF-SCORE:    0.00 PKD
ROOT
HETATM    1  C   UNL     1      -9.598  11.281  65.701  1.00  0.00    -0.260 C  
HETATM    2  C   UNL     1      -9.616  12.672  66.311  1.00  0.00    -0.244 C  
ENDROOT
BRANCH   2   3
HETATM    3  C   UNL     1     -10.051  12.622  67.772  1.00  0.00    -0.220 C  
BRANCH   3   4
HETATM    4  C   UNL     1     -11.568  12.529  67.889  1.00  0.00    -0.403 C  
BRANCH   4   5
HETATM    5  C   UNL     1     -11.972  11.280  68.664  1.00  0.00    -0.314 C  
BRANCH   5   6
HETATM    6  C   UNL     1     -11.230  11.207  69.991  1.00  0.00    -0.261 C  
BRANCH   6   7
HETATM    7  C   UNL     1     -11.577   9.920  70.730  1.00  0.00    -0.430 C  
BRANCH   7   8
HETATM    8  C   UNL     1     -10.429   8.928  70.626  1.00  0.00    -0.271 C  
BRANCH   8   9
HETATM    9  C   UNL     1      -9.177   9.609  70.097  1.00  0.00    -0.287 C  
BRANCH   9  10
HETATM   10  C   UNL     1      -7.958   9.127  70.871  1.00  0.00    -0.192 C  
BRANCH  10  11
HETATM   11  C   UNL     1      -8.380   8.472  72.173  1.00  0.00    -0.197 C  
BRANCH  11  12
HETATM   12  C   UNL     1      -7.165   8.148  73.032  1.00  0.00    -0.147 C  
BRANCH  12  13
HETATM   13  C   UNL     1      -7.039   6.641  73.180  1.00  0.00    -0.077 C  
BRANCH  13  14
HETATM   14  C   UNL     1      -7.584   5.905  71.960  1.00  0.00    -0.097 C  
BRANCH  14  15
HETATM   15  C   UNL     1      -8.042   4.486  72.308  1.00  0.00    -0.101 C  
BRANCH  15  16
HETATM   16  C   UNL     1      -9.520   4.266  71.975  1.00  0.00    -0.135 C  
BRANCH  16  17
HETATM   17  N   UNL     1     -10.410   4.048  73.204  1.00  0.00    -0.158 N  
HETATM   18  C   UNL     1     -11.515   5.089  73.282  1.00  0.00    -0.259 C  
HETATM   19  C   UNL     1      -9.518   4.187  74.443  1.00  0.00    -0.109 C  
HETATM   20  C   UNL     1     -11.010   2.646  73.208  1.00  0.00    -0.158 C  
ENDBRANCH  16  17
ENDBRANCH  15  16
ENDBRANCH  14  15
ENDBRANCH  13  14
ENDBRANCH  12  13
ENDBRANCH  11  12
ENDBRANCH  10  11
ENDBRANCH   9  10
ENDBRANCH   8   9
ENDBRANCH   7   8
ENDBRANCH   6   7
ENDBRANCH   5   6
ENDBRANCH   4   5
ENDBRANCH   3   4
ENDBRANCH   2   3
TORSDOF 15
ENDMDL
MODEL      323
REMARK 921   NORMALIZED FREE ENERGY PREDICTED BY IDOCK:   -1.99 KCAL/MOL
REMARK 922        TOTAL FREE ENERGY PREDICTED BY IDOCK:   -5.42 KCAL/MOL
REMARK 923 INTER-LIGAND FREE ENERGY PREDICTED BY IDOCK:   -4.28 KCAL/MOL
REMARK 924 INTRA-LIGAND FREE ENERGY PREDICTED BY IDOCK:   -1.15 KCAL/MOL
REMARK 927      BINDING AFFINITY PREDICTED BY RF-SCORE:    0.00 PKD
ROOT
HETATM    1  C   UNL     1     -10.109  10.999  65.469  1.00  0.00    -0.316 C  
HETATM    2  C   UNL     1      -9.792  12.414  65.921  1.00  0.00    -0.265 C  
ENDROOT
BRANCH   2   3
HETATM    3  C   UNL     1      -9.924  12.546  67.435  1.00  0.00    -0.207 C  
BRANCH   3   4
HETATM    4  C   UNL     1     -11.223  13.250  67.813  1.00  0.00    -0.308 C  
BRANCH   4   5
HETATM    5  C   UNL     1     -12.137  12.309  68.591  1.00  0.00    -0.139 C  
BRANCH   5   6
HETATM    6  C   UNL     1     -11.475  11.868  69.889  1.00  0.00    -0.264 C  
BRANCH   6   7
HETATM    7  C   UNL     1     -12.105  10.579  70.401  1.00  0.00    -0.418 C  
BRANCH   7   8
HETATM    8  C   UNL     1     -11.224   9.389  70.053  1.00  0.00    -0.217 C  
BRANCH   8   9
HETATM    9  C   UNL     1      -9.769   9.684  70.380  1.00  0.00    -0.304 C  
BRANCH   9  10
HETATM   10  C   UNL     1      -9.081   8.420  70.876  1.00  0.00    -0.190 C  
BRANCH  10  11
HETATM   11  C   UNL     1      -9.979   7.673  71.845  1.00  0.00    -0.217 C  
BRANCH  11  12
HETATM   12  C   UNL     1      -9.272   6.440  72.393  1.00  0.00    -0.137 C  
BRANCH  12  13
HETATM   13  C   UNL     1     -10.203   5.244  72.308  1.00  0.00    -0.250 C  
BRANCH  13  14
HETATM   14  C   UNL     1     -10.408   4.786  70.867  1.00  0.00    -0.187 C  
BRANCH  14  15
HETATM   15  C   UNL     1      -9.082   4.458  70.178  1.00  0.00    -0.167 C  
BRANCH  15  16
HETATM   16  C   UNL     1      -9.295   3.771  68.827  1.00  0.00    -0.164 C  
BRANCH  16  17
HETATM   17  N   UNL     1      -9.083   4.691  67.619  1.00  0.00    -0.113 N  
HETATM   18  C   UNL     1      -9.925   5.952  67.727  1.00  0.00    -0.134 C  
HETATM   19  C   UNL     1      -9.523   3.916  66.372  1.00  0.00    -0.191 C  
HETATM   20  C   UNL     1      -7.612   5.056  67.455  1.00  0.00    -0.087 C  
ENDBRANCH  16  17
ENDBRANCH  15  16
ENDBRANCH  14  15
ENDBRANCH  13  14
ENDBRANCH  12  13
ENDBRANCH  11  12
ENDBRANCH  10  11
ENDBRANCH   9  10
ENDBRANCH   8   9
ENDBRANCH   7   8
ENDBRANCH   6   7
ENDBRANCH   5   6
ENDBRANCH   4   5
ENDBRANCH   3   4
ENDBRANCH   2   3
TORSDOF 15
ENDMDL
MODEL      324
REMARK 921   NORMALIZED FREE ENERGY PREDICTED BY IDOCK:   -1.96 KCAL/MOL
REMARK 922        TOTAL FREE ENERGY PREDICTED BY IDOCK:   -5.36 KCAL/MOL
REMARK 923 INTER-LIGAND FREE ENERGY PREDICTED BY IDOCK:   -3.68 KCAL/MOL
REMARK 924 INTRA-LIGAND FREE ENERGY PREDICTED BY IDOCK:   -1.68 KCAL/MOL
REMARK 927      BINDING AFFINITY PREDICTED BY RF-SCORE:    0.00 PKD
ROOT
HETATM    1  C   UNL     1      -8.199   6.001  72.579  1.00  0.00    -0.108 C  
HETATM    2  C   UNL     1      -8.706   4.735  71.910  1.00  0.00    -0.133 C  
ENDROOT
BRANCH   2   3
HETATM    3  C   UNL     1      -9.068   4.995  70.452  1.00  0.00    -0.172 C  
BRANCH   3   4
HETATM    4  C   UNL     1      -8.121   4.256  69.512  1.00  0.00    -0.062 C  
BRANCH   4   5
HETATM    5  C   UNL     1      -8.865   3.163  68.751  1.00  0.00    -0.167 C  
BRANCH   5   6
HETATM    6  C   UNL     1      -8.933   3.493  67.267  1.00  0.00    -0.167 C  
BRANCH   6   7
HETATM    7  C   UNL     1      -7.532   3.644  66.686  1.00  0.00    -0.076 C  
BRANCH   7   8
HETATM    8  C   UNL     1      -7.609   4.153  65.254  1.00  0.00    -0.081 C  
BRANCH   8   9
HETATM    9  C   UNL     1      -8.581   5.317  65.149  1.00  0.00    -0.151 C  
BRANCH   9  10
HETATM   10  C   UNL     1      -7.868   6.620  65.480  1.00  0.00    -0.108 C  
BRANCH  10  11
HETATM   11  C   UNL     1      -8.314   7.142  66.833  1.00  0.00    -0.118 C  
BRANCH  11  12
HETATM   12  C   UNL     1      -9.807   7.445  66.829  1.00  0.00    -0.290 C  
BRANCH  12  13
HETATM   13  C   UNL     1     -10.017   8.946  66.930  1.00  0.00    -0.315 C  
BRANCH  13  14
HETATM   14  C   UNL     1     -10.197   9.397  68.376  1.00  0.00    -0.224 C  
BRANCH  14  15
HETATM   15  C   UNL     1     -10.674   8.255  69.275  1.00  0.00    -0.140 C  
BRANCH  15  16
HETATM   16  C   UNL     1     -10.611   8.632  70.758  1.00  0.00    -0.210 C  
BRANCH  16  17
HETATM   17  N   UNL     1     -11.809   8.138  71.578  1.00  0.00    -0.283 N  
HETATM   18  C   UNL     1     -12.966   9.122  71.518  1.00  0.00    -0.346 C  
HETATM   19  C   UNL     1     -11.346   8.017  73.034  1.00  0.00    -0.168 C  
HETATM   20  C   UNL     1     -12.267   6.761  71.110  1.00  0.00    -0.360 C  
ENDBRANCH  16  17
ENDBRANCH  15  16
ENDBRANCH  14  15
ENDBRANCH  13  14
ENDBRANCH  12  13
ENDBRANCH  11  12
ENDBRANCH  10  11
ENDBRANCH   9  10
ENDBRANCH   8   9
ENDBRANCH   7   8
ENDBRANCH   6   7
ENDBRANCH   5   6
ENDBRANCH   4   5
ENDBRANCH   3   4
ENDBRANCH   2   3
TORSDOF 15
ENDMDL
MODEL      325
REMARK 921   NORMALIZED FREE ENERGY PREDICTED BY IDOCK:   -1.95 KCAL/MOL
REMARK 922        TOTAL FREE ENERGY PREDICTED BY IDOCK:   -5.36 KCAL/MOL
REMARK 923 INTER-LIGAND FREE ENERGY PREDICTED BY IDOCK:   -4.45 KCAL/MOL
REMARK 924 INTRA-LIGAND FREE ENERGY PREDICTED BY IDOCK:   -0.90 KCAL/MOL
REMARK 927      BINDING AFFINITY PREDICTED BY RF-SCORE:    0.00 PKD
ROOT
HETATM    1  C   UNL     1      -7.301   6.551  71.565  1.00  0.00    -0.087 C  
HETATM    2  C   UNL     1      -7.797   5.450  70.643  1.00  0.00    -0.090 C  
ENDROOT
BRANCH   2   3
HETATM    3  C   UNL     1      -8.790   5.998  69.623  1.00  0.00    -0.133 C  
BRANCH   3   4
HETATM    4  C   UNL     1      -8.212   7.203  68.888  1.00  0.00    -0.125 C  
BRANCH   4   5
HETATM    5  C   UNL     1      -8.904   7.395  67.543  1.00  0.00    -0.127 C  
BRANCH   5   6
HETATM    6  C   UNL     1     -10.061   8.376  67.669  1.00  0.00    -0.268 C  
BRANCH   6   7
HETATM    7  C   UNL     1      -9.581   9.700  68.253  1.00  0.00    -0.153 C  
BRANCH   7   8
HETATM    8  C   UNL     1     -10.706  10.372  69.025  1.00  0.00    -0.260 C  
BRANCH   8   9
HETATM    9  C   UNL     1     -10.755  11.860  68.715  1.00  0.00    -0.257 C  
BRANCH   9  10
HETATM   10  C   UNL     1     -11.285  12.079  67.305  1.00  0.00    -0.371 C  
BRANCH  10  11
HETATM   11  C   UNL     1     -10.619  13.285  66.668  1.00  0.00    -0.283 C  
BRANCH  11  12
HETATM   12  C   UNL     1     -10.096  14.237  67.735  1.00  0.00    -0.231 C  
BRANCH  12  13
HETATM   13  C   UNL     1     -10.889  15.532  67.689  1.00  0.00    -0.306 C  
BRANCH  13  14
HETATM   14  C   UNL     1     -10.525  16.376  66.472  1.00  0.00    -0.282 C  
BRANCH  14  15
HETATM   15  C   UNL     1      -9.011  16.552  66.331  1.00  0.00    -0.340 C  
BRANCH  15  16
HETATM   16  C   UNL     1      -8.555  17.943  66.782  1.00  0.00    -0.254 C  
BRANCH  16  17
HETATM   17  N   UNL     1      -7.041  18.061  66.999  1.00  0.00    -0.190 N  
HETATM   18  C   UNL     1      -6.716  19.045  68.111  1.00  0.00    -0.234 C  
HETATM   19  C   UNL     1      -6.433  18.581  65.692  1.00  0.00    -0.284 C  
HETATM   20  C   UNL     1      -6.420  16.702  67.303  1.00  0.00    -0.180 C  
ENDBRANCH  16  17
ENDBRANCH  15  16
ENDBRANCH  14  15
ENDBRANCH  13  14
ENDBRANCH  12  13
ENDBRANCH  11  12
ENDBRANCH  10  11
ENDBRANCH   9  10
ENDBRANCH   8   9
ENDBRANCH   7   8
ENDBRANCH   6   7
ENDBRANCH   5   6
ENDBRANCH   4   5
ENDBRANCH   3   4
ENDBRANCH   2   3
TORSDOF 15
ENDMDL
MODEL      326
REMARK 921   NORMALIZED FREE ENERGY PREDICTED BY IDOCK:   -1.88 KCAL/MOL
REMARK 922        TOTAL FREE ENERGY PREDICTED BY IDOCK:   -5.22 KCAL/MOL
REMARK 923 INTER-LIGAND FREE ENERGY PREDICTED BY IDOCK:   -4.06 KCAL/MOL
REMARK 924 INTRA-LIGAND FREE ENERGY PREDICTED BY IDOCK:   -1.16 KCAL/MOL
REMARK 927      BINDING AFFINITY PREDICTED BY RF-SCORE:    0.00 PKD
ROOT
HETATM    1  C   UNL     1     -12.086  14.270  66.897  1.00  0.00    -0.440 C  
HETATM    2  C   UNL     1     -12.405  13.438  65.667  1.00  0.00    -0.521 C  
ENDROOT
BRANCH   2   3
HETATM    3  C   UNL     1     -11.174  12.676  65.188  1.00  0.00    -0.336 C  
BRANCH   3   4
HETATM    4  C   UNL     1     -11.088  11.304  65.849  1.00  0.00    -0.168 C  
BRANCH   4   5
HETATM    5  C   UNL     1     -10.114  11.332  67.022  1.00  0.00    -0.238 C  
BRANCH   5   6
HETATM    6  C   UNL     1     -10.848  11.102  68.335  1.00  0.00    -0.248 C  
BRANCH   6   7
HETATM    7  C   UNL     1     -10.194   9.975  69.125  1.00  0.00    -0.224 C  
BRANCH   7   8
HETATM    8  C   UNL     1      -9.025   9.395  68.344  1.00  0.00    -0.128 C  
BRANCH   8   9
HETATM    9  C   UNL     1      -9.245   7.917  68.067  1.00  0.00    -0.134 C  
BRANCH   9  10
HETATM   10  C   UNL     1     -10.331   7.373  68.985  1.00  0.00    -0.214 C  
BRANCH  10  11
HETATM   11  C   UNL     1     -10.958   6.127  68.387  1.00  0.00    -0.391 C  
BRANCH  11  12
HETATM   12  C   UNL     1     -10.144   5.631  67.199  1.00  0.00    -0.215 C  
BRANCH  12  13
HETATM   13  C   UNL     1      -9.544   4.275  67.528  1.00  0.00    -0.217 C  
BRANCH  13  14
HETATM   14  C   UNL     1      -8.651   4.335  68.763  1.00  0.00    -0.105 C  
BRANCH  14  15
HETATM   15  C   UNL     1      -9.007   3.246  69.778  1.00  0.00    -0.174 C  
BRANCH  15  16
HETATM   16  C   UNL     1      -7.804   2.856  70.641  1.00  0.00    -0.042 C  
BRANCH  16  17
HETATM   17  N   UNL     1      -7.838   3.442  72.058  1.00  0.00    -0.058 N  
HETATM   18  C   UNL     1      -9.253   3.816  72.470  1.00  0.00    -0.106 C  
HETATM   19  C   UNL     1      -6.980   4.713  72.046  1.00  0.00    -0.060 C  
HETATM   20  C   UNL     1      -7.236   2.474  73.069  1.00  0.00    -0.039 C  
ENDBRANCH  16  17
ENDBRANCH  15  16
ENDBRANCH  14  15
ENDBRANCH  13  14
ENDBRANCH  12  13
ENDBRANCH  11  12
ENDBRANCH  10  11
ENDBRANCH   9  10
ENDBRANCH   8   9
ENDBRANCH   7   8
ENDBRANCH   6   7
ENDBRANCH   5   6
ENDBRANCH   4   5
ENDBRANCH   3   4
ENDBRANCH   2   3
TORSDOF 15
ENDMDL
MODEL      327
REMARK 921   NORMALIZED FREE ENERGY PREDICTED BY IDOCK:   -1.87 KCAL/MOL
REMARK 922        TOTAL FREE ENERGY PREDICTED BY IDOCK:   -5.19 KCAL/MOL
REMARK 923 INTER-LIGAND FREE ENERGY PREDICTED BY IDOCK:   -4.48 KCAL/MOL
REMARK 924 INTRA-LIGAND FREE ENERGY PREDICTED BY IDOCK:   -0.71 KCAL/MOL
REMARK 927      BINDING AFFINITY PREDICTED BY RF-SCORE:    0.00 PKD
ROOT
HETATM    1  C   UNL     1      -6.610   5.009  72.346  1.00  0.00    -0.048 C  
HETATM    2  C   UNL     1      -7.070   6.394  72.768  1.00  0.00    -0.078 C  
ENDROOT
BRANCH   2   3
HETATM    3  C   UNL     1      -8.553   6.591  72.473  1.00  0.00    -0.121 C  
BRANCH   3   4
HETATM    4  C   UNL     1      -8.759   7.586  71.336  1.00  0.00    -0.129 C  
BRANCH   4   5
HETATM    5  C   UNL     1      -9.194   6.866  70.064  1.00  0.00    -0.155 C  
BRANCH   5   6
HETATM    6  C   UNL     1      -9.958   7.810  69.146  1.00  0.00    -0.182 C  
BRANCH   6   7
HETATM    7  C   UNL     1      -9.440   9.236  69.290  1.00  0.00    -0.160 C  
BRANCH   7   8
HETATM    8  C   UNL     1     -10.593  10.191  69.556  1.00  0.00    -0.269 C  
BRANCH   8   9
HETATM    9  C   UNL     1     -11.052  10.851  68.265  1.00  0.00    -0.324 C  
BRANCH   9  10
HETATM   10  C   UNL     1     -10.476  12.256  68.168  1.00  0.00    -0.228 C  
BRANCH  10  11
HETATM   11  C   UNL     1     -11.589  13.277  68.016  1.00  0.00    -0.371 C  
BRANCH  11  12
HETATM   12  C   UNL     1     -11.571  14.271  69.169  1.00  0.00    -0.346 C  
BRANCH  12  13
HETATM   13  C   UNL     1     -10.656  15.432  68.821  1.00  0.00    -0.235 C  
BRANCH  13  14
HETATM   14  C   UNL     1     -11.156  16.746  69.413  1.00  0.00    -0.083 C  
BRANCH  14  15
HETATM   15  C   UNL     1     -10.244  17.920  69.049  1.00  0.00    -0.274 C  
BRANCH  15  16
HETATM   16  C   UNL     1     -10.010  18.013  67.539  1.00  0.00    -0.327 C  
BRANCH  16  17
HETATM   17  N   UNL     1      -8.564  18.349  67.152  1.00  0.00    -0.257 N  
HETATM   18  C   UNL     1      -7.777  18.866  68.345  1.00  0.00    -0.319 C  
HETATM   19  C   UNL     1      -8.622  19.451  66.089  1.00  0.00    -0.284 C  
HETATM   20  C   UNL     1      -7.861  17.140  66.544  1.00  0.00    -0.290 C  
ENDBRANCH  16  17
ENDBRANCH  15  16
ENDBRANCH  14  15
ENDBRANCH  13  14
ENDBRANCH  12  13
ENDBRANCH  11  12
ENDBRANCH  10  11
ENDBRANCH   9  10
ENDBRANCH   8   9
ENDBRANCH   7   8
ENDBRANCH   6   7
ENDBRANCH   5   6
ENDBRANCH   4   5
ENDBRANCH   3   4
ENDBRANCH   2   3
TORSDOF 15
ENDMDL
MODEL      328
REMARK 921   NORMALIZED FREE ENERGY PREDICTED BY IDOCK:   -1.75 KCAL/MOL
REMARK 922        TOTAL FREE ENERGY PREDICTED BY IDOCK:   -4.97 KCAL/MOL
REMARK 923 INTER-LIGAND FREE ENERGY PREDICTED BY IDOCK:   -3.94 KCAL/MOL
REMARK 924 INTRA-LIGAND FREE ENERGY PREDICTED BY IDOCK:   -1.03 KCAL/MOL
REMARK 927      BINDING AFFINITY PREDICTED BY RF-SCORE:    0.00 PKD
ROOT
HETATM    1  C   UNL     1     -11.437  16.101  69.293  1.00  0.00    -0.304 C  
HETATM    2  C   UNL     1     -10.154  15.288  69.312  1.00  0.00    -0.252 C  
ENDROOT
BRANCH   2   3
HETATM    3  C   UNL     1      -9.476  15.305  67.946  1.00  0.00    -0.197 C  
BRANCH   3   4
HETATM    4  C   UNL     1     -10.502  15.446  66.826  1.00  0.00    -0.299 C  
BRANCH   4   5
HETATM    5  C   UNL     1     -10.296  14.366  65.770  1.00  0.00    -0.340 C  
BRANCH   5   6
HETATM    6  C   UNL     1     -11.329  13.259  65.924  1.00  0.00    -0.333 C  
BRANCH   6   7
HETATM    7  C   UNL     1     -10.711  12.037  66.592  1.00  0.00    -0.280 C  
BRANCH   7   8
HETATM    8  C   UNL     1     -10.600  10.893  65.595  1.00  0.00    -0.233 C  
BRANCH   8   9
HETATM    9  C   UNL     1      -9.470  11.145  64.611  1.00  0.00    -0.245 C  
BRANCH   9  10
HETATM   10  C   UNL     1      -9.374   9.991  63.623  1.00  0.00    -0.301 C  
BRANCH  10  11
HETATM   11  C   UNL     1      -7.925   9.597  63.405  1.00  0.00    -0.145 C  
BRANCH  11  12
HETATM   12  C   UNL     1      -7.311   9.068  64.695  1.00  0.00    -0.098 C  
BRANCH  12  13
HETATM   13  C   UNL     1      -7.597   7.582  64.818  1.00  0.00    -0.102 C  
BRANCH  13  14
HETATM   14  C   UNL     1      -8.705   7.299  65.827  1.00  0.00    -0.129 C  
BRANCH  14  15
HETATM   15  C   UNL     1      -8.465   8.019  67.155  1.00  0.00    -0.124 C  
BRANCH  15  16
HETATM   16  C   UNL     1      -9.195   7.336  68.315  1.00  0.00    -0.133 C  
BRANCH  16  17
HETATM   17  N   UNL     1      -8.361   6.268  69.033  1.00  0.00    -0.116 N  
HETATM   18  C   UNL     1      -9.121   5.665  70.203  1.00  0.00    -0.138 C  
HETATM   19  C   UNL     1      -7.103   6.958  69.571  1.00  0.00    -0.075 C  
HETATM   20  C   UNL     1      -7.924   5.170  68.070  1.00  0.00    -0.091 C  
ENDBRANCH  16  17
ENDBRANCH  15  16
ENDBRANCH  14  15
ENDBRANCH  13  14
ENDBRANCH  12  13
ENDBRANCH  11  12
ENDBRANCH  10  11
ENDBRANCH   9  10
ENDBRANCH   8   9
ENDBRANCH   7   8
ENDBRANCH   6   7
ENDBRANCH   5   6
ENDBRANCH   4   5
ENDBRANCH   3   4
ENDBRANCH   2   3
TORSDOF 15
ENDMDL
MODEL      329
REMARK 921   NORMALIZED FREE ENERGY PREDICTED BY IDOCK:   -1.64 KCAL/MOL
REMARK 922        TOTAL FREE ENERGY PREDICTED BY IDOCK:   -4.76 KCAL/MOL
REMARK 923 INTER-LIGAND FREE ENERGY PREDICTED BY IDOCK:   -3.45 KCAL/MOL
REMARK 924 INTRA-LIGAND FREE ENERGY PREDICTED BY IDOCK:   -1.31 KCAL/MOL
REMARK 927      BINDING AFFINITY PREDICTED BY RF-SCORE:    0.00 PKD
ROOT
HETATM    1  C   UNL     1     -10.144  11.030  65.443  1.00  0.00    -0.326 C  
HETATM    2  C   UNL     1     -10.188  12.428  66.036  1.00  0.00    -0.267 C  
ENDROOT
BRANCH   2   3
HETATM    3  C   UNL     1     -10.340  12.373  67.553  1.00  0.00    -0.223 C  
BRANCH   3   4
HETATM    4  C   UNL     1     -11.800  12.530  67.963  1.00  0.00    -0.382 C  
BRANCH   4   5
HETATM    5  C   UNL     1     -12.238  11.368  68.848  1.00  0.00    -0.153 C  
BRANCH   5   6
HETATM    6  C   UNL     1     -11.293  11.207  70.031  1.00  0.00    -0.326 C  
BRANCH   6   7
HETATM    7  C   UNL     1     -11.259   9.757  70.497  1.00  0.00    -0.381 C  
BRANCH   7   8
HETATM    8  C   UNL     1     -10.040   9.050  69.926  1.00  0.00    -0.213 C  
BRANCH   8   9
HETATM    9  C   UNL     1      -8.928  10.045  69.636  1.00  0.00    -0.221 C  
BRANCH   9  10
HETATM   10  C   UNL     1      -7.574   9.365  69.772  1.00  0.00    -0.095 C  
BRANCH  10  11
HETATM   11  C   UNL     1      -7.732   7.856  69.749  1.00  0.00    -0.099 C  
BRANCH  11  12
HETATM   12  C   UNL     1      -6.614   7.185  70.536  1.00  0.00    -0.048 C  
BRANCH  12  13
HETATM   13  C   UNL     1      -6.242   5.873  69.866  1.00  0.00    -0.027 C  
BRANCH  13  14
HETATM   14  C   UNL     1      -6.386   5.951  68.349  1.00  0.00    -0.044 C  
BRANCH  14  15
HETATM   15  C   UNL     1      -7.167   4.760  67.789  1.00  0.00    -0.066 C  
BRANCH  15  16
HETATM   16  C   UNL     1      -8.382   5.209  66.973  1.00  0.00    -0.107 C  
BRANCH  16  17
HETATM   17  N   UNL     1      -8.302   4.845  65.485  1.00  0.00    -0.119 N  
HETATM   18  C   UNL     1      -9.634   4.326  64.968  1.00  0.00    -0.177 C  
HETATM   19  C   UNL     1      -7.256   3.734  65.343  1.00  0.00    -0.067 C  
HETATM   20  C   UNL     1      -7.844   6.036  64.650  1.00  0.00    -0.112 C  
ENDBRANCH  16  17
ENDBRANCH  15  16
ENDBRANCH  14  15
ENDBRANCH  13  14
ENDBRANCH  12  13
ENDBRANCH  11  12
ENDBRANCH  10  11
ENDBRANCH   9  10
ENDBRANCH   8   9
ENDBRANCH   7   8
ENDBRANCH   6   7
ENDBRANCH   5   6
ENDBRANCH   4   5
ENDBRANCH   3   4
ENDBRANCH   2   3
TORSDOF 15
ENDMDL
MODEL      330
REMARK 921   NORMALIZED FREE ENERGY PREDICTED BY IDOCK:   -1.14 KCAL/MOL
REMARK 922        TOTAL FREE ENERGY PREDICTED BY IDOCK:   -3.84 KCAL/MOL
REMARK 923 INTER-LIGAND FREE ENERGY PREDICTED BY IDOCK:   -3.33 KCAL/MOL
REMARK 924 INTRA-LIGAND FREE ENERGY PREDICTED BY IDOCK:   -0.51 KCAL/MOL
REMARK 927      BINDING AFFINITY PREDICTED BY RF-SCORE:    0.00 PKD
ROOT
HETATM    1  C   UNL     1     -12.064  14.312  66.825  1.00  0.00    -0.446 C  
HETATM    2  C   UNL     1     -12.263  13.281  65.728  1.00  0.00    -0.510 C  
ENDROOT
BRANCH   2   3
HETATM    3  C   UNL     1     -11.009  12.434  65.539  1.00  0.00    -0.328 C  
BRANCH   3   4
HETATM    4  C   UNL     1     -11.019  11.225  66.468  1.00  0.00    -0.303 C  
BRANCH   4   5
HETATM    5  C   UNL     1     -10.042  11.425  67.621  1.00  0.00    -0.200 C  
BRANCH   5   6
HETATM    6  C   UNL     1      -8.612  11.507  67.106  1.00  0.00    -0.155 C  
BRANCH   6   7
HETATM    7  C   UNL     1      -7.900  12.722  67.688  1.00  0.00    -0.165 C  
BRANCH   7   8
HETATM    8  C   UNL     1      -8.863  13.540  68.534  1.00  0.00    -0.086 C  
BRANCH   8   9
HETATM    9  C   UNL     1      -8.949  14.969  68.020  1.00  0.00    -0.173 C  
BRANCH   9  10
HETATM   10  C   UNL     1      -7.849  15.219  66.997  1.00  0.00    -0.224 C  
BRANCH  10  11
HETATM   11  C   UNL     1      -8.189  16.420  66.134  1.00  0.00    -0.250 C  
BRANCH  11  12
HETATM   12  C   UNL     1      -9.283  17.258  66.783  1.00  0.00    -0.270 C  
BRANCH  12  13
HETATM   13  C   UNL     1      -8.765  18.666  67.022  1.00  0.00    -0.285 C  
BRANCH  13  14
HETATM   14  C   UNL     1      -7.433  18.661  67.765  1.00  0.00    -0.241 C  
BRANCH  14  15
HETATM   15  C   UNL     1      -6.970  20.077  68.115  1.00  0.00    -0.330 C  
BRANCH  15  16
HETATM   16  C   UNL     1      -5.841  20.069  69.150  1.00  0.00    -0.274 C  
BRANCH  16  17
HETATM   17  N   UNL     1      -6.130  19.200  70.380  1.00  0.00    -0.146 N  
HETATM   18  C   UNL     1      -5.638  17.775  70.181  1.00  0.00    -0.242 C  
HETATM   19  C   UNL     1      -7.651  19.169  70.568  1.00  0.00     1.697 C  
HETATM   20  C   UNL     1      -5.509  19.799  71.636  1.00  0.00    -0.396 C  
ENDBRANCH  16  17
ENDBRANCH  15  16
ENDBRANCH  14  15
ENDBRANCH  13  14
ENDBRANCH  12  13
ENDBRANCH  11  12
ENDBRANCH  10  11
ENDBRANCH   9  10
ENDBRANCH   8   9
ENDBRANCH   7   8
ENDBRANCH   6   7
ENDBRANCH   5   6
ENDBRANCH   4   5
ENDBRANCH   3   4
ENDBRANCH   2   3
TORSDOF 15
ENDMDL
MODEL      331
REMARK 921   NORMALIZED FREE ENERGY PREDICTED BY IDOCK:    2.19 KCAL/MOL
REMARK 922        TOTAL FREE ENERGY PREDICTED BY IDOCK:    2.41 KCAL/MOL
REMARK 923 INTER-LIGAND FREE ENERGY PREDICTED BY IDOCK:   -2.10 KCAL/MOL
REMARK 924 INTRA-LIGAND FREE ENERGY PREDICTED BY IDOCK:    4.51 KCAL/MOL
REMARK 927      BINDING AFFINITY PREDICTED BY RF-SCORE:    0.00 PKD
ROOT
HETATM    1  C   UNL     1      -6.344   6.186  72.037  1.00  0.00    -0.046 C  
HETATM    2  C   UNL     1      -6.281   7.409  72.936  1.00  0.00    -0.055 C  
ENDROOT
BRANCH   2   3
HETATM    3  C   UNL     1      -7.185   8.520  72.410  1.00  0.00    -0.080 C  
BRANCH   3   4
HETATM    4  C   UNL     1      -6.405   9.490  71.529  1.00  0.00     0.066 C  
BRANCH   4   5
HETATM    5  C   UNL     1      -5.771   8.756  70.352  1.00  0.00    -0.027 C  
BRANCH   5   6
HETATM    6  C   UNL     1      -5.778   9.631  69.107  1.00  0.00    -0.035 C  
BRANCH   6   7
HETATM    7  C   UNL     1      -5.440  11.074  69.462  1.00  0.00    -0.042 C  
BRANCH   7   8
HETATM    8  C   UNL     1      -6.712  11.856  69.751  1.00  0.00     0.046 C  
BRANCH   8   9
HETATM    9  C   UNL     1      -7.819  11.455  68.788  1.00  0.00    -0.128 C  
BRANCH   9  10
HETATM   10  C   UNL     1      -7.748  12.310  67.531  1.00  0.00    -0.158 C  
BRANCH  10  11
HETATM   11  C   UNL     1      -9.125  12.456  66.909  1.00  0.00    -0.211 C  
BRANCH  11  12
HETATM   12  C   UNL     1      -9.561  13.915  66.904  1.00  0.00    -0.271 C  
BRANCH  12  13
HETATM   13  C   UNL     1      -8.410  14.788  67.371  1.00  0.00    -0.218 C  
BRANCH  13  14
HETATM   14  C   UNL     1      -7.147  13.972  67.627  1.00  0.00    -0.193 C  
BRANCH  14  15
HETATM   15  C   UNL     1      -6.016  14.834  68.194  1.00  0.00    -0.146 C  
BRANCH  15  16
HETATM   16  C   UNL     1      -6.431  15.541  69.486  1.00  0.00    -0.165 C  
BRANCH  16  17
HETATM   17  N   UNL     1      -6.137  17.046  69.495  1.00  0.00    -0.223 N  
HETATM   18  C   UNL     1      -5.406  17.462  70.761  1.00  0.00    -0.216 C  
HETATM   19  C   UNL     1      -7.485  17.775  69.447  1.00  0.00     0.141 C  
HETATM   20  C   UNL     1      -5.333  17.458  68.266  1.00  0.00    -0.141 C  
ENDBRANCH  16  17
ENDBRANCH  15  16
ENDBRANCH  14  15
ENDBRANCH  13  14
ENDBRANCH  12  13
ENDBRANCH  11  12
ENDBRANCH  10  11
ENDBRANCH   9  10
ENDBRANCH   8   9
ENDBRANCH   7   8
ENDBRANCH   6   7
ENDBRANCH   5   6
ENDBRANCH   4   5
ENDBRANCH   3   4
ENDBRANCH   2   3
TORSDOF 15
ENDMDL
MODEL      332
REMARK 921   NORMALIZED FREE ENERGY PREDICTED BY IDOCK:    3.48 KCAL/MOL
REMARK 922        TOTAL FREE ENERGY PREDICTED BY IDOCK:    4.84 KCAL/MOL
REMARK 923 INTER-LIGAND FREE ENERGY PREDICTED BY IDOCK:   -1.80 KCAL/MOL
REMARK 924 INTRA-LIGAND FREE ENERGY PREDICTED BY IDOCK:    6.64 KCAL/MOL
REMARK 927      BINDING AFFINITY PREDICTED BY RF-SCORE:    0.00 PKD
ROOT
HETATM    1  C   UNL     1      -6.449   6.554  72.058  1.00  0.00    -0.054 C  
HETATM    2  C   UNL     1      -6.441   7.842  72.863  1.00  0.00    -0.067 C  
ENDROOT
BRANCH   2   3
HETATM    3  C   UNL     1      -7.316   8.903  72.205  1.00  0.00     0.093 C  
BRANCH   3   4
HETATM    4  C   UNL     1      -6.515   9.731  71.205  1.00  0.00     0.105 C  
BRANCH   4   5
HETATM    5  C   UNL     1      -5.736   8.824  70.258  1.00  0.00    -0.027 C  
BRANCH   5   6
HETATM    6  C   UNL     1      -5.554   9.492  68.903  1.00  0.00    -0.036 C  
BRANCH   6   7
HETATM    7  C   UNL     1      -5.216  10.968  69.072  1.00  0.00    -0.041 C  
BRANCH   7   8
HETATM    8  C   UNL     1      -6.476  11.765  69.374  1.00  0.00    -0.120 C  
BRANCH   8   9
HETATM    9  C   UNL     1      -7.711  11.016  68.899  1.00  0.00    -0.140 C  
BRANCH   9  10
HETATM   10  C   UNL     1      -7.781  11.042  67.379  1.00  0.00    -0.114 C  
BRANCH  10  11
HETATM   11  C   UNL     1      -8.176   9.679  66.842  1.00  0.00    -0.113 C  
BRANCH  11  12
HETATM   12  C   UNL     1      -9.542   9.739  66.171  1.00  0.00    -0.287 C  
BRANCH  12  13
HETATM   13  C   UNL     1     -10.128  11.129  66.344  1.00  0.00    -0.269 C  
BRANCH  13  14
HETATM   14  C   UNL     1      -9.117  12.100  66.944  1.00  0.00    -0.203 C  
BRANCH  14  15
HETATM   15  C   UNL     1      -9.791  13.362  67.488  1.00  0.00    -0.227 C  
BRANCH  15  16
HETATM   16  C   UNL     1     -10.420  13.124  68.864  1.00  0.00    -0.092 C  
BRANCH  16  17
HETATM   17  N   UNL     1     -11.948  13.252  68.881  1.00  0.00    -0.319 N  
HETATM   18  C   UNL     1     -12.406  14.308  69.873  1.00  0.00    -0.324 C  
HETATM   19  C   UNL     1     -12.514  11.895  69.316  1.00  0.00     0.251 C  
HETATM   20  C   UNL     1     -12.491  13.567  67.492  1.00  0.00     0.183 C  
ENDBRANCH  16  17
ENDBRANCH  15  16
ENDBRANCH  14  15
ENDBRANCH  13  14
ENDBRANCH  12  13
ENDBRANCH  11  12
ENDBRANCH  10  11
ENDBRANCH   9  10
ENDBRANCH   8   9
ENDBRANCH   7   8
ENDBRANCH   6   7
ENDBRANCH   5   6
ENDBRANCH   4   5
ENDBRANCH   3   4
ENDBRANCH   2   3
TORSDOF 15
ENDMDL
MODEL      333
REMARK 921   NORMALIZED FREE ENERGY PREDICTED BY IDOCK:    3.63 KCAL/MOL
REMARK 922        TOTAL FREE ENERGY PREDICTED BY IDOCK:    5.11 KCAL/MOL
REMARK 923 INTER-LIGAND FREE ENERGY PREDICTED BY IDOCK:   -0.23 KCAL/MOL
REMARK 924 INTRA-LIGAND FREE ENERGY PREDICTED BY IDOCK:    5.35 KCAL/MOL
REMARK 927      BINDING AFFINITY PREDICTED BY RF-SCORE:    0.00 PKD
ROOT
HETATM    1  C   UNL     1      -6.451   6.557  72.072  1.00  0.00    -0.054 C  
HETATM    2  C   UNL     1      -6.429   7.782  72.971  1.00  0.00    -0.067 C  
ENDROOT
BRANCH   2   3
HETATM    3  C   UNL     1      -7.354   8.869  72.436  1.00  0.00     0.169 C  
BRANCH   3   4
HETATM    4  C   UNL     1      -6.615   9.792  71.472  1.00  0.00     0.313 C  
BRANCH   4   5
HETATM    5  C   UNL     1      -5.892   8.982  70.401  1.00  0.00    -0.031 C  
BRANCH   5   6
HETATM    6  C   UNL     1      -5.817   9.763  69.096  1.00  0.00    -0.034 C  
BRANCH   6   7
HETATM    7  C   UNL     1      -5.471  11.222  69.363  1.00  0.00    -0.045 C  
BRANCH   7   8
HETATM    8  C   UNL     1      -6.680  11.955  69.925  1.00  0.00     0.119 C  
BRANCH   8   9
HETATM    9  C   UNL     1      -7.961  11.204  69.601  1.00  0.00     0.375 C  
BRANCH   9  10
HETATM   10  C   UNL     1      -8.298  11.366  68.125  1.00  0.00    -0.149 C  
BRANCH  10  11
HETATM   11  C   UNL     1      -8.728  10.038  67.529  1.00  0.00    -0.125 C  
BRANCH  11  12
HETATM   12  C   UNL     1     -10.207  10.064  67.168  1.00  0.00    -0.284 C  
BRANCH  12  13
HETATM   13  C   UNL     1     -11.029  10.320  68.419  1.00  0.00    -0.308 C  
BRANCH  13  14
HETATM   14  C   UNL     1     -10.147  10.669  69.614  1.00  0.00    -0.120 C  
BRANCH  14  15
HETATM   15  C   UNL     1     -10.891  10.501  70.941  1.00  0.00     0.396 C  
BRANCH  15  16
HETATM   16  C   UNL     1     -10.937   9.037  71.387  1.00  0.00    -0.324 C  
BRANCH  16  17
HETATM   17  N   UNL     1     -12.349   8.438  71.417  1.00  0.00    -0.304 N  
HETATM   18  C   UNL     1     -12.702   7.918  72.801  1.00  0.00     0.269 C  
HETATM   19  C   UNL     1     -12.366   7.263  70.433  1.00  0.00     0.102 C  
HETATM   20  C   UNL     1     -13.388   9.455  70.958  1.00  0.00    -0.126 C  
ENDBRANCH  16  17
ENDBRANCH  15  16
ENDBRANCH  14  15
ENDBRANCH  13  14
ENDBRANCH  12  13
ENDBRANCH  11  12
ENDBRANCH  10  11
ENDBRANCH   9  10
ENDBRANCH   8   9
ENDBRANCH   7   8
ENDBRANCH   6   7
ENDBRANCH   5   6
ENDBRANCH   4   5
ENDBRANCH   3   4
ENDBRANCH   2   3
TORSDOF 15
ENDMDL
MODEL      334
REMARK 921   NORMALIZED FREE ENERGY PREDICTED BY IDOCK:    8.81 KCAL/MOL
REMARK 922        TOTAL FREE ENERGY PREDICTED BY IDOCK:   14.84 KCAL/MOL
REMARK 923 INTER-LIGAND FREE ENERGY PREDICTED BY IDOCK:   10.99 KCAL/MOL
REMARK 924 INTRA-LIGAND FREE ENERGY PREDICTED BY IDOCK:    3.86 KCAL/MOL
REMARK 927      BINDING AFFINITY PREDICTED BY RF-SCORE:    0.00 PKD
ROOT
HETATM    1  C   UNL     1      -6.498   6.634  72.099  1.00  0.00    -0.054 C  
HETATM    2  C   UNL     1      -6.664   7.711  73.157  1.00  0.00    -0.074 C  
ENDROOT
BRANCH   2   3
HETATM    3  C   UNL     1      -7.644   8.784  72.696  1.00  0.00     0.124 C  
BRANCH   3   4
HETATM    4  C   UNL     1      -6.912   9.949  72.037  1.00  0.00     1.400 C  
BRANCH   4   5
HETATM    5  C   UNL     1      -5.886   9.439  71.031  1.00  0.00    -0.065 C  
BRANCH   5   6
HETATM    6  C   UNL     1      -5.663  10.461  69.926  1.00  0.00    -0.050 C  
BRANCH   6   7
HETATM    7  C   UNL     1      -5.670  11.875  70.493  1.00  0.00    -0.156 C  
BRANCH   7   8
HETATM    8  C   UNL     1      -7.084  12.276  70.887  1.00  0.00     3.593 C  
BRANCH   8   9
HETATM    9  C   UNL     1      -8.103  11.346  70.250  1.00  0.00     2.516 C  
BRANCH   9  10
HETATM   10  C   UNL     1      -8.052  11.480  68.735  1.00  0.00    -0.093 C  
BRANCH  10  11
HETATM   11  C   UNL     1      -8.165  10.118  68.077  1.00  0.00    -0.113 C  
BRANCH  11  12
HETATM   12  C   UNL     1      -9.533   9.944  67.429  1.00  0.00    -0.173 C  
BRANCH  12  13
HETATM   13  C   UNL     1      -9.356   9.570  65.968  1.00  0.00    -0.273 C  
BRANCH  13  14
HETATM   14  C   UNL     1      -7.884   9.443  65.589  1.00  0.00    -0.099 C  
BRANCH  14  15
HETATM   15  C   UNL     1      -7.445   7.980  65.488  1.00  0.00    -0.081 C  
BRANCH  15  16
HETATM   16  C   UNL     1      -7.955   7.320  64.205  1.00  0.00    -0.084 C  
BRANCH  16  17
HETATM   17  N   UNL     1      -9.003   6.225  64.441  1.00  0.00     0.520 N  
HETATM   18  C   UNL     1      -9.402   5.549  63.140  1.00  0.00     0.725 C  
HETATM   19  C   UNL     1     -10.241   6.902  65.040  1.00  0.00     3.563 C  
HETATM   20  C   UNL     1      -8.501   5.188  65.439  1.00  0.00    -0.141 C  
ENDBRANCH  16  17
ENDBRANCH  15  16
ENDBRANCH  14  15
ENDBRANCH  13  14
ENDBRANCH  12  13
ENDBRANCH  11  12
ENDBRANCH  10  11
ENDBRANCH   9  10
ENDBRANCH   8   9
ENDBRANCH   7   8
ENDBRANCH   6   7
ENDBRANCH   5   6
ENDBRANCH   4   5
ENDBRANCH   3   4
ENDBRANCH   2   3
TORSDOF 15
ENDMDL
MODEL      335
REMARK 921   NORMALIZED FREE ENERGY PREDICTED BY IDOCK:    9.68 KCAL/MOL
REMARK 922        TOTAL FREE ENERGY PREDICTED BY IDOCK:   16.47 KCAL/MOL
REMARK 923 INTER-LIGAND FREE ENERGY PREDICTED BY IDOCK:    5.29 KCAL/MOL
REMARK 924 INTRA-LIGAND FREE ENERGY PREDICTED BY IDOCK:   11.18 KCAL/MOL
REMARK 927      BINDING AFFINITY PREDICTED BY RF-SCORE:    0.00 PKD
ROOT
HETATM    1  C   UNL     1      -6.102   5.730  72.678  1.00  0.00    -0.041 C  
HETATM    2  C   UNL     1      -6.249   6.722  73.818  1.00  0.00    -0.064 C  
ENDROOT
BRANCH   2   3
HETATM    3  C   UNL     1      -7.213   7.843  73.446  1.00  0.00    -0.136 C  
BRANCH   3   4
HETATM    4  C   UNL     1      -6.463   9.047  72.885  1.00  0.00     0.163 C  
BRANCH   4   5
HETATM    5  C   UNL     1      -5.409   8.602  71.877  1.00  0.00    -0.042 C  
BRANCH   5   6
HETATM    6  C   UNL     1      -5.174   9.683  70.831  1.00  0.00    -0.045 C  
BRANCH   6   7
HETATM    7  C   UNL     1      -5.219  11.066  71.469  1.00  0.00     0.006 C  
BRANCH   7   8
HETATM    8  C   UNL     1      -6.550  11.278  72.173  1.00  0.00     4.207 C  
BRANCH   8   9
HETATM    9  C   UNL     1      -7.473  10.091  71.945  1.00  0.00     2.328 C  
BRANCH   9  10
HETATM   10  C   UNL     1      -7.682   9.876  70.453  1.00  0.00    -0.094 C  
BRANCH  10  11
HETATM   11  C   UNL     1      -7.571   8.403  70.107  1.00  0.00    -0.070 C  
BRANCH  11  12
HETATM   12  C   UNL     1      -8.939   7.821  69.777  1.00  0.00    -0.146 C  
BRANCH  12  13
HETATM   13  C   UNL     1      -8.892   7.168  68.407  1.00  0.00    -0.127 C  
BRANCH  13  14
HETATM   14  C   UNL     1      -7.506   7.268  67.777  1.00  0.00    -0.102 C  
BRANCH  14  15
HETATM   15  C   UNL     1      -6.737   5.949  67.879  1.00  0.00    -0.058 C  
BRANCH  15  16
HETATM   16  C   UNL     1      -7.250   4.911  66.877  1.00  0.00    -0.077 C  
BRANCH  16  17
HETATM   17  N   UNL     1      -8.014   3.748  67.522  1.00  0.00    -0.089 N  
HETATM   18  C   UNL     1      -7.817   3.722  69.029  1.00  0.00    -0.052 C  
HETATM   19  C   UNL     1      -7.451   2.450  66.933  1.00  0.00    -0.065 C  
HETATM   20  C   UNL     1      -9.501   3.813  67.189  1.00  0.00    -0.202 C  
ENDBRANCH  16  17
ENDBRANCH  15  16
ENDBRANCH  14  15
ENDBRANCH  13  14
ENDBRANCH  12  13
ENDBRANCH  11  12
ENDBRANCH  10  11
ENDBRANCH   9  10
ENDBRANCH   8   9
ENDBRANCH   7   8
ENDBRANCH   6   7
ENDBRANCH   5   6
ENDBRANCH   4   5
ENDBRANCH   3   4
ENDBRANCH   2   3
TORSDOF 15
ENDMDL
