MODEL        1
REMARK 921   NORMALIZED FREE ENERGY PREDICTED BY IDOCK:   -4.55 KCAL/MOL
REMARK 922        TOTAL FREE ENERGY PREDICTED BY IDOCK:   -9.65 KCAL/MOL
REMARK 923 INTER-LIGAND FREE ENERGY PREDICTED BY IDOCK:   -8.27 KCAL/MOL
REMARK 924 INTRA-LIGAND FREE ENERGY PREDICTED BY IDOCK:   -1.38 KCAL/MOL
REMARK 927      BINDING AFFINITY PREDICTED BY RF-SCORE:    0.00 PKD
ROOT
HETATM    1  C   UNL     1     -12.383  15.237  73.761  1.00  0.00    -0.731 C  
HETATM    2  C   UNL     1     -13.591  15.387  72.853  1.00  0.00    -0.609 C  
ENDROOT
BRANCH   2   3
HETATM    3  C   UNL     1     -13.181  15.375  71.382  1.00  0.00    -0.578 C  
BRANCH   3   4
HETATM    4  C   UNL     1     -11.665  15.482  71.227  1.00  0.00    -0.457 C  
BRANCH   4   5
HETATM    5  C   UNL     1     -11.206  14.860  69.911  1.00  0.00    -0.307 C  
BRANCH   5   6
HETATM    6  C   UNL     1     -12.003  13.600  69.591  1.00  0.00    -0.402 C  
BRANCH   6   7
HETATM    7  C   UNL     1     -11.467  12.921  68.333  1.00  0.00    -0.347 C  
BRANCH   7   8
HETATM    8  C   UNL     1      -9.944  13.005  68.274  1.00  0.00    -0.235 C  
BRANCH   8   9
HETATM    9  C   UNL     1      -9.405  12.260  67.056  1.00  0.00    -0.205 C  
BRANCH   9  10
HETATM   10  C   UNL     1     -10.489  11.388  66.429  1.00  0.00    -0.299 C  
BRANCH  10  11
HETATM   11  C   UNL     1     -10.197  11.130  64.954  1.00  0.00    -0.361 C  
BRANCH  11  12
HETATM   12  C   UNL     1     -10.335  12.413  64.139  1.00  0.00    -0.409 C  
BRANCH  12  13
HETATM   13  C   UNL     1     -11.795  12.684  63.786  1.00  0.00    -0.574 C  
BRANCH  13  14
HETATM   14  C   UNL     1     -12.170  14.133  64.087  1.00  0.00    -0.423 C  
BRANCH  14  15
HETATM   15  C   UNL     1     -11.301  14.707  65.202  1.00  0.00    -0.375 C  
BRANCH  15  16
HETATM   16  C   UNL     1     -11.023  16.186  64.985  1.00  0.00    -0.344 C  
HETATM   17  O   UNL     1     -11.535  16.591  63.724  1.00  0.00    -1.615 OA 
HETATM   18  H   UNL     1     -11.361  17.515  63.588  1.00  0.00     0.000 HD 
ENDBRANCH  15  16
ENDBRANCH  14  15
ENDBRANCH  13  14
ENDBRANCH  12  13
ENDBRANCH  11  12
ENDBRANCH  10  11
ENDBRANCH   9  10
ENDBRANCH   8   9
ENDBRANCH   7   8
ENDBRANCH   6   7
ENDBRANCH   5   6
ENDBRANCH   4   5
ENDBRANCH   3   4
ENDBRANCH   2   3
TORSDOF 14
ENDMDL
MODEL        2
REMARK 921   NORMALIZED FREE ENERGY PREDICTED BY IDOCK:   -4.46 KCAL/MOL
REMARK 922        TOTAL FREE ENERGY PREDICTED BY IDOCK:   -9.49 KCAL/MOL
REMARK 923 INTER-LIGAND FREE ENERGY PREDICTED BY IDOCK:   -8.00 KCAL/MOL
REMARK 924 INTRA-LIGAND FREE ENERGY PREDICTED BY IDOCK:   -1.49 KCAL/MOL
REMARK 927      BINDING AFFINITY PREDICTED BY RF-SCORE:    0.00 PKD
ROOT
HETATM    1  C   UNL     1     -10.654  16.288  67.859  1.00  0.00    -0.318 C  
HETATM    2  C   UNL     1     -10.537  15.570  69.192  1.00  0.00    -0.234 C  
ENDROOT
BRANCH   2   3
HETATM    3  C   UNL     1     -11.842  15.653  69.981  1.00  0.00    -0.381 C  
BRANCH   3   4
HETATM    4  C   UNL     1     -11.578  15.746  71.482  1.00  0.00    -0.531 C  
BRANCH   4   5
HETATM    5  C   UNL     1     -12.888  15.839  72.262  1.00  0.00    -0.525 C  
BRANCH   5   6
HETATM    6  C   UNL     1     -13.134  14.571  73.073  1.00  0.00    -0.611 C  
BRANCH   6   7
HETATM    7  C   UNL     1     -14.003  13.587  72.293  1.00  0.00    -0.638 C  
BRANCH   7   8
HETATM    8  C   UNL     1     -13.309  12.235  72.155  1.00  0.00    -0.473 C  
BRANCH   8   9
HETATM    9  C   UNL     1     -12.544  12.148  70.838  1.00  0.00    -0.340 C  
BRANCH   9  10
HETATM   10  C   UNL     1     -12.159  10.706  70.526  1.00  0.00    -0.448 C  
BRANCH  10  11
HETATM   11  C   UNL     1     -11.542  10.593  69.135  1.00  0.00    -0.342 C  
BRANCH  11  12
HETATM   12  C   UNL     1     -11.062  11.954  68.639  1.00  0.00    -0.295 C  
BRANCH  12  13
HETATM   13  C   UNL     1     -11.018  11.998  67.114  1.00  0.00    -0.320 C  
BRANCH  13  14
HETATM   14  C   UNL     1     -11.926  13.100  66.573  1.00  0.00    -0.459 C  
BRANCH  14  15
HETATM   15  C   UNL     1     -12.446  12.752  65.182  1.00  0.00    -0.565 C  
BRANCH  15  16
HETATM   16  C   UNL     1     -11.647  13.459  64.097  1.00  0.00    -0.398 C  
HETATM   17  O   UNL     1     -12.523  13.932  63.086  1.00  0.00    -1.121 OA 
HETATM   18  H   UNL     1     -12.025  14.374  62.408  1.00  0.00     0.000 HD 
ENDBRANCH  15  16
ENDBRANCH  14  15
ENDBRANCH  13  14
ENDBRANCH  12  13
ENDBRANCH  11  12
ENDBRANCH  10  11
ENDBRANCH   9  10
ENDBRANCH   8   9
ENDBRANCH   7   8
ENDBRANCH   6   7
ENDBRANCH   5   6
ENDBRANCH   4   5
ENDBRANCH   3   4
ENDBRANCH   2   3
TORSDOF 14
ENDMDL
MODEL        3
REMARK 921   NORMALIZED FREE ENERGY PREDICTED BY IDOCK:   -4.41 KCAL/MOL
REMARK 922        TOTAL FREE ENERGY PREDICTED BY IDOCK:   -9.40 KCAL/MOL
REMARK 923 INTER-LIGAND FREE ENERGY PREDICTED BY IDOCK:   -8.17 KCAL/MOL
REMARK 924 INTRA-LIGAND FREE ENERGY PREDICTED BY IDOCK:   -1.22 KCAL/MOL
REMARK 927      BINDING AFFINITY PREDICTED BY RF-SCORE:    0.00 PKD
ROOT
HETATM    1  C   UNL     1     -12.316   8.272  72.153  1.00  0.00    -0.410 C  
HETATM    2  C   UNL     1     -11.109   9.092  71.729  1.00  0.00    -0.444 C  
ENDROOT
BRANCH   2   3
HETATM    3  C   UNL     1     -11.483  10.111  70.655  1.00  0.00    -0.432 C  
BRANCH   3   4
HETATM    4  C   UNL     1     -12.797  10.813  70.990  1.00  0.00    -0.480 C  
BRANCH   4   5
HETATM    5  C   UNL     1     -12.583  12.312  71.183  1.00  0.00    -0.353 C  
BRANCH   5   6
HETATM    6  C   UNL     1     -13.562  12.879  72.206  1.00  0.00    -0.611 C  
BRANCH   6   7
HETATM    7  C   UNL     1     -13.140  14.279  72.645  1.00  0.00    -0.567 C  
BRANCH   7   8
HETATM    8  C   UNL     1     -13.078  15.230  71.453  1.00  0.00    -0.529 C  
BRANCH   8   9
HETATM    9  C   UNL     1     -11.696  15.864  71.335  1.00  0.00    -0.530 C  
BRANCH   9  10
HETATM   10  C   UNL     1     -11.366  16.185  69.881  1.00  0.00    -0.318 C  
BRANCH  10  11
HETATM   11  C   UNL     1     -12.058  15.206  68.936  1.00  0.00    -0.227 C  
BRANCH  11  12
HETATM   12  C   UNL     1     -11.066  14.184  68.388  1.00  0.00    -0.273 C  
BRANCH  12  13
HETATM   13  C   UNL     1     -11.695  13.355  67.271  1.00  0.00    -0.424 C  
BRANCH  13  14
HETATM   14  C   UNL     1     -10.867  13.446  65.991  1.00  0.00    -0.281 C  
BRANCH  14  15
HETATM   15  C   UNL     1     -11.607  14.230  64.911  1.00  0.00    -0.384 C  
BRANCH  15  16
HETATM   16  C   UNL     1     -11.249  15.708  64.954  1.00  0.00    -0.369 C  
HETATM   17  O   UNL     1     -11.554  16.312  63.707  1.00  0.00    -1.539 OA 
HETATM   18  H   UNL     1     -11.330  17.235  63.733  1.00  0.00     0.000 HD 
ENDBRANCH  15  16
ENDBRANCH  14  15
ENDBRANCH  13  14
ENDBRANCH  12  13
ENDBRANCH  11  12
ENDBRANCH  10  11
ENDBRANCH   9  10
ENDBRANCH   8   9
ENDBRANCH   7   8
ENDBRANCH   6   7
ENDBRANCH   5   6
ENDBRANCH   4   5
ENDBRANCH   3   4
ENDBRANCH   2   3
TORSDOF 14
ENDMDL
MODEL        4
REMARK 921   NORMALIZED FREE ENERGY PREDICTED BY IDOCK:   -4.40 KCAL/MOL
REMARK 922        TOTAL FREE ENERGY PREDICTED BY IDOCK:   -9.38 KCAL/MOL
REMARK 923 INTER-LIGAND FREE ENERGY PREDICTED BY IDOCK:   -8.44 KCAL/MOL
REMARK 924 INTRA-LIGAND FREE ENERGY PREDICTED BY IDOCK:   -0.94 KCAL/MOL
REMARK 927      BINDING AFFINITY PREDICTED BY RF-SCORE:    0.00 PKD
ROOT
HETATM    1  C   UNL     1     -11.620   8.904  71.954  1.00  0.00    -0.442 C  
HETATM    2  C   UNL     1     -11.989  10.114  71.114  1.00  0.00    -0.480 C  
ENDROOT
BRANCH   2   3
HETATM    3  C   UNL     1     -13.070  10.951  71.796  1.00  0.00    -0.564 C  
BRANCH   3   4
HETATM    4  C   UNL     1     -12.822  12.445  71.599  1.00  0.00    -0.375 C  
BRANCH   4   5
HETATM    5  C   UNL     1     -13.901  13.274  72.291  1.00  0.00    -0.637 C  
BRANCH   5   6
HETATM    6  C   UNL     1     -13.354  14.628  72.732  1.00  0.00    -0.593 C  
BRANCH   6   7
HETATM    7  C   UNL     1     -13.184  15.561  71.536  1.00  0.00    -0.589 C  
BRANCH   7   8
HETATM    8  C   UNL     1     -11.787  16.175  71.517  1.00  0.00    -0.528 C  
BRANCH   8   9
HETATM    9  C   UNL     1     -10.962  15.611  70.364  1.00  0.00    -0.366 C  
BRANCH   9  10
HETATM   10  C   UNL     1     -11.758  15.634  69.063  1.00  0.00    -0.408 C  
BRANCH  10  11
HETATM   11  C   UNL     1     -11.850  14.237  68.454  1.00  0.00    -0.373 C  
BRANCH  11  12
HETATM   12  C   UNL     1     -10.704  13.992  67.477  1.00  0.00    -0.271 C  
BRANCH  12  13
HETATM   13  C   UNL     1     -11.178  13.192  66.266  1.00  0.00    -0.328 C  
BRANCH  13  14
HETATM   14  C   UNL     1     -10.424  13.610  65.006  1.00  0.00    -0.406 C  
BRANCH  14  15
HETATM   15  C   UNL     1     -10.640  12.608  63.876  1.00  0.00    -0.460 C  
BRANCH  15  16
HETATM   16  C   UNL     1     -12.090  12.595  63.415  1.00  0.00    -0.525 C  
HETATM   17  O   UNL     1     -12.463  13.889  62.966  1.00  0.00    -1.099 OA 
HETATM   18  H   UNL     1     -13.368  13.881  62.678  1.00  0.00     0.000 HD 
ENDBRANCH  15  16
ENDBRANCH  14  15
ENDBRANCH  13  14
ENDBRANCH  12  13
ENDBRANCH  11  12
ENDBRANCH  10  11
ENDBRANCH   9  10
ENDBRANCH   8   9
ENDBRANCH   7   8
ENDBRANCH   6   7
ENDBRANCH   5   6
ENDBRANCH   4   5
ENDBRANCH   3   4
ENDBRANCH   2   3
TORSDOF 14
ENDMDL
MODEL        5
REMARK 921   NORMALIZED FREE ENERGY PREDICTED BY IDOCK:   -4.35 KCAL/MOL
REMARK 922        TOTAL FREE ENERGY PREDICTED BY IDOCK:   -9.29 KCAL/MOL
REMARK 923 INTER-LIGAND FREE ENERGY PREDICTED BY IDOCK:   -7.82 KCAL/MOL
REMARK 924 INTRA-LIGAND FREE ENERGY PREDICTED BY IDOCK:   -1.47 KCAL/MOL
REMARK 927      BINDING AFFINITY PREDICTED BY RF-SCORE:    0.00 PKD
ROOT
HETATM    1  C   UNL     1     -12.434  15.509  74.320  1.00  0.00    -0.792 C  
HETATM    2  C   UNL     1     -12.904  14.595  73.202  1.00  0.00    -0.586 C  
ENDROOT
BRANCH   2   3
HETATM    3  C   UNL     1     -13.981  15.267  72.354  1.00  0.00    -0.642 C  
BRANCH   3   4
HETATM    4  C   UNL     1     -13.604  15.266  70.874  1.00  0.00    -0.402 C  
BRANCH   4   5
HETATM    5  C   UNL     1     -12.094  15.401  70.696  1.00  0.00    -0.412 C  
BRANCH   5   6
HETATM    6  C   UNL     1     -11.741  15.754  69.255  1.00  0.00    -0.384 C  
BRANCH   6   7
HETATM    7  C   UNL     1     -11.877  14.534  68.346  1.00  0.00    -0.351 C  
BRANCH   7   8
HETATM    8  C   UNL     1     -11.192  13.317  68.961  1.00  0.00    -0.320 C  
BRANCH   8   9
HETATM    9  C   UNL     1     -11.769  12.024  68.392  1.00  0.00    -0.390 C  
BRANCH   9  10
HETATM   10  C   UNL     1     -12.136  11.054  69.511  1.00  0.00    -0.400 C  
BRANCH  10  11
HETATM   11  C   UNL     1     -12.391  11.799  70.818  1.00  0.00    -0.433 C  
BRANCH  11  12
HETATM   12  C   UNL     1     -13.147  10.917  71.809  1.00  0.00    -0.564 C  
BRANCH  12  13
HETATM   13  C   UNL     1     -13.136   9.458  71.362  1.00  0.00    -0.419 C  
BRANCH  13  14
HETATM   14  C   UNL     1     -12.206   8.624  72.241  1.00  0.00    -0.447 C  
BRANCH  14  15
HETATM   15  C   UNL     1     -11.168   7.886  71.400  1.00  0.00    -0.280 C  
BRANCH  15  16
HETATM   16  C   UNL     1     -11.706   6.556  70.897  1.00  0.00    -0.356 C  
HETATM   17  O   UNL     1     -11.926   6.625  69.496  1.00  0.00    -0.642 OA 
HETATM   18  H   UNL     1     -12.263   5.794  69.182  1.00  0.00     0.000 HD 
ENDBRANCH  15  16
ENDBRANCH  14  15
ENDBRANCH  13  14
ENDBRANCH  12  13
ENDBRANCH  11  12
ENDBRANCH  10  11
ENDBRANCH   9  10
ENDBRANCH   8   9
ENDBRANCH   7   8
ENDBRANCH   6   7
ENDBRANCH   5   6
ENDBRANCH   4   5
ENDBRANCH   3   4
ENDBRANCH   2   3
TORSDOF 14
ENDMDL
MODEL        6
REMARK 921   NORMALIZED FREE ENERGY PREDICTED BY IDOCK:   -4.27 KCAL/MOL
REMARK 922        TOTAL FREE ENERGY PREDICTED BY IDOCK:   -9.14 KCAL/MOL
REMARK 923 INTER-LIGAND FREE ENERGY PREDICTED BY IDOCK:   -7.91 KCAL/MOL
REMARK 924 INTRA-LIGAND FREE ENERGY PREDICTED BY IDOCK:   -1.24 KCAL/MOL
REMARK 927      BINDING AFFINITY PREDICTED BY RF-SCORE:    0.00 PKD
ROOT
HETATM    1  C   UNL     1     -12.177  16.146  72.854  1.00  0.00    -0.640 C  
HETATM    2  C   UNL     1     -13.656  15.799  72.896  1.00  0.00    -0.660 C  
ENDROOT
BRANCH   2   3
HETATM    3  C   UNL     1     -13.989  14.680  71.912  1.00  0.00    -0.573 C  
BRANCH   3   4
HETATM    4  C   UNL     1     -13.778  13.305  72.543  1.00  0.00    -0.613 C  
BRANCH   4   5
HETATM    5  C   UNL     1     -12.942  12.409  71.633  1.00  0.00    -0.409 C  
BRANCH   5   6
HETATM    6  C   UNL     1     -12.231  13.227  70.561  1.00  0.00    -0.416 C  
BRANCH   6   7
HETATM    7  C   UNL     1     -11.678  12.321  69.463  1.00  0.00    -0.398 C  
BRANCH   7   8
HETATM    8  C   UNL     1     -11.211  13.140  68.263  1.00  0.00    -0.307 C  
BRANCH   8   9
HETATM    9  C   UNL     1     -10.741  14.524  68.700  1.00  0.00    -0.257 C  
BRANCH   9  10
HETATM   10  C   UNL     1     -11.331  15.607  67.802  1.00  0.00    -0.261 C  
BRANCH  10  11
HETATM   11  C   UNL     1     -10.231  16.471  67.191  1.00  0.00    -0.284 C  
BRANCH  11  12
HETATM   12  C   UNL     1      -9.742  15.878  65.872  1.00  0.00    -0.386 C  
BRANCH  12  13
HETATM   13  C   UNL     1     -10.909  15.346  65.045  1.00  0.00    -0.462 C  
BRANCH  13  14
HETATM   14  C   UNL     1     -10.761  13.848  64.791  1.00  0.00    -0.437 C  
BRANCH  14  15
HETATM   15  C   UNL     1     -12.121  13.160  64.741  1.00  0.00    -0.459 C  
BRANCH  15  16
HETATM   16  C   UNL     1     -12.402  12.583  63.362  1.00  0.00    -0.477 C  
HETATM   17  O   UNL     1     -11.704  11.357  63.203  1.00  0.00    -0.870 OA 
HETATM   18  H   UNL     1     -11.879  10.997  62.341  1.00  0.00     0.000 HD 
ENDBRANCH  15  16
ENDBRANCH  14  15
ENDBRANCH  13  14
ENDBRANCH  12  13
ENDBRANCH  11  12
ENDBRANCH  10  11
ENDBRANCH   9  10
ENDBRANCH   8   9
ENDBRANCH   7   8
ENDBRANCH   6   7
ENDBRANCH   5   6
ENDBRANCH   4   5
ENDBRANCH   3   4
ENDBRANCH   2   3
TORSDOF 14
ENDMDL
MODEL        7
REMARK 921   NORMALIZED FREE ENERGY PREDICTED BY IDOCK:   -4.26 KCAL/MOL
REMARK 922        TOTAL FREE ENERGY PREDICTED BY IDOCK:   -9.13 KCAL/MOL
REMARK 923 INTER-LIGAND FREE ENERGY PREDICTED BY IDOCK:   -7.65 KCAL/MOL
REMARK 924 INTRA-LIGAND FREE ENERGY PREDICTED BY IDOCK:   -1.48 KCAL/MOL
REMARK 927      BINDING AFFINITY PREDICTED BY RF-SCORE:    0.00 PKD
ROOT
HETATM    1  C   UNL     1     -12.611  15.287  70.463  1.00  0.00    -0.450 C  
HETATM    2  C   UNL     1     -13.670  15.151  71.544  1.00  0.00    -0.582 C  
ENDROOT
BRANCH   2   3
HETATM    3  C   UNL     1     -13.611  13.776  72.206  1.00  0.00    -0.656 C  
BRANCH   3   4
HETATM    4  C   UNL     1     -12.927  12.754  71.301  1.00  0.00    -0.310 C  
BRANCH   4   5
HETATM    5  C   UNL     1     -13.140  11.334  71.822  1.00  0.00    -0.527 C  
BRANCH   5   6
HETATM    6  C   UNL     1     -12.760  10.300  70.767  1.00  0.00    -0.434 C  
BRANCH   6   7
HETATM    7  C   UNL     1     -11.410   9.665  71.089  1.00  0.00    -0.456 C  
BRANCH   7   8
HETATM    8  C   UNL     1     -10.340  10.126  70.103  1.00  0.00    -0.280 C  
BRANCH   8   9
HETATM    9  C   UNL     1     -10.472   9.387  68.774  1.00  0.00    -0.236 C  
BRANCH   9  10
HETATM   10  C   UNL     1     -10.715  10.366  67.630  1.00  0.00    -0.335 C  
BRANCH  10  11
HETATM   11  C   UNL     1     -10.650  11.809  68.121  1.00  0.00    -0.230 C  
BRANCH  11  12
HETATM   12  C   UNL     1     -11.859  12.605  67.637  1.00  0.00    -0.390 C  
BRANCH  12  13
HETATM   13  C   UNL     1     -11.432  13.948  67.052  1.00  0.00    -0.367 C  
BRANCH  13  14
HETATM   14  C   UNL     1     -11.933  14.103  65.617  1.00  0.00    -0.401 C  
BRANCH  14  15
HETATM   15  C   UNL     1     -12.446  12.776  65.067  1.00  0.00    -0.572 C  
BRANCH  15  16
HETATM   16  C   UNL     1     -12.196  12.661  63.571  1.00  0.00    -0.547 C  
HETATM   17  O   UNL     1     -12.504  11.348  63.131  1.00  0.00    -0.881 OA 
HETATM   18  H   UNL     1     -12.348  11.276  62.197  1.00  0.00     0.000 HD 
ENDBRANCH  15  16
ENDBRANCH  14  15
ENDBRANCH  13  14
ENDBRANCH  12  13
ENDBRANCH  11  12
ENDBRANCH  10  11
ENDBRANCH   9  10
ENDBRANCH   8   9
ENDBRANCH   7   8
ENDBRANCH   6   7
ENDBRANCH   5   6
ENDBRANCH   4   5
ENDBRANCH   3   4
ENDBRANCH   2   3
TORSDOF 14
ENDMDL
MODEL        8
REMARK 921   NORMALIZED FREE ENERGY PREDICTED BY IDOCK:   -4.25 KCAL/MOL
REMARK 922        TOTAL FREE ENERGY PREDICTED BY IDOCK:   -9.11 KCAL/MOL
REMARK 923 INTER-LIGAND FREE ENERGY PREDICTED BY IDOCK:   -7.90 KCAL/MOL
REMARK 924 INTRA-LIGAND FREE ENERGY PREDICTED BY IDOCK:   -1.22 KCAL/MOL
REMARK 927      BINDING AFFINITY PREDICTED BY RF-SCORE:    0.00 PKD
ROOT
HETATM    1  C   UNL     1     -12.376  12.430  64.078  1.00  0.00    -0.579 C  
HETATM    2  C   UNL     1     -11.970  12.395  65.541  1.00  0.00    -0.453 C  
ENDROOT
BRANCH   2   3
HETATM    3  C   UNL     1     -12.162  13.759  66.200  1.00  0.00    -0.499 C  
BRANCH   3   4
HETATM    4  C   UNL     1     -11.952  13.680  67.711  1.00  0.00    -0.387 C  
BRANCH   4   5
HETATM    5  C   UNL     1     -11.315  14.961  68.242  1.00  0.00    -0.325 C  
BRANCH   5   6
HETATM    6  C   UNL     1     -12.042  15.461  69.486  1.00  0.00    -0.332 C  
BRANCH   6   7
HETATM    7  C   UNL     1     -11.048  15.859  70.574  1.00  0.00    -0.381 C  
BRANCH   7   8
HETATM    8  C   UNL     1     -11.770  16.197  71.876  1.00  0.00    -0.575 C  
BRANCH   8   9
HETATM    9  C   UNL     1     -13.166  15.581  71.898  1.00  0.00    -0.553 C  
BRANCH   9  10
HETATM   10  C   UNL     1     -13.197  14.338  72.782  1.00  0.00    -0.614 C  
BRANCH  10  11
HETATM   11  C   UNL     1     -14.019  13.227  72.134  1.00  0.00    -0.471 C  
BRANCH  11  12
HETATM   12  C   UNL     1     -13.213  11.933  72.048  1.00  0.00    -0.461 C  
BRANCH  12  13
HETATM   13  C   UNL     1     -12.303  11.934  70.823  1.00  0.00    -0.416 C  
BRANCH  13  14
HETATM   14  C   UNL     1     -12.088  10.515  70.301  1.00  0.00    -0.402 C  
BRANCH  14  15
HETATM   15  C   UNL     1     -11.494   9.616  71.381  1.00  0.00    -0.455 C  
BRANCH  15  16
HETATM   16  C   UNL     1     -12.351   8.380  71.608  1.00  0.00    -0.320 C  
HETATM   17  O   UNL     1     -12.504   8.150  73.000  1.00  0.00    -0.673 OA 
HETATM   18  H   UNL     1     -13.039   7.378  73.142  1.00  0.00     0.000 HD 
ENDBRANCH  15  16
ENDBRANCH  14  15
ENDBRANCH  13  14
ENDBRANCH  12  13
ENDBRANCH  11  12
ENDBRANCH  10  11
ENDBRANCH   9  10
ENDBRANCH   8   9
ENDBRANCH   7   8
ENDBRANCH   6   7
ENDBRANCH   5   6
ENDBRANCH   4   5
ENDBRANCH   3   4
ENDBRANCH   2   3
TORSDOF 14
ENDMDL
MODEL        9
REMARK 921   NORMALIZED FREE ENERGY PREDICTED BY IDOCK:   -4.24 KCAL/MOL
REMARK 922        TOTAL FREE ENERGY PREDICTED BY IDOCK:   -9.09 KCAL/MOL
REMARK 923 INTER-LIGAND FREE ENERGY PREDICTED BY IDOCK:   -8.10 KCAL/MOL
REMARK 924 INTRA-LIGAND FREE ENERGY PREDICTED BY IDOCK:   -0.98 KCAL/MOL
REMARK 927      BINDING AFFINITY PREDICTED BY RF-SCORE:    0.00 PKD
ROOT
HETATM    1  C   UNL     1     -12.325  15.489  73.794  1.00  0.00    -0.734 C  
HETATM    2  C   UNL     1     -13.607  15.913  73.098  1.00  0.00    -0.580 C  
ENDROOT
BRANCH   2   3
HETATM    3  C   UNL     1     -13.641  15.422  71.653  1.00  0.00    -0.603 C  
BRANCH   3   4
HETATM    4  C   UNL     1     -12.360  14.673  71.292  1.00  0.00    -0.407 C  
BRANCH   4   5
HETATM    5  C   UNL     1     -12.666  13.237  70.873  1.00  0.00    -0.332 C  
BRANCH   5   6
HETATM    6  C   UNL     1     -13.182  12.420  72.053  1.00  0.00    -0.514 C  
BRANCH   6   7
HETATM    7  C   UNL     1     -13.158  10.927  71.732  1.00  0.00    -0.564 C  
BRANCH   7   8
HETATM    8  C   UNL     1     -11.936  10.569  70.890  1.00  0.00    -0.481 C  
BRANCH   8   9
HETATM    9  C   UNL     1     -11.191   9.381  71.492  1.00  0.00    -0.457 C  
BRANCH   9  10
HETATM   10  C   UNL     1     -12.117   8.549  72.374  1.00  0.00    -0.436 C  
BRANCH  10  11
HETATM   11  C   UNL     1     -12.472   7.226  71.699  1.00  0.00    -0.394 C  
BRANCH  11  12
HETATM   12  C   UNL     1     -11.449   6.147  72.044  1.00  0.00    -0.366 C  
BRANCH  12  13
HETATM   13  C   UNL     1     -10.648   5.738  70.811  1.00  0.00    -0.337 C  
BRANCH  13  14
HETATM   14  C   UNL     1     -11.233   6.364  69.547  1.00  0.00    -0.477 C  
BRANCH  14  15
HETATM   15  C   UNL     1     -10.377   6.041  68.326  1.00  0.00    -0.252 C  
BRANCH  15  16
HETATM   16  C   UNL     1     -11.005   6.581  67.050  1.00  0.00    -0.396 C  
HETATM   17  O   UNL     1     -11.267   5.512  66.154  1.00  0.00    -0.774 OA 
HETATM   18  H   UNL     1     -11.659   5.849  65.356  1.00  0.00     0.000 HD 
ENDBRANCH  15  16
ENDBRANCH  14  15
ENDBRANCH  13  14
ENDBRANCH  12  13
ENDBRANCH  11  12
ENDBRANCH  10  11
ENDBRANCH   9  10
ENDBRANCH   8   9
ENDBRANCH   7   8
ENDBRANCH   6   7
ENDBRANCH   5   6
ENDBRANCH   4   5
ENDBRANCH   3   4
ENDBRANCH   2   3
TORSDOF 14
ENDMDL
MODEL       10
REMARK 921   NORMALIZED FREE ENERGY PREDICTED BY IDOCK:   -4.23 KCAL/MOL
REMARK 922        TOTAL FREE ENERGY PREDICTED BY IDOCK:   -9.07 KCAL/MOL
REMARK 923 INTER-LIGAND FREE ENERGY PREDICTED BY IDOCK:   -7.15 KCAL/MOL
REMARK 924 INTRA-LIGAND FREE ENERGY PREDICTED BY IDOCK:   -1.93 KCAL/MOL
REMARK 927      BINDING AFFINITY PREDICTED BY RF-SCORE:    0.00 PKD
ROOT
HETATM    1  C   UNL     1     -10.247  19.688  66.027  1.00  0.00    -0.587 C  
HETATM    2  C   UNL     1     -10.984  19.316  67.302  1.00  0.00    -0.443 C  
ENDROOT
BRANCH   2   3
HETATM    3  C   UNL     1     -10.025  19.222  68.487  1.00  0.00    -0.513 C  
BRANCH   3   4
HETATM    4  C   UNL     1      -8.655  19.800  68.139  1.00  0.00    -0.333 C  
BRANCH   4   5
HETATM    5  C   UNL     1      -7.545  19.056  68.879  1.00  0.00    -0.355 C  
BRANCH   5   6
HETATM    6  C   UNL     1      -6.748  18.172  67.926  1.00  0.00    -0.203 C  
BRANCH   6   7
HETATM    7  C   UNL     1      -7.481  16.860  67.659  1.00  0.00    -0.176 C  
BRANCH   7   8
HETATM    8  C   UNL     1      -7.922  16.768  66.200  1.00  0.00    -0.273 C  
BRANCH   8   9
HETATM    9  C   UNL     1      -9.325  16.179  66.093  1.00  0.00    -0.372 C  
BRANCH   9  10
HETATM   10  C   UNL     1      -9.701  15.434  67.369  1.00  0.00    -0.215 C  
BRANCH  10  11
HETATM   11  C   UNL     1     -11.203  15.517  67.628  1.00  0.00    -0.291 C  
BRANCH  11  12
HETATM   12  C   UNL     1     -11.922  14.294  67.065  1.00  0.00    -0.463 C  
BRANCH  12  13
HETATM   13  C   UNL     1     -11.044  13.049  67.164  1.00  0.00    -0.304 C  
BRANCH  13  14
HETATM   14  C   UNL     1     -11.180  12.184  65.913  1.00  0.00    -0.384 C  
BRANCH  14  15
HETATM   15  C   UNL     1     -12.392  12.601  65.084  1.00  0.00    -0.547 C  
BRANCH  15  16
HETATM   16  C   UNL     1     -12.011  12.855  63.634  1.00  0.00    -0.541 C  
HETATM   17  O   UNL     1     -12.510  14.118  63.220  1.00  0.00    -1.146 OA 
HETATM   18  H   UNL     1     -12.273  14.276  62.314  1.00  0.00     0.000 HD 
ENDBRANCH  15  16
ENDBRANCH  14  15
ENDBRANCH  13  14
ENDBRANCH  12  13
ENDBRANCH  11  12
ENDBRANCH  10  11
ENDBRANCH   9  10
ENDBRANCH   8   9
ENDBRANCH   7   8
ENDBRANCH   6   7
ENDBRANCH   5   6
ENDBRANCH   4   5
ENDBRANCH   3   4
ENDBRANCH   2   3
TORSDOF 14
ENDMDL
MODEL       11
REMARK 921   NORMALIZED FREE ENERGY PREDICTED BY IDOCK:   -4.21 KCAL/MOL
REMARK 922        TOTAL FREE ENERGY PREDICTED BY IDOCK:   -9.04 KCAL/MOL
REMARK 923 INTER-LIGAND FREE ENERGY PREDICTED BY IDOCK:   -7.44 KCAL/MOL
REMARK 924 INTRA-LIGAND FREE ENERGY PREDICTED BY IDOCK:   -1.60 KCAL/MOL
REMARK 927      BINDING AFFINITY PREDICTED BY RF-SCORE:    0.00 PKD
ROOT
HETATM    1  C   UNL     1     -13.931   8.896  72.333  1.00  0.00    -0.516 C  
HETATM    2  C   UNL     1     -12.449   8.653  72.104  1.00  0.00    -0.453 C  
ENDROOT
BRANCH   2   3
HETATM    3  C   UNL     1     -11.837   9.753  71.238  1.00  0.00    -0.481 C  
BRANCH   3   4
HETATM    4  C   UNL     1     -12.684  11.022  71.272  1.00  0.00    -0.537 C  
BRANCH   4   5
HETATM    5  C   UNL     1     -12.161  12.055  70.276  1.00  0.00    -0.395 C  
BRANCH   5   6
HETATM    6  C   UNL     1     -11.884  11.416  68.919  1.00  0.00    -0.413 C  
BRANCH   6   7
HETATM    7  C   UNL     1     -11.706  12.484  67.842  1.00  0.00    -0.416 C  
BRANCH   7   8
HETATM    8  C   UNL     1     -10.300  13.076  67.886  1.00  0.00    -0.233 C  
BRANCH   8   9
HETATM    9  C   UNL     1     -10.232  14.377  67.093  1.00  0.00    -0.257 C  
BRANCH   9  10
HETATM   10  C   UNL     1     -10.506  15.577  67.993  1.00  0.00    -0.259 C  
BRANCH  10  11
HETATM   11  C   UNL     1     -10.046  15.305  69.423  1.00  0.00    -0.266 C  
BRANCH  11  12
HETATM   12  C   UNL     1     -10.935  16.031  70.429  1.00  0.00    -0.347 C  
BRANCH  12  13
HETATM   13  C   UNL     1     -12.389  15.584  70.298  1.00  0.00    -0.431 C  
BRANCH  13  14
HETATM   14  C   UNL     1     -13.032  15.408  71.671  1.00  0.00    -0.513 C  
BRANCH  14  15
HETATM   15  C   UNL     1     -12.017  14.906  72.694  1.00  0.00    -0.348 C  
BRANCH  15  16
HETATM   16  C   UNL     1     -12.344  15.408  74.093  1.00  0.00    -0.663 C  
HETATM   17  O   UNL     1     -13.368  16.388  74.024  1.00  0.00    -0.915 OA 
HETATM   18  H   UNL     1     -13.572  16.702  74.897  1.00  0.00     0.000 HD 
ENDBRANCH  15  16
ENDBRANCH  14  15
ENDBRANCH  13  14
ENDBRANCH  12  13
ENDBRANCH  11  12
ENDBRANCH  10  11
ENDBRANCH   9  10
ENDBRANCH   8   9
ENDBRANCH   7   8
ENDBRANCH   6   7
ENDBRANCH   5   6
ENDBRANCH   4   5
ENDBRANCH   3   4
ENDBRANCH   2   3
TORSDOF 14
ENDMDL
MODEL       12
REMARK 921   NORMALIZED FREE ENERGY PREDICTED BY IDOCK:   -4.19 KCAL/MOL
REMARK 922        TOTAL FREE ENERGY PREDICTED BY IDOCK:   -9.00 KCAL/MOL
REMARK 923 INTER-LIGAND FREE ENERGY PREDICTED BY IDOCK:   -8.01 KCAL/MOL
REMARK 924 INTRA-LIGAND FREE ENERGY PREDICTED BY IDOCK:   -0.99 KCAL/MOL
REMARK 927      BINDING AFFINITY PREDICTED BY RF-SCORE:    0.00 PKD
ROOT
HETATM    1  C   UNL     1     -12.753  15.446  71.103  1.00  0.00    -0.503 C  
HETATM    2  C   UNL     1     -12.464  13.955  71.145  1.00  0.00    -0.450 C  
ENDROOT
BRANCH   2   3
HETATM    3  C   UNL     1     -13.445  13.228  72.063  1.00  0.00    -0.596 C  
BRANCH   3   4
HETATM    4  C   UNL     1     -13.250  11.715  71.996  1.00  0.00    -0.443 C  
BRANCH   4   5
HETATM    5  C   UNL     1     -12.293  11.337  70.869  1.00  0.00    -0.490 C  
BRANCH   5   6
HETATM    6  C   UNL     1     -11.556  10.040  71.187  1.00  0.00    -0.460 C  
BRANCH   6   7
HETATM    7  C   UNL     1     -10.365   9.848  70.250  1.00  0.00    -0.339 C  
BRANCH   7   8
HETATM    8  C   UNL     1     -10.528   8.581  69.415  1.00  0.00    -0.223 C  
BRANCH   8   9
HETATM    9  C   UNL     1     -10.477   8.903  67.924  1.00  0.00    -0.281 C  
BRANCH   9  10
HETATM   10  C   UNL     1     -10.314  10.402  67.697  1.00  0.00    -0.260 C  
BRANCH  10  11
HETATM   11  C   UNL     1     -10.470  10.752  66.220  1.00  0.00    -0.287 C  
BRANCH  11  12
HETATM   12  C   UNL     1     -10.472  12.264  66.015  1.00  0.00    -0.284 C  
BRANCH  12  13
HETATM   13  C   UNL     1     -11.690  12.905  66.676  1.00  0.00    -0.452 C  
BRANCH  13  14
HETATM   14  C   UNL     1     -12.427  13.815  65.696  1.00  0.00    -0.541 C  
BRANCH  14  15
HETATM   15  C   UNL     1     -11.498  14.298  64.586  1.00  0.00    -0.389 C  
BRANCH  15  16
HETATM   16  C   UNL     1     -11.056  15.735  64.818  1.00  0.00    -0.400 C  
HETATM   17  O   UNL     1     -11.526  16.559  63.762  1.00  0.00    -1.615 OA 
HETATM   18  H   UNL     1     -11.250  17.456  63.907  1.00  0.00     0.000 HD 
ENDBRANCH  15  16
ENDBRANCH  14  15
ENDBRANCH  13  14
ENDBRANCH  12  13
ENDBRANCH  11  12
ENDBRANCH  10  11
ENDBRANCH   9  10
ENDBRANCH   8   9
ENDBRANCH   7   8
ENDBRANCH   6   7
ENDBRANCH   5   6
ENDBRANCH   4   5
ENDBRANCH   3   4
ENDBRANCH   2   3
TORSDOF 14
ENDMDL
MODEL       13
REMARK 921   NORMALIZED FREE ENERGY PREDICTED BY IDOCK:   -4.19 KCAL/MOL
REMARK 922        TOTAL FREE ENERGY PREDICTED BY IDOCK:   -9.00 KCAL/MOL
REMARK 923 INTER-LIGAND FREE ENERGY PREDICTED BY IDOCK:   -7.46 KCAL/MOL
REMARK 924 INTRA-LIGAND FREE ENERGY PREDICTED BY IDOCK:   -1.54 KCAL/MOL
REMARK 927      BINDING AFFINITY PREDICTED BY RF-SCORE:    0.00 PKD
ROOT
HETATM    1  C   UNL     1     -10.493  11.171  67.872  1.00  0.00    -0.220 C  
HETATM    2  C   UNL     1     -11.861  11.821  67.759  1.00  0.00    -0.266 C  
ENDROOT
BRANCH   2   3
HETATM    3  C   UNL     1     -11.749  13.263  67.270  1.00  0.00    -0.424 C  
BRANCH   3   4
HETATM    4  C   UNL     1     -11.869  14.253  68.426  1.00  0.00    -0.373 C  
BRANCH   4   5
HETATM    5  C   UNL     1     -10.504  14.825  68.800  1.00  0.00    -0.250 C  
BRANCH   5   6
HETATM    6  C   UNL     1     -10.579  15.619  70.100  1.00  0.00    -0.348 C  
BRANCH   6   7
HETATM    7  C   UNL     1     -12.028  15.790  70.550  1.00  0.00    -0.401 C  
BRANCH   7   8
HETATM    8  C   UNL     1     -12.117  15.907  72.069  1.00  0.00    -0.591 C  
BRANCH   8   9
HETATM    9  C   UNL     1     -13.503  15.503  72.565  1.00  0.00    -0.622 C  
BRANCH   9  10
HETATM   10  C   UNL     1     -14.045  14.324  71.763  1.00  0.00    -0.535 C  
BRANCH  10  11
HETATM   11  C   UNL     1     -13.638  12.998  72.399  1.00  0.00    -0.628 C  
BRANCH  11  12
HETATM   12  C   UNL     1     -12.894  12.119  71.397  1.00  0.00    -0.378 C  
BRANCH  12  13
HETATM   13  C   UNL     1     -13.093  10.639  71.713  1.00  0.00    -0.571 C  
BRANCH  13  14
HETATM   14  C   UNL     1     -11.963   9.798  71.124  1.00  0.00    -0.463 C  
BRANCH  14  15
HETATM   15  C   UNL     1     -11.816   8.474  71.867  1.00  0.00    -0.407 C  
BRANCH  15  16
HETATM   16  C   UNL     1     -12.827   7.448  71.378  1.00  0.00    -0.365 C  
HETATM   17  O   UNL     1     -12.348   6.827  70.195  1.00  0.00    -0.614 OA 
HETATM   18  H   UNL     1     -12.980   6.186  69.889  1.00  0.00     0.000 HD 
ENDBRANCH  15  16
ENDBRANCH  14  15
ENDBRANCH  13  14
ENDBRANCH  12  13
ENDBRANCH  11  12
ENDBRANCH  10  11
ENDBRANCH   9  10
ENDBRANCH   8   9
ENDBRANCH   7   8
ENDBRANCH   6   7
ENDBRANCH   5   6
ENDBRANCH   4   5
ENDBRANCH   3   4
ENDBRANCH   2   3
TORSDOF 14
ENDMDL
MODEL       14
REMARK 921   NORMALIZED FREE ENERGY PREDICTED BY IDOCK:   -4.18 KCAL/MOL
REMARK 922        TOTAL FREE ENERGY PREDICTED BY IDOCK:   -8.98 KCAL/MOL
REMARK 923 INTER-LIGAND FREE ENERGY PREDICTED BY IDOCK:   -7.39 KCAL/MOL
REMARK 924 INTRA-LIGAND FREE ENERGY PREDICTED BY IDOCK:   -1.59 KCAL/MOL
REMARK 927      BINDING AFFINITY PREDICTED BY RF-SCORE:    0.00 PKD
ROOT
HETATM    1  C   UNL     1     -11.121  14.328  65.700  1.00  0.00    -0.316 C  
HETATM    2  C   UNL     1     -12.507  13.713  65.609  1.00  0.00    -0.540 C  
ENDROOT
BRANCH   2   3
HETATM    3  C   UNL     1     -12.519  12.514  64.664  1.00  0.00    -0.539 C  
BRANCH   3   4
HETATM    4  C   UNL     1     -11.347  12.566  63.687  1.00  0.00    -0.555 C  
BRANCH   4   5
HETATM    5  C   UNL     1     -10.610  11.230  63.645  1.00  0.00    -0.453 C  
BRANCH   5   6
HETATM    6  C   UNL     1      -9.632  11.106  64.809  1.00  0.00    -0.279 C  
BRANCH   6   7
HETATM    7  C   UNL     1      -9.638   9.689  65.377  1.00  0.00    -0.361 C  
BRANCH   7   8
HETATM    8  C   UNL     1     -10.254   9.663  66.773  1.00  0.00    -0.308 C  
BRANCH   8   9
HETATM    9  C   UNL     1     -10.354  11.072  67.349  1.00  0.00    -0.242 C  
BRANCH   9  10
HETATM   10  C   UNL     1     -11.488  11.165  68.364  1.00  0.00    -0.377 C  
BRANCH  10  11
HETATM   11  C   UNL     1     -11.179  12.207  69.436  1.00  0.00    -0.248 C  
BRANCH  11  12
HETATM   12  C   UNL     1     -11.983  13.483  69.205  1.00  0.00    -0.378 C  
BRANCH  12  13
HETATM   13  C   UNL     1     -11.547  14.587  70.164  1.00  0.00    -0.334 C  
BRANCH  13  14
HETATM   14  C   UNL     1     -12.172  14.390  71.544  1.00  0.00    -0.406 C  
BRANCH  14  15
HETATM   15  C   UNL     1     -12.080  15.665  72.377  1.00  0.00    -0.557 C  
BRANCH  15  16
HETATM   16  C   UNL     1     -12.356  15.389  73.847  1.00  0.00    -0.635 C  
HETATM   17  O   UNL     1     -13.227  16.382  74.368  1.00  0.00    -0.863 OA 
HETATM   18  H   UNL     1     -13.399  16.209  75.286  1.00  0.00     0.000 HD 
ENDBRANCH  15  16
ENDBRANCH  14  15
ENDBRANCH  13  14
ENDBRANCH  12  13
ENDBRANCH  11  12
ENDBRANCH  10  11
ENDBRANCH   9  10
ENDBRANCH   8   9
ENDBRANCH   7   8
ENDBRANCH   6   7
ENDBRANCH   5   6
ENDBRANCH   4   5
ENDBRANCH   3   4
ENDBRANCH   2   3
TORSDOF 14
ENDMDL
MODEL       15
REMARK 921   NORMALIZED FREE ENERGY PREDICTED BY IDOCK:   -4.16 KCAL/MOL
REMARK 922        TOTAL FREE ENERGY PREDICTED BY IDOCK:   -8.95 KCAL/MOL
REMARK 923 INTER-LIGAND FREE ENERGY PREDICTED BY IDOCK:   -8.05 KCAL/MOL
REMARK 924 INTRA-LIGAND FREE ENERGY PREDICTED BY IDOCK:   -0.90 KCAL/MOL
REMARK 927      BINDING AFFINITY PREDICTED BY RF-SCORE:    0.00 PKD
ROOT
HETATM    1  C   UNL     1     -10.847  11.793  63.579  1.00  0.00    -0.496 C  
HETATM    2  C   UNL     1     -12.240  12.394  63.654  1.00  0.00    -0.653 C  
ENDROOT
BRANCH   2   3
HETATM    3  C   UNL     1     -12.640  12.684  65.099  1.00  0.00    -0.459 C  
BRANCH   3   4
HETATM    4  C   UNL     1     -12.183  14.075  65.533  1.00  0.00    -0.455 C  
BRANCH   4   5
HETATM    5  C   UNL     1     -11.874  14.108  67.027  1.00  0.00    -0.458 C  
BRANCH   5   6
HETATM    6  C   UNL     1     -10.766  15.109  67.338  1.00  0.00    -0.286 C  
BRANCH   6   7
HETATM    7  C   UNL     1     -10.477  15.153  68.836  1.00  0.00    -0.241 C  
BRANCH   7   8
HETATM    8  C   UNL     1     -11.757  14.965  69.645  1.00  0.00    -0.356 C  
BRANCH   8   9
HETATM    9  C   UNL     1     -11.779  15.898  70.852  1.00  0.00    -0.456 C  
BRANCH   9  10
HETATM   10  C   UNL     1     -12.074  15.124  72.133  1.00  0.00    -0.472 C  
BRANCH  10  11
HETATM   11  C   UNL     1     -13.572  15.097  72.422  1.00  0.00    -0.575 C  
BRANCH  11  12
HETATM   12  C   UNL     1     -14.189  13.772  71.980  1.00  0.00    -0.463 C  
BRANCH  12  13
HETATM   13  C   UNL     1     -13.329  12.592  72.426  1.00  0.00    -0.424 C  
BRANCH  13  14
HETATM   14  C   UNL     1     -12.982  11.691  71.243  1.00  0.00    -0.368 C  
BRANCH  14  15
HETATM   15  C   UNL     1     -12.587  10.294  71.712  1.00  0.00    -0.488 C  
BRANCH  15  16
HETATM   16  C   UNL     1     -13.757   9.327  71.626  1.00  0.00    -0.354 C  
HETATM   17  O   UNL     1     -14.277   9.083  72.924  1.00  0.00    -1.042 OA 
HETATM   18  H   UNL     1     -15.008   8.478  72.870  1.00  0.00     0.000 HD 
ENDBRANCH  15  16
ENDBRANCH  14  15
ENDBRANCH  13  14
ENDBRANCH  12  13
ENDBRANCH  11  12
ENDBRANCH  10  11
ENDBRANCH   9  10
ENDBRANCH   8   9
ENDBRANCH   7   8
ENDBRANCH   6   7
ENDBRANCH   5   6
ENDBRANCH   4   5
ENDBRANCH   3   4
ENDBRANCH   2   3
TORSDOF 14
ENDMDL
MODEL       16
REMARK 921   NORMALIZED FREE ENERGY PREDICTED BY IDOCK:   -4.16 KCAL/MOL
REMARK 922        TOTAL FREE ENERGY PREDICTED BY IDOCK:   -8.95 KCAL/MOL
REMARK 923 INTER-LIGAND FREE ENERGY PREDICTED BY IDOCK:   -7.48 KCAL/MOL
REMARK 924 INTRA-LIGAND FREE ENERGY PREDICTED BY IDOCK:   -1.46 KCAL/MOL
REMARK 927      BINDING AFFINITY PREDICTED BY RF-SCORE:    0.00 PKD
ROOT
HETATM    1  C   UNL     1     -12.770  11.865  63.825  1.00  0.00    -0.466 C  
HETATM    2  C   UNL     1     -11.373  12.339  63.461  1.00  0.00    -0.549 C  
ENDROOT
BRANCH   2   3
HETATM    3  C   UNL     1     -10.907  13.452  64.397  1.00  0.00    -0.422 C  
BRANCH   3   4
HETATM    4  C   UNL     1     -12.080  14.065  65.158  1.00  0.00    -0.418 C  
BRANCH   4   5
HETATM    5  C   UNL     1     -11.704  14.339  66.612  1.00  0.00    -0.417 C  
BRANCH   5   6
HETATM    6  C   UNL     1     -12.148  13.195  67.518  1.00  0.00    -0.300 C  
BRANCH   6   7
HETATM    7  C   UNL     1     -10.972  12.282  67.857  1.00  0.00    -0.265 C  
BRANCH   7   8
HETATM    8  C   UNL     1     -11.262  10.842  67.442  1.00  0.00    -0.345 C  
BRANCH   8   9
HETATM    9  C   UNL     1     -11.142   9.898  68.634  1.00  0.00    -0.182 C  
BRANCH   9  10
HETATM   10  C   UNL     1     -10.804  10.669  69.906  1.00  0.00    -0.301 C  
BRANCH  10  11
HETATM   11  C   UNL     1     -11.582  10.123  71.100  1.00  0.00    -0.430 C  
BRANCH  11  12
HETATM   12  C   UNL     1     -12.879  10.900  71.307  1.00  0.00    -0.536 C  
BRANCH  12  13
HETATM   13  C   UNL     1     -12.632  12.405  71.238  1.00  0.00    -0.332 C  
BRANCH  13  14
HETATM   14  C   UNL     1     -13.524  13.151  72.229  1.00  0.00    -0.665 C  
BRANCH  14  15
HETATM   15  C   UNL     1     -13.478  14.656  71.987  1.00  0.00    -0.476 C  
BRANCH  15  16
HETATM   16  C   UNL     1     -12.717  15.373  73.092  1.00  0.00    -0.479 C  
HETATM   17  O   UNL     1     -13.601  16.214  73.817  1.00  0.00    -0.902 OA 
HETATM   18  H   UNL     1     -13.126  16.662  74.507  1.00  0.00     0.000 HD 
ENDBRANCH  15  16
ENDBRANCH  14  15
ENDBRANCH  13  14
ENDBRANCH  12  13
ENDBRANCH  11  12
ENDBRANCH  10  11
ENDBRANCH   9  10
ENDBRANCH   8   9
ENDBRANCH   7   8
ENDBRANCH   6   7
ENDBRANCH   5   6
ENDBRANCH   4   5
ENDBRANCH   3   4
ENDBRANCH   2   3
TORSDOF 14
ENDMDL
MODEL       17
REMARK 921   NORMALIZED FREE ENERGY PREDICTED BY IDOCK:   -4.13 KCAL/MOL
REMARK 922        TOTAL FREE ENERGY PREDICTED BY IDOCK:   -8.89 KCAL/MOL
REMARK 923 INTER-LIGAND FREE ENERGY PREDICTED BY IDOCK:   -7.45 KCAL/MOL
REMARK 924 INTRA-LIGAND FREE ENERGY PREDICTED BY IDOCK:   -1.43 KCAL/MOL
REMARK 927      BINDING AFFINITY PREDICTED BY RF-SCORE:    0.00 PKD
ROOT
HETATM    1  C   UNL     1      -8.409   9.885  69.989  1.00  0.00    -0.191 C  
HETATM    2  C   UNL     1      -9.909   9.703  70.146  1.00  0.00    -0.310 C  
ENDROOT
BRANCH   2   3
HETATM    3  C   UNL     1     -10.244   8.964  71.439  1.00  0.00    -0.375 C  
BRANCH   3   4
HETATM    4  C   UNL     1     -11.743   9.005  71.730  1.00  0.00    -0.440 C  
BRANCH   4   5
HETATM    5  C   UNL     1     -12.416  10.143  70.967  1.00  0.00    -0.474 C  
BRANCH   5   6
HETATM    6  C   UNL     1     -13.269  10.999  71.898  1.00  0.00    -0.503 C  
BRANCH   6   7
HETATM    7  C   UNL     1     -13.091  12.483  71.588  1.00  0.00    -0.414 C  
BRANCH   7   8
HETATM    8  C   UNL     1     -12.058  12.690  70.483  1.00  0.00    -0.360 C  
BRANCH   8   9
HETATM    9  C   UNL     1     -12.276  14.026  69.779  1.00  0.00    -0.396 C  
BRANCH   9  10
HETATM   10  C   UNL     1     -11.924  13.924  68.299  1.00  0.00    -0.392 C  
BRANCH  10  11
HETATM   11  C   UNL     1     -10.952  12.776  68.046  1.00  0.00    -0.266 C  
BRANCH  11  12
HETATM   12  C   UNL     1     -11.460  11.867  66.930  1.00  0.00    -0.390 C  
BRANCH  12  13
HETATM   13  C   UNL     1     -11.221  12.495  65.559  1.00  0.00    -0.349 C  
BRANCH  13  14
HETATM   14  C   UNL     1     -12.534  12.965  64.937  1.00  0.00    -0.540 C  
BRANCH  14  15
HETATM   15  C   UNL     1     -12.350  14.285  64.195  1.00  0.00    -0.361 C  
BRANCH  15  16
HETATM   16  C   UNL     1     -11.278  15.145  64.847  1.00  0.00    -0.417 C  
HETATM   17  O   UNL     1     -11.217  16.408  64.203  1.00  0.00    -1.273 OA 
HETATM   18  H   UNL     1     -10.547  16.945  64.610  1.00  0.00     0.000 HD 
ENDBRANCH  15  16
ENDBRANCH  14  15
ENDBRANCH  13  14
ENDBRANCH  12  13
ENDBRANCH  11  12
ENDBRANCH  10  11
ENDBRANCH   9  10
ENDBRANCH   8   9
ENDBRANCH   7   8
ENDBRANCH   6   7
ENDBRANCH   5   6
ENDBRANCH   4   5
ENDBRANCH   3   4
ENDBRANCH   2   3
TORSDOF 14
ENDMDL
MODEL       18
REMARK 921   NORMALIZED FREE ENERGY PREDICTED BY IDOCK:   -4.12 KCAL/MOL
REMARK 922        TOTAL FREE ENERGY PREDICTED BY IDOCK:   -8.87 KCAL/MOL
REMARK 923 INTER-LIGAND FREE ENERGY PREDICTED BY IDOCK:   -6.88 KCAL/MOL
REMARK 924 INTRA-LIGAND FREE ENERGY PREDICTED BY IDOCK:   -1.99 KCAL/MOL
REMARK 927      BINDING AFFINITY PREDICTED BY RF-SCORE:    0.00 PKD
ROOT
HETATM    1  C   UNL     1     -10.627  16.672  65.709  1.00  0.00    -0.278 C  
HETATM    2  C   UNL     1     -10.668  15.341  64.978  1.00  0.00    -0.461 C  
ENDROOT
BRANCH   2   3
HETATM    3  C   UNL     1     -12.094  14.981  64.567  1.00  0.00    -0.373 C  
BRANCH   3   4
HETATM    4  C   UNL     1     -12.756  14.070  65.598  1.00  0.00    -0.515 C  
BRANCH   4   5
HETATM    5  C   UNL     1     -12.519  12.600  65.260  1.00  0.00    -0.483 C  
BRANCH   5   6
HETATM    6  C   UNL     1     -11.640  11.930  66.311  1.00  0.00    -0.317 C  
BRANCH   6   7
HETATM    7  C   UNL     1     -10.194  11.832  65.830  1.00  0.00    -0.276 C  
BRANCH   7   8
HETATM    8  C   UNL     1      -9.246  12.531  66.801  1.00  0.00    -0.217 C  
BRANCH   8   9
HETATM    9  C   UNL     1      -9.976  12.927  68.081  1.00  0.00    -0.234 C  
BRANCH   9  10
HETATM   10  C   UNL     1      -9.568  14.327  68.528  1.00  0.00    -0.220 C  
BRANCH  10  11
HETATM   11  C   UNL     1     -10.773  15.108  69.047  1.00  0.00    -0.239 C  
BRANCH  11  12
HETATM   12  C   UNL     1     -12.003  14.210  69.144  1.00  0.00    -0.388 C  
BRANCH  12  13
HETATM   13  C   UNL     1     -12.478  14.085  70.590  1.00  0.00    -0.435 C  
BRANCH  13  14
HETATM   14  C   UNL     1     -13.421  15.229  70.956  1.00  0.00    -0.516 C  
BRANCH  14  15
HETATM   15  C   UNL     1     -14.056  15.004  72.324  1.00  0.00    -0.612 C  
BRANCH  15  16
HETATM   16  C   UNL     1     -13.012  15.025  73.431  1.00  0.00    -0.498 C  
HETATM   17  O   UNL     1     -12.938  16.325  73.995  1.00  0.00    -0.819 OA 
HETATM   18  H   UNL     1     -12.286  16.339  74.686  1.00  0.00     0.000 HD 
ENDBRANCH  15  16
ENDBRANCH  14  15
ENDBRANCH  13  14
ENDBRANCH  12  13
ENDBRANCH  11  12
ENDBRANCH  10  11
ENDBRANCH   9  10
ENDBRANCH   8   9
ENDBRANCH   7   8
ENDBRANCH   6   7
ENDBRANCH   5   6
ENDBRANCH   4   5
ENDBRANCH   3   4
ENDBRANCH   2   3
TORSDOF 14
ENDMDL
MODEL       19
REMARK 921   NORMALIZED FREE ENERGY PREDICTED BY IDOCK:   -4.09 KCAL/MOL
REMARK 922        TOTAL FREE ENERGY PREDICTED BY IDOCK:   -8.82 KCAL/MOL
REMARK 923 INTER-LIGAND FREE ENERGY PREDICTED BY IDOCK:   -7.58 KCAL/MOL
REMARK 924 INTRA-LIGAND FREE ENERGY PREDICTED BY IDOCK:   -1.24 KCAL/MOL
REMARK 927      BINDING AFFINITY PREDICTED BY RF-SCORE:    0.00 PKD
ROOT
HETATM    1  C   UNL     1     -11.390   6.491  70.273  1.00  0.00    -0.456 C  
HETATM    2  C   UNL     1     -12.435   6.844  71.318  1.00  0.00    -0.409 C  
ENDROOT
BRANCH   2   3
HETATM    3  C   UNL     1     -11.967   8.000  72.199  1.00  0.00    -0.399 C  
BRANCH   3   4
HETATM    4  C   UNL     1     -12.662   9.305  71.816  1.00  0.00    -0.462 C  
BRANCH   4   5
HETATM    5  C   UNL     1     -11.755  10.172  70.947  1.00  0.00    -0.468 C  
BRANCH   5   6
HETATM    6  C   UNL     1     -12.307  11.588  70.819  1.00  0.00    -0.472 C  
BRANCH   6   7
HETATM    7  C   UNL     1     -13.331  11.874  71.915  1.00  0.00    -0.405 C  
BRANCH   7   8
HETATM    8  C   UNL     1     -13.165  13.289  72.462  1.00  0.00    -0.484 C  
BRANCH   8   9
HETATM    9  C   UNL     1     -14.069  14.268  71.717  1.00  0.00    -0.535 C  
BRANCH   9  10
HETATM   10  C   UNL     1     -13.272  15.466  71.212  1.00  0.00    -0.585 C  
BRANCH  10  11
HETATM   11  C   UNL     1     -11.778  15.155  71.178  1.00  0.00    -0.400 C  
BRANCH  11  12
HETATM   12  C   UNL     1     -11.161  15.593  69.853  1.00  0.00    -0.323 C  
BRANCH  12  13
HETATM   13  C   UNL     1     -12.034  15.169  68.674  1.00  0.00    -0.270 C  
BRANCH  13  14
HETATM   14  C   UNL     1     -11.576  13.826  68.111  1.00  0.00    -0.370 C  
BRANCH  14  15
HETATM   15  C   UNL     1     -11.258  13.932  66.623  1.00  0.00    -0.328 C  
BRANCH  15  16
HETATM   16  C   UNL     1     -12.133  13.000  65.799  1.00  0.00    -0.454 C  
HETATM   17  O   UNL     1     -13.101  13.754  65.086  1.00  0.00    -0.762 OA 
HETATM   18  H   UNL     1     -13.648  13.171  64.572  1.00  0.00     0.000 HD 
ENDBRANCH  15  16
ENDBRANCH  14  15
ENDBRANCH  13  14
ENDBRANCH  12  13
ENDBRANCH  11  12
ENDBRANCH  10  11
ENDBRANCH   9  10
ENDBRANCH   8   9
ENDBRANCH   7   8
ENDBRANCH   6   7
ENDBRANCH   5   6
ENDBRANCH   4   5
ENDBRANCH   3   4
ENDBRANCH   2   3
TORSDOF 14
ENDMDL
MODEL       20
REMARK 921   NORMALIZED FREE ENERGY PREDICTED BY IDOCK:   -4.09 KCAL/MOL
REMARK 922        TOTAL FREE ENERGY PREDICTED BY IDOCK:   -8.81 KCAL/MOL
REMARK 923 INTER-LIGAND FREE ENERGY PREDICTED BY IDOCK:   -6.72 KCAL/MOL
REMARK 924 INTRA-LIGAND FREE ENERGY PREDICTED BY IDOCK:   -2.09 KCAL/MOL
REMARK 927      BINDING AFFINITY PREDICTED BY RF-SCORE:    0.00 PKD
ROOT
HETATM    1  C   UNL     1      -9.606  11.007  62.908  1.00  0.00    -0.369 C  
HETATM    2  C   UNL     1     -10.459  11.352  64.117  1.00  0.00    -0.421 C  
ENDROOT
BRANCH   2   3
HETATM    3  C   UNL     1     -11.635  12.246  63.726  1.00  0.00    -0.555 C  
BRANCH   3   4
HETATM    4  C   UNL     1     -12.565  12.489  64.913  1.00  0.00    -0.469 C  
BRANCH   4   5
HETATM    5  C   UNL     1     -12.548  13.957  65.329  1.00  0.00    -0.508 C  
BRANCH   5   6
HETATM    6  C   UNL     1     -11.929  14.829  64.241  1.00  0.00    -0.387 C  
BRANCH   6   7
HETATM    7  C   UNL     1     -10.884  15.773  64.830  1.00  0.00    -0.433 C  
BRANCH   7   8
HETATM    8  C   UNL     1      -9.864  15.006  65.667  1.00  0.00    -0.380 C  
BRANCH   8   9
HETATM    9  C   UNL     1      -9.340  15.869  66.811  1.00  0.00    -0.262 C  
BRANCH   9  10
HETATM   10  C   UNL     1     -10.486  16.363  67.688  1.00  0.00    -0.302 C  
BRANCH  10  11
HETATM   11  C   UNL     1     -10.121  16.271  69.167  1.00  0.00    -0.264 C  
BRANCH  11  12
HETATM   12  C   UNL     1     -11.104  15.377  69.917  1.00  0.00    -0.304 C  
BRANCH  12  13
HETATM   13  C   UNL     1     -11.950  14.558  68.945  1.00  0.00    -0.326 C  
BRANCH  13  14
HETATM   14  C   UNL     1     -11.784  13.062  69.203  1.00  0.00    -0.378 C  
BRANCH  14  15
HETATM   15  C   UNL     1     -10.713  12.463  68.297  1.00  0.00    -0.250 C  
BRANCH  15  16
HETATM   16  C   UNL     1     -11.070  11.044  67.879  1.00  0.00    -0.288 C  
HETATM   17  O   UNL     1     -12.235  10.619  68.568  1.00  0.00    -0.822 OA 
HETATM   18  H   UNL     1     -12.458   9.733  68.308  1.00  0.00     0.000 HD 
ENDBRANCH  15  16
ENDBRANCH  14  15
ENDBRANCH  13  14
ENDBRANCH  12  13
ENDBRANCH  11  12
ENDBRANCH  10  11
ENDBRANCH   9  10
ENDBRANCH   8   9
ENDBRANCH   7   8
ENDBRANCH   6   7
ENDBRANCH   5   6
ENDBRANCH   4   5
ENDBRANCH   3   4
ENDBRANCH   2   3
TORSDOF 14
ENDMDL
MODEL       21
REMARK 921   NORMALIZED FREE ENERGY PREDICTED BY IDOCK:   -4.08 KCAL/MOL
REMARK 922        TOTAL FREE ENERGY PREDICTED BY IDOCK:   -8.80 KCAL/MOL
REMARK 923 INTER-LIGAND FREE ENERGY PREDICTED BY IDOCK:   -7.32 KCAL/MOL
REMARK 924 INTRA-LIGAND FREE ENERGY PREDICTED BY IDOCK:   -1.47 KCAL/MOL
REMARK 927      BINDING AFFINITY PREDICTED BY RF-SCORE:    0.00 PKD
ROOT
HETATM    1  C   UNL     1     -12.617  15.286  73.557  1.00  0.00    -0.681 C  
HETATM    2  C   UNL     1     -13.784  15.498  72.609  1.00  0.00    -0.667 C  
ENDROOT
BRANCH   2   3
HETATM    3  C   UNL     1     -13.414  15.103  71.181  1.00  0.00    -0.533 C  
BRANCH   3   4
HETATM    4  C   UNL     1     -11.923  14.798  71.058  1.00  0.00    -0.389 C  
BRANCH   4   5
HETATM    5  C   UNL     1     -11.265  15.700  70.017  1.00  0.00    -0.332 C  
BRANCH   5   6
HETATM    6  C   UNL     1     -11.904  15.511  68.645  1.00  0.00    -0.318 C  
BRANCH   6   7
HETATM    7  C   UNL     1     -10.839  15.272  67.577  1.00  0.00    -0.304 C  
BRANCH   7   8
HETATM    8  C   UNL     1     -11.449  14.640  66.329  1.00  0.00    -0.351 C  
BRANCH   8   9
HETATM    9  C   UNL     1     -12.141  13.324  66.669  1.00  0.00    -0.421 C  
BRANCH   9  10
HETATM   10  C   UNL     1     -11.133  12.180  66.729  1.00  0.00    -0.349 C  
BRANCH  10  11
HETATM   11  C   UNL     1     -11.484  11.200  67.846  1.00  0.00    -0.359 C  
BRANCH  11  12
HETATM   12  C   UNL     1     -11.588  11.919  69.188  1.00  0.00    -0.373 C  
BRANCH  12  13
HETATM   13  C   UNL     1     -11.477  10.932  70.348  1.00  0.00    -0.367 C  
BRANCH  13  14
HETATM   14  C   UNL     1     -12.640  11.101  71.323  1.00  0.00    -0.503 C  
BRANCH  14  15
HETATM   15  C   UNL     1     -13.003   9.774  71.983  1.00  0.00    -0.515 C  
BRANCH  15  16
HETATM   16  C   UNL     1     -12.121   8.643  71.477  1.00  0.00    -0.316 C  
HETATM   17  O   UNL     1     -12.930   7.586  70.985  1.00  0.00    -0.546 OA 
HETATM   18  H   UNL     1     -12.379   6.879  70.669  1.00  0.00     0.000 HD 
ENDBRANCH  15  16
ENDBRANCH  14  15
ENDBRANCH  13  14
ENDBRANCH  12  13
ENDBRANCH  11  12
ENDBRANCH  10  11
ENDBRANCH   9  10
ENDBRANCH   8   9
ENDBRANCH   7   8
ENDBRANCH   6   7
ENDBRANCH   5   6
ENDBRANCH   4   5
ENDBRANCH   3   4
ENDBRANCH   2   3
TORSDOF 14
ENDMDL
MODEL       22
REMARK 921   NORMALIZED FREE ENERGY PREDICTED BY IDOCK:   -4.07 KCAL/MOL
REMARK 922        TOTAL FREE ENERGY PREDICTED BY IDOCK:   -8.78 KCAL/MOL
REMARK 923 INTER-LIGAND FREE ENERGY PREDICTED BY IDOCK:   -6.70 KCAL/MOL
REMARK 924 INTRA-LIGAND FREE ENERGY PREDICTED BY IDOCK:   -2.08 KCAL/MOL
REMARK 927      BINDING AFFINITY PREDICTED BY RF-SCORE:    0.00 PKD
ROOT
HETATM    1  C   UNL     1     -12.528  11.872  63.433  1.00  0.00    -0.582 C  
HETATM    2  C   UNL     1     -11.350  12.786  63.723  1.00  0.00    -0.520 C  
ENDROOT
BRANCH   2   3
HETATM    3  C   UNL     1     -11.805  14.073  64.407  1.00  0.00    -0.453 C  
BRANCH   3   4
HETATM    4  C   UNL     1     -12.824  13.787  65.508  1.00  0.00    -0.464 C  
BRANCH   4   5
HETATM    5  C   UNL     1     -12.227  14.056  66.887  1.00  0.00    -0.415 C  
BRANCH   5   6
HETATM    6  C   UNL     1     -11.752  12.762  67.540  1.00  0.00    -0.422 C  
BRANCH   6   7
HETATM    7  C   UNL     1     -10.368  12.941  68.159  1.00  0.00    -0.243 C  
BRANCH   7   8
HETATM    8  C   UNL     1      -9.325  13.242  67.086  1.00  0.00    -0.240 C  
BRANCH   8   9
HETATM    9  C   UNL     1      -8.757  14.647  67.259  1.00  0.00    -0.224 C  
BRANCH   9  10
HETATM   10  C   UNL     1      -8.886  15.111  68.707  1.00  0.00    -0.196 C  
BRANCH  10  11
HETATM   11  C   UNL     1      -9.354  16.562  68.776  1.00  0.00    -0.247 C  
BRANCH  11  12
HETATM   12  C   UNL     1     -10.829  16.640  69.161  1.00  0.00    -0.315 C  
BRANCH  12  13
HETATM   13  C   UNL     1     -11.116  15.805  70.406  1.00  0.00    -0.380 C  
BRANCH  13  14
HETATM   14  C   UNL     1     -12.603  15.474  70.511  1.00  0.00    -0.462 C  
BRANCH  14  15
HETATM   15  C   UNL     1     -12.821  14.128  71.195  1.00  0.00    -0.431 C  
BRANCH  15  16
HETATM   16  C   UNL     1     -14.015  14.171  72.136  1.00  0.00    -0.531 C  
HETATM   17  O   UNL     1     -13.716  14.989  73.256  1.00  0.00    -0.577 OA 
HETATM   18  H   UNL     1     -14.461  15.016  73.844  1.00  0.00     0.000 HD 
ENDBRANCH  15  16
ENDBRANCH  14  15
ENDBRANCH  13  14
ENDBRANCH  12  13
ENDBRANCH  11  12
ENDBRANCH  10  11
ENDBRANCH   9  10
ENDBRANCH   8   9
ENDBRANCH   7   8
ENDBRANCH   6   7
ENDBRANCH   5   6
ENDBRANCH   4   5
ENDBRANCH   3   4
ENDBRANCH   2   3
TORSDOF 14
ENDMDL
MODEL       23
REMARK 921   NORMALIZED FREE ENERGY PREDICTED BY IDOCK:   -4.06 KCAL/MOL
REMARK 922        TOTAL FREE ENERGY PREDICTED BY IDOCK:   -8.77 KCAL/MOL
REMARK 923 INTER-LIGAND FREE ENERGY PREDICTED BY IDOCK:   -7.13 KCAL/MOL
REMARK 924 INTRA-LIGAND FREE ENERGY PREDICTED BY IDOCK:   -1.64 KCAL/MOL
REMARK 927      BINDING AFFINITY PREDICTED BY RF-SCORE:    0.00 PKD
ROOT
HETATM    1  C   UNL     1      -8.864  19.993  66.212  1.00  0.00    -0.360 C  
HETATM    2  C   UNL     1     -10.311  19.546  66.329  1.00  0.00    -0.601 C  
ENDROOT
BRANCH   2   3
HETATM    3  C   UNL     1     -10.577  18.883  67.679  1.00  0.00    -0.501 C  
BRANCH   3   4
HETATM    4  C   UNL     1     -10.781  17.377  67.527  1.00  0.00    -0.278 C  
BRANCH   4   5
HETATM    5  C   UNL     1      -9.441  16.652  67.430  1.00  0.00    -0.232 C  
BRANCH   5   6
HETATM    6  C   UNL     1      -9.318  15.902  66.108  1.00  0.00    -0.385 C  
BRANCH   6   7
HETATM    7  C   UNL     1     -10.634  15.942  65.334  1.00  0.00    -0.439 C  
BRANCH   7   8
HETATM    8  C   UNL     1     -10.975  14.568  64.766  1.00  0.00    -0.404 C  
BRANCH   8   9
HETATM    9  C   UNL     1     -12.292  14.054  65.341  1.00  0.00    -0.495 C  
BRANCH   9  10
HETATM   10  C   UNL     1     -12.096  12.711  66.035  1.00  0.00    -0.429 C  
BRANCH  10  11
HETATM   11  C   UNL     1     -11.121  12.835  67.202  1.00  0.00    -0.315 C  
BRANCH  11  12
HETATM   12  C   UNL     1     -11.868  12.909  68.531  1.00  0.00    -0.350 C  
BRANCH  12  13
HETATM   13  C   UNL     1     -11.909  14.341  69.058  1.00  0.00    -0.370 C  
BRANCH  13  14
HETATM   14  C   UNL     1     -12.448  14.381  70.487  1.00  0.00    -0.416 C  
BRANCH  14  15
HETATM   15  C   UNL     1     -12.570  12.977  71.070  1.00  0.00    -0.386 C  
BRANCH  15  16
HETATM   16  C   UNL     1     -13.581  12.933  72.205  1.00  0.00    -0.515 C  
HETATM   17  O   UNL     1     -13.569  14.167  72.907  1.00  0.00    -0.651 OA 
HETATM   18  H   UNL     1     -14.200  14.139  73.617  1.00  0.00     0.000 HD 
ENDBRANCH  15  16
ENDBRANCH  14  15
ENDBRANCH  13  14
ENDBRANCH  12  13
ENDBRANCH  11  12
ENDBRANCH  10  11
ENDBRANCH   9  10
ENDBRANCH   8   9
ENDBRANCH   7   8
ENDBRANCH   6   7
ENDBRANCH   5   6
ENDBRANCH   4   5
ENDBRANCH   3   4
ENDBRANCH   2   3
TORSDOF 14
ENDMDL
MODEL       24
REMARK 921   NORMALIZED FREE ENERGY PREDICTED BY IDOCK:   -4.06 KCAL/MOL
REMARK 922        TOTAL FREE ENERGY PREDICTED BY IDOCK:   -8.77 KCAL/MOL
REMARK 923 INTER-LIGAND FREE ENERGY PREDICTED BY IDOCK:   -6.89 KCAL/MOL
REMARK 924 INTRA-LIGAND FREE ENERGY PREDICTED BY IDOCK:   -1.88 KCAL/MOL
REMARK 927      BINDING AFFINITY PREDICTED BY RF-SCORE:    0.00 PKD
ROOT
HETATM    1  C   UNL     1     -10.398  10.838  66.478  1.00  0.00    -0.300 C  
HETATM    2  C   UNL     1     -10.159  11.337  65.063  1.00  0.00    -0.331 C  
ENDROOT
BRANCH   2   3
HETATM    3  C   UNL     1     -11.350  12.147  64.555  1.00  0.00    -0.393 C  
BRANCH   3   4
HETATM    4  C   UNL     1     -12.266  12.567  65.702  1.00  0.00    -0.403 C  
BRANCH   4   5
HETATM    5  C   UNL     1     -12.677  14.031  65.566  1.00  0.00    -0.517 C  
BRANCH   5   6
HETATM    6  C   UNL     1     -12.039  14.667  64.336  1.00  0.00    -0.481 C  
BRANCH   6   7
HETATM    7  C   UNL     1     -11.085  15.790  64.736  1.00  0.00    -0.413 C  
BRANCH   7   8
HETATM    8  C   UNL     1     -10.763  15.727  66.227  1.00  0.00    -0.282 C  
BRANCH   8   9
HETATM    9  C   UNL     1      -9.445  14.995  66.466  1.00  0.00    -0.306 C  
BRANCH   9  10
HETATM   10  C   UNL     1      -9.479  14.235  67.788  1.00  0.00    -0.216 C  
BRANCH  10  11
HETATM   11  C   UNL     1     -10.574  14.776  68.703  1.00  0.00    -0.255 C  
BRANCH  11  12
HETATM   12  C   UNL     1     -11.421  13.640  69.269  1.00  0.00    -0.344 C  
BRANCH  12  13
HETATM   13  C   UNL     1     -12.478  14.174  70.234  1.00  0.00    -0.416 C  
BRANCH  13  14
HETATM   14  C   UNL     1     -12.824  13.131  71.295  1.00  0.00    -0.384 C  
BRANCH  14  15
HETATM   15  C   UNL     1     -13.595  13.759  72.453  1.00  0.00    -0.690 C  
BRANCH  15  16
HETATM   16  C   UNL     1     -12.955  15.064  72.903  1.00  0.00    -0.463 C  
HETATM   17  O   UNL     1     -13.963  16.022  73.185  1.00  0.00    -0.693 OA 
HETATM   18  H   UNL     1     -13.564  16.837  73.466  1.00  0.00     0.000 HD 
ENDBRANCH  15  16
ENDBRANCH  14  15
ENDBRANCH  13  14
ENDBRANCH  12  13
ENDBRANCH  11  12
ENDBRANCH  10  11
ENDBRANCH   9  10
ENDBRANCH   8   9
ENDBRANCH   7   8
ENDBRANCH   6   7
ENDBRANCH   5   6
ENDBRANCH   4   5
ENDBRANCH   3   4
ENDBRANCH   2   3
TORSDOF 14
ENDMDL
MODEL       25
REMARK 921   NORMALIZED FREE ENERGY PREDICTED BY IDOCK:   -4.05 KCAL/MOL
REMARK 922        TOTAL FREE ENERGY PREDICTED BY IDOCK:   -8.75 KCAL/MOL
REMARK 923 INTER-LIGAND FREE ENERGY PREDICTED BY IDOCK:   -7.22 KCAL/MOL
REMARK 924 INTRA-LIGAND FREE ENERGY PREDICTED BY IDOCK:   -1.53 KCAL/MOL
REMARK 927      BINDING AFFINITY PREDICTED BY RF-SCORE:    0.00 PKD
ROOT
HETATM    1  C   UNL     1     -11.293  15.633  68.405  1.00  0.00    -0.365 C  
HETATM    2  C   UNL     1     -11.117  14.991  67.040  1.00  0.00    -0.334 C  
ENDROOT
BRANCH   2   3
HETATM    3  C   UNL     1     -12.278  14.053  66.717  1.00  0.00    -0.439 C  
BRANCH   3   4
HETATM    4  C   UNL     1     -12.629  14.096  65.231  1.00  0.00    -0.460 C  
BRANCH   4   5
HETATM    5  C   UNL     1     -12.573  12.700  64.616  1.00  0.00    -0.517 C  
BRANCH   5   6
HETATM    6  C   UNL     1     -11.393  12.569  63.659  1.00  0.00    -0.555 C  
BRANCH   6   7
HETATM    7  C   UNL     1     -10.565  11.327  63.981  1.00  0.00    -0.450 C  
BRANCH   7   8
HETATM    8  C   UNL     1     -10.155  11.311  65.451  1.00  0.00    -0.314 C  
BRANCH   8   9
HETATM    9  C   UNL     1     -10.229   9.897  66.020  1.00  0.00    -0.269 C  
BRANCH   9  10
HETATM   10  C   UNL     1     -10.506   9.929  67.520  1.00  0.00    -0.310 C  
BRANCH  10  11
HETATM   11  C   UNL     1     -11.428  11.090  67.882  1.00  0.00    -0.358 C  
BRANCH  11  12
HETATM   12  C   UNL     1     -10.959  11.780  69.160  1.00  0.00    -0.261 C  
BRANCH  12  13
HETATM   13  C   UNL     1     -12.022  11.690  70.252  1.00  0.00    -0.445 C  
BRANCH  13  14
HETATM   14  C   UNL     1     -12.434  13.080  70.729  1.00  0.00    -0.384 C  
BRANCH  14  15
HETATM   15  C   UNL     1     -13.304  12.998  71.980  1.00  0.00    -0.588 C  
BRANCH  15  16
HETATM   16  C   UNL     1     -14.147  14.253  72.153  1.00  0.00    -0.540 C  
HETATM   17  O   UNL     1     -14.017  15.081  71.008  1.00  0.00    -0.634 OA 
HETATM   18  H   UNL     1     -14.544  15.864  71.116  1.00  0.00     0.000 HD 
ENDBRANCH  15  16
ENDBRANCH  14  15
ENDBRANCH  13  14
ENDBRANCH  12  13
ENDBRANCH  11  12
ENDBRANCH  10  11
ENDBRANCH   9  10
ENDBRANCH   8   9
ENDBRANCH   7   8
ENDBRANCH   6   7
ENDBRANCH   5   6
ENDBRANCH   4   5
ENDBRANCH   3   4
ENDBRANCH   2   3
TORSDOF 14
ENDMDL
MODEL       26
REMARK 921   NORMALIZED FREE ENERGY PREDICTED BY IDOCK:   -4.04 KCAL/MOL
REMARK 922        TOTAL FREE ENERGY PREDICTED BY IDOCK:   -8.72 KCAL/MOL
REMARK 923 INTER-LIGAND FREE ENERGY PREDICTED BY IDOCK:   -7.32 KCAL/MOL
REMARK 924 INTRA-LIGAND FREE ENERGY PREDICTED BY IDOCK:   -1.40 KCAL/MOL
REMARK 927      BINDING AFFINITY PREDICTED BY RF-SCORE:    0.00 PKD
ROOT
HETATM    1  C   UNL     1     -11.964  15.091  69.379  1.00  0.00    -0.336 C  
HETATM    2  C   UNL     1     -11.470  15.052  67.942  1.00  0.00    -0.354 C  
ENDROOT
BRANCH   2   3
HETATM    3  C   UNL     1     -11.917  13.773  67.239  1.00  0.00    -0.436 C  
BRANCH   3   4
HETATM    4  C   UNL     1     -12.523  14.074  65.870  1.00  0.00    -0.513 C  
BRANCH   4   5
HETATM    5  C   UNL     1     -12.475  12.843  64.969  1.00  0.00    -0.553 C  
BRANCH   5   6
HETATM    6  C   UNL     1     -11.485  13.038  63.826  1.00  0.00    -0.486 C  
BRANCH   6   7
HETATM    7  C   UNL     1     -10.417  11.946  63.839  1.00  0.00    -0.441 C  
BRANCH   7   8
HETATM    8  C   UNL     1     -10.635  10.983  65.002  1.00  0.00    -0.315 C  
BRANCH   8   9
HETATM    9  C   UNL     1      -9.309  10.622  65.664  1.00  0.00    -0.239 C  
BRANCH   9  10
HETATM   10  C   UNL     1      -9.528   9.678  66.842  1.00  0.00    -0.198 C  
BRANCH  10  11
HETATM   11  C   UNL     1     -10.748  10.097  67.659  1.00  0.00    -0.339 C  
BRANCH  11  12
HETATM   12  C   UNL     1     -10.331  10.915  68.878  1.00  0.00    -0.222 C  
BRANCH  12  13
HETATM   13  C   UNL     1     -11.541  11.267  69.741  1.00  0.00    -0.408 C  
BRANCH  13  14
HETATM   14  C   UNL     1     -11.651  10.325  70.938  1.00  0.00    -0.454 C  
BRANCH  14  15
HETATM   15  C   UNL     1     -13.109  10.066  71.303  1.00  0.00    -0.493 C  
BRANCH  15  16
HETATM   16  C   UNL     1     -13.268   8.753  72.055  1.00  0.00    -0.395 C  
HETATM   17  O   UNL     1     -14.176   8.923  73.132  1.00  0.00    -1.144 OA 
HETATM   18  H   UNL     1     -14.276   8.104  73.602  1.00  0.00     0.000 HD 
ENDBRANCH  15  16
ENDBRANCH  14  15
ENDBRANCH  13  14
ENDBRANCH  12  13
ENDBRANCH  11  12
ENDBRANCH  10  11
ENDBRANCH   9  10
ENDBRANCH   8   9
ENDBRANCH   7   8
ENDBRANCH   6   7
ENDBRANCH   5   6
ENDBRANCH   4   5
ENDBRANCH   3   4
ENDBRANCH   2   3
TORSDOF 14
ENDMDL
MODEL       27
REMARK 921   NORMALIZED FREE ENERGY PREDICTED BY IDOCK:   -4.03 KCAL/MOL
REMARK 922        TOTAL FREE ENERGY PREDICTED BY IDOCK:   -8.71 KCAL/MOL
REMARK 923 INTER-LIGAND FREE ENERGY PREDICTED BY IDOCK:   -7.28 KCAL/MOL
REMARK 924 INTRA-LIGAND FREE ENERGY PREDICTED BY IDOCK:   -1.43 KCAL/MOL
REMARK 927      BINDING AFFINITY PREDICTED BY RF-SCORE:    0.00 PKD
ROOT
HETATM    1  C   UNL     1     -13.058   9.794  71.843  1.00  0.00    -0.544 C  
HETATM    2  C   UNL     1     -12.240  10.563  70.820  1.00  0.00    -0.468 C  
ENDROOT
BRANCH   2   3
HETATM    3  C   UNL     1     -12.463  12.068  70.952  1.00  0.00    -0.384 C  
BRANCH   3   4
HETATM    4  C   UNL     1     -13.410  12.389  72.106  1.00  0.00    -0.508 C  
BRANCH   4   5
HETATM    5  C   UNL     1     -13.775  13.872  72.116  1.00  0.00    -0.619 C  
BRANCH   5   6
HETATM    6  C   UNL     1     -12.856  14.656  73.048  1.00  0.00    -0.572 C  
BRANCH   6   7
HETATM    7  C   UNL     1     -12.130  15.765  72.290  1.00  0.00    -0.574 C  
BRANCH   7   8
HETATM    8  C   UNL     1     -12.542  15.782  70.821  1.00  0.00    -0.405 C  
BRANCH   8   9
HETATM    9  C   UNL     1     -11.352  15.469  69.920  1.00  0.00    -0.323 C  
BRANCH   9  10
HETATM   10  C   UNL     1     -11.778  15.411  68.456  1.00  0.00    -0.355 C  
BRANCH  10  11
HETATM   11  C   UNL     1     -12.035  13.972  68.018  1.00  0.00    -0.386 C  
BRANCH  11  12
HETATM   12  C   UNL     1     -11.922  13.835  66.502  1.00  0.00    -0.470 C  
BRANCH  12  13
HETATM   13  C   UNL     1     -11.773  12.372  66.094  1.00  0.00    -0.460 C  
BRANCH  13  14
HETATM   14  C   UNL     1     -11.431  11.500  67.300  1.00  0.00    -0.338 C  
BRANCH  14  15
HETATM   15  C   UNL     1     -10.138  10.724  67.069  1.00  0.00    -0.249 C  
BRANCH  15  16
HETATM   16  C   UNL     1     -10.410   9.369  66.433  1.00  0.00    -0.167 C  
HETATM   17  O   UNL     1      -9.751   9.286  65.179  1.00  0.00    -0.456 OA 
HETATM   18  H   UNL     1      -9.920   8.440  64.781  1.00  0.00     0.000 HD 
ENDBRANCH  15  16
ENDBRANCH  14  15
ENDBRANCH  13  14
ENDBRANCH  12  13
ENDBRANCH  11  12
ENDBRANCH  10  11
ENDBRANCH   9  10
ENDBRANCH   8   9
ENDBRANCH   7   8
ENDBRANCH   6   7
ENDBRANCH   5   6
ENDBRANCH   4   5
ENDBRANCH   3   4
ENDBRANCH   2   3
TORSDOF 14
ENDMDL
MODEL       28
REMARK 921   NORMALIZED FREE ENERGY PREDICTED BY IDOCK:   -4.02 KCAL/MOL
REMARK 922        TOTAL FREE ENERGY PREDICTED BY IDOCK:   -8.68 KCAL/MOL
REMARK 923 INTER-LIGAND FREE ENERGY PREDICTED BY IDOCK:   -7.43 KCAL/MOL
REMARK 924 INTRA-LIGAND FREE ENERGY PREDICTED BY IDOCK:   -1.26 KCAL/MOL
REMARK 927      BINDING AFFINITY PREDICTED BY RF-SCORE:    0.00 PKD
ROOT
HETATM    1  C   UNL     1     -10.613   5.714  69.546  1.00  0.00    -0.384 C  
HETATM    2  C   UNL     1     -11.004   7.155  69.827  1.00  0.00    -0.256 C  
ENDROOT
BRANCH   2   3
HETATM    3  C   UNL     1     -10.290   7.689  71.067  1.00  0.00    -0.208 C  
BRANCH   3   4
HETATM    4  C   UNL     1     -11.286   8.056  72.166  1.00  0.00    -0.380 C  
BRANCH   4   5
HETATM    5  C   UNL     1     -12.712   8.086  71.622  1.00  0.00    -0.347 C  
BRANCH   5   6
HETATM    6  C   UNL     1     -13.464   9.315  72.124  1.00  0.00    -0.539 C  
BRANCH   6   7
HETATM    7  C   UNL     1     -12.704  10.595  71.783  1.00  0.00    -0.489 C  
BRANCH   7   8
HETATM    8  C   UNL     1     -12.813  10.915  70.295  1.00  0.00    -0.209 C  
BRANCH   8   9
HETATM    9  C   UNL     1     -11.463  11.348  69.732  1.00  0.00    -0.376 C  
BRANCH   9  10
HETATM   10  C   UNL     1     -11.292  10.865  68.295  1.00  0.00    -0.374 C  
BRANCH  10  11
HETATM   11  C   UNL     1     -11.267  12.040  67.322  1.00  0.00    -0.371 C  
BRANCH  11  12
HETATM   12  C   UNL     1     -10.688  11.619  65.974  1.00  0.00    -0.328 C  
BRANCH  12  13
HETATM   13  C   UNL     1     -11.504  12.201  64.823  1.00  0.00    -0.377 C  
BRANCH  13  14
HETATM   14  C   UNL     1     -12.361  13.373  65.297  1.00  0.00    -0.513 C  
BRANCH  14  15
HETATM   15  C   UNL     1     -12.265  14.552  64.333  1.00  0.00    -0.480 C  
BRANCH  15  16
HETATM   16  C   UNL     1     -11.056  15.422  64.640  1.00  0.00    -0.347 C  
HETATM   17  O   UNL     1     -11.208  16.690  64.020  1.00  0.00    -1.449 OA 
HETATM   18  H   UNL     1     -10.452  17.234  64.211  1.00  0.00     0.000 HD 
ENDBRANCH  15  16
ENDBRANCH  14  15
ENDBRANCH  13  14
ENDBRANCH  12  13
ENDBRANCH  11  12
ENDBRANCH  10  11
ENDBRANCH   9  10
ENDBRANCH   8   9
ENDBRANCH   7   8
ENDBRANCH   6   7
ENDBRANCH   5   6
ENDBRANCH   4   5
ENDBRANCH   3   4
ENDBRANCH   2   3
TORSDOF 14
ENDMDL
MODEL       29
REMARK 921   NORMALIZED FREE ENERGY PREDICTED BY IDOCK:   -4.01 KCAL/MOL
REMARK 922        TOTAL FREE ENERGY PREDICTED BY IDOCK:   -8.68 KCAL/MOL
REMARK 923 INTER-LIGAND FREE ENERGY PREDICTED BY IDOCK:   -6.88 KCAL/MOL
REMARK 924 INTRA-LIGAND FREE ENERGY PREDICTED BY IDOCK:   -1.79 KCAL/MOL
REMARK 927      BINDING AFFINITY PREDICTED BY RF-SCORE:    0.00 PKD
ROOT
HETATM    1  C   UNL     1     -11.148  10.467  67.562  1.00  0.00    -0.358 C  
HETATM    2  C   UNL     1     -10.406   9.186  67.224  1.00  0.00    -0.338 C  
ENDROOT
BRANCH   2   3
HETATM    3  C   UNL     1      -9.780   9.261  65.833  1.00  0.00    -0.355 C  
BRANCH   3   4
HETATM    4  C   UNL     1      -9.584  10.710  65.390  1.00  0.00    -0.282 C  
BRANCH   4   5
HETATM    5  C   UNL     1      -9.900  10.874  63.905  1.00  0.00    -0.385 C  
BRANCH   5   6
HETATM    6  C   UNL     1     -10.609  12.198  63.638  1.00  0.00    -0.504 C  
BRANCH   6   7
HETATM    7  C   UNL     1     -12.123  12.006  63.599  1.00  0.00    -0.627 C  
BRANCH   7   8
HETATM    8  C   UNL     1     -12.785  12.638  64.820  1.00  0.00    -0.460 C  
BRANCH   8   9
HETATM    9  C   UNL     1     -12.104  13.952  65.188  1.00  0.00    -0.415 C  
BRANCH   9  10
HETATM   10  C   UNL     1     -11.844  14.028  66.689  1.00  0.00    -0.443 C  
BRANCH  10  11
HETATM   11  C   UNL     1     -10.347  14.064  66.984  1.00  0.00    -0.267 C  
BRANCH  11  12
HETATM   12  C   UNL     1      -9.588  14.772  65.865  1.00  0.00    -0.320 C  
BRANCH  12  13
HETATM   13  C   UNL     1      -8.947  16.062  66.370  1.00  0.00    -0.354 C  
BRANCH  13  14
HETATM   14  C   UNL     1      -9.964  17.201  66.404  1.00  0.00    -0.315 C  
BRANCH  14  15
HETATM   15  C   UNL     1      -9.275  18.550  66.587  1.00  0.00    -0.306 C  
BRANCH  15  16
HETATM   16  C   UNL     1     -10.190  19.699  66.192  1.00  0.00    -0.508 C  
HETATM   17  O   UNL     1      -9.764  20.893  66.829  1.00  0.00    -0.646 OA 
HETATM   18  H   UNL     1     -10.335  21.611  66.583  1.00  0.00     0.000 HD 
ENDBRANCH  15  16
ENDBRANCH  14  15
ENDBRANCH  13  14
ENDBRANCH  12  13
ENDBRANCH  11  12
ENDBRANCH  10  11
ENDBRANCH   9  10
ENDBRANCH   8   9
ENDBRANCH   7   8
ENDBRANCH   6   7
ENDBRANCH   5   6
ENDBRANCH   4   5
ENDBRANCH   3   4
ENDBRANCH   2   3
TORSDOF 14
ENDMDL
MODEL       30
REMARK 921   NORMALIZED FREE ENERGY PREDICTED BY IDOCK:   -4.01 KCAL/MOL
REMARK 922        TOTAL FREE ENERGY PREDICTED BY IDOCK:   -8.67 KCAL/MOL
REMARK 923 INTER-LIGAND FREE ENERGY PREDICTED BY IDOCK:   -6.61 KCAL/MOL
REMARK 924 INTRA-LIGAND FREE ENERGY PREDICTED BY IDOCK:   -2.06 KCAL/MOL
REMARK 927      BINDING AFFINITY PREDICTED BY RF-SCORE:    0.00 PKD
ROOT
HETATM    1  C   UNL     1     -10.040  10.487  64.872  1.00  0.00    -0.403 C  
HETATM    2  C   UNL     1     -10.245  11.095  63.495  1.00  0.00    -0.446 C  
ENDROOT
BRANCH   2   3
HETATM    3  C   UNL     1     -11.041  12.396  63.579  1.00  0.00    -0.521 C  
BRANCH   3   4
HETATM    4  C   UNL     1     -12.212  12.268  64.550  1.00  0.00    -0.469 C  
BRANCH   4   5
HETATM    5  C   UNL     1     -12.510  13.605  65.225  1.00  0.00    -0.517 C  
BRANCH   5   6
HETATM    6  C   UNL     1     -12.166  14.772  64.306  1.00  0.00    -0.402 C  
BRANCH   6   7
HETATM    7  C   UNL     1     -11.036  15.614  64.894  1.00  0.00    -0.447 C  
BRANCH   7   8
HETATM    8  C   UNL     1     -10.779  15.241  66.351  1.00  0.00    -0.318 C  
BRANCH   8   9
HETATM    9  C   UNL     1      -9.310  14.895  66.572  1.00  0.00    -0.308 C  
BRANCH   9  10
HETATM   10  C   UNL     1      -9.135  13.399  66.815  1.00  0.00    -0.221 C  
BRANCH  10  11
HETATM   11  C   UNL     1      -9.609  13.013  68.214  1.00  0.00    -0.213 C  
BRANCH  11  12
HETATM   12  C   UNL     1     -10.778  12.034  68.142  1.00  0.00    -0.246 C  
BRANCH  12  13
HETATM   13  C   UNL     1     -11.762  12.271  69.285  1.00  0.00    -0.388 C  
BRANCH  13  14
HETATM   14  C   UNL     1     -12.147  13.746  69.377  1.00  0.00    -0.377 C  
BRANCH  14  15
HETATM   15  C   UNL     1     -12.046  14.253  70.812  1.00  0.00    -0.418 C  
BRANCH  15  16
HETATM   16  C   UNL     1     -13.243  15.114  71.183  1.00  0.00    -0.469 C  
HETATM   17  O   UNL     1     -12.893  15.997  72.237  1.00  0.00    -0.452 OA 
HETATM   18  H   UNL     1     -13.641  16.535  72.469  1.00  0.00     0.000 HD 
ENDBRANCH  15  16
ENDBRANCH  14  15
ENDBRANCH  13  14
ENDBRANCH  12  13
ENDBRANCH  11  12
ENDBRANCH  10  11
ENDBRANCH   9  10
ENDBRANCH   8   9
ENDBRANCH   7   8
ENDBRANCH   6   7
ENDBRANCH   5   6
ENDBRANCH   4   5
ENDBRANCH   3   4
ENDBRANCH   2   3
TORSDOF 14
ENDMDL
MODEL       31
REMARK 921   NORMALIZED FREE ENERGY PREDICTED BY IDOCK:   -4.00 KCAL/MOL
REMARK 922        TOTAL FREE ENERGY PREDICTED BY IDOCK:   -8.66 KCAL/MOL
REMARK 923 INTER-LIGAND FREE ENERGY PREDICTED BY IDOCK:   -7.14 KCAL/MOL
REMARK 924 INTRA-LIGAND FREE ENERGY PREDICTED BY IDOCK:   -1.53 KCAL/MOL
REMARK 927      BINDING AFFINITY PREDICTED BY RF-SCORE:    0.00 PKD
ROOT
HETATM    1  C   UNL     1     -10.975   6.662  67.243  1.00  0.00    -0.456 C  
HETATM    2  C   UNL     1      -9.746   6.756  68.130  1.00  0.00    -0.129 C  
ENDROOT
BRANCH   2   3
HETATM    3  C   UNL     1     -10.041   6.248  69.539  1.00  0.00    -0.217 C  
BRANCH   3   4
HETATM    4  C   UNL     1     -11.499   6.493  69.923  1.00  0.00    -0.467 C  
BRANCH   4   5
HETATM    5  C   UNL     1     -11.656   6.587  71.438  1.00  0.00    -0.371 C  
BRANCH   5   6
HETATM    6  C   UNL     1     -12.230   7.940  71.848  1.00  0.00    -0.351 C  
BRANCH   6   7
HETATM    7  C   UNL     1     -11.171   9.035  71.737  1.00  0.00    -0.448 C  
BRANCH   7   8
HETATM    8  C   UNL     1     -11.570  10.076  70.696  1.00  0.00    -0.422 C  
BRANCH   8   9
HETATM    9  C   UNL     1     -10.499  10.203  69.616  1.00  0.00    -0.282 C  
BRANCH   9  10
HETATM   10  C   UNL     1     -11.132  10.325  68.234  1.00  0.00    -0.311 C  
BRANCH  10  11
HETATM   11  C   UNL     1     -10.069  10.570  67.166  1.00  0.00    -0.253 C  
BRANCH  11  12
HETATM   12  C   UNL     1     -10.579  11.538  66.102  1.00  0.00    -0.314 C  
BRANCH  12  13
HETATM   13  C   UNL     1     -11.828  12.273  66.584  1.00  0.00    -0.362 C  
BRANCH  13  14
HETATM   14  C   UNL     1     -11.615  13.785  66.557  1.00  0.00    -0.386 C  
BRANCH  14  15
HETATM   15  C   UNL     1     -11.926  14.360  65.178  1.00  0.00    -0.391 C  
BRANCH  15  16
HETATM   16  C   UNL     1     -11.009  15.528  64.845  1.00  0.00    -0.436 C  
HETATM   17  O   UNL     1     -11.591  16.318  63.820  1.00  0.00    -1.539 OA 
HETATM   18  H   UNL     1     -11.018  17.047  63.611  1.00  0.00     0.000 HD 
ENDBRANCH  15  16
ENDBRANCH  14  15
ENDBRANCH  13  14
ENDBRANCH  12  13
ENDBRANCH  11  12
ENDBRANCH  10  11
ENDBRANCH   9  10
ENDBRANCH   8   9
ENDBRANCH   7   8
ENDBRANCH   6   7
ENDBRANCH   5   6
ENDBRANCH   4   5
ENDBRANCH   3   4
ENDBRANCH   2   3
TORSDOF 14
ENDMDL
MODEL       32
REMARK 921   NORMALIZED FREE ENERGY PREDICTED BY IDOCK:   -3.99 KCAL/MOL
REMARK 922        TOTAL FREE ENERGY PREDICTED BY IDOCK:   -8.64 KCAL/MOL
REMARK 923 INTER-LIGAND FREE ENERGY PREDICTED BY IDOCK:   -7.13 KCAL/MOL
REMARK 924 INTRA-LIGAND FREE ENERGY PREDICTED BY IDOCK:   -1.51 KCAL/MOL
REMARK 927      BINDING AFFINITY PREDICTED BY RF-SCORE:    0.00 PKD
ROOT
HETATM    1  C   UNL     1      -9.452   9.996  64.297  1.00  0.00    -0.336 C  
HETATM    2  C   UNL     1     -10.489  11.028  64.706  1.00  0.00    -0.384 C  
ENDROOT
BRANCH   2   3
HETATM    3  C   UNL     1     -10.712  12.055  63.598  1.00  0.00    -0.506 C  
BRANCH   3   4
HETATM    4  C   UNL     1     -12.172  12.502  63.541  1.00  0.00    -0.652 C  
BRANCH   4   5
HETATM    5  C   UNL     1     -12.455  13.578  64.587  1.00  0.00    -0.372 C  
BRANCH   5   6
HETATM    6  C   UNL     1     -11.297  14.565  64.685  1.00  0.00    -0.372 C  
BRANCH   6   7
HETATM    7  C   UNL     1     -10.970  14.876  66.144  1.00  0.00    -0.334 C  
BRANCH   7   8
HETATM    8  C   UNL     1      -9.659  14.216  66.562  1.00  0.00    -0.310 C  
BRANCH   8   9
HETATM    9  C   UNL     1      -9.884  13.246  67.719  1.00  0.00    -0.224 C  
BRANCH   9  10
HETATM   10  C   UNL     1     -11.373  13.061  67.990  1.00  0.00    -0.327 C  
BRANCH  10  11
HETATM   11  C   UNL     1     -11.709  13.389  69.443  1.00  0.00    -0.382 C  
BRANCH  11  12
HETATM   12  C   UNL     1     -11.969  14.883  69.618  1.00  0.00    -0.360 C  
BRANCH  12  13
HETATM   13  C   UNL     1     -11.666  15.328  71.046  1.00  0.00    -0.394 C  
BRANCH  13  14
HETATM   14  C   UNL     1     -12.954  15.613  71.815  1.00  0.00    -0.541 C  
BRANCH  14  15
HETATM   15  C   UNL     1     -13.237  14.520  72.841  1.00  0.00    -0.612 C  
BRANCH  15  16
HETATM   16  C   UNL     1     -14.136  13.436  72.264  1.00  0.00    -0.417 C  
HETATM   17  O   UNL     1     -13.486  12.177  72.350  1.00  0.00    -0.610 OA 
HETATM   18  H   UNL     1     -14.048  11.500  71.989  1.00  0.00     0.000 HD 
ENDBRANCH  15  16
ENDBRANCH  14  15
ENDBRANCH  13  14
ENDBRANCH  12  13
ENDBRANCH  11  12
ENDBRANCH  10  11
ENDBRANCH   9  10
ENDBRANCH   8   9
ENDBRANCH   7   8
ENDBRANCH   6   7
ENDBRANCH   5   6
ENDBRANCH   4   5
ENDBRANCH   3   4
ENDBRANCH   2   3
TORSDOF 14
ENDMDL
MODEL       33
REMARK 921   NORMALIZED FREE ENERGY PREDICTED BY IDOCK:   -3.97 KCAL/MOL
REMARK 922        TOTAL FREE ENERGY PREDICTED BY IDOCK:   -8.60 KCAL/MOL
REMARK 923 INTER-LIGAND FREE ENERGY PREDICTED BY IDOCK:   -6.29 KCAL/MOL
REMARK 924 INTRA-LIGAND FREE ENERGY PREDICTED BY IDOCK:   -2.31 KCAL/MOL
REMARK 927      BINDING AFFINITY PREDICTED BY RF-SCORE:    0.00 PKD
ROOT
HETATM    1  C   UNL     1     -12.461  12.047  63.429  1.00  0.00    -0.625 C  
HETATM    2  C   UNL     1     -11.083  12.620  63.714  1.00  0.00    -0.504 C  
ENDROOT
BRANCH   2   3
HETATM    3  C   UNL     1     -11.142  13.682  64.809  1.00  0.00    -0.375 C  
BRANCH   3   4
HETATM    4  C   UNL     1     -12.338  13.461  65.733  1.00  0.00    -0.513 C  
BRANCH   4   5
HETATM    5  C   UNL     1     -12.043  13.975  67.140  1.00  0.00    -0.436 C  
BRANCH   5   6
HETATM    6  C   UNL     1     -10.642  14.572  67.224  1.00  0.00    -0.280 C  
BRANCH   6   7
HETATM    7  C   UNL     1      -9.819  13.879  68.307  1.00  0.00    -0.231 C  
BRANCH   7   8
HETATM    8  C   UNL     1      -8.711  13.029  67.691  1.00  0.00    -0.189 C  
BRANCH   8   9
HETATM    9  C   UNL     1      -8.915  11.552  68.016  1.00  0.00    -0.170 C  
BRANCH   9  10
HETATM   10  C   UNL     1      -9.723  10.862  66.922  1.00  0.00    -0.210 C  
BRANCH  10  11
HETATM   11  C   UNL     1     -11.035  10.312  67.475  1.00  0.00    -0.344 C  
BRANCH  11  12
HETATM   12  C   UNL     1     -11.111  10.504  68.987  1.00  0.00    -0.300 C  
BRANCH  12  13
HETATM   13  C   UNL     1     -12.318  11.357  69.371  1.00  0.00    -0.184 C  
BRANCH  13  14
HETATM   14  C   UNL     1     -12.287  11.709  70.857  1.00  0.00    -0.436 C  
BRANCH  14  15
HETATM   15  C   UNL     1     -12.667  13.170  71.084  1.00  0.00    -0.386 C  
BRANCH  15  16
HETATM   16  C   UNL     1     -13.800  13.299  72.091  1.00  0.00    -0.461 C  
HETATM   17  O   UNL     1     -13.489  14.308  73.038  1.00  0.00    -0.644 OA 
HETATM   18  H   UNL     1     -14.196  14.389  73.667  1.00  0.00     0.000 HD 
ENDBRANCH  15  16
ENDBRANCH  14  15
ENDBRANCH  13  14
ENDBRANCH  12  13
ENDBRANCH  11  12
ENDBRANCH  10  11
ENDBRANCH   9  10
ENDBRANCH   8   9
ENDBRANCH   7   8
ENDBRANCH   6   7
ENDBRANCH   5   6
ENDBRANCH   4   5
ENDBRANCH   3   4
ENDBRANCH   2   3
TORSDOF 14
ENDMDL
MODEL       34
REMARK 921   NORMALIZED FREE ENERGY PREDICTED BY IDOCK:   -3.96 KCAL/MOL
REMARK 922        TOTAL FREE ENERGY PREDICTED BY IDOCK:   -8.58 KCAL/MOL
REMARK 923 INTER-LIGAND FREE ENERGY PREDICTED BY IDOCK:   -6.86 KCAL/MOL
REMARK 924 INTRA-LIGAND FREE ENERGY PREDICTED BY IDOCK:   -1.72 KCAL/MOL
REMARK 927      BINDING AFFINITY PREDICTED BY RF-SCORE:    0.00 PKD
ROOT
HETATM    1  C   UNL     1      -9.188  12.808  67.965  1.00  0.00    -0.208 C  
HETATM    2  C   UNL     1      -9.623  11.469  67.394  1.00  0.00    -0.177 C  
ENDROOT
BRANCH   2   3
HETATM    3  C   UNL     1      -9.329  11.384  65.898  1.00  0.00    -0.247 C  
BRANCH   3   4
HETATM    4  C   UNL     1     -10.530  10.845  65.125  1.00  0.00    -0.316 C  
BRANCH   4   5
HETATM    5  C   UNL     1     -10.547  11.382  63.697  1.00  0.00    -0.476 C  
BRANCH   5   6
HETATM    6  C   UNL     1     -11.571  12.502  63.543  1.00  0.00    -0.584 C  
BRANCH   6   7
HETATM    7  C   UNL     1     -12.526  12.533  64.734  1.00  0.00    -0.532 C  
BRANCH   7   8
HETATM    8  C   UNL     1     -12.466  13.882  65.446  1.00  0.00    -0.528 C  
BRANCH   8   9
HETATM    9  C   UNL     1     -11.550  14.849  64.703  1.00  0.00    -0.395 C  
BRANCH   9  10
HETATM   10  C   UNL     1     -10.262  15.087  65.484  1.00  0.00    -0.406 C  
BRANCH  10  11
HETATM   11  C   UNL     1     -10.194  16.521  66.003  1.00  0.00    -0.372 C  
BRANCH  11  12
HETATM   12  C   UNL     1      -9.564  16.568  67.392  1.00  0.00    -0.238 C  
BRANCH  12  13
HETATM   13  C   UNL     1     -10.575  17.036  68.436  1.00  0.00    -0.375 C  
BRANCH  13  14
HETATM   14  C   UNL     1     -11.392  15.861  68.970  1.00  0.00    -0.371 C  
BRANCH  14  15
HETATM   15  C   UNL     1     -11.164  15.665  70.465  1.00  0.00    -0.382 C  
BRANCH  15  16
HETATM   16  C   UNL     1     -12.473  15.720  71.239  1.00  0.00    -0.448 C  
HETATM   17  O   UNL     1     -13.560  15.473  70.361  1.00  0.00    -0.806 OA 
HETATM   18  H   UNL     1     -14.378  15.508  70.843  1.00  0.00     0.000 HD 
ENDBRANCH  15  16
ENDBRANCH  14  15
ENDBRANCH  13  14
ENDBRANCH  12  13
ENDBRANCH  11  12
ENDBRANCH  10  11
ENDBRANCH   9  10
ENDBRANCH   8   9
ENDBRANCH   7   8
ENDBRANCH   6   7
ENDBRANCH   5   6
ENDBRANCH   4   5
ENDBRANCH   3   4
ENDBRANCH   2   3
TORSDOF 14
ENDMDL
MODEL       35
REMARK 921   NORMALIZED FREE ENERGY PREDICTED BY IDOCK:   -3.96 KCAL/MOL
REMARK 922        TOTAL FREE ENERGY PREDICTED BY IDOCK:   -8.58 KCAL/MOL
REMARK 923 INTER-LIGAND FREE ENERGY PREDICTED BY IDOCK:   -7.13 KCAL/MOL
REMARK 924 INTRA-LIGAND FREE ENERGY PREDICTED BY IDOCK:   -1.45 KCAL/MOL
REMARK 927      BINDING AFFINITY PREDICTED BY RF-SCORE:    0.00 PKD
ROOT
HETATM    1  C   UNL     1     -11.404   6.317  69.612  1.00  0.00    -0.492 C  
HETATM    2  C   UNL     1     -10.912   6.009  68.208  1.00  0.00    -0.347 C  
ENDROOT
BRANCH   2   3
HETATM    3  C   UNL     1     -10.323   7.252  67.544  1.00  0.00    -0.310 C  
BRANCH   3   4
HETATM    4  C   UNL     1     -10.305   8.439  68.505  1.00  0.00    -0.232 C  
BRANCH   4   5
HETATM    5  C   UNL     1     -10.215   9.758  67.742  1.00  0.00    -0.254 C  
BRANCH   5   6
HETATM    6  C   UNL     1     -10.188   9.519  66.235  1.00  0.00    -0.290 C  
BRANCH   6   7
HETATM    7  C   UNL     1      -9.565  10.708  65.507  1.00  0.00    -0.271 C  
BRANCH   7   8
HETATM    8  C   UNL     1      -9.540  10.472  64.000  1.00  0.00    -0.367 C  
BRANCH   8   9
HETATM    9  C   UNL     1     -10.222  11.618  63.259  1.00  0.00    -0.445 C  
BRANCH   9  10
HETATM   10  C   UNL     1     -11.712  11.665  63.583  1.00  0.00    -0.406 C  
BRANCH  10  11
HETATM   11  C   UNL     1     -12.115  13.041  64.104  1.00  0.00    -0.497 C  
BRANCH  11  12
HETATM   12  C   UNL     1     -12.392  12.996  65.604  1.00  0.00    -0.504 C  
BRANCH  12  13
HETATM   13  C   UNL     1     -11.535  14.016  66.350  1.00  0.00    -0.361 C  
BRANCH  13  14
HETATM   14  C   UNL     1     -10.329  14.433  65.511  1.00  0.00    -0.382 C  
BRANCH  14  15
HETATM   15  C   UNL     1     -10.013  15.914  65.700  1.00  0.00    -0.368 C  
BRANCH  15  16
HETATM   16  C   UNL     1     -11.146  16.793  65.193  1.00  0.00    -0.033 C  
HETATM   17  O   UNL     1     -11.460  16.447  63.853  1.00  0.00    -1.569 OA 
HETATM   18  H   UNL     1     -12.167  16.996  63.536  1.00  0.00     0.000 HD 
ENDBRANCH  15  16
ENDBRANCH  14  15
ENDBRANCH  13  14
ENDBRANCH  12  13
ENDBRANCH  11  12
ENDBRANCH  10  11
ENDBRANCH   9  10
ENDBRANCH   8   9
ENDBRANCH   7   8
ENDBRANCH   6   7
ENDBRANCH   5   6
ENDBRANCH   4   5
ENDBRANCH   3   4
ENDBRANCH   2   3
TORSDOF 14
ENDMDL
MODEL       36
REMARK 921   NORMALIZED FREE ENERGY PREDICTED BY IDOCK:   -3.95 KCAL/MOL
REMARK 922        TOTAL FREE ENERGY PREDICTED BY IDOCK:   -8.57 KCAL/MOL
REMARK 923 INTER-LIGAND FREE ENERGY PREDICTED BY IDOCK:   -7.13 KCAL/MOL
REMARK 924 INTRA-LIGAND FREE ENERGY PREDICTED BY IDOCK:   -1.44 KCAL/MOL
REMARK 927      BINDING AFFINITY PREDICTED BY RF-SCORE:    0.00 PKD
ROOT
HETATM    1  C   UNL     1     -12.054  12.342  63.340  1.00  0.00    -0.620 C  
HETATM    2  C   UNL     1     -12.587  12.497  64.755  1.00  0.00    -0.493 C  
ENDROOT
BRANCH   2   3
HETATM    3  C   UNL     1     -12.442  13.936  65.245  1.00  0.00    -0.504 C  
BRANCH   3   4
HETATM    4  C   UNL     1     -12.107  13.984  66.734  1.00  0.00    -0.480 C  
BRANCH   4   5
HETATM    5  C   UNL     1     -11.289  12.763  67.149  1.00  0.00    -0.365 C  
BRANCH   5   6
HETATM    6  C   UNL     1     -11.245  12.622  68.667  1.00  0.00    -0.323 C  
BRANCH   6   7
HETATM    7  C   UNL     1     -10.928  11.184  69.071  1.00  0.00    -0.286 C  
BRANCH   7   8
HETATM    8  C   UNL     1     -11.571  10.840  70.412  1.00  0.00    -0.431 C  
BRANCH   8   9
HETATM    9  C   UNL     1     -12.898  11.574  70.582  1.00  0.00    -0.151 C  
BRANCH   9  10
HETATM   10  C   UNL     1     -13.034  12.129  71.996  1.00  0.00    -0.377 C  
BRANCH  10  11
HETATM   11  C   UNL     1     -13.763  13.470  71.990  1.00  0.00    -0.568 C  
BRANCH  11  12
HETATM   12  C   UNL     1     -13.092  14.459  72.939  1.00  0.00    -0.612 C  
BRANCH  12  13
HETATM   13  C   UNL     1     -12.705  15.743  72.208  1.00  0.00    -0.525 C  
BRANCH  13  14
HETATM   14  C   UNL     1     -12.481  15.478  70.721  1.00  0.00    -0.491 C  
BRANCH  14  15
HETATM   15  C   UNL     1     -11.003  15.586  70.358  1.00  0.00    -0.360 C  
BRANCH  15  16
HETATM   16  C   UNL     1     -10.786  16.530  69.186  1.00  0.00    -0.334 C  
HETATM   17  O   UNL     1      -9.711  16.063  68.385  1.00  0.00    -0.207 OA 
HETATM   18  H   UNL     1      -9.576  16.654  67.653  1.00  0.00     0.000 HD 
ENDBRANCH  15  16
ENDBRANCH  14  15
ENDBRANCH  13  14
ENDBRANCH  12  13
ENDBRANCH  11  12
ENDBRANCH  10  11
ENDBRANCH   9  10
ENDBRANCH   8   9
ENDBRANCH   7   8
ENDBRANCH   6   7
ENDBRANCH   5   6
ENDBRANCH   4   5
ENDBRANCH   3   4
ENDBRANCH   2   3
TORSDOF 14
ENDMDL
MODEL       37
REMARK 921   NORMALIZED FREE ENERGY PREDICTED BY IDOCK:   -3.95 KCAL/MOL
REMARK 922        TOTAL FREE ENERGY PREDICTED BY IDOCK:   -8.56 KCAL/MOL
REMARK 923 INTER-LIGAND FREE ENERGY PREDICTED BY IDOCK:   -7.42 KCAL/MOL
REMARK 924 INTRA-LIGAND FREE ENERGY PREDICTED BY IDOCK:   -1.14 KCAL/MOL
REMARK 927      BINDING AFFINITY PREDICTED BY RF-SCORE:    0.00 PKD
ROOT
HETATM    1  C   UNL     1     -13.206  15.896  73.205  1.00  0.00    -0.698 C  
HETATM    2  C   UNL     1     -13.874  14.879  72.296  1.00  0.00    -0.588 C  
ENDROOT
BRANCH   2   3
HETATM    3  C   UNL     1     -13.474  15.094  70.838  1.00  0.00    -0.432 C  
BRANCH   3   4
HETATM    4  C   UNL     1     -12.649  13.922  70.310  1.00  0.00    -0.328 C  
BRANCH   4   5
HETATM    5  C   UNL     1     -11.446  14.417  69.511  1.00  0.00    -0.333 C  
BRANCH   5   6
HETATM    6  C   UNL     1     -11.289  13.630  68.214  1.00  0.00    -0.322 C  
BRANCH   6   7
HETATM    7  C   UNL     1     -11.657  14.490  67.007  1.00  0.00    -0.402 C  
BRANCH   7   8
HETATM    8  C   UNL     1     -12.333  13.652  65.925  1.00  0.00    -0.516 C  
BRANCH   8   9
HETATM    9  C   UNL     1     -12.137  14.281  64.549  1.00  0.00    -0.499 C  
BRANCH   9  10
HETATM   10  C   UNL     1     -12.096  13.211  63.463  1.00  0.00    -0.585 C  
BRANCH  10  11
HETATM   11  C   UNL     1     -11.723  11.852  64.048  1.00  0.00    -0.469 C  
BRANCH  11  12
HETATM   12  C   UNL     1     -10.451  11.310  63.401  1.00  0.00    -0.424 C  
BRANCH  12  13
HETATM   13  C   UNL     1      -9.614  10.527  64.409  1.00  0.00    -0.357 C  
BRANCH  13  14
HETATM   14  C   UNL     1      -9.957  10.937  65.840  1.00  0.00    -0.294 C  
BRANCH  14  15
HETATM   15  C   UNL     1      -9.996   9.725  66.766  1.00  0.00    -0.278 C  
BRANCH  15  16
HETATM   16  C   UNL     1     -10.509  10.100  68.149  1.00  0.00    -0.206 C  
HETATM   17  O   UNL     1     -11.921  10.234  68.117  1.00  0.00    -0.692 OA 
HETATM   18  H   UNL     1     -12.242  10.468  68.981  1.00  0.00     0.000 HD 
ENDBRANCH  15  16
ENDBRANCH  14  15
ENDBRANCH  13  14
ENDBRANCH  12  13
ENDBRANCH  11  12
ENDBRANCH  10  11
ENDBRANCH   9  10
ENDBRANCH   8   9
ENDBRANCH   7   8
ENDBRANCH   6   7
ENDBRANCH   5   6
ENDBRANCH   4   5
ENDBRANCH   3   4
ENDBRANCH   2   3
TORSDOF 14
ENDMDL
MODEL       38
REMARK 921   NORMALIZED FREE ENERGY PREDICTED BY IDOCK:   -3.94 KCAL/MOL
REMARK 922        TOTAL FREE ENERGY PREDICTED BY IDOCK:   -8.54 KCAL/MOL
REMARK 923 INTER-LIGAND FREE ENERGY PREDICTED BY IDOCK:   -6.99 KCAL/MOL
REMARK 924 INTRA-LIGAND FREE ENERGY PREDICTED BY IDOCK:   -1.55 KCAL/MOL
REMARK 927      BINDING AFFINITY PREDICTED BY RF-SCORE:    0.00 PKD
ROOT
HETATM    1  C   UNL     1     -12.504  12.404  70.959  1.00  0.00    -0.353 C  
HETATM    2  C   UNL     1     -13.124  11.379  71.893  1.00  0.00    -0.505 C  
ENDROOT
BRANCH   2   3
HETATM    3  C   UNL     1     -13.400  10.064  71.166  1.00  0.00    -0.379 C  
BRANCH   3   4
HETATM    4  C   UNL     1     -13.541   8.905  72.150  1.00  0.00    -0.502 C  
BRANCH   4   5
HETATM    5  C   UNL     1     -12.506   7.819  71.867  1.00  0.00    -0.343 C  
BRANCH   5   6
HETATM    6  C   UNL     1     -11.131   8.220  72.391  1.00  0.00    -0.447 C  
BRANCH   6   7
HETATM    7  C   UNL     1     -10.069   8.069  71.304  1.00  0.00    -0.222 C  
BRANCH   7   8
HETATM    8  C   UNL     1      -9.869   9.381  70.550  1.00  0.00    -0.331 C  
BRANCH   8   9
HETATM    9  C   UNL     1      -9.866   9.146  69.043  1.00  0.00    -0.176 C  
BRANCH   9  10
HETATM   10  C   UNL     1     -11.017   9.890  68.374  1.00  0.00    -0.235 C  
BRANCH  10  11
HETATM   11  C   UNL     1     -10.701  10.186  66.911  1.00  0.00    -0.231 C  
BRANCH  11  12
HETATM   12  C   UNL     1     -10.631  11.690  66.662  1.00  0.00    -0.281 C  
BRANCH  12  13
HETATM   13  C   UNL     1     -11.643  12.437  67.528  1.00  0.00    -0.431 C  
BRANCH  13  14
HETATM   14  C   UNL     1     -12.118  13.712  66.836  1.00  0.00    -0.431 C  
BRANCH  14  15
HETATM   15  C   UNL     1     -12.590  13.424  65.414  1.00  0.00    -0.528 C  
BRANCH  15  16
HETATM   16  C   UNL     1     -12.274  14.582  64.480  1.00  0.00    -0.465 C  
HETATM   17  O   UNL     1     -12.482  14.184  63.133  1.00  0.00    -1.126 OA 
HETATM   18  H   UNL     1     -12.285  14.906  62.549  1.00  0.00     0.000 HD 
ENDBRANCH  15  16
ENDBRANCH  14  15
ENDBRANCH  13  14
ENDBRANCH  12  13
ENDBRANCH  11  12
ENDBRANCH  10  11
ENDBRANCH   9  10
ENDBRANCH   8   9
ENDBRANCH   7   8
ENDBRANCH   6   7
ENDBRANCH   5   6
ENDBRANCH   4   5
ENDBRANCH   3   4
ENDBRANCH   2   3
TORSDOF 14
ENDMDL
MODEL       39
REMARK 921   NORMALIZED FREE ENERGY PREDICTED BY IDOCK:   -3.92 KCAL/MOL
REMARK 922        TOTAL FREE ENERGY PREDICTED BY IDOCK:   -8.52 KCAL/MOL
REMARK 923 INTER-LIGAND FREE ENERGY PREDICTED BY IDOCK:   -6.95 KCAL/MOL
REMARK 924 INTRA-LIGAND FREE ENERGY PREDICTED BY IDOCK:   -1.57 KCAL/MOL
REMARK 927      BINDING AFFINITY PREDICTED BY RF-SCORE:    0.00 PKD
ROOT
HETATM    1  C   UNL     1     -11.054  11.640  64.152  1.00  0.00    -0.435 C  
HETATM    2  C   UNL     1     -12.274  12.531  64.317  1.00  0.00    -0.535 C  
ENDROOT
BRANCH   2   3
HETATM    3  C   UNL     1     -11.919  13.823  65.049  1.00  0.00    -0.401 C  
BRANCH   3   4
HETATM    4  C   UNL     1     -10.417  14.093  65.003  1.00  0.00    -0.447 C  
BRANCH   4   5
HETATM    5  C   UNL     1     -10.073  15.393  65.726  1.00  0.00    -0.391 C  
BRANCH   5   6
HETATM    6  C   UNL     1     -11.002  15.622  66.914  1.00  0.00    -0.243 C  
BRANCH   6   7
HETATM    7  C   UNL     1     -10.204  15.953  68.173  1.00  0.00    -0.232 C  
BRANCH   7   8
HETATM    8  C   UNL     1     -10.780  15.236  69.390  1.00  0.00    -0.266 C  
BRANCH   8   9
HETATM    9  C   UNL     1     -11.994  14.397  69.001  1.00  0.00    -0.342 C  
BRANCH   9  10
HETATM   10  C   UNL     1     -11.807  12.943  69.421  1.00  0.00    -0.371 C  
BRANCH  10  11
HETATM   11  C   UNL     1     -11.886  12.011  68.214  1.00  0.00    -0.351 C  
BRANCH  11  12
HETATM   12  C   UNL     1     -11.083  10.736  68.457  1.00  0.00    -0.317 C  
BRANCH  12  13
HETATM   13  C   UNL     1     -10.798  10.543  69.944  1.00  0.00    -0.334 C  
BRANCH  13  14
HETATM   14  C   UNL     1     -11.555   9.336  70.493  1.00  0.00    -0.266 C  
BRANCH  14  15
HETATM   15  C   UNL     1     -12.365   9.710  71.731  1.00  0.00    -0.474 C  
BRANCH  15  16
HETATM   16  C   UNL     1     -13.434   8.670  72.030  1.00  0.00    -0.403 C  
HETATM   17  O   UNL     1     -14.188   9.069  73.164  1.00  0.00    -1.142 OA 
HETATM   18  H   UNL     1     -14.856   8.419  73.352  1.00  0.00     0.000 HD 
ENDBRANCH  15  16
ENDBRANCH  14  15
ENDBRANCH  13  14
ENDBRANCH  12  13
ENDBRANCH  11  12
ENDBRANCH  10  11
ENDBRANCH   9  10
ENDBRANCH   8   9
ENDBRANCH   7   8
ENDBRANCH   6   7
ENDBRANCH   5   6
ENDBRANCH   4   5
ENDBRANCH   3   4
ENDBRANCH   2   3
TORSDOF 14
ENDMDL
MODEL       40
REMARK 921   NORMALIZED FREE ENERGY PREDICTED BY IDOCK:   -3.92 KCAL/MOL
REMARK 922        TOTAL FREE ENERGY PREDICTED BY IDOCK:   -8.52 KCAL/MOL
REMARK 923 INTER-LIGAND FREE ENERGY PREDICTED BY IDOCK:   -7.22 KCAL/MOL
REMARK 924 INTRA-LIGAND FREE ENERGY PREDICTED BY IDOCK:   -1.30 KCAL/MOL
REMARK 927      BINDING AFFINITY PREDICTED BY RF-SCORE:    0.00 PKD
ROOT
HETATM    1  C   UNL     1     -10.244   7.140  68.255  1.00  0.00    -0.210 C  
HETATM    2  C   UNL     1     -11.220   6.305  69.067  1.00  0.00    -0.415 C  
ENDROOT
BRANCH   2   3
HETATM    3  C   UNL     1     -10.554   5.738  70.318  1.00  0.00    -0.369 C  
BRANCH   3   4
HETATM    4  C   UNL     1     -11.047   6.445  71.579  1.00  0.00    -0.322 C  
BRANCH   4   5
HETATM    5  C   UNL     1     -12.401   7.109  71.338  1.00  0.00    -0.415 C  
BRANCH   5   6
HETATM    6  C   UNL     1     -12.397   8.555  71.821  1.00  0.00    -0.388 C  
BRANCH   6   7
HETATM    7  C   UNL     1     -11.003   9.167  71.696  1.00  0.00    -0.445 C  
BRANCH   7   8
HETATM    8  C   UNL     1     -10.892  10.018  70.434  1.00  0.00    -0.380 C  
BRANCH   8   9
HETATM    9  C   UNL     1     -12.221  10.695  70.116  1.00  0.00    -0.398 C  
BRANCH   9  10
HETATM   10  C   UNL     1     -12.040  12.201  69.956  1.00  0.00    -0.352 C  
BRANCH  10  11
HETATM   11  C   UNL     1     -11.040  12.516  68.847  1.00  0.00    -0.309 C  
BRANCH  11  12
HETATM   12  C   UNL     1     -11.613  12.160  67.478  1.00  0.00    -0.413 C  
BRANCH  12  13
HETATM   13  C   UNL     1     -12.048  13.413  66.723  1.00  0.00    -0.419 C  
BRANCH  13  14
HETATM   14  C   UNL     1     -12.491  13.069  65.303  1.00  0.00    -0.555 C  
BRANCH  14  15
HETATM   15  C   UNL     1     -11.356  13.276  64.306  1.00  0.00    -0.428 C  
BRANCH  15  16
HETATM   16  C   UNL     1     -11.111  12.026  63.475  1.00  0.00    -0.443 C  
HETATM   17  O   UNL     1     -12.340  11.551  62.948  1.00  0.00    -0.958 OA 
HETATM   18  H   UNL     1     -12.187  10.769  62.429  1.00  0.00     0.000 HD 
ENDBRANCH  15  16
ENDBRANCH  14  15
ENDBRANCH  13  14
ENDBRANCH  12  13
ENDBRANCH  11  12
ENDBRANCH  10  11
ENDBRANCH   9  10
ENDBRANCH   8   9
ENDBRANCH   7   8
ENDBRANCH   6   7
ENDBRANCH   5   6
ENDBRANCH   4   5
ENDBRANCH   3   4
ENDBRANCH   2   3
TORSDOF 14
ENDMDL
MODEL       41
REMARK 921   NORMALIZED FREE ENERGY PREDICTED BY IDOCK:   -3.92 KCAL/MOL
REMARK 922        TOTAL FREE ENERGY PREDICTED BY IDOCK:   -8.51 KCAL/MOL
REMARK 923 INTER-LIGAND FREE ENERGY PREDICTED BY IDOCK:   -6.74 KCAL/MOL
REMARK 924 INTRA-LIGAND FREE ENERGY PREDICTED BY IDOCK:   -1.77 KCAL/MOL
REMARK 927      BINDING AFFINITY PREDICTED BY RF-SCORE:    0.00 PKD
ROOT
HETATM    1  C   UNL     1     -10.919   9.239  71.595  1.00  0.00    -0.433 C  
HETATM    2  C   UNL     1     -12.230   9.999  71.496  1.00  0.00    -0.496 C  
ENDROOT
BRANCH   2   3
HETATM    3  C   UNL     1     -12.218  10.971  70.318  1.00  0.00    -0.447 C  
BRANCH   3   4
HETATM    4  C   UNL     1     -10.938  10.830  69.496  1.00  0.00    -0.317 C  
BRANCH   4   5
HETATM    5  C   UNL     1     -11.259  10.506  68.039  1.00  0.00    -0.361 C  
BRANCH   5   6
HETATM    6  C   UNL     1     -10.002  10.092  67.280  1.00  0.00    -0.245 C  
BRANCH   6   7
HETATM    7  C   UNL     1      -9.486  11.239  66.414  1.00  0.00    -0.221 C  
BRANCH   7   8
HETATM    8  C   UNL     1      -9.011  10.727  65.057  1.00  0.00    -0.211 C  
BRANCH   8   9
HETATM    9  C   UNL     1     -10.158  10.714  64.050  1.00  0.00    -0.378 C  
BRANCH   9  10
HETATM   10  C   UNL     1     -10.429  12.117  63.517  1.00  0.00    -0.490 C  
BRANCH  10  11
HETATM   11  C   UNL     1     -11.928  12.363  63.363  1.00  0.00    -0.595 C  
BRANCH  11  12
HETATM   12  C   UNL     1     -12.581  12.614  64.719  1.00  0.00    -0.530 C  
BRANCH  12  13
HETATM   13  C   UNL     1     -11.892  13.761  65.455  1.00  0.00    -0.371 C  
BRANCH  13  14
HETATM   14  C   UNL     1     -12.281  13.775  66.932  1.00  0.00    -0.408 C  
BRANCH  14  15
HETATM   15  C   UNL     1     -11.186  14.408  67.784  1.00  0.00    -0.316 C  
BRANCH  15  16
HETATM   16  C   UNL     1     -11.750  15.471  68.714  1.00  0.00    -0.357 C  
HETATM   17  O   UNL     1     -12.657  14.877  69.630  1.00  0.00    -0.565 OA 
HETATM   18  H   UNL     1     -13.010  15.541  70.211  1.00  0.00     0.000 HD 
ENDBRANCH  15  16
ENDBRANCH  14  15
ENDBRANCH  13  14
ENDBRANCH  12  13
ENDBRANCH  11  12
ENDBRANCH  10  11
ENDBRANCH   9  10
ENDBRANCH   8   9
ENDBRANCH   7   8
ENDBRANCH   6   7
ENDBRANCH   5   6
ENDBRANCH   4   5
ENDBRANCH   3   4
ENDBRANCH   2   3
TORSDOF 14
ENDMDL
MODEL       42
REMARK 921   NORMALIZED FREE ENERGY PREDICTED BY IDOCK:   -3.91 KCAL/MOL
REMARK 922        TOTAL FREE ENERGY PREDICTED BY IDOCK:   -8.50 KCAL/MOL
REMARK 923 INTER-LIGAND FREE ENERGY PREDICTED BY IDOCK:   -7.02 KCAL/MOL
REMARK 924 INTRA-LIGAND FREE ENERGY PREDICTED BY IDOCK:   -1.48 KCAL/MOL
REMARK 927      BINDING AFFINITY PREDICTED BY RF-SCORE:    0.00 PKD
ROOT
HETATM    1  C   UNL     1      -9.861  20.277  66.932  1.00  0.00    -0.597 C  
HETATM    2  C   UNL     1     -10.462  19.238  67.862  1.00  0.00    -0.514 C  
ENDROOT
BRANCH   2   3
HETATM    3  C   UNL     1      -9.376  18.382  68.509  1.00  0.00    -0.354 C  
BRANCH   3   4
HETATM    4  C   UNL     1      -9.767  16.906  68.523  1.00  0.00    -0.264 C  
BRANCH   4   5
HETATM    5  C   UNL     1      -8.643  16.037  67.966  1.00  0.00    -0.165 C  
BRANCH   5   6
HETATM    6  C   UNL     1      -8.744  15.916  66.449  1.00  0.00    -0.362 C  
BRANCH   6   7
HETATM    7  C   UNL     1     -10.203  15.844  66.004  1.00  0.00    -0.353 C  
BRANCH   7   8
HETATM    8  C   UNL     1     -10.644  14.396  65.810  1.00  0.00    -0.326 C  
BRANCH   8   9
HETATM    9  C   UNL     1     -11.915  14.104  66.601  1.00  0.00    -0.470 C  
BRANCH   9  10
HETATM   10  C   UNL     1     -11.750  12.850  67.453  1.00  0.00    -0.428 C  
BRANCH  10  11
HETATM   11  C   UNL     1     -11.019  13.167  68.755  1.00  0.00    -0.298 C  
BRANCH  11  12
HETATM   12  C   UNL     1     -11.755  14.245  69.545  1.00  0.00    -0.366 C  
BRANCH  12  13
HETATM   13  C   UNL     1     -12.589  13.630  70.667  1.00  0.00    -0.366 C  
BRANCH  13  14
HETATM   14  C   UNL     1     -13.446  14.690  71.354  1.00  0.00    -0.462 C  
BRANCH  14  15
HETATM   15  C   UNL     1     -12.585  15.655  72.164  1.00  0.00    -0.504 C  
BRANCH  15  16
HETATM   16  C   UNL     1     -13.145  15.859  73.564  1.00  0.00    -0.565 C  
HETATM   17  O   UNL     1     -12.295  16.724  74.300  1.00  0.00    -0.628 OA 
HETATM   18  H   UNL     1     -12.645  16.851  75.174  1.00  0.00     0.000 HD 
ENDBRANCH  15  16
ENDBRANCH  14  15
ENDBRANCH  13  14
ENDBRANCH  12  13
ENDBRANCH  11  12
ENDBRANCH  10  11
ENDBRANCH   9  10
ENDBRANCH   8   9
ENDBRANCH   7   8
ENDBRANCH   6   7
ENDBRANCH   5   6
ENDBRANCH   4   5
ENDBRANCH   3   4
ENDBRANCH   2   3
TORSDOF 14
ENDMDL
MODEL       43
REMARK 921   NORMALIZED FREE ENERGY PREDICTED BY IDOCK:   -3.91 KCAL/MOL
REMARK 922        TOTAL FREE ENERGY PREDICTED BY IDOCK:   -8.49 KCAL/MOL
REMARK 923 INTER-LIGAND FREE ENERGY PREDICTED BY IDOCK:   -7.16 KCAL/MOL
REMARK 924 INTRA-LIGAND FREE ENERGY PREDICTED BY IDOCK:   -1.33 KCAL/MOL
REMARK 927      BINDING AFFINITY PREDICTED BY RF-SCORE:    0.00 PKD
ROOT
HETATM    1  C   UNL     1      -9.136   9.444  68.516  1.00  0.00    -0.131 C  
HETATM    2  C   UNL     1     -10.411   8.710  68.138  1.00  0.00    -0.267 C  
ENDROOT
BRANCH   2   3
HETATM    3  C   UNL     1     -10.601   7.458  68.991  1.00  0.00    -0.203 C  
BRANCH   3   4
HETATM    4  C   UNL     1     -10.066   7.664  70.406  1.00  0.00    -0.190 C  
BRANCH   4   5
HETATM    5  C   UNL     1     -11.138   7.349  71.446  1.00  0.00    -0.263 C  
BRANCH   5   6
HETATM    6  C   UNL     1     -11.457   8.575  72.294  1.00  0.00    -0.445 C  
BRANCH   6   7
HETATM    7  C   UNL     1     -12.930   8.956  72.168  1.00  0.00    -0.473 C  
BRANCH   7   8
HETATM    8  C   UNL     1     -13.083  10.422  71.771  1.00  0.00    -0.567 C  
BRANCH   8   9
HETATM    9  C   UNL     1     -12.578  10.655  70.350  1.00  0.00    -0.395 C  
BRANCH   9  10
HETATM   10  C   UNL     1     -12.057  12.080  70.186  1.00  0.00    -0.377 C  
BRANCH  10  11
HETATM   11  C   UNL     1     -11.470  12.290  68.792  1.00  0.00    -0.360 C  
BRANCH  11  12
HETATM   12  C   UNL     1     -11.841  13.666  68.247  1.00  0.00    -0.404 C  
BRANCH  12  13
HETATM   13  C   UNL     1     -12.066  13.615  66.738  1.00  0.00    -0.445 C  
BRANCH  13  14
HETATM   14  C   UNL     1     -10.738  13.527  65.990  1.00  0.00    -0.280 C  
BRANCH  14  15
HETATM   15  C   UNL     1     -10.462  14.805  65.204  1.00  0.00    -0.443 C  
BRANCH  15  16
HETATM   16  C   UNL     1     -11.725  15.332  64.539  1.00  0.00    -0.305 C  
HETATM   17  O   UNL     1     -11.423  16.497  63.787  1.00  0.00    -1.615 OA 
HETATM   18  H   UNL     1     -12.212  16.826  63.372  1.00  0.00     0.000 HD 
ENDBRANCH  15  16
ENDBRANCH  14  15
ENDBRANCH  13  14
ENDBRANCH  12  13
ENDBRANCH  11  12
ENDBRANCH  10  11
ENDBRANCH   9  10
ENDBRANCH   8   9
ENDBRANCH   7   8
ENDBRANCH   6   7
ENDBRANCH   5   6
ENDBRANCH   4   5
ENDBRANCH   3   4
ENDBRANCH   2   3
TORSDOF 14
ENDMDL
MODEL       44
REMARK 921   NORMALIZED FREE ENERGY PREDICTED BY IDOCK:   -3.89 KCAL/MOL
REMARK 922        TOTAL FREE ENERGY PREDICTED BY IDOCK:   -8.45 KCAL/MOL
REMARK 923 INTER-LIGAND FREE ENERGY PREDICTED BY IDOCK:   -7.63 KCAL/MOL
REMARK 924 INTRA-LIGAND FREE ENERGY PREDICTED BY IDOCK:   -0.82 KCAL/MOL
REMARK 927      BINDING AFFINITY PREDICTED BY RF-SCORE:    0.00 PKD
ROOT
HETATM    1  C   UNL     1     -11.161   6.161  69.279  1.00  0.00    -0.463 C  
HETATM    2  C   UNL     1     -11.041   6.628  70.720  1.00  0.00    -0.336 C  
ENDROOT
BRANCH   2   3
HETATM    3  C   UNL     1     -11.584   8.045  70.888  1.00  0.00    -0.284 C  
BRANCH   3   4
HETATM    4  C   UNL     1     -12.242   8.229  72.253  1.00  0.00    -0.428 C  
BRANCH   4   5
HETATM    5  C   UNL     1     -13.314   9.316  72.201  1.00  0.00    -0.537 C  
BRANCH   5   6
HETATM    6  C   UNL     1     -13.257  10.080  70.883  1.00  0.00    -0.336 C  
BRANCH   6   7
HETATM    7  C   UNL     1     -12.785  11.515  71.105  1.00  0.00    -0.458 C  
BRANCH   7   8
HETATM    8  C   UNL     1     -11.733  11.910  70.073  1.00  0.00    -0.366 C  
BRANCH   8   9
HETATM    9  C   UNL     1     -12.018  13.299  69.510  1.00  0.00    -0.366 C  
BRANCH   9  10
HETATM   10  C   UNL     1     -12.594  14.214  70.586  1.00  0.00    -0.421 C  
BRANCH  10  11
HETATM   11  C   UNL     1     -11.911  15.579  70.567  1.00  0.00    -0.406 C  
BRANCH  11  12
HETATM   12  C   UNL     1     -10.655  15.547  69.700  1.00  0.00    -0.285 C  
BRANCH  12  13
HETATM   13  C   UNL     1     -10.830  16.407  68.451  1.00  0.00    -0.342 C  
BRANCH  13  14
HETATM   14  C   UNL     1     -10.232  15.719  67.226  1.00  0.00    -0.268 C  
BRANCH  14  15
HETATM   15  C   UNL     1     -10.467  16.542  65.963  1.00  0.00    -0.320 C  
BRANCH  15  16
HETATM   16  C   UNL     1     -10.947  15.669  64.813  1.00  0.00    -0.400 C  
HETATM   17  O   UNL     1     -11.556  16.477  63.818  1.00  0.00    -1.617 OA 
HETATM   18  H   UNL     1     -11.856  15.932  63.100  1.00  0.00     0.000 HD 
ENDBRANCH  15  16
ENDBRANCH  14  15
ENDBRANCH  13  14
ENDBRANCH  12  13
ENDBRANCH  11  12
ENDBRANCH  10  11
ENDBRANCH   9  10
ENDBRANCH   8   9
ENDBRANCH   7   8
ENDBRANCH   6   7
ENDBRANCH   5   6
ENDBRANCH   4   5
ENDBRANCH   3   4
ENDBRANCH   2   3
TORSDOF 14
ENDMDL
MODEL       45
REMARK 921   NORMALIZED FREE ENERGY PREDICTED BY IDOCK:   -3.88 KCAL/MOL
REMARK 922        TOTAL FREE ENERGY PREDICTED BY IDOCK:   -8.43 KCAL/MOL
REMARK 923 INTER-LIGAND FREE ENERGY PREDICTED BY IDOCK:   -7.11 KCAL/MOL
REMARK 924 INTRA-LIGAND FREE ENERGY PREDICTED BY IDOCK:   -1.33 KCAL/MOL
REMARK 927      BINDING AFFINITY PREDICTED BY RF-SCORE:    0.00 PKD
ROOT
HETATM    1  C   UNL     1      -8.844   9.901  63.303  1.00  0.00    -0.257 C  
HETATM    2  C   UNL     1      -9.535   9.852  64.656  1.00  0.00    -0.343 C  
ENDROOT
BRANCH   2   3
HETATM    3  C   UNL     1     -10.522  11.006  64.814  1.00  0.00    -0.384 C  
BRANCH   3   4
HETATM    4  C   UNL     1     -10.532  11.902  63.577  1.00  0.00    -0.505 C  
BRANCH   4   5
HETATM    5  C   UNL     1     -11.809  12.736  63.517  1.00  0.00    -0.618 C  
BRANCH   5   6
HETATM    6  C   UNL     1     -12.595  12.631  64.820  1.00  0.00    -0.530 C  
BRANCH   6   7
HETATM    7  C   UNL     1     -12.721  13.996  65.491  1.00  0.00    -0.517 C  
BRANCH   7   8
HETATM    8  C   UNL     1     -11.641  14.952  64.992  1.00  0.00    -0.357 C  
BRANCH   8   9
HETATM    9  C   UNL     1     -10.753  15.416  66.143  1.00  0.00    -0.316 C  
BRANCH   9  10
HETATM   10  C   UNL     1     -10.177  14.224  66.900  1.00  0.00    -0.266 C  
BRANCH  10  11
HETATM   11  C   UNL     1     -10.203  14.468  68.406  1.00  0.00    -0.239 C  
BRANCH  11  12
HETATM   12  C   UNL     1     -11.635  14.468  68.933  1.00  0.00    -0.341 C  
BRANCH  12  13
HETATM   13  C   UNL     1     -11.944  15.761  69.683  1.00  0.00    -0.332 C  
BRANCH  13  14
HETATM   14  C   UNL     1     -12.543  15.467  71.056  1.00  0.00    -0.513 C  
BRANCH  14  15
HETATM   15  C   UNL     1     -12.641  13.965  71.304  1.00  0.00    -0.450 C  
BRANCH  15  16
HETATM   16  C   UNL     1     -13.650  13.647  72.397  1.00  0.00    -0.602 C  
HETATM   17  O   UNL     1     -13.715  14.725  73.319  1.00  0.00    -0.535 OA 
HETATM   18  H   UNL     1     -14.346  14.526  74.002  1.00  0.00     0.000 HD 
ENDBRANCH  15  16
ENDBRANCH  14  15
ENDBRANCH  13  14
ENDBRANCH  12  13
ENDBRANCH  11  12
ENDBRANCH  10  11
ENDBRANCH   9  10
ENDBRANCH   8   9
ENDBRANCH   7   8
ENDBRANCH   6   7
ENDBRANCH   5   6
ENDBRANCH   4   5
ENDBRANCH   3   4
ENDBRANCH   2   3
TORSDOF 14
ENDMDL
MODEL       46
REMARK 921   NORMALIZED FREE ENERGY PREDICTED BY IDOCK:   -3.87 KCAL/MOL
REMARK 922        TOTAL FREE ENERGY PREDICTED BY IDOCK:   -8.41 KCAL/MOL
REMARK 923 INTER-LIGAND FREE ENERGY PREDICTED BY IDOCK:   -6.91 KCAL/MOL
REMARK 924 INTRA-LIGAND FREE ENERGY PREDICTED BY IDOCK:   -1.51 KCAL/MOL
REMARK 927      BINDING AFFINITY PREDICTED BY RF-SCORE:    0.00 PKD
ROOT
HETATM    1  C   UNL     1     -10.811  11.862  63.474  1.00  0.00    -0.502 C  
HETATM    2  C   UNL     1     -12.290  12.168  63.635  1.00  0.00    -0.673 C  
ENDROOT
BRANCH   2   3
HETATM    3  C   UNL     1     -12.528  13.166  64.766  1.00  0.00    -0.460 C  
BRANCH   3   4
HETATM    4  C   UNL     1     -11.920  14.528  64.442  1.00  0.00    -0.467 C  
BRANCH   4   5
HETATM    5  C   UNL     1     -10.760  14.847  65.383  1.00  0.00    -0.391 C  
BRANCH   5   6
HETATM    6  C   UNL     1     -11.218  14.847  66.838  1.00  0.00    -0.343 C  
BRANCH   6   7
HETATM    7  C   UNL     1     -10.264  14.034  67.709  1.00  0.00    -0.240 C  
BRANCH   7   8
HETATM    8  C   UNL     1      -9.619  12.907  66.908  1.00  0.00    -0.240 C  
BRANCH   8   9
HETATM    9  C   UNL     1      -9.903  11.552  67.550  1.00  0.00    -0.203 C  
BRANCH   9  10
HETATM   10  C   UNL     1     -11.374  11.432  67.937  1.00  0.00    -0.371 C  
BRANCH  10  11
HETATM   11  C   UNL     1     -11.523  10.932  69.371  1.00  0.00    -0.373 C  
BRANCH  11  12
HETATM   12  C   UNL     1     -12.156  12.000  70.258  1.00  0.00    -0.395 C  
BRANCH  12  13
HETATM   13  C   UNL     1     -12.880  11.369  71.445  1.00  0.00    -0.502 C  
BRANCH  13  14
HETATM   14  C   UNL     1     -13.400   9.978  71.090  1.00  0.00    -0.379 C  
BRANCH  14  15
HETATM   15  C   UNL     1     -13.209   9.005  72.250  1.00  0.00    -0.519 C  
BRANCH  15  16
HETATM   16  C   UNL     1     -11.867   8.294  72.162  1.00  0.00    -0.369 C  
HETATM   17  O   UNL     1     -12.018   6.934  72.538  1.00  0.00    -0.476 OA 
HETATM   18  H   UNL     1     -11.180   6.490  72.484  1.00  0.00     0.000 HD 
ENDBRANCH  15  16
ENDBRANCH  14  15
ENDBRANCH  13  14
ENDBRANCH  12  13
ENDBRANCH  11  12
ENDBRANCH  10  11
ENDBRANCH   9  10
ENDBRANCH   8   9
ENDBRANCH   7   8
ENDBRANCH   6   7
ENDBRANCH   5   6
ENDBRANCH   4   5
ENDBRANCH   3   4
ENDBRANCH   2   3
TORSDOF 14
ENDMDL
MODEL       47
REMARK 921   NORMALIZED FREE ENERGY PREDICTED BY IDOCK:   -3.87 KCAL/MOL
REMARK 922        TOTAL FREE ENERGY PREDICTED BY IDOCK:   -8.41 KCAL/MOL
REMARK 923 INTER-LIGAND FREE ENERGY PREDICTED BY IDOCK:   -6.51 KCAL/MOL
REMARK 924 INTRA-LIGAND FREE ENERGY PREDICTED BY IDOCK:   -1.91 KCAL/MOL
REMARK 927      BINDING AFFINITY PREDICTED BY RF-SCORE:    0.00 PKD
ROOT
HETATM    1  C   UNL     1     -10.196  11.038  64.473  1.00  0.00    -0.406 C  
HETATM    2  C   UNL     1     -10.323  12.133  63.428  1.00  0.00    -0.438 C  
ENDROOT
BRANCH   2   3
HETATM    3  C   UNL     1     -11.701  12.788  63.480  1.00  0.00    -0.597 C  
BRANCH   3   4
HETATM    4  C   UNL     1     -12.357  12.594  64.846  1.00  0.00    -0.563 C  
BRANCH   4   5
HETATM    5  C   UNL     1     -12.769  13.935  65.448  1.00  0.00    -0.525 C  
BRANCH   5   6
HETATM    6  C   UNL     1     -11.779  14.383  66.519  1.00  0.00    -0.404 C  
BRANCH   6   7
HETATM    7  C   UNL     1     -10.902  15.523  66.007  1.00  0.00    -0.301 C  
BRANCH   7   8
HETATM    8  C   UNL     1      -9.432  15.113  65.984  1.00  0.00    -0.358 C  
BRANCH   8   9
HETATM    9  C   UNL     1      -9.188  13.916  66.899  1.00  0.00    -0.269 C  
BRANCH   9  10
HETATM   10  C   UNL     1      -7.787  13.969  67.502  1.00  0.00    -0.197 C  
BRANCH  10  11
HETATM   11  C   UNL     1      -7.224  15.387  67.452  1.00  0.00    -0.242 C  
BRANCH  11  12
HETATM   12  C   UNL     1      -7.515  16.134  68.751  1.00  0.00    -0.189 C  
BRANCH  12  13
HETATM   13  C   UNL     1      -7.600  17.639  68.510  1.00  0.00    -0.272 C  
BRANCH  13  14
HETATM   14  C   UNL     1      -9.045  18.073  68.272  1.00  0.00    -0.284 C  
BRANCH  14  15
HETATM   15  C   UNL     1      -9.204  18.735  66.906  1.00  0.00    -0.316 C  
BRANCH  15  16
HETATM   16  C   UNL     1     -10.307  19.782  66.922  1.00  0.00    -0.476 C  
HETATM   17  O   UNL     1      -9.741  21.075  67.070  1.00  0.00    -0.671 OA 
HETATM   18  H   UNL     1     -10.430  21.729  67.080  1.00  0.00     0.000 HD 
ENDBRANCH  15  16
ENDBRANCH  14  15
ENDBRANCH  13  14
ENDBRANCH  12  13
ENDBRANCH  11  12
ENDBRANCH  10  11
ENDBRANCH   9  10
ENDBRANCH   8   9
ENDBRANCH   7   8
ENDBRANCH   6   7
ENDBRANCH   5   6
ENDBRANCH   4   5
ENDBRANCH   3   4
ENDBRANCH   2   3
TORSDOF 14
ENDMDL
MODEL       48
REMARK 921   NORMALIZED FREE ENERGY PREDICTED BY IDOCK:   -3.86 KCAL/MOL
REMARK 922        TOTAL FREE ENERGY PREDICTED BY IDOCK:   -8.39 KCAL/MOL
REMARK 923 INTER-LIGAND FREE ENERGY PREDICTED BY IDOCK:   -7.04 KCAL/MOL
REMARK 924 INTRA-LIGAND FREE ENERGY PREDICTED BY IDOCK:   -1.35 KCAL/MOL
REMARK 927      BINDING AFFINITY PREDICTED BY RF-SCORE:    0.00 PKD
ROOT
HETATM    1  C   UNL     1     -13.159  10.992  71.727  1.00  0.00    -0.554 C  
HETATM    2  C   UNL     1     -12.172   9.888  71.390  1.00  0.00    -0.499 C  
ENDROOT
BRANCH   2   3
HETATM    3  C   UNL     1     -11.246  10.303  70.249  1.00  0.00    -0.395 C  
BRANCH   3   4
HETATM    4  C   UNL     1     -11.871  11.411  69.403  1.00  0.00    -0.419 C  
BRANCH   4   5
HETATM    5  C   UNL     1     -10.849  11.998  68.432  1.00  0.00    -0.266 C  
BRANCH   5   6
HETATM    6  C   UNL     1     -10.096  10.895  67.695  1.00  0.00    -0.206 C  
BRANCH   6   7
HETATM    7  C   UNL     1      -8.920  11.471  66.909  1.00  0.00    -0.179 C  
BRANCH   7   8
HETATM    8  C   UNL     1      -8.020  10.358  66.379  1.00  0.00    -0.130 C  
BRANCH   8   9
HETATM    9  C   UNL     1      -8.021  10.340  64.853  1.00  0.00    -0.146 C  
BRANCH   9  10
HETATM   10  C   UNL     1      -9.387   9.927  64.315  1.00  0.00    -0.313 C  
BRANCH  10  11
HETATM   11  C   UNL     1      -9.820  10.836  63.168  1.00  0.00    -0.378 C  
BRANCH  11  12
HETATM   12  C   UNL     1     -11.087  11.606  63.532  1.00  0.00    -0.476 C  
BRANCH  12  13
HETATM   13  C   UNL     1     -10.746  12.960  64.150  1.00  0.00    -0.443 C  
BRANCH  13  14
HETATM   14  C   UNL     1     -11.989  13.615  64.749  1.00  0.00    -0.426 C  
BRANCH  14  15
HETATM   15  C   UNL     1     -11.613  14.775  65.665  1.00  0.00    -0.290 C  
BRANCH  15  16
HETATM   16  C   UNL     1     -10.932  15.895  64.892  1.00  0.00    -0.411 C  
HETATM   17  O   UNL     1     -11.720  16.251  63.767  1.00  0.00    -1.511 OA 
HETATM   18  H   UNL     1     -11.295  16.950  63.284  1.00  0.00     0.000 HD 
ENDBRANCH  15  16
ENDBRANCH  14  15
ENDBRANCH  13  14
ENDBRANCH  12  13
ENDBRANCH  11  12
ENDBRANCH  10  11
ENDBRANCH   9  10
ENDBRANCH   8   9
ENDBRANCH   7   8
ENDBRANCH   6   7
ENDBRANCH   5   6
ENDBRANCH   4   5
ENDBRANCH   3   4
ENDBRANCH   2   3
TORSDOF 14
ENDMDL
MODEL       49
REMARK 921   NORMALIZED FREE ENERGY PREDICTED BY IDOCK:   -3.86 KCAL/MOL
REMARK 922        TOTAL FREE ENERGY PREDICTED BY IDOCK:   -8.39 KCAL/MOL
REMARK 923 INTER-LIGAND FREE ENERGY PREDICTED BY IDOCK:   -7.26 KCAL/MOL
REMARK 924 INTRA-LIGAND FREE ENERGY PREDICTED BY IDOCK:   -1.13 KCAL/MOL
REMARK 927      BINDING AFFINITY PREDICTED BY RF-SCORE:    0.00 PKD
ROOT
HETATM    1  C   UNL     1     -10.430  10.907  64.427  1.00  0.00    -0.403 C  
HETATM    2  C   UNL     1     -10.599  12.069  63.462  1.00  0.00    -0.514 C  
ENDROOT
BRANCH   2   3
HETATM    3  C   UNL     1     -12.037  12.583  63.464  1.00  0.00    -0.653 C  
BRANCH   3   4
HETATM    4  C   UNL     1     -12.601  12.651  64.881  1.00  0.00    -0.525 C  
BRANCH   4   5
HETATM    5  C   UNL     1     -12.256  13.983  65.542  1.00  0.00    -0.455 C  
BRANCH   5   6
HETATM    6  C   UNL     1     -11.236  13.793  66.660  1.00  0.00    -0.327 C  
BRANCH   6   7
HETATM    7  C   UNL     1     -11.725  14.431  67.958  1.00  0.00    -0.374 C  
BRANCH   7   8
HETATM    8  C   UNL     1     -11.875  13.385  69.058  1.00  0.00    -0.378 C  
BRANCH   8   9
HETATM    9  C   UNL     1     -11.718  11.976  68.493  1.00  0.00    -0.387 C  
BRANCH   9  10
HETATM   10  C   UNL     1     -11.484  10.965  69.610  1.00  0.00    -0.377 C  
BRANCH  10  11
HETATM   11  C   UNL     1     -12.539  11.105  70.705  1.00  0.00    -0.408 C  
BRANCH  11  12
HETATM   12  C   UNL     1     -12.530   9.891  71.629  1.00  0.00    -0.507 C  
BRANCH  12  13
HETATM   13  C   UNL     1     -13.760   9.017  71.395  1.00  0.00    -0.323 C  
BRANCH  13  14
HETATM   14  C   UNL     1     -13.447   7.548  71.675  1.00  0.00    -0.429 C  
BRANCH  14  15
HETATM   15  C   UNL     1     -11.952   7.271  71.554  1.00  0.00    -0.349 C  
BRANCH  15  16
HETATM   16  C   UNL     1     -11.629   6.521  70.270  1.00  0.00    -0.409 C  
HETATM   17  O   UNL     1     -11.253   7.442  69.257  1.00  0.00    -0.445 OA 
HETATM   18  H   UNL     1     -11.052   6.974  68.455  1.00  0.00     0.000 HD 
ENDBRANCH  15  16
ENDBRANCH  14  15
ENDBRANCH  13  14
ENDBRANCH  12  13
ENDBRANCH  11  12
ENDBRANCH  10  11
ENDBRANCH   9  10
ENDBRANCH   8   9
ENDBRANCH   7   8
ENDBRANCH   6   7
ENDBRANCH   5   6
ENDBRANCH   4   5
ENDBRANCH   3   4
ENDBRANCH   2   3
TORSDOF 14
ENDMDL
MODEL       50
REMARK 921   NORMALIZED FREE ENERGY PREDICTED BY IDOCK:   -3.85 KCAL/MOL
REMARK 922        TOTAL FREE ENERGY PREDICTED BY IDOCK:   -8.39 KCAL/MOL
REMARK 923 INTER-LIGAND FREE ENERGY PREDICTED BY IDOCK:   -7.04 KCAL/MOL
REMARK 924 INTRA-LIGAND FREE ENERGY PREDICTED BY IDOCK:   -1.35 KCAL/MOL
REMARK 927      BINDING AFFINITY PREDICTED BY RF-SCORE:    0.00 PKD
ROOT
HETATM    1  C   UNL     1     -11.537   6.637  70.592  1.00  0.00    -0.439 C  
HETATM    2  C   UNL     1     -12.649   6.989  71.565  1.00  0.00    -0.426 C  
ENDROOT
BRANCH   2   3
HETATM    3  C   UNL     1     -12.348   8.293  72.300  1.00  0.00    -0.410 C  
BRANCH   3   4
HETATM    4  C   UNL     1     -13.410   9.352  72.012  1.00  0.00    -0.525 C  
BRANCH   4   5
HETATM    5  C   UNL     1     -12.787  10.743  71.931  1.00  0.00    -0.460 C  
BRANCH   5   6
HETATM    6  C   UNL     1     -12.599  11.176  70.481  1.00  0.00    -0.360 C  
BRANCH   6   7
HETATM    7  C   UNL     1     -11.279  10.650  69.922  1.00  0.00    -0.378 C  
BRANCH   7   8
HETATM    8  C   UNL     1     -11.385  10.392  68.422  1.00  0.00    -0.292 C  
BRANCH   8   9
HETATM    9  C   UNL     1     -10.595  11.434  67.634  1.00  0.00    -0.240 C  
BRANCH   9  10
HETATM   10  C   UNL     1     -11.529  12.463  67.006  1.00  0.00    -0.423 C  
BRANCH  10  11
HETATM   11  C   UNL     1     -11.302  13.847  67.610  1.00  0.00    -0.335 C  
BRANCH  11  12
HETATM   12  C   UNL     1     -12.275  14.107  68.756  1.00  0.00    -0.234 C  
BRANCH  12  13
HETATM   13  C   UNL     1     -11.560  14.732  69.951  1.00  0.00    -0.330 C  
BRANCH  13  14
HETATM   14  C   UNL     1     -12.422  14.649  71.209  1.00  0.00    -0.408 C  
BRANCH  14  15
HETATM   15  C   UNL     1     -11.712  15.274  72.406  1.00  0.00    -0.538 C  
BRANCH  15  16
HETATM   16  C   UNL     1     -12.594  16.302  73.099  1.00  0.00    -0.423 C  
HETATM   17  O   UNL     1     -13.022  15.798  74.355  1.00  0.00    -0.819 OA 
HETATM   18  H   UNL     1     -13.573  16.440  74.788  1.00  0.00     0.000 HD 
ENDBRANCH  15  16
ENDBRANCH  14  15
ENDBRANCH  13  14
ENDBRANCH  12  13
ENDBRANCH  11  12
ENDBRANCH  10  11
ENDBRANCH   9  10
ENDBRANCH   8   9
ENDBRANCH   7   8
ENDBRANCH   6   7
ENDBRANCH   5   6
ENDBRANCH   4   5
ENDBRANCH   3   4
ENDBRANCH   2   3
TORSDOF 14
ENDMDL
MODEL       51
REMARK 921   NORMALIZED FREE ENERGY PREDICTED BY IDOCK:   -3.85 KCAL/MOL
REMARK 922        TOTAL FREE ENERGY PREDICTED BY IDOCK:   -8.39 KCAL/MOL
REMARK 923 INTER-LIGAND FREE ENERGY PREDICTED BY IDOCK:   -7.43 KCAL/MOL
REMARK 924 INTRA-LIGAND FREE ENERGY PREDICTED BY IDOCK:   -0.96 KCAL/MOL
REMARK 927      BINDING AFFINITY PREDICTED BY RF-SCORE:    0.00 PKD
ROOT
HETATM    1  C   UNL     1     -11.236   6.350  69.881  1.00  0.00    -0.485 C  
HETATM    2  C   UNL     1     -12.186   6.796  70.979  1.00  0.00    -0.405 C  
ENDROOT
BRANCH   2   3
HETATM    3  C   UNL     1     -11.638   8.011  71.724  1.00  0.00    -0.331 C  
BRANCH   3   4
HETATM    4  C   UNL     1     -12.762   8.826  72.360  1.00  0.00    -0.433 C  
BRANCH   4   5
HETATM    5  C   UNL     1     -13.377   9.790  71.348  1.00  0.00    -0.449 C  
BRANCH   5   6
HETATM    6  C   UNL     1     -13.119  11.240  71.744  1.00  0.00    -0.527 C  
BRANCH   6   7
HETATM    7  C   UNL     1     -12.203  11.925  70.733  1.00  0.00    -0.401 C  
BRANCH   7   8
HETATM    8  C   UNL     1     -12.092  11.103  69.452  1.00  0.00    -0.396 C  
BRANCH   8   9
HETATM    9  C   UNL     1     -11.640  11.976  68.284  1.00  0.00    -0.394 C  
BRANCH   9  10
HETATM   10  C   UNL     1     -10.590  12.986  68.735  1.00  0.00    -0.218 C  
BRANCH  10  11
HETATM   11  C   UNL     1     -10.747  14.308  67.988  1.00  0.00    -0.242 C  
BRANCH  11  12
HETATM   12  C   UNL     1     -11.431  14.094  66.641  1.00  0.00    -0.378 C  
BRANCH  12  13
HETATM   13  C   UNL     1     -10.407  14.033  65.510  1.00  0.00    -0.354 C  
BRANCH  13  14
HETATM   14  C   UNL     1     -10.195  12.595  65.042  1.00  0.00    -0.294 C  
BRANCH  14  15
HETATM   15  C   UNL     1     -10.669  12.408  63.604  1.00  0.00    -0.497 C  
BRANCH  15  16
HETATM   16  C   UNL     1     -12.180  12.545  63.495  1.00  0.00    -0.558 C  
HETATM   17  O   UNL     1     -12.510  13.822  62.971  1.00  0.00    -1.068 OA 
HETATM   18  H   UNL     1     -13.454  13.908  62.903  1.00  0.00     0.000 HD 
ENDBRANCH  15  16
ENDBRANCH  14  15
ENDBRANCH  13  14
ENDBRANCH  12  13
ENDBRANCH  11  12
ENDBRANCH  10  11
ENDBRANCH   9  10
ENDBRANCH   8   9
ENDBRANCH   7   8
ENDBRANCH   6   7
ENDBRANCH   5   6
ENDBRANCH   4   5
ENDBRANCH   3   4
ENDBRANCH   2   3
TORSDOF 14
ENDMDL
MODEL       52
REMARK 921   NORMALIZED FREE ENERGY PREDICTED BY IDOCK:   -3.85 KCAL/MOL
REMARK 922        TOTAL FREE ENERGY PREDICTED BY IDOCK:   -8.38 KCAL/MOL
REMARK 923 INTER-LIGAND FREE ENERGY PREDICTED BY IDOCK:   -6.36 KCAL/MOL
REMARK 924 INTRA-LIGAND FREE ENERGY PREDICTED BY IDOCK:   -2.02 KCAL/MOL
REMARK 927      BINDING AFFINITY PREDICTED BY RF-SCORE:    0.00 PKD
ROOT
HETATM    1  C   UNL     1      -9.222  16.831  66.504  1.00  0.00    -0.294 C  
HETATM    2  C   UNL     1      -9.100  15.326  66.331  1.00  0.00    -0.347 C  
ENDROOT
BRANCH   2   3
HETATM    3  C   UNL     1     -10.213  14.781  65.438  1.00  0.00    -0.415 C  
BRANCH   3   4
HETATM    4  C   UNL     1     -11.467  14.460  66.249  1.00  0.00    -0.361 C  
BRANCH   4   5
HETATM    5  C   UNL     1     -12.615  14.040  65.334  1.00  0.00    -0.529 C  
BRANCH   5   6
HETATM    6  C   UNL     1     -12.545  12.550  65.016  1.00  0.00    -0.424 C  
BRANCH   6   7
HETATM    7  C   UNL     1     -12.139  12.323  63.561  1.00  0.00    -0.649 C  
BRANCH   7   8
HETATM    8  C   UNL     1     -10.710  11.794  63.470  1.00  0.00    -0.501 C  
BRANCH   8   9
HETATM    9  C   UNL     1     -10.421  10.812  64.601  1.00  0.00    -0.346 C  
BRANCH   9  10
HETATM   10  C   UNL     1      -9.142  11.194  65.339  1.00  0.00    -0.193 C  
BRANCH  10  11
HETATM   11  C   UNL     1      -9.168  10.688  66.779  1.00  0.00    -0.174 C  
BRANCH  11  12
HETATM   12  C   UNL     1      -9.925  11.657  67.683  1.00  0.00    -0.201 C  
BRANCH  12  13
HETATM   13  C   UNL     1     -11.269  11.073  68.109  1.00  0.00    -0.364 C  
BRANCH  13  14
HETATM   14  C   UNL     1     -11.995  12.014  69.068  1.00  0.00    -0.321 C  
BRANCH  14  15
HETATM   15  C   UNL     1     -11.832  11.559  70.515  1.00  0.00    -0.363 C  
BRANCH  15  16
HETATM   16  C   UNL     1     -12.028  10.056  70.650  1.00  0.00    -0.313 C  
HETATM   17  O   UNL     1     -13.401   9.769  70.870  1.00  0.00    -0.562 OA 
HETATM   18  H   UNL     1     -13.524   8.831  70.955  1.00  0.00     0.000 HD 
ENDBRANCH  15  16
ENDBRANCH  14  15
ENDBRANCH  13  14
ENDBRANCH  12  13
ENDBRANCH  11  12
ENDBRANCH  10  11
ENDBRANCH   9  10
ENDBRANCH   8   9
ENDBRANCH   7   8
ENDBRANCH   6   7
ENDBRANCH   5   6
ENDBRANCH   4   5
ENDBRANCH   3   4
ENDBRANCH   2   3
TORSDOF 14
ENDMDL
MODEL       53
REMARK 921   NORMALIZED FREE ENERGY PREDICTED BY IDOCK:   -3.85 KCAL/MOL
REMARK 922        TOTAL FREE ENERGY PREDICTED BY IDOCK:   -8.38 KCAL/MOL
REMARK 923 INTER-LIGAND FREE ENERGY PREDICTED BY IDOCK:   -7.56 KCAL/MOL
REMARK 924 INTRA-LIGAND FREE ENERGY PREDICTED BY IDOCK:   -0.82 KCAL/MOL
REMARK 927      BINDING AFFINITY PREDICTED BY RF-SCORE:    0.00 PKD
ROOT
HETATM    1  C   UNL     1     -11.687   6.645  70.439  1.00  0.00    -0.446 C  
HETATM    2  C   UNL     1     -12.426   7.278  71.605  1.00  0.00    -0.394 C  
ENDROOT
BRANCH   2   3
HETATM    3  C   UNL     1     -11.600   8.394  72.241  1.00  0.00    -0.453 C  
BRANCH   3   4
HETATM    4  C   UNL     1     -11.707   9.689  71.439  1.00  0.00    -0.478 C  
BRANCH   4   5
HETATM    5  C   UNL     1     -12.978  10.453  71.801  1.00  0.00    -0.580 C  
BRANCH   5   6
HETATM    6  C   UNL     1     -12.970  11.852  71.193  1.00  0.00    -0.266 C  
BRANCH   6   7
HETATM    7  C   UNL     1     -13.445  12.889  72.208  1.00  0.00    -0.631 C  
BRANCH   7   8
HETATM    8  C   UNL     1     -12.851  14.262  71.904  1.00  0.00    -0.429 C  
BRANCH   8   9
HETATM    9  C   UNL     1     -12.710  14.472  70.400  1.00  0.00    -0.378 C  
BRANCH   9  10
HETATM   10  C   UNL     1     -11.317  14.985  70.051  1.00  0.00    -0.305 C  
BRANCH  10  11
HETATM   11  C   UNL     1     -10.789  14.318  68.784  1.00  0.00    -0.265 C  
BRANCH  11  12
HETATM   12  C   UNL     1     -11.635  14.704  67.573  1.00  0.00    -0.396 C  
BRANCH  12  13
HETATM   13  C   UNL     1     -12.157  13.463  66.853  1.00  0.00    -0.406 C  
BRANCH  13  14
HETATM   14  C   UNL     1     -12.435  13.763  65.381  1.00  0.00    -0.532 C  
BRANCH  14  15
HETATM   15  C   UNL     1     -12.202  12.529  64.514  1.00  0.00    -0.528 C  
BRANCH  15  16
HETATM   16  C   UNL     1     -10.726  12.165  64.452  1.00  0.00    -0.323 C  
HETATM   17  O   UNL     1      -9.997  13.218  63.840  1.00  0.00    -0.753 OA 
HETATM   18  H   UNL     1      -9.075  12.991  63.801  1.00  0.00     0.000 HD 
ENDBRANCH  15  16
ENDBRANCH  14  15
ENDBRANCH  13  14
ENDBRANCH  12  13
ENDBRANCH  11  12
ENDBRANCH  10  11
ENDBRANCH   9  10
ENDBRANCH   8   9
ENDBRANCH   7   8
ENDBRANCH   6   7
ENDBRANCH   5   6
ENDBRANCH   4   5
ENDBRANCH   3   4
ENDBRANCH   2   3
TORSDOF 14
ENDMDL
MODEL       54
REMARK 921   NORMALIZED FREE ENERGY PREDICTED BY IDOCK:   -3.85 KCAL/MOL
REMARK 922        TOTAL FREE ENERGY PREDICTED BY IDOCK:   -8.38 KCAL/MOL
REMARK 923 INTER-LIGAND FREE ENERGY PREDICTED BY IDOCK:   -6.60 KCAL/MOL
REMARK 924 INTRA-LIGAND FREE ENERGY PREDICTED BY IDOCK:   -1.78 KCAL/MOL
REMARK 927      BINDING AFFINITY PREDICTED BY RF-SCORE:    0.00 PKD
ROOT
HETATM    1  C   UNL     1     -10.394  19.660  66.805  1.00  0.00    -0.591 C  
HETATM    2  C   UNL     1     -10.081  19.515  68.285  1.00  0.00    -0.542 C  
ENDROOT
BRANCH   2   3
HETATM    3  C   UNL     1     -10.004  18.045  68.691  1.00  0.00    -0.396 C  
BRANCH   3   4
HETATM    4  C   UNL     1     -10.401  17.128  67.536  1.00  0.00    -0.341 C  
BRANCH   4   5
HETATM    5  C   UNL     1      -9.672  15.790  67.627  1.00  0.00    -0.222 C  
BRANCH   5   6
HETATM    6  C   UNL     1      -9.642  15.089  66.272  1.00  0.00    -0.335 C  
BRANCH   6   7
HETATM    7  C   UNL     1     -10.572  15.783  65.280  1.00  0.00    -0.446 C  
BRANCH   7   8
HETATM    8  C   UNL     1     -11.359  14.761  64.464  1.00  0.00    -0.309 C  
BRANCH   8   9
HETATM    9  C   UNL     1     -12.427  14.088  65.321  1.00  0.00    -0.495 C  
BRANCH   9  10
HETATM   10  C   UNL     1     -12.504  12.595  65.019  1.00  0.00    -0.556 C  
BRANCH  10  11
HETATM   11  C   UNL     1     -11.224  12.106  64.346  1.00  0.00    -0.400 C  
BRANCH  11  12
HETATM   12  C   UNL     1     -10.286  11.462  65.362  1.00  0.00    -0.320 C  
BRANCH  12  13
HETATM   13  C   UNL     1     -11.049  11.016  66.607  1.00  0.00    -0.201 C  
BRANCH  13  14
HETATM   14  C   UNL     1     -10.420  11.597  67.871  1.00  0.00    -0.217 C  
BRANCH  14  15
HETATM   15  C   UNL     1     -11.467  12.286  68.741  1.00  0.00    -0.360 C  
BRANCH  15  16
HETATM   16  C   UNL     1     -11.688  11.534  70.045  1.00  0.00    -0.332 C  
HETATM   17  O   UNL     1     -12.661  10.519  69.854  1.00  0.00    -0.533 OA 
HETATM   18  H   UNL     1     -12.800  10.049  70.669  1.00  0.00     0.000 HD 
ENDBRANCH  15  16
ENDBRANCH  14  15
ENDBRANCH  13  14
ENDBRANCH  12  13
ENDBRANCH  11  12
ENDBRANCH  10  11
ENDBRANCH   9  10
ENDBRANCH   8   9
ENDBRANCH   7   8
ENDBRANCH   6   7
ENDBRANCH   5   6
ENDBRANCH   4   5
ENDBRANCH   3   4
ENDBRANCH   2   3
TORSDOF 14
ENDMDL
MODEL       55
REMARK 921   NORMALIZED FREE ENERGY PREDICTED BY IDOCK:   -3.85 KCAL/MOL
REMARK 922        TOTAL FREE ENERGY PREDICTED BY IDOCK:   -8.38 KCAL/MOL
REMARK 923 INTER-LIGAND FREE ENERGY PREDICTED BY IDOCK:   -7.05 KCAL/MOL
REMARK 924 INTRA-LIGAND FREE ENERGY PREDICTED BY IDOCK:   -1.33 KCAL/MOL
REMARK 927      BINDING AFFINITY PREDICTED BY RF-SCORE:    0.00 PKD
ROOT
HETATM    1  C   UNL     1      -9.268  10.005  64.231  1.00  0.00    -0.318 C  
HETATM    2  C   UNL     1     -10.467  10.896  64.506  1.00  0.00    -0.393 C  
ENDROOT
BRANCH   2   3
HETATM    3  C   UNL     1     -10.424  12.160  63.649  1.00  0.00    -0.495 C  
BRANCH   3   4
HETATM    4  C   UNL     1     -11.817  12.761  63.477  1.00  0.00    -0.618 C  
BRANCH   4   5
HETATM    5  C   UNL     1     -11.959  14.049  64.285  1.00  0.00    -0.463 C  
BRANCH   5   6
HETATM    6  C   UNL     1     -12.574  13.773  65.653  1.00  0.00    -0.551 C  
BRANCH   6   7
HETATM    7  C   UNL     1     -11.730  14.393  66.764  1.00  0.00    -0.415 C  
BRANCH   7   8
HETATM    8  C   UNL     1     -10.444  13.599  66.980  1.00  0.00    -0.270 C  
BRANCH   8   9
HETATM    9  C   UNL     1     -10.542  12.736  68.235  1.00  0.00    -0.251 C  
BRANCH   9  10
HETATM   10  C   UNL     1     -10.958  11.312  67.883  1.00  0.00    -0.302 C  
BRANCH  10  11
HETATM   11  C   UNL     1     -12.003  10.789  68.865  1.00  0.00    -0.210 C  
BRANCH  11  12
HETATM   12  C   UNL     1     -11.914  11.526  70.199  1.00  0.00    -0.452 C  
BRANCH  12  13
HETATM   13  C   UNL     1     -12.411  10.647  71.344  1.00  0.00    -0.496 C  
BRANCH  13  14
HETATM   14  C   UNL     1     -11.574   9.375  71.460  1.00  0.00    -0.467 C  
BRANCH  14  15
HETATM   15  C   UNL     1     -12.266   8.338  72.339  1.00  0.00    -0.412 C  
BRANCH  15  16
HETATM   16  C   UNL     1     -12.404   7.005  71.620  1.00  0.00    -0.368 C  
HETATM   17  O   UNL     1     -12.126   7.173  70.238  1.00  0.00    -0.568 OA 
HETATM   18  H   UNL     1     -12.212   6.340  69.789  1.00  0.00     0.000 HD 
ENDBRANCH  15  16
ENDBRANCH  14  15
ENDBRANCH  13  14
ENDBRANCH  12  13
ENDBRANCH  11  12
ENDBRANCH  10  11
ENDBRANCH   9  10
ENDBRANCH   8   9
ENDBRANCH   7   8
ENDBRANCH   6   7
ENDBRANCH   5   6
ENDBRANCH   4   5
ENDBRANCH   3   4
ENDBRANCH   2   3
TORSDOF 14
ENDMDL
MODEL       56
REMARK 921   NORMALIZED FREE ENERGY PREDICTED BY IDOCK:   -3.85 KCAL/MOL
REMARK 922        TOTAL FREE ENERGY PREDICTED BY IDOCK:   -8.38 KCAL/MOL
REMARK 923 INTER-LIGAND FREE ENERGY PREDICTED BY IDOCK:   -6.65 KCAL/MOL
REMARK 924 INTRA-LIGAND FREE ENERGY PREDICTED BY IDOCK:   -1.73 KCAL/MOL
REMARK 927      BINDING AFFINITY PREDICTED BY RF-SCORE:    0.00 PKD
ROOT
HETATM    1  C   UNL     1     -14.014  13.556  72.291  1.00  0.00    -0.638 C  
HETATM    2  C   UNL     1     -12.825  13.682  71.354  1.00  0.00    -0.442 C  
ENDROOT
BRANCH   2   3
HETATM    3  C   UNL     1     -12.455  12.330  70.747  1.00  0.00    -0.356 C  
BRANCH   3   4
HETATM    4  C   UNL     1     -11.864  12.494  69.349  1.00  0.00    -0.368 C  
BRANCH   4   5
HETATM    5  C   UNL     1     -10.972  11.307  68.991  1.00  0.00    -0.288 C  
BRANCH   5   6
HETATM    6  C   UNL     1     -11.227  10.840  67.562  1.00  0.00    -0.346 C  
BRANCH   6   7
HETATM    7  C   UNL     1      -9.968  10.224  66.958  1.00  0.00    -0.249 C  
BRANCH   7   8
HETATM    8  C   UNL     1     -10.130  10.013  65.455  1.00  0.00    -0.317 C  
BRANCH   8   9
HETATM    9  C   UNL     1      -9.742  11.271  64.684  1.00  0.00    -0.294 C  
BRANCH   9  10
HETATM   10  C   UNL     1     -10.654  11.473  63.478  1.00  0.00    -0.487 C  
BRANCH  10  11
HETATM   11  C   UNL     1     -11.432  12.780  63.593  1.00  0.00    -0.544 C  
BRANCH  11  12
HETATM   12  C   UNL     1     -12.617  12.627  64.543  1.00  0.00    -0.491 C  
BRANCH  12  13
HETATM   13  C   UNL     1     -12.621  13.731  65.597  1.00  0.00    -0.551 C  
BRANCH  13  14
HETATM   14  C   UNL     1     -11.381  14.613  65.468  1.00  0.00    -0.341 C  
BRANCH  14  15
HETATM   15  C   UNL     1     -10.825  14.987  66.839  1.00  0.00    -0.315 C  
BRANCH  15  16
HETATM   16  C   UNL     1      -9.515  14.267  67.121  1.00  0.00    -0.227 C  
HETATM   17  O   UNL     1      -8.491  14.789  66.288  1.00  0.00    -0.392 OA 
HETATM   18  H   UNL     1      -7.672  14.339  66.464  1.00  0.00     0.000 HD 
ENDBRANCH  15  16
ENDBRANCH  14  15
ENDBRANCH  13  14
ENDBRANCH  12  13
ENDBRANCH  11  12
ENDBRANCH  10  11
ENDBRANCH   9  10
ENDBRANCH   8   9
ENDBRANCH   7   8
ENDBRANCH   6   7
ENDBRANCH   5   6
ENDBRANCH   4   5
ENDBRANCH   3   4
ENDBRANCH   2   3
TORSDOF 14
ENDMDL
MODEL       57
REMARK 921   NORMALIZED FREE ENERGY PREDICTED BY IDOCK:   -3.85 KCAL/MOL
REMARK 922        TOTAL FREE ENERGY PREDICTED BY IDOCK:   -8.37 KCAL/MOL
REMARK 923 INTER-LIGAND FREE ENERGY PREDICTED BY IDOCK:   -7.36 KCAL/MOL
REMARK 924 INTRA-LIGAND FREE ENERGY PREDICTED BY IDOCK:   -1.02 KCAL/MOL
REMARK 927      BINDING AFFINITY PREDICTED BY RF-SCORE:    0.00 PKD
ROOT
HETATM    1  C   UNL     1     -14.091  14.788  71.544  1.00  0.00    -0.566 C  
HETATM    2  C   UNL     1     -13.544  13.680  72.427  1.00  0.00    -0.703 C  
ENDROOT
BRANCH   2   3
HETATM    3  C   UNL     1     -13.017  12.516  71.590  1.00  0.00    -0.405 C  
BRANCH   3   4
HETATM    4  C   UNL     1     -12.177  13.012  70.415  1.00  0.00    -0.386 C  
BRANCH   4   5
HETATM    5  C   UNL     1     -11.980  11.907  69.380  1.00  0.00    -0.350 C  
BRANCH   5   6
HETATM    6  C   UNL     1     -11.213  12.423  68.166  1.00  0.00    -0.313 C  
BRANCH   6   7
HETATM    7  C   UNL     1     -11.369  11.474  66.981  1.00  0.00    -0.340 C  
BRANCH   7   8
HETATM    8  C   UNL     1     -11.702  12.243  65.705  1.00  0.00    -0.445 C  
BRANCH   8   9
HETATM    9  C   UNL     1     -12.223  13.639  66.034  1.00  0.00    -0.492 C  
BRANCH   9  10
HETATM   10  C   UNL     1     -11.853  14.630  64.935  1.00  0.00    -0.403 C  
BRANCH  10  11
HETATM   11  C   UNL     1     -10.519  15.307  65.236  1.00  0.00    -0.436 C  
BRANCH  11  12
HETATM   12  C   UNL     1     -10.470  15.796  66.681  1.00  0.00    -0.302 C  
BRANCH  12  13
HETATM   13  C   UNL     1      -9.920  17.218  66.760  1.00  0.00    -0.301 C  
BRANCH  13  14
HETATM   14  C   UNL     1     -10.715  18.055  67.760  1.00  0.00    -0.350 C  
BRANCH  14  15
HETATM   15  C   UNL     1     -10.650  19.539  67.411  1.00  0.00    -0.607 C  
BRANCH  15  16
HETATM   16  C   UNL     1      -9.736  19.790  66.221  1.00  0.00    -0.435 C  
HETATM   17  O   UNL     1      -8.570  20.478  66.646  1.00  0.00    -0.525 OA 
HETATM   18  H   UNL     1      -8.000  20.634  65.903  1.00  0.00     0.000 HD 
ENDBRANCH  15  16
ENDBRANCH  14  15
ENDBRANCH  13  14
ENDBRANCH  12  13
ENDBRANCH  11  12
ENDBRANCH  10  11
ENDBRANCH   9  10
ENDBRANCH   8   9
ENDBRANCH   7   8
ENDBRANCH   6   7
ENDBRANCH   5   6
ENDBRANCH   4   5
ENDBRANCH   3   4
ENDBRANCH   2   3
TORSDOF 14
ENDMDL
MODEL       58
REMARK 921   NORMALIZED FREE ENERGY PREDICTED BY IDOCK:   -3.84 KCAL/MOL
REMARK 922        TOTAL FREE ENERGY PREDICTED BY IDOCK:   -8.37 KCAL/MOL
REMARK 923 INTER-LIGAND FREE ENERGY PREDICTED BY IDOCK:   -7.14 KCAL/MOL
REMARK 924 INTRA-LIGAND FREE ENERGY PREDICTED BY IDOCK:   -1.23 KCAL/MOL
REMARK 927      BINDING AFFINITY PREDICTED BY RF-SCORE:    0.00 PKD
ROOT
HETATM    1  C   UNL     1     -11.555   7.932  72.416  1.00  0.00    -0.436 C  
HETATM    2  C   UNL     1     -12.255   7.252  71.252  1.00  0.00    -0.389 C  
ENDROOT
BRANCH   2   3
HETATM    3  C   UNL     1     -11.269   6.915  70.136  1.00  0.00    -0.361 C  
BRANCH   3   4
HETATM    4  C   UNL     1     -10.144   7.944  70.059  1.00  0.00    -0.199 C  
BRANCH   4   5
HETATM    5  C   UNL     1     -10.463   9.027  69.031  1.00  0.00    -0.235 C  
BRANCH   5   6
HETATM    6  C   UNL     1     -10.638  10.385  69.702  1.00  0.00    -0.289 C  
BRANCH   6   7
HETATM    7  C   UNL     1     -12.110  10.790  69.734  1.00  0.00    -0.389 C  
BRANCH   7   8
HETATM    8  C   UNL     1     -12.516  11.264  71.127  1.00  0.00    -0.479 C  
BRANCH   8   9
HETATM    9  C   UNL     1     -12.692  12.779  71.155  1.00  0.00    -0.355 C  
BRANCH   9  10
HETATM   10  C   UNL     1     -12.359  13.391  69.798  1.00  0.00    -0.219 C  
BRANCH  10  11
HETATM   11  C   UNL     1     -11.587  14.698  69.962  1.00  0.00    -0.335 C  
BRANCH  11  12
HETATM   12  C   UNL     1     -11.493  15.445  68.635  1.00  0.00    -0.357 C  
BRANCH  12  13
HETATM   13  C   UNL     1     -11.761  14.509  67.459  1.00  0.00    -0.413 C  
BRANCH  13  14
HETATM   14  C   UNL     1     -10.504  14.324  66.611  1.00  0.00    -0.278 C  
BRANCH  14  15
HETATM   15  C   UNL     1     -10.764  14.695  65.154  1.00  0.00    -0.430 C  
BRANCH  15  16
HETATM   16  C   UNL     1     -10.882  16.201  64.977  1.00  0.00    -0.363 C  
HETATM   17  O   UNL     1     -11.608  16.491  63.792  1.00  0.00    -1.617 OA 
HETATM   18  H   UNL     1     -11.681  17.432  63.682  1.00  0.00     0.000 HD 
ENDBRANCH  15  16
ENDBRANCH  14  15
ENDBRANCH  13  14
ENDBRANCH  12  13
ENDBRANCH  11  12
ENDBRANCH  10  11
ENDBRANCH   9  10
ENDBRANCH   8   9
ENDBRANCH   7   8
ENDBRANCH   6   7
ENDBRANCH   5   6
ENDBRANCH   4   5
ENDBRANCH   3   4
ENDBRANCH   2   3
TORSDOF 14
ENDMDL
MODEL       59
REMARK 921   NORMALIZED FREE ENERGY PREDICTED BY IDOCK:   -3.84 KCAL/MOL
REMARK 922        TOTAL FREE ENERGY PREDICTED BY IDOCK:   -8.37 KCAL/MOL
REMARK 923 INTER-LIGAND FREE ENERGY PREDICTED BY IDOCK:   -7.36 KCAL/MOL
REMARK 924 INTRA-LIGAND FREE ENERGY PREDICTED BY IDOCK:   -1.01 KCAL/MOL
REMARK 927      BINDING AFFINITY PREDICTED BY RF-SCORE:    0.00 PKD
ROOT
HETATM    1  C   UNL     1     -14.403   8.297  71.848  1.00  0.00    -0.564 C  
HETATM    2  C   UNL     1     -13.118   9.103  71.915  1.00  0.00    -0.478 C  
ENDROOT
BRANCH   2   3
HETATM    3  C   UNL     1     -11.918   8.267  71.474  1.00  0.00    -0.335 C  
BRANCH   3   4
HETATM    4  C   UNL     1     -10.751   8.415  72.448  1.00  0.00    -0.405 C  
BRANCH   4   5
HETATM    5  C   UNL     1      -9.439   7.984  71.798  1.00  0.00    -0.223 C  
BRANCH   5   6
HETATM    6  C   UNL     1      -8.978   9.005  70.763  1.00  0.00    -0.286 C  
BRANCH   6   7
HETATM    7  C   UNL     1      -8.940   8.388  69.368  1.00  0.00    -0.153 C  
BRANCH   7   8
HETATM    8  C   UNL     1      -9.109   9.457  68.292  1.00  0.00    -0.128 C  
BRANCH   8   9
HETATM    9  C   UNL     1     -10.579   9.622  67.917  1.00  0.00    -0.308 C  
BRANCH   9  10
HETATM   10  C   UNL     1     -11.164  10.881  68.549  1.00  0.00    -0.335 C  
BRANCH  10  11
HETATM   11  C   UNL     1     -11.661  11.849  67.480  1.00  0.00    -0.374 C  
BRANCH  11  12
HETATM   12  C   UNL     1     -11.640  13.286  67.994  1.00  0.00    -0.371 C  
BRANCH  12  13
HETATM   13  C   UNL     1     -12.150  14.256  66.931  1.00  0.00    -0.440 C  
BRANCH  13  14
HETATM   14  C   UNL     1     -12.437  13.527  65.620  1.00  0.00    -0.528 C  
BRANCH  14  15
HETATM   15  C   UNL     1     -11.672  14.158  64.460  1.00  0.00    -0.426 C  
BRANCH  15  16
HETATM   16  C   UNL     1     -11.179  15.553  64.814  1.00  0.00    -0.390 C  
HETATM   17  O   UNL     1     -11.601  16.478  63.824  1.00  0.00    -1.617 OA 
HETATM   18  H   UNL     1     -11.292  17.349  64.044  1.00  0.00     0.000 HD 
ENDBRANCH  15  16
ENDBRANCH  14  15
ENDBRANCH  13  14
ENDBRANCH  12  13
ENDBRANCH  11  12
ENDBRANCH  10  11
ENDBRANCH   9  10
ENDBRANCH   8   9
ENDBRANCH   7   8
ENDBRANCH   6   7
ENDBRANCH   5   6
ENDBRANCH   4   5
ENDBRANCH   3   4
ENDBRANCH   2   3
TORSDOF 14
ENDMDL
MODEL       60
REMARK 921   NORMALIZED FREE ENERGY PREDICTED BY IDOCK:   -3.83 KCAL/MOL
REMARK 922        TOTAL FREE ENERGY PREDICTED BY IDOCK:   -8.34 KCAL/MOL
REMARK 923 INTER-LIGAND FREE ENERGY PREDICTED BY IDOCK:   -6.85 KCAL/MOL
REMARK 924 INTRA-LIGAND FREE ENERGY PREDICTED BY IDOCK:   -1.48 KCAL/MOL
REMARK 927      BINDING AFFINITY PREDICTED BY RF-SCORE:    0.00 PKD
ROOT
HETATM    1  C   UNL     1      -9.512  12.738  68.146  1.00  0.00    -0.219 C  
HETATM    2  C   UNL     1     -10.717  13.639  67.939  1.00  0.00    -0.257 C  
ENDROOT
BRANCH   2   3
HETATM    3  C   UNL     1     -10.494  15.013  68.568  1.00  0.00    -0.232 C  
BRANCH   3   4
HETATM    4  C   UNL     1     -11.718  15.466  69.360  1.00  0.00    -0.369 C  
BRANCH   4   5
HETATM    5  C   UNL     1     -11.359  15.720  70.822  1.00  0.00    -0.419 C  
BRANCH   5   6
HETATM    6  C   UNL     1     -12.580  15.560  71.723  1.00  0.00    -0.480 C  
BRANCH   6   7
HETATM    7  C   UNL     1     -13.426  14.367  71.285  1.00  0.00    -0.401 C  
BRANCH   7   8
HETATM    8  C   UNL     1     -13.611  13.379  72.434  1.00  0.00    -0.708 C  
BRANCH   8   9
HETATM    9  C   UNL     1     -13.261  11.961  71.991  1.00  0.00    -0.461 C  
BRANCH   9  10
HETATM   10  C   UNL     1     -12.518  11.975  70.660  1.00  0.00    -0.335 C  
BRANCH  10  11
HETATM   11  C   UNL     1     -11.680  10.710  70.488  1.00  0.00    -0.451 C  
BRANCH  11  12
HETATM   12  C   UNL     1     -11.930   9.731  71.631  1.00  0.00    -0.454 C  
BRANCH  12  13
HETATM   13  C   UNL     1     -10.662   8.953  71.973  1.00  0.00    -0.389 C  
BRANCH  13  14
HETATM   14  C   UNL     1     -11.003   7.610  72.616  1.00  0.00    -0.405 C  
BRANCH  14  15
HETATM   15  C   UNL     1     -12.067   6.869  71.813  1.00  0.00    -0.385 C  
BRANCH  15  16
HETATM   16  C   UNL     1     -11.456   6.124  70.636  1.00  0.00    -0.261 C  
HETATM   17  O   UNL     1     -11.806   6.774  69.423  1.00  0.00    -0.628 OA 
HETATM   18  H   UNL     1     -11.425   6.309  68.687  1.00  0.00     0.000 HD 
ENDBRANCH  15  16
ENDBRANCH  14  15
ENDBRANCH  13  14
ENDBRANCH  12  13
ENDBRANCH  11  12
ENDBRANCH  10  11
ENDBRANCH   9  10
ENDBRANCH   8   9
ENDBRANCH   7   8
ENDBRANCH   6   7
ENDBRANCH   5   6
ENDBRANCH   4   5
ENDBRANCH   3   4
ENDBRANCH   2   3
TORSDOF 14
ENDMDL
MODEL       61
REMARK 921   NORMALIZED FREE ENERGY PREDICTED BY IDOCK:   -3.83 KCAL/MOL
REMARK 922        TOTAL FREE ENERGY PREDICTED BY IDOCK:   -8.34 KCAL/MOL
REMARK 923 INTER-LIGAND FREE ENERGY PREDICTED BY IDOCK:   -7.51 KCAL/MOL
REMARK 924 INTRA-LIGAND FREE ENERGY PREDICTED BY IDOCK:   -0.82 KCAL/MOL
REMARK 927      BINDING AFFINITY PREDICTED BY RF-SCORE:    0.00 PKD
ROOT
HETATM    1  C   UNL     1     -11.700  15.934  72.200  1.00  0.00    -0.586 C  
HETATM    2  C   UNL     1     -12.899  15.840  73.129  1.00  0.00    -0.631 C  
ENDROOT
BRANCH   2   3
HETATM    3  C   UNL     1     -14.173  15.512  72.354  1.00  0.00    -0.571 C  
BRANCH   3   4
HETATM    4  C   UNL     1     -13.991  14.267  71.488  1.00  0.00    -0.415 C  
BRANCH   4   5
HETATM    5  C   UNL     1     -13.631  13.055  72.343  1.00  0.00    -0.628 C  
BRANCH   5   6
HETATM    6  C   UNL     1     -12.887  12.006  71.523  1.00  0.00    -0.403 C  
BRANCH   6   7
HETATM    7  C   UNL     1     -13.222  10.597  72.009  1.00  0.00    -0.473 C  
BRANCH   7   8
HETATM    8  C   UNL     1     -12.671   9.545  71.052  1.00  0.00    -0.314 C  
BRANCH   8   9
HETATM    9  C   UNL     1     -11.194   9.796  70.759  1.00  0.00    -0.419 C  
BRANCH   9  10
HETATM   10  C   UNL     1     -10.949   9.907  69.258  1.00  0.00    -0.244 C  
BRANCH  10  11
HETATM   11  C   UNL     1     -10.685  11.354  68.852  1.00  0.00    -0.248 C  
BRANCH  11  12
HETATM   12  C   UNL     1     -11.630  11.788  67.735  1.00  0.00    -0.374 C  
BRANCH  12  13
HETATM   13  C   UNL     1     -10.851  12.219  66.495  1.00  0.00    -0.297 C  
BRANCH  13  14
HETATM   14  C   UNL     1     -11.789  12.780  65.428  1.00  0.00    -0.456 C  
BRANCH  14  15
HETATM   15  C   UNL     1     -12.102  14.251  65.687  1.00  0.00    -0.399 C  
BRANCH  15  16
HETATM   16  C   UNL     1     -10.866  15.120  65.510  1.00  0.00    -0.364 C  
HETATM   17  O   UNL     1     -11.159  16.198  64.635  1.00  0.00    -0.691 OA 
HETATM   18  H   UNL     1     -10.388  16.742  64.524  1.00  0.00     0.000 HD 
ENDBRANCH  15  16
ENDBRANCH  14  15
ENDBRANCH  13  14
ENDBRANCH  12  13
ENDBRANCH  11  12
ENDBRANCH  10  11
ENDBRANCH   9  10
ENDBRANCH   8   9
ENDBRANCH   7   8
ENDBRANCH   6   7
ENDBRANCH   5   6
ENDBRANCH   4   5
ENDBRANCH   3   4
ENDBRANCH   2   3
TORSDOF 14
ENDMDL
MODEL       62
REMARK 921   NORMALIZED FREE ENERGY PREDICTED BY IDOCK:   -3.82 KCAL/MOL
REMARK 922        TOTAL FREE ENERGY PREDICTED BY IDOCK:   -8.33 KCAL/MOL
REMARK 923 INTER-LIGAND FREE ENERGY PREDICTED BY IDOCK:   -6.33 KCAL/MOL
REMARK 924 INTRA-LIGAND FREE ENERGY PREDICTED BY IDOCK:   -2.00 KCAL/MOL
REMARK 927      BINDING AFFINITY PREDICTED BY RF-SCORE:    0.00 PKD
ROOT
HETATM    1  C   UNL     1     -11.063   5.974  71.348  1.00  0.00    -0.336 C  
HETATM    2  C   UNL     1     -11.914   7.204  71.082  1.00  0.00    -0.381 C  
ENDROOT
BRANCH   2   3
HETATM    3  C   UNL     1     -11.853   8.181  72.254  1.00  0.00    -0.441 C  
BRANCH   3   4
HETATM    4  C   UNL     1     -12.956   9.233  72.158  1.00  0.00    -0.503 C  
BRANCH   4   5
HETATM    5  C   UNL     1     -13.002   9.850  70.762  1.00  0.00    -0.277 C  
BRANCH   5   6
HETATM    6  C   UNL     1     -12.149  11.113  70.693  1.00  0.00    -0.477 C  
BRANCH   6   7
HETATM    7  C   UNL     1     -11.205  11.066  69.494  1.00  0.00    -0.343 C  
BRANCH   7   8
HETATM    8  C   UNL     1      -9.987  10.196  69.792  1.00  0.00    -0.258 C  
BRANCH   8   9
HETATM    9  C   UNL     1      -9.854   9.077  68.763  1.00  0.00    -0.180 C  
BRANCH   9  10
HETATM   10  C   UNL     1     -10.797   9.306  67.586  1.00  0.00    -0.188 C  
BRANCH  10  11
HETATM   11  C   UNL     1     -10.031   9.321  66.266  1.00  0.00    -0.357 C  
BRANCH  11  12
HETATM   12  C   UNL     1     -10.242  10.640  65.528  1.00  0.00    -0.329 C  
BRANCH  12  13
HETATM   13  C   UNL     1      -9.447  11.767  66.183  1.00  0.00    -0.240 C  
BRANCH  13  14
HETATM   14  C   UNL     1     -10.241  13.071  66.174  1.00  0.00    -0.288 C  
BRANCH  14  15
HETATM   15  C   UNL     1     -11.733  12.809  66.352  1.00  0.00    -0.464 C  
BRANCH  15  16
HETATM   16  C   UNL     1     -12.546  13.452  65.238  1.00  0.00    -0.464 C  
HETATM   17  O   UNL     1     -13.291  12.457  64.551  1.00  0.00    -0.800 OA 
HETATM   18  H   UNL     1     -13.799  12.858  63.856  1.00  0.00     0.000 HD 
ENDBRANCH  15  16
ENDBRANCH  14  15
ENDBRANCH  13  14
ENDBRANCH  12  13
ENDBRANCH  11  12
ENDBRANCH  10  11
ENDBRANCH   9  10
ENDBRANCH   8   9
ENDBRANCH   7   8
ENDBRANCH   6   7
ENDBRANCH   5   6
ENDBRANCH   4   5
ENDBRANCH   3   4
ENDBRANCH   2   3
TORSDOF 14
ENDMDL
MODEL       63
REMARK 921   NORMALIZED FREE ENERGY PREDICTED BY IDOCK:   -3.82 KCAL/MOL
REMARK 922        TOTAL FREE ENERGY PREDICTED BY IDOCK:   -8.32 KCAL/MOL
REMARK 923 INTER-LIGAND FREE ENERGY PREDICTED BY IDOCK:   -6.57 KCAL/MOL
REMARK 924 INTRA-LIGAND FREE ENERGY PREDICTED BY IDOCK:   -1.75 KCAL/MOL
REMARK 927      BINDING AFFINITY PREDICTED BY RF-SCORE:    0.00 PKD
ROOT
HETATM    1  C   UNL     1      -8.540  16.258  66.135  1.00  0.00    -0.342 C  
HETATM    2  C   UNL     1      -9.359  15.062  66.590  1.00  0.00    -0.290 C  
ENDROOT
BRANCH   2   3
HETATM    3  C   UNL     1      -9.444  14.999  68.114  1.00  0.00    -0.196 C  
BRANCH   3   4
HETATM    4  C   UNL     1     -10.112  16.247  68.685  1.00  0.00    -0.233 C  
BRANCH   4   5
HETATM    5  C   UNL     1     -11.466  15.907  69.303  1.00  0.00    -0.374 C  
BRANCH   5   6
HETATM    6  C   UNL     1     -11.425  16.043  70.822  1.00  0.00    -0.444 C  
BRANCH   6   7
HETATM    7  C   UNL     1     -12.183  14.898  71.491  1.00  0.00    -0.402 C  
BRANCH   7   8
HETATM    8  C   UNL     1     -12.652  13.877  70.459  1.00  0.00    -0.382 C  
BRANCH   8   9
HETATM    9  C   UNL     1     -12.521  12.457  71.002  1.00  0.00    -0.353 C  
BRANCH   9  10
HETATM   10  C   UNL     1     -11.936  11.523  69.947  1.00  0.00    -0.426 C  
BRANCH  10  11
HETATM   11  C   UNL     1     -11.876  12.207  68.584  1.00  0.00    -0.358 C  
BRANCH  11  12
HETATM   12  C   UNL     1     -11.075  11.371  67.590  1.00  0.00    -0.325 C  
BRANCH  12  13
HETATM   13  C   UNL     1     -11.314  11.844  66.158  1.00  0.00    -0.383 C  
BRANCH  13  14
HETATM   14  C   UNL     1     -12.174  13.106  66.137  1.00  0.00    -0.451 C  
BRANCH  14  15
HETATM   15  C   UNL     1     -12.280  13.676  64.726  1.00  0.00    -0.440 C  
BRANCH  15  16
HETATM   16  C   UNL     1     -12.341  12.569  63.683  1.00  0.00    -0.522 C  
HETATM   17  O   UNL     1     -11.178  12.609  62.872  1.00  0.00    -0.647 OA 
HETATM   18  H   UNL     1     -11.216  11.918  62.221  1.00  0.00     0.000 HD 
ENDBRANCH  15  16
ENDBRANCH  14  15
ENDBRANCH  13  14
ENDBRANCH  12  13
ENDBRANCH  11  12
ENDBRANCH  10  11
ENDBRANCH   9  10
ENDBRANCH   8   9
ENDBRANCH   7   8
ENDBRANCH   6   7
ENDBRANCH   5   6
ENDBRANCH   4   5
ENDBRANCH   3   4
ENDBRANCH   2   3
TORSDOF 14
ENDMDL
MODEL       64
REMARK 921   NORMALIZED FREE ENERGY PREDICTED BY IDOCK:   -3.81 KCAL/MOL
REMARK 922        TOTAL FREE ENERGY PREDICTED BY IDOCK:   -8.30 KCAL/MOL
REMARK 923 INTER-LIGAND FREE ENERGY PREDICTED BY IDOCK:   -6.67 KCAL/MOL
REMARK 924 INTRA-LIGAND FREE ENERGY PREDICTED BY IDOCK:   -1.63 KCAL/MOL
REMARK 927      BINDING AFFINITY PREDICTED BY RF-SCORE:    0.00 PKD
ROOT
HETATM    1  C   UNL     1     -14.141   8.888  72.210  1.00  0.00    -0.512 C  
HETATM    2  C   UNL     1     -13.175   9.984  71.795  1.00  0.00    -0.540 C  
ENDROOT
BRANCH   2   3
HETATM    3  C   UNL     1     -11.791   9.414  71.492  1.00  0.00    -0.456 C  
BRANCH   3   4
HETATM    4  C   UNL     1     -11.475   8.217  72.386  1.00  0.00    -0.462 C  
BRANCH   4   5
HETATM    5  C   UNL     1     -10.857   7.079  71.578  1.00  0.00    -0.255 C  
BRANCH   5   6
HETATM    6  C   UNL     1     -11.715   6.741  70.362  1.00  0.00    -0.418 C  
BRANCH   6   7
HETATM    7  C   UNL     1     -10.849   6.576  69.115  1.00  0.00    -0.354 C  
BRANCH   7   8
HETATM    8  C   UNL     1      -9.629   7.491  69.172  1.00  0.00    -0.157 C  
BRANCH   8   9
HETATM    9  C   UNL     1      -9.852   8.746  68.333  1.00  0.00    -0.189 C  
BRANCH   9  10
HETATM   10  C   UNL     1      -9.306   9.979  69.044  1.00  0.00    -0.183 C  
BRANCH  10  11
HETATM   11  C   UNL     1     -10.191  11.196  68.786  1.00  0.00    -0.219 C  
BRANCH  11  12
HETATM   12  C   UNL     1     -11.334  10.847  67.837  1.00  0.00    -0.380 C  
BRANCH  12  13
HETATM   13  C   UNL     1     -11.421  11.852  66.691  1.00  0.00    -0.382 C  
BRANCH  13  14
HETATM   14  C   UNL     1     -10.648  11.358  65.471  1.00  0.00    -0.328 C  
BRANCH  14  15
HETATM   15  C   UNL     1     -10.503  12.461  64.426  1.00  0.00    -0.371 C  
BRANCH  15  16
HETATM   16  C   UNL     1     -11.800  12.673  63.661  1.00  0.00    -0.530 C  
HETATM   17  O   UNL     1     -12.151  11.484  62.969  1.00  0.00    -0.939 OA 
HETATM   18  H   UNL     1     -12.961  11.617  62.491  1.00  0.00     0.000 HD 
ENDBRANCH  15  16
ENDBRANCH  14  15
ENDBRANCH  13  14
ENDBRANCH  12  13
ENDBRANCH  11  12
ENDBRANCH  10  11
ENDBRANCH   9  10
ENDBRANCH   8   9
ENDBRANCH   7   8
ENDBRANCH   6   7
ENDBRANCH   5   6
ENDBRANCH   4   5
ENDBRANCH   3   4
ENDBRANCH   2   3
TORSDOF 14
ENDMDL
MODEL       65
REMARK 921   NORMALIZED FREE ENERGY PREDICTED BY IDOCK:   -3.80 KCAL/MOL
REMARK 922        TOTAL FREE ENERGY PREDICTED BY IDOCK:   -8.30 KCAL/MOL
REMARK 923 INTER-LIGAND FREE ENERGY PREDICTED BY IDOCK:   -6.14 KCAL/MOL
REMARK 924 INTRA-LIGAND FREE ENERGY PREDICTED BY IDOCK:   -2.15 KCAL/MOL
REMARK 927      BINDING AFFINITY PREDICTED BY RF-SCORE:    0.00 PKD
ROOT
HETATM    1  C   UNL     1     -10.494   9.570  70.480  1.00  0.00    -0.358 C  
HETATM    2  C   UNL     1     -11.663   9.947  71.373  1.00  0.00    -0.449 C  
ENDROOT
BRANCH   2   3
HETATM    3  C   UNL     1     -12.315  11.248  70.911  1.00  0.00    -0.490 C  
BRANCH   3   4
HETATM    4  C   UNL     1     -11.685  11.755  69.616  1.00  0.00    -0.413 C  
BRANCH   4   5
HETATM    5  C   UNL     1     -11.707  13.281  69.559  1.00  0.00    -0.384 C  
BRANCH   5   6
HETATM    6  C   UNL     1     -12.014  13.772  68.148  1.00  0.00    -0.394 C  
BRANCH   6   7
HETATM    7  C   UNL     1     -11.163  14.992  67.799  1.00  0.00    -0.327 C  
BRANCH   7   8
HETATM    8  C   UNL     1      -9.704  14.768  68.187  1.00  0.00    -0.217 C  
BRANCH   8   9
HETATM    9  C   UNL     1      -8.850  14.494  66.952  1.00  0.00    -0.257 C  
BRANCH   9  10
HETATM   10  C   UNL     1      -7.865  13.359  67.213  1.00  0.00    -0.107 C  
BRANCH  10  11
HETATM   11  C   UNL     1      -8.535  12.218  67.974  1.00  0.00    -0.171 C  
BRANCH  11  12
HETATM   12  C   UNL     1      -8.774  11.020  67.058  1.00  0.00    -0.141 C  
BRANCH  12  13
HETATM   13  C   UNL     1     -10.221  10.982  66.572  1.00  0.00    -0.280 C  
BRANCH  13  14
HETATM   14  C   UNL     1     -10.307  11.328  65.087  1.00  0.00    -0.353 C  
BRANCH  14  15
HETATM   15  C   UNL     1     -11.293  12.466  64.843  1.00  0.00    -0.361 C  
BRANCH  15  16
HETATM   16  C   UNL     1     -11.682  12.559  63.375  1.00  0.00    -0.488 C  
HETATM   17  O   UNL     1     -12.372  11.382  62.985  1.00  0.00    -0.952 OA 
HETATM   18  H   UNL     1     -12.615  11.439  62.068  1.00  0.00     0.000 HD 
ENDBRANCH  15  16
ENDBRANCH  14  15
ENDBRANCH  13  14
ENDBRANCH  12  13
ENDBRANCH  11  12
ENDBRANCH  10  11
ENDBRANCH   9  10
ENDBRANCH   8   9
ENDBRANCH   7   8
ENDBRANCH   6   7
ENDBRANCH   5   6
ENDBRANCH   4   5
ENDBRANCH   3   4
ENDBRANCH   2   3
TORSDOF 14
ENDMDL
MODEL       66
REMARK 921   NORMALIZED FREE ENERGY PREDICTED BY IDOCK:   -3.80 KCAL/MOL
REMARK 922        TOTAL FREE ENERGY PREDICTED BY IDOCK:   -8.28 KCAL/MOL
REMARK 923 INTER-LIGAND FREE ENERGY PREDICTED BY IDOCK:   -6.76 KCAL/MOL
REMARK 924 INTRA-LIGAND FREE ENERGY PREDICTED BY IDOCK:   -1.53 KCAL/MOL
REMARK 927      BINDING AFFINITY PREDICTED BY RF-SCORE:    0.00 PKD
ROOT
HETATM    1  C   UNL     1     -14.109  13.742  72.173  1.00  0.00    -0.604 C  
HETATM    2  C   UNL     1     -14.094  15.097  71.485  1.00  0.00    -0.636 C  
ENDROOT
BRANCH   2   3
HETATM    3  C   UNL     1     -12.749  15.359  70.810  1.00  0.00    -0.516 C  
BRANCH   3   4
HETATM    4  C   UNL     1     -12.152  14.072  70.245  1.00  0.00    -0.425 C  
BRANCH   4   5
HETATM    5  C   UNL     1     -11.084  14.379  69.199  1.00  0.00    -0.290 C  
BRANCH   5   6
HETATM    6  C   UNL     1     -11.694  15.048  67.972  1.00  0.00    -0.320 C  
BRANCH   6   7
HETATM    7  C   UNL     1     -12.040  14.013  66.903  1.00  0.00    -0.465 C  
BRANCH   7   8
HETATM    8  C   UNL     1     -11.360  14.348  65.579  1.00  0.00    -0.334 C  
BRANCH   8   9
HETATM    9  C   UNL     1     -12.260  13.987  64.400  1.00  0.00    -0.457 C  
BRANCH   9  10
HETATM   10  C   UNL     1     -12.137  12.506  64.056  1.00  0.00    -0.557 C  
BRANCH  10  11
HETATM   11  C   UNL     1     -10.743  12.182  63.525  1.00  0.00    -0.509 C  
BRANCH  11  12
HETATM   12  C   UNL     1     -10.273  10.819  64.023  1.00  0.00    -0.390 C  
BRANCH  12  13
HETATM   13  C   UNL     1     -10.226  10.779  65.549  1.00  0.00    -0.330 C  
BRANCH  13  14
HETATM   14  C   UNL     1      -8.849  11.192  66.064  1.00  0.00    -0.196 C  
BRANCH  14  15
HETATM   15  C   UNL     1      -8.966  12.058  67.315  1.00  0.00    -0.180 C  
BRANCH  15  16
HETATM   16  C   UNL     1      -7.793  13.020  67.434  1.00  0.00    -0.164 C  
HETATM   17  O   UNL     1      -8.116  14.251  66.805  1.00  0.00    -0.382 OA 
HETATM   18  H   UNL     1      -7.384  14.852  66.880  1.00  0.00     0.000 HD 
ENDBRANCH  15  16
ENDBRANCH  14  15
ENDBRANCH  13  14
ENDBRANCH  12  13
ENDBRANCH  11  12
ENDBRANCH  10  11
ENDBRANCH   9  10
ENDBRANCH   8   9
ENDBRANCH   7   8
ENDBRANCH   6   7
ENDBRANCH   5   6
ENDBRANCH   4   5
ENDBRANCH   3   4
ENDBRANCH   2   3
TORSDOF 14
ENDMDL
MODEL       67
REMARK 921   NORMALIZED FREE ENERGY PREDICTED BY IDOCK:   -3.79 KCAL/MOL
REMARK 922        TOTAL FREE ENERGY PREDICTED BY IDOCK:   -8.27 KCAL/MOL
REMARK 923 INTER-LIGAND FREE ENERGY PREDICTED BY IDOCK:   -7.08 KCAL/MOL
REMARK 924 INTRA-LIGAND FREE ENERGY PREDICTED BY IDOCK:   -1.19 KCAL/MOL
REMARK 927      BINDING AFFINITY PREDICTED BY RF-SCORE:    0.00 PKD
ROOT
HETATM    1  C   UNL     1      -9.847  20.068  66.577  1.00  0.00    -0.581 C  
HETATM    2  C   UNL     1     -10.767  18.978  67.100  1.00  0.00    -0.541 C  
ENDROOT
BRANCH   2   3
HETATM    3  C   UNL     1     -10.046  18.084  68.107  1.00  0.00    -0.378 C  
BRANCH   3   4
HETATM    4  C   UNL     1     -10.589  16.657  68.070  1.00  0.00    -0.338 C  
BRANCH   4   5
HETATM    5  C   UNL     1      -9.501  15.669  67.653  1.00  0.00    -0.211 C  
BRANCH   5   6
HETATM    6  C   UNL     1      -9.325  15.654  66.139  1.00  0.00    -0.382 C  
BRANCH   6   7
HETATM    7  C   UNL     1     -10.671  15.493  65.435  1.00  0.00    -0.422 C  
BRANCH   7   8
HETATM    8  C   UNL     1     -10.864  14.060  64.949  1.00  0.00    -0.421 C  
BRANCH   8   9
HETATM    9  C   UNL     1     -12.012  13.384  65.694  1.00  0.00    -0.439 C  
BRANCH   9  10
HETATM   10  C   UNL     1     -11.489  12.301  66.632  1.00  0.00    -0.431 C  
BRANCH  10  11
HETATM   11  C   UNL     1     -11.739  12.674  68.091  1.00  0.00    -0.396 C  
BRANCH  11  12
HETATM   12  C   UNL     1     -11.078  11.670  69.031  1.00  0.00    -0.297 C  
BRANCH  12  13
HETATM   13  C   UNL     1     -12.116  10.974  69.907  1.00  0.00    -0.435 C  
BRANCH  13  14
HETATM   14  C   UNL     1     -11.451   9.978  70.855  1.00  0.00    -0.452 C  
BRANCH  14  15
HETATM   15  C   UNL     1     -12.402   8.839  71.212  1.00  0.00    -0.313 C  
BRANCH  15  16
HETATM   16  C   UNL     1     -12.861   8.932  72.659  1.00  0.00    -0.248 C  
HETATM   17  O   UNL     1     -14.163   9.493  72.715  1.00  0.00    -0.799 OA 
HETATM   18  H   UNL     1     -14.450   9.551  73.619  1.00  0.00     0.000 HD 
ENDBRANCH  15  16
ENDBRANCH  14  15
ENDBRANCH  13  14
ENDBRANCH  12  13
ENDBRANCH  11  12
ENDBRANCH  10  11
ENDBRANCH   9  10
ENDBRANCH   8   9
ENDBRANCH   7   8
ENDBRANCH   6   7
ENDBRANCH   5   6
ENDBRANCH   4   5
ENDBRANCH   3   4
ENDBRANCH   2   3
TORSDOF 14
ENDMDL
MODEL       68
REMARK 921   NORMALIZED FREE ENERGY PREDICTED BY IDOCK:   -3.79 KCAL/MOL
REMARK 922        TOTAL FREE ENERGY PREDICTED BY IDOCK:   -8.27 KCAL/MOL
REMARK 923 INTER-LIGAND FREE ENERGY PREDICTED BY IDOCK:   -6.85 KCAL/MOL
REMARK 924 INTRA-LIGAND FREE ENERGY PREDICTED BY IDOCK:   -1.42 KCAL/MOL
REMARK 927      BINDING AFFINITY PREDICTED BY RF-SCORE:    0.00 PKD
ROOT
HETATM    1  C   UNL     1     -14.090  13.933  72.256  1.00  0.00    -0.632 C  
HETATM    2  C   UNL     1     -13.217  12.715  72.008  1.00  0.00    -0.531 C  
ENDROOT
BRANCH   2   3
HETATM    3  C   UNL     1     -12.646  12.724  70.591  1.00  0.00    -0.248 C  
BRANCH   3   4
HETATM    4  C   UNL     1     -12.270  14.138  70.153  1.00  0.00    -0.415 C  
BRANCH   4   5
HETATM    5  C   UNL     1     -12.034  14.198  68.646  1.00  0.00    -0.373 C  
BRANCH   5   6
HETATM    6  C   UNL     1     -11.967  12.798  68.045  1.00  0.00    -0.315 C  
BRANCH   6   7
HETATM    7  C   UNL     1     -12.005  12.859  66.520  1.00  0.00    -0.447 C  
BRANCH   7   8
HETATM    8  C   UNL     1     -11.125  11.773  65.908  1.00  0.00    -0.355 C  
BRANCH   8   9
HETATM    9  C   UNL     1     -10.058  11.316  66.899  1.00  0.00    -0.246 C  
BRANCH   9  10
HETATM   10  C   UNL     1     -10.137   9.810  67.127  1.00  0.00    -0.267 C  
BRANCH  10  11
HETATM   11  C   UNL     1     -10.880   9.492  68.422  1.00  0.00    -0.183 C  
BRANCH  11  12
HETATM   12  C   UNL     1     -10.179  10.124  69.622  1.00  0.00    -0.272 C  
BRANCH  12  13
HETATM   13  C   UNL     1     -10.844   9.701  70.930  1.00  0.00    -0.409 C  
BRANCH  13  14
HETATM   14  C   UNL     1     -11.391   8.279  70.829  1.00  0.00    -0.285 C  
BRANCH  14  15
HETATM   15  C   UNL     1     -12.248   7.932  72.043  1.00  0.00    -0.357 C  
BRANCH  15  16
HETATM   16  C   UNL     1     -13.003   9.149  72.556  1.00  0.00    -0.346 C  
HETATM   17  O   UNL     1     -14.064   8.734  73.403  1.00  0.00    -1.167 OA 
HETATM   18  H   UNL     1     -14.536   9.494  73.723  1.00  0.00     0.000 HD 
ENDBRANCH  15  16
ENDBRANCH  14  15
ENDBRANCH  13  14
ENDBRANCH  12  13
ENDBRANCH  11  12
ENDBRANCH  10  11
ENDBRANCH   9  10
ENDBRANCH   8   9
ENDBRANCH   7   8
ENDBRANCH   6   7
ENDBRANCH   5   6
ENDBRANCH   4   5
ENDBRANCH   3   4
ENDBRANCH   2   3
TORSDOF 14
ENDMDL
MODEL       69
REMARK 921   NORMALIZED FREE ENERGY PREDICTED BY IDOCK:   -3.78 KCAL/MOL
REMARK 922        TOTAL FREE ENERGY PREDICTED BY IDOCK:   -8.26 KCAL/MOL
REMARK 923 INTER-LIGAND FREE ENERGY PREDICTED BY IDOCK:   -7.02 KCAL/MOL
REMARK 924 INTRA-LIGAND FREE ENERGY PREDICTED BY IDOCK:   -1.24 KCAL/MOL
REMARK 927      BINDING AFFINITY PREDICTED BY RF-SCORE:    0.00 PKD
ROOT
HETATM    1  C   UNL     1     -12.118   8.748  72.256  1.00  0.00    -0.423 C  
HETATM    2  C   UNL     1     -10.983   9.448  71.528  1.00  0.00    -0.429 C  
ENDROOT
BRANCH   2   3
HETATM    3  C   UNL     1     -11.512  10.533  70.592  1.00  0.00    -0.418 C  
BRANCH   3   4
HETATM    4  C   UNL     1     -12.798  11.153  71.134  1.00  0.00    -0.473 C  
BRANCH   4   5
HETATM    5  C   UNL     1     -12.667  12.670  71.248  1.00  0.00    -0.354 C  
BRANCH   5   6
HETATM    6  C   UNL     1     -13.704  13.240  72.210  1.00  0.00    -0.686 C  
BRANCH   6   7
HETATM    7  C   UNL     1     -13.343  14.667  72.616  1.00  0.00    -0.577 C  
BRANCH   7   8
HETATM    8  C   UNL     1     -13.016  15.517  71.392  1.00  0.00    -0.553 C  
BRANCH   8   9
HETATM    9  C   UNL     1     -11.607  16.096  71.494  1.00  0.00    -0.502 C  
BRANCH   9  10
HETATM   10  C   UNL     1     -10.927  16.114  70.128  1.00  0.00    -0.359 C  
BRANCH  10  11
HETATM   11  C   UNL     1     -11.899  15.697  69.028  1.00  0.00    -0.379 C  
BRANCH  11  12
HETATM   12  C   UNL     1     -11.171  14.952  67.912  1.00  0.00    -0.324 C  
BRANCH  12  13
HETATM   13  C   UNL     1     -10.747  15.909  66.801  1.00  0.00    -0.281 C  
BRANCH  13  14
HETATM   14  C   UNL     1      -9.242  16.163  66.843  1.00  0.00    -0.246 C  
BRANCH  14  15
HETATM   15  C   UNL     1      -8.938  17.629  67.132  1.00  0.00    -0.249 C  
BRANCH  15  16
HETATM   16  C   UNL     1     -10.207  18.468  67.143  1.00  0.00    -0.378 C  
HETATM   17  O   UNL     1     -10.349  19.108  68.401  1.00  0.00    -0.390 OA 
HETATM   18  H   UNL     1     -11.142  19.631  68.408  1.00  0.00     0.000 HD 
ENDBRANCH  15  16
ENDBRANCH  14  15
ENDBRANCH  13  14
ENDBRANCH  12  13
ENDBRANCH  11  12
ENDBRANCH  10  11
ENDBRANCH   9  10
ENDBRANCH   8   9
ENDBRANCH   7   8
ENDBRANCH   6   7
ENDBRANCH   5   6
ENDBRANCH   4   5
ENDBRANCH   3   4
ENDBRANCH   2   3
TORSDOF 14
ENDMDL
MODEL       70
REMARK 921   NORMALIZED FREE ENERGY PREDICTED BY IDOCK:   -3.78 KCAL/MOL
REMARK 922        TOTAL FREE ENERGY PREDICTED BY IDOCK:   -8.25 KCAL/MOL
REMARK 923 INTER-LIGAND FREE ENERGY PREDICTED BY IDOCK:   -7.32 KCAL/MOL
REMARK 924 INTRA-LIGAND FREE ENERGY PREDICTED BY IDOCK:   -0.93 KCAL/MOL
REMARK 927      BINDING AFFINITY PREDICTED BY RF-SCORE:    0.00 PKD
ROOT
HETATM    1  C   UNL     1     -10.010  19.950  67.841  1.00  0.00    -0.552 C  
HETATM    2  C   UNL     1     -10.777  18.857  67.117  1.00  0.00    -0.506 C  
ENDROOT
BRANCH   2   3
HETATM    3  C   UNL     1      -9.903  17.625  66.894  1.00  0.00    -0.306 C  
BRANCH   3   4
HETATM    4  C   UNL     1     -10.560  16.368  67.461  1.00  0.00    -0.309 C  
BRANCH   4   5
HETATM    5  C   UNL     1      -9.628  15.659  68.440  1.00  0.00    -0.199 C  
BRANCH   5   6
HETATM    6  C   UNL     1     -10.255  15.569  69.828  1.00  0.00    -0.301 C  
BRANCH   6   7
HETATM    7  C   UNL     1     -11.775  15.684  69.747  1.00  0.00    -0.368 C  
BRANCH   7   8
HETATM    8  C   UNL     1     -12.389  15.790  71.140  1.00  0.00    -0.480 C  
BRANCH   8   9
HETATM    9  C   UNL     1     -13.590  14.858  71.276  1.00  0.00    -0.504 C  
BRANCH   9  10
HETATM   10  C   UNL     1     -13.466  13.992  72.525  1.00  0.00    -0.661 C  
BRANCH  10  11
HETATM   11  C   UNL     1     -13.377  12.513  72.159  1.00  0.00    -0.540 C  
BRANCH  11  12
HETATM   12  C   UNL     1     -12.295  12.275  71.110  1.00  0.00    -0.251 C  
BRANCH  12  13
HETATM   13  C   UNL     1     -12.446  10.898  70.468  1.00  0.00    -0.438 C  
BRANCH  13  14
HETATM   14  C   UNL     1     -12.320   9.792  71.513  1.00  0.00    -0.495 C  
BRANCH  14  15
HETATM   15  C   UNL     1     -10.916   9.194  71.515  1.00  0.00    -0.434 C  
BRANCH  15  16
HETATM   16  C   UNL     1     -10.792   8.073  72.536  1.00  0.00    -0.349 C  
HETATM   17  O   UNL     1     -12.005   7.948  73.262  1.00  0.00    -0.629 OA 
HETATM   18  H   UNL     1     -11.927   7.248  73.900  1.00  0.00     0.000 HD 
ENDBRANCH  15  16
ENDBRANCH  14  15
ENDBRANCH  13  14
ENDBRANCH  12  13
ENDBRANCH  11  12
ENDBRANCH  10  11
ENDBRANCH   9  10
ENDBRANCH   8   9
ENDBRANCH   7   8
ENDBRANCH   6   7
ENDBRANCH   5   6
ENDBRANCH   4   5
ENDBRANCH   3   4
ENDBRANCH   2   3
TORSDOF 14
ENDMDL
MODEL       71
REMARK 921   NORMALIZED FREE ENERGY PREDICTED BY IDOCK:   -3.77 KCAL/MOL
REMARK 922        TOTAL FREE ENERGY PREDICTED BY IDOCK:   -8.24 KCAL/MOL
REMARK 923 INTER-LIGAND FREE ENERGY PREDICTED BY IDOCK:   -6.29 KCAL/MOL
REMARK 924 INTRA-LIGAND FREE ENERGY PREDICTED BY IDOCK:   -1.95 KCAL/MOL
REMARK 927      BINDING AFFINITY PREDICTED BY RF-SCORE:    0.00 PKD
ROOT
HETATM    1  C   UNL     1      -9.237   7.958  72.304  1.00  0.00    -0.223 C  
HETATM    2  C   UNL     1     -10.342   7.231  73.051  1.00  0.00    -0.334 C  
ENDROOT
BRANCH   2   3
HETATM    3  C   UNL     1     -11.022   6.194  72.160  1.00  0.00    -0.307 C  
BRANCH   3   4
HETATM    4  C   UNL     1      -9.996   5.323  71.439  1.00  0.00    -0.245 C  
BRANCH   4   5
HETATM    5  C   UNL     1     -10.366   5.144  69.969  1.00  0.00    -0.347 C  
BRANCH   5   6
HETATM    6  C   UNL     1     -11.272   6.274  69.491  1.00  0.00    -0.500 C  
BRANCH   6   7
HETATM    7  C   UNL     1     -10.786   6.832  68.155  1.00  0.00    -0.295 C  
BRANCH   7   8
HETATM    8  C   UNL     1      -9.322   7.255  68.240  1.00  0.00    -0.135 C  
BRANCH   8   9
HETATM    9  C   UNL     1      -9.163   8.736  67.908  1.00  0.00    -0.149 C  
BRANCH   9  10
HETATM   10  C   UNL     1     -10.399   9.266  67.188  1.00  0.00    -0.330 C  
BRANCH  10  11
HETATM   11  C   UNL     1     -11.023  10.428  67.957  1.00  0.00    -0.347 C  
BRANCH  11  12
HETATM   12  C   UNL     1     -10.524  10.457  69.399  1.00  0.00    -0.261 C  
BRANCH  12  13
HETATM   13  C   UNL     1     -11.584   9.917  70.356  1.00  0.00    -0.356 C  
BRANCH  13  14
HETATM   14  C   UNL     1     -12.178  11.041  71.203  1.00  0.00    -0.415 C  
BRANCH  14  15
HETATM   15  C   UNL     1     -13.501  10.616  71.832  1.00  0.00    -0.341 C  
BRANCH  15  16
HETATM   16  C   UNL     1     -13.532   9.119  72.104  1.00  0.00    -0.469 C  
HETATM   17  O   UNL     1     -14.170   8.869  73.347  1.00  0.00    -1.241 OA 
HETATM   18  H   UNL     1     -14.188   7.935  73.517  1.00  0.00     0.000 HD 
ENDBRANCH  15  16
ENDBRANCH  14  15
ENDBRANCH  13  14
ENDBRANCH  12  13
ENDBRANCH  11  12
ENDBRANCH  10  11
ENDBRANCH   9  10
ENDBRANCH   8   9
ENDBRANCH   7   8
ENDBRANCH   6   7
ENDBRANCH   5   6
ENDBRANCH   4   5
ENDBRANCH   3   4
ENDBRANCH   2   3
TORSDOF 14
ENDMDL
MODEL       72
REMARK 921   NORMALIZED FREE ENERGY PREDICTED BY IDOCK:   -3.77 KCAL/MOL
REMARK 922        TOTAL FREE ENERGY PREDICTED BY IDOCK:   -8.23 KCAL/MOL
REMARK 923 INTER-LIGAND FREE ENERGY PREDICTED BY IDOCK:   -7.41 KCAL/MOL
REMARK 924 INTRA-LIGAND FREE ENERGY PREDICTED BY IDOCK:   -0.82 KCAL/MOL
REMARK 927      BINDING AFFINITY PREDICTED BY RF-SCORE:    0.00 PKD
ROOT
HETATM    1  C   UNL     1     -12.425  12.017  63.522  1.00  0.00    -0.654 C  
HETATM    2  C   UNL     1     -11.063  11.624  64.068  1.00  0.00    -0.458 C  
ENDROOT
BRANCH   2   3
HETATM    3  C   UNL     1     -10.749  12.372  65.362  1.00  0.00    -0.317 C  
BRANCH   3   4
HETATM    4  C   UNL     1     -11.922  13.250  65.793  1.00  0.00    -0.463 C  
BRANCH   4   5
HETATM    5  C   UNL     1     -11.974  13.384  67.313  1.00  0.00    -0.393 C  
BRANCH   5   6
HETATM    6  C   UNL     1     -11.506  12.102  67.993  1.00  0.00    -0.380 C  
BRANCH   6   7
HETATM    7  C   UNL     1     -11.679  12.194  69.507  1.00  0.00    -0.402 C  
BRANCH   7   8
HETATM    8  C   UNL     1     -12.249  10.896  70.072  1.00  0.00    -0.422 C  
BRANCH   8   9
HETATM    9  C   UNL     1     -12.888  11.132  71.437  1.00  0.00    -0.544 C  
BRANCH   9  10
HETATM   10  C   UNL     1     -13.413   9.826  72.024  1.00  0.00    -0.498 C  
BRANCH  10  11
HETATM   11  C   UNL     1     -12.272   8.850  72.296  1.00  0.00    -0.413 C  
BRANCH  11  12
HETATM   12  C   UNL     1     -12.494   7.533  71.558  1.00  0.00    -0.375 C  
BRANCH  12  13
HETATM   13  C   UNL     1     -11.404   6.521  71.903  1.00  0.00    -0.327 C  
BRANCH  13  14
HETATM   14  C   UNL     1     -10.857   5.857  70.641  1.00  0.00    -0.363 C  
BRANCH  14  15
HETATM   15  C   UNL     1     -11.485   6.457  69.387  1.00  0.00    -0.374 C  
BRANCH  15  16
HETATM   16  C   UNL     1     -10.779   5.974  68.128  1.00  0.00    -0.278 C  
HETATM   17  O   UNL     1     -11.412   6.523  66.982  1.00  0.00    -0.752 OA 
HETATM   18  H   UNL     1     -10.972   6.221  66.196  1.00  0.00     0.000 HD 
ENDBRANCH  15  16
ENDBRANCH  14  15
ENDBRANCH  13  14
ENDBRANCH  12  13
ENDBRANCH  11  12
ENDBRANCH  10  11
ENDBRANCH   9  10
ENDBRANCH   8   9
ENDBRANCH   7   8
ENDBRANCH   6   7
ENDBRANCH   5   6
ENDBRANCH   4   5
ENDBRANCH   3   4
ENDBRANCH   2   3
TORSDOF 14
ENDMDL
MODEL       73
REMARK 921   NORMALIZED FREE ENERGY PREDICTED BY IDOCK:   -3.76 KCAL/MOL
REMARK 922        TOTAL FREE ENERGY PREDICTED BY IDOCK:   -8.23 KCAL/MOL
REMARK 923 INTER-LIGAND FREE ENERGY PREDICTED BY IDOCK:   -6.21 KCAL/MOL
REMARK 924 INTRA-LIGAND FREE ENERGY PREDICTED BY IDOCK:   -2.02 KCAL/MOL
REMARK 927      BINDING AFFINITY PREDICTED BY RF-SCORE:    0.00 PKD
ROOT
HETATM    1  C   UNL     1      -9.739   9.149  66.347  1.00  0.00    -0.330 C  
HETATM    2  C   UNL     1     -10.449   8.051  67.121  1.00  0.00    -0.408 C  
ENDROOT
BRANCH   2   3
HETATM    3  C   UNL     1     -10.286   8.244  68.627  1.00  0.00    -0.225 C  
BRANCH   3   4
HETATM    4  C   UNL     1      -9.343   9.403  68.939  1.00  0.00    -0.154 C  
BRANCH   4   5
HETATM    5  C   UNL     1      -9.026   9.462  70.432  1.00  0.00    -0.294 C  
BRANCH   5   6
HETATM    6  C   UNL     1      -9.605   8.256  71.164  1.00  0.00    -0.206 C  
BRANCH   6   7
HETATM    7  C   UNL     1     -10.587   8.698  72.247  1.00  0.00    -0.375 C  
BRANCH   7   8
HETATM    8  C   UNL     1     -11.976   8.118  71.994  1.00  0.00    -0.390 C  
BRANCH   8   9
HETATM    9  C   UNL     1     -12.861   9.125  71.268  1.00  0.00    -0.323 C  
BRANCH   9  10
HETATM   10  C   UNL     1     -12.938  10.438  72.040  1.00  0.00    -0.499 C  
BRANCH  10  11
HETATM   11  C   UNL     1     -12.747  11.632  71.108  1.00  0.00    -0.426 C  
BRANCH  11  12
HETATM   12  C   UNL     1     -12.236  11.182  69.743  1.00  0.00    -0.369 C  
BRANCH  12  13
HETATM   13  C   UNL     1     -11.510  12.319  69.028  1.00  0.00    -0.349 C  
BRANCH  13  14
HETATM   14  C   UNL     1     -11.727  12.241  67.518  1.00  0.00    -0.402 C  
BRANCH  14  15
HETATM   15  C   UNL     1     -11.414  13.575  66.847  1.00  0.00    -0.374 C  
BRANCH  15  16
HETATM   16  C   UNL     1     -11.777  13.553  65.371  1.00  0.00    -0.332 C  
HETATM   17  O   UNL     1     -13.051  12.952  65.198  1.00  0.00    -0.753 OA 
HETATM   18  H   UNL     1     -13.279  12.938  64.276  1.00  0.00     0.000 HD 
ENDBRANCH  15  16
ENDBRANCH  14  15
ENDBRANCH  13  14
ENDBRANCH  12  13
ENDBRANCH  11  12
ENDBRANCH  10  11
ENDBRANCH   9  10
ENDBRANCH   8   9
ENDBRANCH   7   8
ENDBRANCH   6   7
ENDBRANCH   5   6
ENDBRANCH   4   5
ENDBRANCH   3   4
ENDBRANCH   2   3
TORSDOF 14
ENDMDL
MODEL       74
REMARK 921   NORMALIZED FREE ENERGY PREDICTED BY IDOCK:   -3.76 KCAL/MOL
REMARK 922        TOTAL FREE ENERGY PREDICTED BY IDOCK:   -8.22 KCAL/MOL
REMARK 923 INTER-LIGAND FREE ENERGY PREDICTED BY IDOCK:   -6.81 KCAL/MOL
REMARK 924 INTRA-LIGAND FREE ENERGY PREDICTED BY IDOCK:   -1.41 KCAL/MOL
REMARK 927      BINDING AFFINITY PREDICTED BY RF-SCORE:    0.00 PKD
ROOT
HETATM    1  C   UNL     1     -10.200   8.041  66.864  1.00  0.00    -0.385 C  
HETATM    2  C   UNL     1     -10.972   6.761  67.134  1.00  0.00    -0.458 C  
ENDROOT
BRANCH   2   3
HETATM    3  C   UNL     1     -10.514   6.105  68.435  1.00  0.00    -0.280 C  
BRANCH   3   4
HETATM    4  C   UNL     1     -11.503   6.372  69.569  1.00  0.00    -0.412 C  
BRANCH   4   5
HETATM    5  C   UNL     1     -10.869   6.075  70.926  1.00  0.00    -0.349 C  
BRANCH   5   6
HETATM    6  C   UNL     1     -11.738   6.603  72.063  1.00  0.00    -0.354 C  
BRANCH   6   7
HETATM    7  C   UNL     1     -11.477   8.088  72.303  1.00  0.00    -0.419 C  
BRANCH   7   8
HETATM    8  C   UNL     1     -12.765   8.896  72.174  1.00  0.00    -0.470 C  
BRANCH   8   9
HETATM    9  C   UNL     1     -12.532  10.164  71.358  1.00  0.00    -0.524 C  
BRANCH   9  10
HETATM   10  C   UNL     1     -11.297  10.022  70.474  1.00  0.00    -0.409 C  
BRANCH  10  11
HETATM   11  C   UNL     1     -11.545  10.613  69.089  1.00  0.00    -0.342 C  
BRANCH  11  12
HETATM   12  C   UNL     1     -11.695  12.130  69.162  1.00  0.00    -0.384 C  
BRANCH  12  13
HETATM   13  C   UNL     1     -11.765  12.742  67.766  1.00  0.00    -0.412 C  
BRANCH  13  14
HETATM   14  C   UNL     1     -11.282  11.750  66.710  1.00  0.00    -0.388 C  
BRANCH  14  15
HETATM   15  C   UNL     1     -10.176  12.356  65.850  1.00  0.00    -0.273 C  
BRANCH  15  16
HETATM   16  C   UNL     1     -10.669  12.656  64.443  1.00  0.00    -0.359 C  
HETATM   17  O   UNL     1     -10.834  14.057  64.280  1.00  0.00    -0.594 OA 
HETATM   18  H   UNL     1     -11.142  14.244  63.401  1.00  0.00     0.000 HD 
ENDBRANCH  15  16
ENDBRANCH  14  15
ENDBRANCH  13  14
ENDBRANCH  12  13
ENDBRANCH  11  12
ENDBRANCH  10  11
ENDBRANCH   9  10
ENDBRANCH   8   9
ENDBRANCH   7   8
ENDBRANCH   6   7
ENDBRANCH   5   6
ENDBRANCH   4   5
ENDBRANCH   3   4
ENDBRANCH   2   3
TORSDOF 14
ENDMDL
MODEL       75
REMARK 921   NORMALIZED FREE ENERGY PREDICTED BY IDOCK:   -3.76 KCAL/MOL
REMARK 922        TOTAL FREE ENERGY PREDICTED BY IDOCK:   -8.22 KCAL/MOL
REMARK 923 INTER-LIGAND FREE ENERGY PREDICTED BY IDOCK:   -6.82 KCAL/MOL
REMARK 924 INTRA-LIGAND FREE ENERGY PREDICTED BY IDOCK:   -1.39 KCAL/MOL
REMARK 927      BINDING AFFINITY PREDICTED BY RF-SCORE:    0.00 PKD
ROOT
HETATM    1  C   UNL     1     -12.587  15.699  73.777  1.00  0.00    -0.743 C  
HETATM    2  C   UNL     1     -12.152  16.027  72.359  1.00  0.00    -0.629 C  
ENDROOT
BRANCH   2   3
HETATM    3  C   UNL     1     -13.117  15.433  71.335  1.00  0.00    -0.563 C  
BRANCH   3   4
HETATM    4  C   UNL     1     -12.825  13.954  71.089  1.00  0.00    -0.423 C  
BRANCH   4   5
HETATM    5  C   UNL     1     -12.023  13.762  69.805  1.00  0.00    -0.406 C  
BRANCH   5   6
HETATM    6  C   UNL     1     -11.816  12.281  69.504  1.00  0.00    -0.380 C  
BRANCH   6   7
HETATM    7  C   UNL     1     -10.719  12.086  68.460  1.00  0.00    -0.261 C  
BRANCH   7   8
HETATM    8  C   UNL     1     -11.264  11.387  67.218  1.00  0.00    -0.370 C  
BRANCH   8   9
HETATM    9  C   UNL     1     -11.561  12.396  66.113  1.00  0.00    -0.452 C  
BRANCH   9  10
HETATM   10  C   UNL     1     -10.308  13.185  65.746  1.00  0.00    -0.294 C  
BRANCH  10  11
HETATM   11  C   UNL     1     -10.653  14.631  65.403  1.00  0.00    -0.390 C  
BRANCH  11  12
HETATM   12  C   UNL     1     -10.867  15.456  66.669  1.00  0.00    -0.302 C  
BRANCH  12  13
HETATM   13  C   UNL     1      -9.574  15.572  67.472  1.00  0.00    -0.212 C  
BRANCH  13  14
HETATM   14  C   UNL     1      -8.901  16.921  67.232  1.00  0.00    -0.206 C  
BRANCH  14  15
HETATM   15  C   UNL     1      -9.930  17.998  66.897  1.00  0.00    -0.340 C  
BRANCH  15  16
HETATM   16  C   UNL     1      -9.927  19.110  67.934  1.00  0.00    -0.362 C  
HETATM   17  O   UNL     1     -10.346  18.598  69.190  1.00  0.00    -0.491 OA 
HETATM   18  H   UNL     1     -10.345  19.293  69.838  1.00  0.00     0.000 HD 
ENDBRANCH  15  16
ENDBRANCH  14  15
ENDBRANCH  13  14
ENDBRANCH  12  13
ENDBRANCH  11  12
ENDBRANCH  10  11
ENDBRANCH   9  10
ENDBRANCH   8   9
ENDBRANCH   7   8
ENDBRANCH   6   7
ENDBRANCH   5   6
ENDBRANCH   4   5
ENDBRANCH   3   4
ENDBRANCH   2   3
TORSDOF 14
ENDMDL
MODEL       76
REMARK 921   NORMALIZED FREE ENERGY PREDICTED BY IDOCK:   -3.75 KCAL/MOL
REMARK 922        TOTAL FREE ENERGY PREDICTED BY IDOCK:   -8.20 KCAL/MOL
REMARK 923 INTER-LIGAND FREE ENERGY PREDICTED BY IDOCK:   -7.14 KCAL/MOL
REMARK 924 INTRA-LIGAND FREE ENERGY PREDICTED BY IDOCK:   -1.06 KCAL/MOL
REMARK 927      BINDING AFFINITY PREDICTED BY RF-SCORE:    0.00 PKD
ROOT
HETATM    1  C   UNL     1     -12.223  13.771  64.429  1.00  0.00    -0.440 C  
HETATM    2  C   UNL     1     -11.887  12.771  63.335  1.00  0.00    -0.591 C  
ENDROOT
BRANCH   2   3
HETATM    3  C   UNL     1     -10.476  12.214  63.510  1.00  0.00    -0.490 C  
BRANCH   3   4
HETATM    4  C   UNL     1     -10.476  10.970  64.396  1.00  0.00    -0.422 C  
BRANCH   4   5
HETATM    5  C   UNL     1      -9.271  10.968  65.333  1.00  0.00    -0.232 C  
BRANCH   5   6
HETATM    6  C   UNL     1      -9.704  10.790  66.784  1.00  0.00    -0.221 C  
BRANCH   6   7
HETATM    7  C   UNL     1     -11.224  10.851  66.910  1.00  0.00    -0.162 C  
BRANCH   7   8
HETATM    8  C   UNL     1     -11.646  10.982  68.371  1.00  0.00    -0.372 C  
BRANCH   8   9
HETATM    9  C   UNL     1     -10.686  10.224  69.284  1.00  0.00    -0.265 C  
BRANCH   9  10
HETATM   10  C   UNL     1     -11.312   9.988  70.655  1.00  0.00    -0.425 C  
BRANCH  10  11
HETATM   11  C   UNL     1     -12.759  10.470  70.685  1.00  0.00    -0.441 C  
BRANCH  11  12
HETATM   12  C   UNL     1     -12.996  11.409  71.865  1.00  0.00    -0.466 C  
BRANCH  12  13
HETATM   13  C   UNL     1     -13.187  12.847  71.392  1.00  0.00    -0.262 C  
BRANCH  13  14
HETATM   14  C   UNL     1     -13.442  13.782  72.572  1.00  0.00    -0.682 C  
BRANCH  14  15
HETATM   15  C   UNL     1     -13.541  15.234  72.114  1.00  0.00    -0.576 C  
BRANCH  15  16
HETATM   16  C   UNL     1     -12.211  15.956  72.266  1.00  0.00    -0.496 C  
HETATM   17  O   UNL     1     -11.771  16.424  71.001  1.00  0.00    -0.594 OA 
HETATM   18  H   UNL     1     -10.940  16.875  71.095  1.00  0.00     0.000 HD 
ENDBRANCH  15  16
ENDBRANCH  14  15
ENDBRANCH  13  14
ENDBRANCH  12  13
ENDBRANCH  11  12
ENDBRANCH  10  11
ENDBRANCH   9  10
ENDBRANCH   8   9
ENDBRANCH   7   8
ENDBRANCH   6   7
ENDBRANCH   5   6
ENDBRANCH   4   5
ENDBRANCH   3   4
ENDBRANCH   2   3
TORSDOF 14
ENDMDL
MODEL       77
REMARK 921   NORMALIZED FREE ENERGY PREDICTED BY IDOCK:   -3.74 KCAL/MOL
REMARK 922        TOTAL FREE ENERGY PREDICTED BY IDOCK:   -8.19 KCAL/MOL
REMARK 923 INTER-LIGAND FREE ENERGY PREDICTED BY IDOCK:   -6.21 KCAL/MOL
REMARK 924 INTRA-LIGAND FREE ENERGY PREDICTED BY IDOCK:   -1.98 KCAL/MOL
REMARK 927      BINDING AFFINITY PREDICTED BY RF-SCORE:    0.00 PKD
ROOT
HETATM    1  C   UNL     1     -12.219  11.993  63.588  1.00  0.00    -0.642 C  
HETATM    2  C   UNL     1     -10.921  12.657  64.014  1.00  0.00    -0.448 C  
ENDROOT
BRANCH   2   3
HETATM    3  C   UNL     1     -11.177  14.047  64.594  1.00  0.00    -0.377 C  
BRANCH   3   4
HETATM    4  C   UNL     1     -12.458  14.075  65.425  1.00  0.00    -0.520 C  
BRANCH   4   5
HETATM    5  C   UNL     1     -12.143  14.258  66.907  1.00  0.00    -0.440 C  
BRANCH   5   6
HETATM    6  C   UNL     1     -12.129  12.918  67.635  1.00  0.00    -0.239 C  
BRANCH   6   7
HETATM    7  C   UNL     1     -10.842  12.750  68.440  1.00  0.00    -0.272 C  
BRANCH   7   8
HETATM    8  C   UNL     1      -9.793  11.984  67.638  1.00  0.00    -0.191 C  
BRANCH   8   9
HETATM    9  C   UNL     1      -8.661  12.910  67.201  1.00  0.00    -0.205 C  
BRANCH   9  10
HETATM   10  C   UNL     1      -8.804  14.285  67.846  1.00  0.00    -0.179 C  
BRANCH  10  11
HETATM   11  C   UNL     1      -8.387  15.389  66.877  1.00  0.00    -0.290 C  
BRANCH  11  12
HETATM   12  C   UNL     1      -9.082  16.704  67.218  1.00  0.00    -0.225 C  
BRANCH  12  13
HETATM   13  C   UNL     1     -10.096  17.083  66.142  1.00  0.00    -0.332 C  
BRANCH  13  14
HETATM   14  C   UNL     1     -10.430  18.571  66.206  1.00  0.00    -0.441 C  
BRANCH  14  15
HETATM   15  C   UNL     1     -10.481  19.063  67.650  1.00  0.00    -0.523 C  
BRANCH  15  16
HETATM   16  C   UNL     1     -10.029  20.511  67.759  1.00  0.00    -0.269 C  
HETATM   17  O   UNL     1      -9.332  20.888  66.581  1.00  0.00    -0.615 OA 
HETATM   18  H   UNL     1      -9.050  21.792  66.650  1.00  0.00     0.000 HD 
ENDBRANCH  15  16
ENDBRANCH  14  15
ENDBRANCH  13  14
ENDBRANCH  12  13
ENDBRANCH  11  12
ENDBRANCH  10  11
ENDBRANCH   9  10
ENDBRANCH   8   9
ENDBRANCH   7   8
ENDBRANCH   6   7
ENDBRANCH   5   6
ENDBRANCH   4   5
ENDBRANCH   3   4
ENDBRANCH   2   3
TORSDOF 14
ENDMDL
MODEL       78
REMARK 921   NORMALIZED FREE ENERGY PREDICTED BY IDOCK:   -3.74 KCAL/MOL
REMARK 922        TOTAL FREE ENERGY PREDICTED BY IDOCK:   -8.18 KCAL/MOL
REMARK 923 INTER-LIGAND FREE ENERGY PREDICTED BY IDOCK:   -6.18 KCAL/MOL
REMARK 924 INTRA-LIGAND FREE ENERGY PREDICTED BY IDOCK:   -2.00 KCAL/MOL
REMARK 927      BINDING AFFINITY PREDICTED BY RF-SCORE:    0.00 PKD
ROOT
HETATM    1  C   UNL     1     -12.151  13.320  63.580  1.00  0.00    -0.550 C  
HETATM    2  C   UNL     1     -11.674  11.880  63.655  1.00  0.00    -0.572 C  
ENDROOT
BRANCH   2   3
HETATM    3  C   UNL     1     -10.158  11.791  63.495  1.00  0.00    -0.463 C  
BRANCH   3   4
HETATM    4  C   UNL     1      -9.669  10.351  63.636  1.00  0.00    -0.338 C  
BRANCH   4   5
HETATM    5  C   UNL     1      -8.521  10.260  64.639  1.00  0.00    -0.179 C  
BRANCH   5   6
HETATM    6  C   UNL     1      -8.752   9.129  65.635  1.00  0.00    -0.203 C  
BRANCH   6   7
HETATM    7  C   UNL     1     -10.153   9.210  66.236  1.00  0.00    -0.319 C  
BRANCH   7   8
HETATM    8  C   UNL     1     -10.093   9.244  67.761  1.00  0.00    -0.253 C  
BRANCH   8   9
HETATM    9  C   UNL     1     -10.837  10.458  68.308  1.00  0.00    -0.299 C  
BRANCH   9  10
HETATM   10  C   UNL     1     -11.049  11.502  67.217  1.00  0.00    -0.351 C  
BRANCH  10  11
HETATM   11  C   UNL     1      -9.914  12.522  67.208  1.00  0.00    -0.211 C  
BRANCH  11  12
HETATM   12  C   UNL     1     -10.419  13.896  66.774  1.00  0.00    -0.270 C  
BRANCH  12  13
HETATM   13  C   UNL     1     -11.845  14.135  67.263  1.00  0.00    -0.452 C  
BRANCH  13  14
HETATM   14  C   UNL     1     -11.857  15.043  68.491  1.00  0.00    -0.319 C  
BRANCH  14  15
HETATM   15  C   UNL     1     -12.336  14.291  69.728  1.00  0.00    -0.342 C  
BRANCH  15  16
HETATM   16  C   UNL     1     -12.964  15.234  70.743  1.00  0.00    -0.436 C  
HETATM   17  O   UNL     1     -14.365  15.019  70.797  1.00  0.00    -0.624 OA 
HETATM   18  H   UNL     1     -14.758  15.608  71.431  1.00  0.00     0.000 HD 
ENDBRANCH  15  16
ENDBRANCH  14  15
ENDBRANCH  13  14
ENDBRANCH  12  13
ENDBRANCH  11  12
ENDBRANCH  10  11
ENDBRANCH   9  10
ENDBRANCH   8   9
ENDBRANCH   7   8
ENDBRANCH   6   7
ENDBRANCH   5   6
ENDBRANCH   4   5
ENDBRANCH   3   4
ENDBRANCH   2   3
TORSDOF 14
ENDMDL
MODEL       79
REMARK 921   NORMALIZED FREE ENERGY PREDICTED BY IDOCK:   -3.74 KCAL/MOL
REMARK 922        TOTAL FREE ENERGY PREDICTED BY IDOCK:   -8.17 KCAL/MOL
REMARK 923 INTER-LIGAND FREE ENERGY PREDICTED BY IDOCK:   -6.82 KCAL/MOL
REMARK 924 INTRA-LIGAND FREE ENERGY PREDICTED BY IDOCK:   -1.35 KCAL/MOL
REMARK 927      BINDING AFFINITY PREDICTED BY RF-SCORE:    0.00 PKD
ROOT
HETATM    1  C   UNL     1     -11.726   6.523  71.049  1.00  0.00    -0.402 C  
HETATM    2  C   UNL     1     -10.613   7.446  71.514  1.00  0.00    -0.226 C  
ENDROOT
BRANCH   2   3
HETATM    3  C   UNL     1     -11.136   8.859  71.765  1.00  0.00    -0.433 C  
BRANCH   3   4
HETATM    4  C   UNL     1     -12.624   8.847  72.109  1.00  0.00    -0.467 C  
BRANCH   4   5
HETATM    5  C   UNL     1     -13.261  10.205  71.827  1.00  0.00    -0.542 C  
BRANCH   5   6
HETATM    6  C   UNL     1     -12.453  10.986  70.796  1.00  0.00    -0.491 C  
BRANCH   6   7
HETATM    7  C   UNL     1     -12.589  12.490  71.023  1.00  0.00    -0.350 C  
BRANCH   7   8
HETATM    8  C   UNL     1     -13.530  12.783  72.188  1.00  0.00    -0.591 C  
BRANCH   8   9
HETATM    9  C   UNL     1     -13.331  14.206  72.703  1.00  0.00    -0.638 C  
BRANCH   9  10
HETATM   10  C   UNL     1     -13.139  15.181  71.547  1.00  0.00    -0.483 C  
BRANCH  10  11
HETATM   11  C   UNL     1     -11.843  15.971  71.706  1.00  0.00    -0.599 C  
BRANCH  11  12
HETATM   12  C   UNL     1     -11.206  16.254  70.349  1.00  0.00    -0.336 C  
BRANCH  12  13
HETATM   13  C   UNL     1     -11.973  15.557  69.228  1.00  0.00    -0.338 C  
BRANCH  13  14
HETATM   14  C   UNL     1     -11.044  15.200  68.070  1.00  0.00    -0.310 C  
BRANCH  14  15
HETATM   15  C   UNL     1     -10.848  13.690  67.966  1.00  0.00    -0.261 C  
BRANCH  15  16
HETATM   16  C   UNL     1      -9.378  13.331  67.808  1.00  0.00    -0.209 C  
HETATM   17  O   UNL     1      -8.574  14.469  68.076  1.00  0.00    -0.149 OA 
HETATM   18  H   UNL     1      -7.656  14.244  67.977  1.00  0.00     0.000 HD 
ENDBRANCH  15  16
ENDBRANCH  14  15
ENDBRANCH  13  14
ENDBRANCH  12  13
ENDBRANCH  11  12
ENDBRANCH  10  11
ENDBRANCH   9  10
ENDBRANCH   8   9
ENDBRANCH   7   8
ENDBRANCH   6   7
ENDBRANCH   5   6
ENDBRANCH   4   5
ENDBRANCH   3   4
ENDBRANCH   2   3
TORSDOF 14
ENDMDL
MODEL       80
REMARK 921   NORMALIZED FREE ENERGY PREDICTED BY IDOCK:   -3.74 KCAL/MOL
REMARK 922        TOTAL FREE ENERGY PREDICTED BY IDOCK:   -8.17 KCAL/MOL
REMARK 923 INTER-LIGAND FREE ENERGY PREDICTED BY IDOCK:   -7.32 KCAL/MOL
REMARK 924 INTRA-LIGAND FREE ENERGY PREDICTED BY IDOCK:   -0.85 KCAL/MOL
REMARK 927      BINDING AFFINITY PREDICTED BY RF-SCORE:    0.00 PKD
ROOT
HETATM    1  C   UNL     1     -12.619  11.830  63.468  1.00  0.00    -0.485 C  
HETATM    2  C   UNL     1     -12.005  13.194  63.733  1.00  0.00    -0.572 C  
ENDROOT
BRANCH   2   3
HETATM    3  C   UNL     1     -10.590  13.063  64.292  1.00  0.00    -0.434 C  
BRANCH   3   4
HETATM    4  C   UNL     1     -10.196  14.299  65.098  1.00  0.00    -0.414 C  
BRANCH   4   5
HETATM    5  C   UNL     1     -10.255  14.016  66.597  1.00  0.00    -0.275 C  
BRANCH   5   6
HETATM    6  C   UNL     1     -11.438  14.729  67.243  1.00  0.00    -0.378 C  
BRANCH   6   7
HETATM    7  C   UNL     1     -11.829  14.055  68.556  1.00  0.00    -0.399 C  
BRANCH   7   8
HETATM    8  C   UNL     1     -12.039  15.089  69.659  1.00  0.00    -0.337 C  
BRANCH   8   9
HETATM    9  C   UNL     1     -12.328  14.407  70.994  1.00  0.00    -0.427 C  
BRANCH   9  10
HETATM   10  C   UNL     1     -12.530  12.907  70.806  1.00  0.00    -0.370 C  
BRANCH  10  11
HETATM   11  C   UNL     1     -13.083  12.267  72.076  1.00  0.00    -0.461 C  
BRANCH  11  12
HETATM   12  C   UNL     1     -13.122  10.747  71.948  1.00  0.00    -0.557 C  
BRANCH  12  13
HETATM   13  C   UNL     1     -12.323  10.279  70.734  1.00  0.00    -0.445 C  
BRANCH  13  14
HETATM   14  C   UNL     1     -11.379   9.138  71.108  1.00  0.00    -0.392 C  
BRANCH  14  15
HETATM   15  C   UNL     1     -12.049   8.163  72.072  1.00  0.00    -0.388 C  
BRANCH  15  16
HETATM   16  C   UNL     1     -12.745   7.035  71.326  1.00  0.00    -0.351 C  
HETATM   17  O   UNL     1     -12.183   6.896  70.031  1.00  0.00    -0.640 OA 
HETATM   18  H   UNL     1     -12.618   6.192  69.565  1.00  0.00     0.000 HD 
ENDBRANCH  15  16
ENDBRANCH  14  15
ENDBRANCH  13  14
ENDBRANCH  12  13
ENDBRANCH  11  12
ENDBRANCH  10  11
ENDBRANCH   9  10
ENDBRANCH   8   9
ENDBRANCH   7   8
ENDBRANCH   6   7
ENDBRANCH   5   6
ENDBRANCH   4   5
ENDBRANCH   3   4
ENDBRANCH   2   3
TORSDOF 14
ENDMDL
MODEL       81
REMARK 921   NORMALIZED FREE ENERGY PREDICTED BY IDOCK:   -3.74 KCAL/MOL
REMARK 922        TOTAL FREE ENERGY PREDICTED BY IDOCK:   -8.17 KCAL/MOL
REMARK 923 INTER-LIGAND FREE ENERGY PREDICTED BY IDOCK:   -6.72 KCAL/MOL
REMARK 924 INTRA-LIGAND FREE ENERGY PREDICTED BY IDOCK:   -1.45 KCAL/MOL
REMARK 927      BINDING AFFINITY PREDICTED BY RF-SCORE:    0.00 PKD
ROOT
HETATM    1  C   UNL     1     -11.692  14.443  66.561  1.00  0.00    -0.404 C  
HETATM    2  C   UNL     1     -12.648  13.963  65.483  1.00  0.00    -0.560 C  
ENDROOT
BRANCH   2   3
HETATM    3  C   UNL     1     -11.906  13.659  64.183  1.00  0.00    -0.463 C  
BRANCH   3   4
HETATM    4  C   UNL     1     -12.115  12.209  63.752  1.00  0.00    -0.620 C  
BRANCH   4   5
HETATM    5  C   UNL     1     -10.782  11.471  63.652  1.00  0.00    -0.491 C  
BRANCH   5   6
HETATM    6  C   UNL     1     -10.059  11.460  64.995  1.00  0.00    -0.323 C  
BRANCH   6   7
HETATM    7  C   UNL     1      -9.846  10.030  65.486  1.00  0.00    -0.373 C  
BRANCH   7   8
HETATM    8  C   UNL     1     -10.215   9.898  66.961  1.00  0.00    -0.294 C  
BRANCH   8   9
HETATM    9  C   UNL     1     -11.244  10.952  67.359  1.00  0.00    -0.345 C  
BRANCH   9  10
HETATM   10  C   UNL     1     -10.916  11.543  68.727  1.00  0.00    -0.271 C  
BRANCH  10  11
HETATM   11  C   UNL     1     -12.189  11.834  69.516  1.00  0.00    -0.232 C  
BRANCH  11  12
HETATM   12  C   UNL     1     -12.174  11.111  70.860  1.00  0.00    -0.468 C  
BRANCH  12  13
HETATM   13  C   UNL     1     -13.386  10.194  71.002  1.00  0.00    -0.333 C  
BRANCH  13  14
HETATM   14  C   UNL     1     -13.030   8.937  71.794  1.00  0.00    -0.418 C  
BRANCH  14  15
HETATM   15  C   UNL     1     -11.518   8.769  71.910  1.00  0.00    -0.428 C  
BRANCH  15  16
HETATM   16  C   UNL     1     -11.077   7.386  71.455  1.00  0.00    -0.239 C  
HETATM   17  O   UNL     1     -11.615   7.107  70.172  1.00  0.00    -0.457 OA 
HETATM   18  H   UNL     1     -11.340   6.244  69.888  1.00  0.00     0.000 HD 
ENDBRANCH  15  16
ENDBRANCH  14  15
ENDBRANCH  13  14
ENDBRANCH  12  13
ENDBRANCH  11  12
ENDBRANCH  10  11
ENDBRANCH   9  10
ENDBRANCH   8   9
ENDBRANCH   7   8
ENDBRANCH   6   7
ENDBRANCH   5   6
ENDBRANCH   4   5
ENDBRANCH   3   4
ENDBRANCH   2   3
TORSDOF 14
ENDMDL
MODEL       82
REMARK 921   NORMALIZED FREE ENERGY PREDICTED BY IDOCK:   -3.73 KCAL/MOL
REMARK 922        TOTAL FREE ENERGY PREDICTED BY IDOCK:   -8.17 KCAL/MOL
REMARK 923 INTER-LIGAND FREE ENERGY PREDICTED BY IDOCK:   -7.30 KCAL/MOL
REMARK 924 INTRA-LIGAND FREE ENERGY PREDICTED BY IDOCK:   -0.86 KCAL/MOL
REMARK 927      BINDING AFFINITY PREDICTED BY RF-SCORE:    0.00 PKD
ROOT
HETATM    1  C   UNL     1      -8.334   8.027  74.161  1.00  0.00    -0.311 C  
HETATM    2  C   UNL     1      -9.028   7.716  72.846  1.00  0.00    -0.221 C  
ENDROOT
BRANCH   2   3
HETATM    3  C   UNL     1     -10.547   7.733  73.006  1.00  0.00    -0.441 C  
BRANCH   3   4
HETATM    4  C   UNL     1     -11.204   8.636  71.964  1.00  0.00    -0.434 C  
BRANCH   4   5
HETATM    5  C   UNL     1     -12.723   8.628  72.116  1.00  0.00    -0.447 C  
BRANCH   5   6
HETATM    6  C   UNL     1     -13.310  10.007  71.831  1.00  0.00    -0.516 C  
BRANCH   6   7
HETATM    7  C   UNL     1     -12.255  10.934  71.231  1.00  0.00    -0.395 C  
BRANCH   7   8
HETATM    8  C   UNL     1     -12.819  12.336  71.016  1.00  0.00    -0.251 C  
BRANCH   8   9
HETATM    9  C   UNL     1     -13.462  12.864  72.295  1.00  0.00    -0.631 C  
BRANCH   9  10
HETATM   10  C   UNL     1     -13.955  14.295  72.104  1.00  0.00    -0.618 C  
BRANCH  10  11
HETATM   11  C   UNL     1     -13.191  15.261  73.005  1.00  0.00    -0.617 C  
BRANCH  11  12
HETATM   12  C   UNL     1     -11.971  15.829  72.286  1.00  0.00    -0.592 C  
BRANCH  12  13
HETATM   13  C   UNL     1     -12.202  15.887  70.778  1.00  0.00    -0.373 C  
BRANCH  13  14
HETATM   14  C   UNL     1     -10.885  15.751  70.018  1.00  0.00    -0.348 C  
BRANCH  14  15
HETATM   15  C   UNL     1     -11.011  16.291  68.596  1.00  0.00    -0.340 C  
BRANCH  15  16
HETATM   16  C   UNL     1     -10.266  17.607  68.434  1.00  0.00    -0.381 C  
HETATM   17  O   UNL     1     -10.817  18.340  67.351  1.00  0.00    -0.389 OA 
HETATM   18  H   UNL     1     -10.352  19.163  67.249  1.00  0.00     0.000 HD 
ENDBRANCH  15  16
ENDBRANCH  14  15
ENDBRANCH  13  14
ENDBRANCH  12  13
ENDBRANCH  11  12
ENDBRANCH  10  11
ENDBRANCH   9  10
ENDBRANCH   8   9
ENDBRANCH   7   8
ENDBRANCH   6   7
ENDBRANCH   5   6
ENDBRANCH   4   5
ENDBRANCH   3   4
ENDBRANCH   2   3
TORSDOF 14
ENDMDL
MODEL       83
REMARK 921   NORMALIZED FREE ENERGY PREDICTED BY IDOCK:   -3.73 KCAL/MOL
REMARK 922        TOTAL FREE ENERGY PREDICTED BY IDOCK:   -8.17 KCAL/MOL
REMARK 923 INTER-LIGAND FREE ENERGY PREDICTED BY IDOCK:   -6.31 KCAL/MOL
REMARK 924 INTRA-LIGAND FREE ENERGY PREDICTED BY IDOCK:   -1.85 KCAL/MOL
REMARK 927      BINDING AFFINITY PREDICTED BY RF-SCORE:    0.00 PKD
ROOT
HETATM    1  C   UNL     1     -10.212   7.897  67.111  1.00  0.00    -0.360 C  
HETATM    2  C   UNL     1     -10.328   9.294  66.525  1.00  0.00    -0.270 C  
ENDROOT
BRANCH   2   3
HETATM    3  C   UNL     1      -9.335   9.498  65.383  1.00  0.00    -0.324 C  
BRANCH   3   4
HETATM    4  C   UNL     1      -9.448  10.902  64.793  1.00  0.00    -0.279 C  
BRANCH   4   5
HETATM    5  C   UNL     1     -10.821  11.119  64.161  1.00  0.00    -0.355 C  
BRANCH   5   6
HETATM    6  C   UNL     1     -10.951  12.533  63.603  1.00  0.00    -0.507 C  
BRANCH   6   7
HETATM    7  C   UNL     1     -11.088  13.552  64.732  1.00  0.00    -0.368 C  
BRANCH   7   8
HETATM    8  C   UNL     1     -12.342  13.286  65.559  1.00  0.00    -0.533 C  
BRANCH   8   9
HETATM    9  C   UNL     1     -12.109  13.631  67.027  1.00  0.00    -0.423 C  
BRANCH   9  10
HETATM   10  C   UNL     1     -10.649  13.411  67.411  1.00  0.00    -0.254 C  
BRANCH  10  11
HETATM   11  C   UNL     1     -10.523  12.338  68.489  1.00  0.00    -0.248 C  
BRANCH  11  12
HETATM   12  C   UNL     1     -11.893  11.784  68.869  1.00  0.00    -0.381 C  
BRANCH  12  13
HETATM   13  C   UNL     1     -11.846  11.088  70.228  1.00  0.00    -0.456 C  
BRANCH  13  14
HETATM   14  C   UNL     1     -10.861   9.921  70.209  1.00  0.00    -0.367 C  
BRANCH  14  15
HETATM   15  C   UNL     1     -10.803   9.228  71.567  1.00  0.00    -0.442 C  
BRANCH  15  16
HETATM   16  C   UNL     1     -11.066   7.735  71.440  1.00  0.00    -0.238 C  
HETATM   17  O   UNL     1     -12.053   7.504  70.446  1.00  0.00    -0.507 OA 
HETATM   18  H   UNL     1     -12.218   6.572  70.367  1.00  0.00     0.000 HD 
ENDBRANCH  15  16
ENDBRANCH  14  15
ENDBRANCH  13  14
ENDBRANCH  12  13
ENDBRANCH  11  12
ENDBRANCH  10  11
ENDBRANCH   9  10
ENDBRANCH   8   9
ENDBRANCH   7   8
ENDBRANCH   6   7
ENDBRANCH   5   6
ENDBRANCH   4   5
ENDBRANCH   3   4
ENDBRANCH   2   3
TORSDOF 14
ENDMDL
MODEL       84
REMARK 921   NORMALIZED FREE ENERGY PREDICTED BY IDOCK:   -3.73 KCAL/MOL
REMARK 922        TOTAL FREE ENERGY PREDICTED BY IDOCK:   -8.17 KCAL/MOL
REMARK 923 INTER-LIGAND FREE ENERGY PREDICTED BY IDOCK:   -7.11 KCAL/MOL
REMARK 924 INTRA-LIGAND FREE ENERGY PREDICTED BY IDOCK:   -1.06 KCAL/MOL
REMARK 927      BINDING AFFINITY PREDICTED BY RF-SCORE:    0.00 PKD
ROOT
HETATM    1  C   UNL     1      -8.679   7.482  67.838  1.00  0.00    -0.124 C  
HETATM    2  C   UNL     1     -10.090   7.495  68.402  1.00  0.00    -0.200 C  
ENDROOT
BRANCH   2   3
HETATM    3  C   UNL     1     -10.122   6.931  69.821  1.00  0.00    -0.196 C  
BRANCH   3   4
HETATM    4  C   UNL     1     -11.523   6.451  70.195  1.00  0.00    -0.484 C  
BRANCH   4   5
HETATM    5  C   UNL     1     -11.691   6.386  71.711  1.00  0.00    -0.376 C  
BRANCH   5   6
HETATM    6  C   UNL     1     -11.971   7.769  72.291  1.00  0.00    -0.356 C  
BRANCH   6   7
HETATM    7  C   UNL     1     -13.168   8.417  71.600  1.00  0.00    -0.360 C  
BRANCH   7   8
HETATM    8  C   UNL     1     -13.234   9.910  71.908  1.00  0.00    -0.558 C  
BRANCH   8   9
HETATM    9  C   UNL     1     -12.370  10.705  70.933  1.00  0.00    -0.502 C  
BRANCH   9  10
HETATM   10  C   UNL     1     -12.652  12.199  71.049  1.00  0.00    -0.359 C  
BRANCH  10  11
HETATM   11  C   UNL     1     -13.603  12.487  72.208  1.00  0.00    -0.443 C  
BRANCH  11  12
HETATM   12  C   UNL     1     -14.030  13.952  72.210  1.00  0.00    -0.663 C  
BRANCH  12  13
HETATM   13  C   UNL     1     -13.050  14.807  73.010  1.00  0.00    -0.614 C  
BRANCH  13  14
HETATM   14  C   UNL     1     -12.514  15.960  72.164  1.00  0.00    -0.540 C  
BRANCH  14  15
HETATM   15  C   UNL     1     -11.264  15.545  71.395  1.00  0.00    -0.410 C  
BRANCH  15  16
HETATM   16  C   UNL     1     -11.354  15.946  69.930  1.00  0.00    -0.348 C  
HETATM   17  O   UNL     1     -12.656  15.673  69.436  1.00  0.00    -0.572 OA 
HETATM   18  H   UNL     1     -12.712  15.923  68.521  1.00  0.00     0.000 HD 
ENDBRANCH  15  16
ENDBRANCH  14  15
ENDBRANCH  13  14
ENDBRANCH  12  13
ENDBRANCH  11  12
ENDBRANCH  10  11
ENDBRANCH   9  10
ENDBRANCH   8   9
ENDBRANCH   7   8
ENDBRANCH   6   7
ENDBRANCH   5   6
ENDBRANCH   4   5
ENDBRANCH   3   4
ENDBRANCH   2   3
TORSDOF 14
ENDMDL
MODEL       85
REMARK 921   NORMALIZED FREE ENERGY PREDICTED BY IDOCK:   -3.73 KCAL/MOL
REMARK 922        TOTAL FREE ENERGY PREDICTED BY IDOCK:   -8.17 KCAL/MOL
REMARK 923 INTER-LIGAND FREE ENERGY PREDICTED BY IDOCK:   -6.50 KCAL/MOL
REMARK 924 INTRA-LIGAND FREE ENERGY PREDICTED BY IDOCK:   -1.66 KCAL/MOL
REMARK 927      BINDING AFFINITY PREDICTED BY RF-SCORE:    0.00 PKD
ROOT
HETATM    1  C   UNL     1     -12.214  13.591  63.953  1.00  0.00    -0.458 C  
HETATM    2  C   UNL     1     -12.164  12.145  63.490  1.00  0.00    -0.670 C  
ENDROOT
BRANCH   2   3
HETATM    3  C   UNL     1     -10.950  11.422  64.068  1.00  0.00    -0.428 C  
BRANCH   3   4
HETATM    4  C   UNL     1     -10.843  11.635  65.577  1.00  0.00    -0.334 C  
BRANCH   4   5
HETATM    5  C   UNL     1      -9.389  11.830  65.999  1.00  0.00    -0.231 C  
BRANCH   5   6
HETATM    6  C   UNL     1      -9.274  12.867  67.111  1.00  0.00    -0.225 C  
BRANCH   6   7
HETATM    7  C   UNL     1      -9.966  14.169  66.715  1.00  0.00    -0.267 C  
BRANCH   7   8
HETATM    8  C   UNL     1     -10.760  14.744  67.885  1.00  0.00    -0.259 C  
BRANCH   8   9
HETATM    9  C   UNL     1     -11.876  13.791  68.304  1.00  0.00    -0.413 C  
BRANCH   9  10
HETATM   10  C   UNL     1     -12.041  13.781  69.820  1.00  0.00    -0.400 C  
BRANCH  10  11
HETATM   11  C   UNL     1     -12.232  12.358  70.340  1.00  0.00    -0.370 C  
BRANCH  11  12
HETATM   12  C   UNL     1     -11.921  11.334  69.251  1.00  0.00    -0.411 C  
BRANCH  12  13
HETATM   13  C   UNL     1     -10.823  10.373  69.701  1.00  0.00    -0.320 C  
BRANCH  13  14
HETATM   14  C   UNL     1     -11.168   9.741  71.047  1.00  0.00    -0.451 C  
BRANCH  14  15
HETATM   15  C   UNL     1     -11.600   8.288  70.879  1.00  0.00    -0.282 C  
BRANCH  15  16
HETATM   16  C   UNL     1     -11.823   7.616  72.225  1.00  0.00    -0.308 C  
HETATM   17  O   UNL     1     -12.635   8.441  73.046  1.00  0.00    -0.676 OA 
HETATM   18  H   UNL     1     -12.774   8.022  73.887  1.00  0.00     0.000 HD 
ENDBRANCH  15  16
ENDBRANCH  14  15
ENDBRANCH  13  14
ENDBRANCH  12  13
ENDBRANCH  11  12
ENDBRANCH  10  11
ENDBRANCH   9  10
ENDBRANCH   8   9
ENDBRANCH   7   8
ENDBRANCH   6   7
ENDBRANCH   5   6
ENDBRANCH   4   5
ENDBRANCH   3   4
ENDBRANCH   2   3
TORSDOF 14
ENDMDL
MODEL       86
REMARK 921   NORMALIZED FREE ENERGY PREDICTED BY IDOCK:   -3.71 KCAL/MOL
REMARK 922        TOTAL FREE ENERGY PREDICTED BY IDOCK:   -8.13 KCAL/MOL
REMARK 923 INTER-LIGAND FREE ENERGY PREDICTED BY IDOCK:   -7.01 KCAL/MOL
REMARK 924 INTRA-LIGAND FREE ENERGY PREDICTED BY IDOCK:   -1.12 KCAL/MOL
REMARK 927      BINDING AFFINITY PREDICTED BY RF-SCORE:    0.00 PKD
ROOT
HETATM    1  C   UNL     1      -7.266  19.803  68.064  1.00  0.00    -0.321 C  
HETATM    2  C   UNL     1      -8.173  19.821  66.845  1.00  0.00    -0.342 C  
ENDROOT
BRANCH   2   3
HETATM    3  C   UNL     1      -9.539  20.415  67.183  1.00  0.00    -0.587 C  
BRANCH   3   4
HETATM    4  C   UNL     1     -10.355  19.467  68.059  1.00  0.00    -0.564 C  
BRANCH   4   5
HETATM    5  C   UNL     1     -10.455  18.084  67.421  1.00  0.00    -0.399 C  
BRANCH   5   6
HETATM    6  C   UNL     1     -10.289  16.985  68.465  1.00  0.00    -0.359 C  
BRANCH   6   7
HETATM    7  C   UNL     1     -11.496  16.050  68.467  1.00  0.00    -0.357 C  
BRANCH   7   8
HETATM    8  C   UNL     1     -11.995  15.804  69.889  1.00  0.00    -0.346 C  
BRANCH   8   9
HETATM    9  C   UNL     1     -12.142  14.310  70.162  1.00  0.00    -0.403 C  
BRANCH   9  10
HETATM   10  C   UNL     1     -11.175  13.502  69.304  1.00  0.00    -0.285 C  
BRANCH  10  11
HETATM   11  C   UNL     1     -11.828  12.216  68.806  1.00  0.00    -0.356 C  
BRANCH  11  12
HETATM   12  C   UNL     1     -11.570  12.015  67.315  1.00  0.00    -0.383 C  
BRANCH  12  13
HETATM   13  C   UNL     1     -11.971  13.254  66.518  1.00  0.00    -0.448 C  
BRANCH  13  14
HETATM   14  C   UNL     1     -11.100  13.407  65.272  1.00  0.00    -0.305 C  
BRANCH  14  15
HETATM   15  C   UNL     1     -10.308  12.133  64.994  1.00  0.00    -0.320 C  
BRANCH  15  16
HETATM   16  C   UNL     1     -10.397  11.732  63.529  1.00  0.00    -0.448 C  
HETATM   17  O   UNL     1     -11.713  11.295  63.230  1.00  0.00    -0.789 OA 
HETATM   18  H   UNL     1     -11.769  11.044  62.315  1.00  0.00     0.000 HD 
ENDBRANCH  15  16
ENDBRANCH  14  15
ENDBRANCH  13  14
ENDBRANCH  12  13
ENDBRANCH  11  12
ENDBRANCH  10  11
ENDBRANCH   9  10
ENDBRANCH   8   9
ENDBRANCH   7   8
ENDBRANCH   6   7
ENDBRANCH   5   6
ENDBRANCH   4   5
ENDBRANCH   3   4
ENDBRANCH   2   3
TORSDOF 14
ENDMDL
MODEL       87
REMARK 921   NORMALIZED FREE ENERGY PREDICTED BY IDOCK:   -3.71 KCAL/MOL
REMARK 922        TOTAL FREE ENERGY PREDICTED BY IDOCK:   -8.13 KCAL/MOL
REMARK 923 INTER-LIGAND FREE ENERGY PREDICTED BY IDOCK:   -6.28 KCAL/MOL
REMARK 924 INTRA-LIGAND FREE ENERGY PREDICTED BY IDOCK:   -1.84 KCAL/MOL
REMARK 927      BINDING AFFINITY PREDICTED BY RF-SCORE:    0.00 PKD
ROOT
HETATM    1  C   UNL     1     -13.228  13.105  72.018  1.00  0.00    -0.543 C  
HETATM    2  C   UNL     1     -13.992  14.417  72.005  1.00  0.00    -0.592 C  
ENDROOT
BRANCH   2   3
HETATM    3  C   UNL     1     -13.301  15.450  71.118  1.00  0.00    -0.580 C  
BRANCH   3   4
HETATM    4  C   UNL     1     -12.223  14.804  70.251  1.00  0.00    -0.394 C  
BRANCH   4   5
HETATM    5  C   UNL     1     -11.775  15.752  69.140  1.00  0.00    -0.398 C  
BRANCH   5   6
HETATM    6  C   UNL     1     -11.865  15.078  67.775  1.00  0.00    -0.228 C  
BRANCH   6   7
HETATM    7  C   UNL     1     -11.818  13.558  67.914  1.00  0.00    -0.397 C  
BRANCH   7   8
HETATM    8  C   UNL     1     -10.615  12.980  67.174  1.00  0.00    -0.251 C  
BRANCH   8   9
HETATM    9  C   UNL     1      -9.764  14.092  66.568  1.00  0.00    -0.307 C  
BRANCH   9  10
HETATM   10  C   UNL     1      -8.344  14.054  67.123  1.00  0.00    -0.174 C  
BRANCH  10  11
HETATM   11  C   UNL     1      -8.142  15.131  68.185  1.00  0.00    -0.137 C  
BRANCH  11  12
HETATM   12  C   UNL     1      -8.293  16.525  67.583  1.00  0.00    -0.175 C  
BRANCH  12  13
HETATM   13  C   UNL     1      -8.684  17.544  68.651  1.00  0.00    -0.258 C  
BRANCH  13  14
HETATM   14  C   UNL     1      -9.694  18.549  68.103  1.00  0.00    -0.367 C  
BRANCH  14  15
HETATM   15  C   UNL     1      -9.947  18.321  66.616  1.00  0.00    -0.370 C  
BRANCH  15  16
HETATM   16  C   UNL     1     -10.559  19.550  65.962  1.00  0.00    -0.491 C  
HETATM   17  O   UNL     1      -9.703  20.667  66.143  1.00  0.00    -0.621 OA 
HETATM   18  H   UNL     1     -10.085  21.435  65.735  1.00  0.00     0.000 HD 
ENDBRANCH  15  16
ENDBRANCH  14  15
ENDBRANCH  13  14
ENDBRANCH  12  13
ENDBRANCH  11  12
ENDBRANCH  10  11
ENDBRANCH   9  10
ENDBRANCH   8   9
ENDBRANCH   7   8
ENDBRANCH   6   7
ENDBRANCH   5   6
ENDBRANCH   4   5
ENDBRANCH   3   4
ENDBRANCH   2   3
TORSDOF 14
ENDMDL
MODEL       88
REMARK 921   NORMALIZED FREE ENERGY PREDICTED BY IDOCK:   -3.71 KCAL/MOL
REMARK 922        TOTAL FREE ENERGY PREDICTED BY IDOCK:   -8.12 KCAL/MOL
REMARK 923 INTER-LIGAND FREE ENERGY PREDICTED BY IDOCK:   -6.57 KCAL/MOL
REMARK 924 INTRA-LIGAND FREE ENERGY PREDICTED BY IDOCK:   -1.55 KCAL/MOL
REMARK 927      BINDING AFFINITY PREDICTED BY RF-SCORE:    0.00 PKD
ROOT
HETATM    1  C   UNL     1     -12.105  11.998  63.387  1.00  0.00    -0.597 C  
HETATM    2  C   UNL     1     -10.641  11.749  63.708  1.00  0.00    -0.470 C  
ENDROOT
BRANCH   2   3
HETATM    3  C   UNL     1     -10.488  10.728  64.833  1.00  0.00    -0.324 C  
BRANCH   3   4
HETATM    4  C   UNL     1      -9.018  10.500  65.180  1.00  0.00    -0.214 C  
BRANCH   4   5
HETATM    5  C   UNL     1      -8.869   9.404  66.232  1.00  0.00    -0.172 C  
BRANCH   5   6
HETATM    6  C   UNL     1     -10.155   8.596  66.368  1.00  0.00    -0.294 C  
BRANCH   6   7
HETATM    7  C   UNL     1     -10.361   8.142  67.812  1.00  0.00    -0.295 C  
BRANCH   7   8
HETATM    8  C   UNL     1     -10.180   9.306  68.781  1.00  0.00    -0.223 C  
BRANCH   8   9
HETATM    9  C   UNL     1     -11.530   9.902  69.173  1.00  0.00    -0.017 C  
BRANCH   9  10
HETATM   10  C   UNL     1     -11.417  11.408  69.388  1.00  0.00    -0.378 C  
BRANCH  10  11
HETATM   11  C   UNL     1     -11.693  12.168  68.094  1.00  0.00    -0.402 C  
BRANCH  11  12
HETATM   12  C   UNL     1     -10.888  13.463  68.041  1.00  0.00    -0.264 C  
BRANCH  12  13
HETATM   13  C   UNL     1     -11.529  14.467  67.086  1.00  0.00    -0.383 C  
BRANCH  13  14
HETATM   14  C   UNL     1     -10.798  15.808  67.132  1.00  0.00    -0.289 C  
BRANCH  14  15
HETATM   15  C   UNL     1     -10.400  16.267  65.733  1.00  0.00    -0.393 C  
BRANCH  15  16
HETATM   16  C   UNL     1     -11.101  15.448  64.660  1.00  0.00    -0.347 C  
HETATM   17  O   UNL     1     -11.703  16.315  63.710  1.00  0.00    -1.511 OA 
HETATM   18  H   UNL     1     -12.141  15.804  63.040  1.00  0.00     0.000 HD 
ENDBRANCH  15  16
ENDBRANCH  14  15
ENDBRANCH  13  14
ENDBRANCH  12  13
ENDBRANCH  11  12
ENDBRANCH  10  11
ENDBRANCH   9  10
ENDBRANCH   8   9
ENDBRANCH   7   8
ENDBRANCH   6   7
ENDBRANCH   5   6
ENDBRANCH   4   5
ENDBRANCH   3   4
ENDBRANCH   2   3
TORSDOF 14
ENDMDL
MODEL       89
REMARK 921   NORMALIZED FREE ENERGY PREDICTED BY IDOCK:   -3.70 KCAL/MOL
REMARK 922        TOTAL FREE ENERGY PREDICTED BY IDOCK:   -8.11 KCAL/MOL
REMARK 923 INTER-LIGAND FREE ENERGY PREDICTED BY IDOCK:   -6.20 KCAL/MOL
REMARK 924 INTRA-LIGAND FREE ENERGY PREDICTED BY IDOCK:   -1.91 KCAL/MOL
REMARK 927      BINDING AFFINITY PREDICTED BY RF-SCORE:    0.00 PKD
ROOT
HETATM    1  C   UNL     1     -12.784  12.022  63.700  1.00  0.00    -0.550 C  
HETATM    2  C   UNL     1     -11.290  12.103  63.439  1.00  0.00    -0.495 C  
ENDROOT
BRANCH   2   3
HETATM    3  C   UNL     1     -10.629  13.151  64.331  1.00  0.00    -0.441 C  
BRANCH   3   4
HETATM    4  C   UNL     1     -11.580  14.308  64.627  1.00  0.00    -0.415 C  
BRANCH   4   5
HETATM    5  C   UNL     1     -10.811  15.543  65.090  1.00  0.00    -0.452 C  
BRANCH   5   6
HETATM    6  C   UNL     1     -10.224  15.334  66.482  1.00  0.00    -0.282 C  
BRANCH   6   7
HETATM    7  C   UNL     1     -10.499  16.542  67.375  1.00  0.00    -0.310 C  
BRANCH   7   8
HETATM    8  C   UNL     1     -11.118  16.110  68.701  1.00  0.00    -0.356 C  
BRANCH   8   9
HETATM    9  C   UNL     1     -11.930  14.830  68.531  1.00  0.00    -0.284 C  
BRANCH   9  10
HETATM   10  C   UNL     1     -11.815  13.944  69.767  1.00  0.00    -0.390 C  
BRANCH  10  11
HETATM   11  C   UNL     1     -11.740  12.470  69.379  1.00  0.00    -0.383 C  
BRANCH  11  12
HETATM   12  C   UNL     1     -11.784  12.303  67.863  1.00  0.00    -0.410 C  
BRANCH  12  13
HETATM   13  C   UNL     1     -10.965  11.093  67.421  1.00  0.00    -0.347 C  
BRANCH  13  14
HETATM   14  C   UNL     1      -9.525  11.492  67.107  1.00  0.00    -0.186 C  
BRANCH  14  15
HETATM   15  C   UNL     1      -8.745  10.321  66.518  1.00  0.00    -0.139 C  
BRANCH  15  16
HETATM   16  C   UNL     1      -9.549   9.601  65.446  1.00  0.00    -0.291 C  
HETATM   17  O   UNL     1      -9.856   8.284  65.879  1.00  0.00    -0.466 OA 
HETATM   18  H   UNL     1     -10.358   7.834  65.209  1.00  0.00     0.000 HD 
ENDBRANCH  15  16
ENDBRANCH  14  15
ENDBRANCH  13  14
ENDBRANCH  12  13
ENDBRANCH  11  12
ENDBRANCH  10  11
ENDBRANCH   9  10
ENDBRANCH   8   9
ENDBRANCH   7   8
ENDBRANCH   6   7
ENDBRANCH   5   6
ENDBRANCH   4   5
ENDBRANCH   3   4
ENDBRANCH   2   3
TORSDOF 14
ENDMDL
MODEL       90
REMARK 921   NORMALIZED FREE ENERGY PREDICTED BY IDOCK:   -3.69 KCAL/MOL
REMARK 922        TOTAL FREE ENERGY PREDICTED BY IDOCK:   -8.10 KCAL/MOL
REMARK 923 INTER-LIGAND FREE ENERGY PREDICTED BY IDOCK:   -6.12 KCAL/MOL
REMARK 924 INTRA-LIGAND FREE ENERGY PREDICTED BY IDOCK:   -1.98 KCAL/MOL
REMARK 927      BINDING AFFINITY PREDICTED BY RF-SCORE:    0.00 PKD
ROOT
HETATM    1  C   UNL     1      -8.524  10.158  63.143  1.00  0.00    -0.182 C  
HETATM    2  C   UNL     1      -9.370   9.808  64.356  1.00  0.00    -0.278 C  
ENDROOT
BRANCH   2   3
HETATM    3  C   UNL     1     -10.397  10.900  64.647  1.00  0.00    -0.407 C  
BRANCH   3   4
HETATM    4  C   UNL     1     -10.631  11.782  63.423  1.00  0.00    -0.479 C  
BRANCH   4   5
HETATM    5  C   UNL     1     -11.981  12.490  63.510  1.00  0.00    -0.629 C  
BRANCH   5   6
HETATM    6  C   UNL     1     -12.469  12.565  64.953  1.00  0.00    -0.524 C  
BRANCH   6   7
HETATM    7  C   UNL     1     -12.535  14.014  65.430  1.00  0.00    -0.520 C  
BRANCH   7   8
HETATM    8  C   UNL     1     -11.529  14.882  64.681  1.00  0.00    -0.380 C  
BRANCH   8   9
HETATM    9  C   UNL     1     -10.756  15.775  65.647  1.00  0.00    -0.360 C  
BRANCH   9  10
HETATM   10  C   UNL     1      -9.457  15.106  66.085  1.00  0.00    -0.354 C  
BRANCH  10  11
HETATM   11  C   UNL     1      -9.247  15.253  67.589  1.00  0.00    -0.187 C  
BRANCH  11  12
HETATM   12  C   UNL     1      -9.903  14.101  68.346  1.00  0.00    -0.231 C  
BRANCH  12  13
HETATM   13  C   UNL     1      -9.383  12.754  67.851  1.00  0.00    -0.208 C  
BRANCH  13  14
HETATM   14  C   UNL     1     -10.457  11.675  67.975  1.00  0.00    -0.217 C  
BRANCH  14  15
HETATM   15  C   UNL     1     -11.695  12.209  68.688  1.00  0.00    -0.382 C  
BRANCH  15  16
HETATM   16  C   UNL     1     -12.090  11.320  69.857  1.00  0.00    -0.341 C  
HETATM   17  O   UNL     1     -10.927  10.780  70.466  1.00  0.00    -0.443 OA 
HETATM   18  H   UNL     1     -11.174  10.224  71.195  1.00  0.00     0.000 HD 
ENDBRANCH  15  16
ENDBRANCH  14  15
ENDBRANCH  13  14
ENDBRANCH  12  13
ENDBRANCH  11  12
ENDBRANCH  10  11
ENDBRANCH   9  10
ENDBRANCH   8   9
ENDBRANCH   7   8
ENDBRANCH   6   7
ENDBRANCH   5   6
ENDBRANCH   4   5
ENDBRANCH   3   4
ENDBRANCH   2   3
TORSDOF 14
ENDMDL
MODEL       91
REMARK 921   NORMALIZED FREE ENERGY PREDICTED BY IDOCK:   -3.69 KCAL/MOL
REMARK 922        TOTAL FREE ENERGY PREDICTED BY IDOCK:   -8.09 KCAL/MOL
REMARK 923 INTER-LIGAND FREE ENERGY PREDICTED BY IDOCK:   -6.65 KCAL/MOL
REMARK 924 INTRA-LIGAND FREE ENERGY PREDICTED BY IDOCK:   -1.44 KCAL/MOL
REMARK 927      BINDING AFFINITY PREDICTED BY RF-SCORE:    0.00 PKD
ROOT
HETATM    1  C   UNL     1     -11.771  12.262  67.746  1.00  0.00    -0.403 C  
HETATM    2  C   UNL     1     -11.544  12.712  66.312  1.00  0.00    -0.440 C  
ENDROOT
BRANCH   2   3
HETATM    3  C   UNL     1     -10.288  13.573  66.196  1.00  0.00    -0.296 C  
BRANCH   3   4
HETATM    4  C   UNL     1     -10.635  15.015  65.836  1.00  0.00    -0.338 C  
BRANCH   4   5
HETATM    5  C   UNL     1     -10.737  15.881  67.089  1.00  0.00    -0.301 C  
BRANCH   5   6
HETATM    6  C   UNL     1      -9.537  15.665  68.005  1.00  0.00    -0.203 C  
BRANCH   6   7
HETATM    7  C   UNL     1      -9.934  15.825  69.470  1.00  0.00    -0.283 C  
BRANCH   7   8
HETATM    8  C   UNL     1     -11.213  15.051  69.777  1.00  0.00    -0.301 C  
BRANCH   8   9
HETATM    9  C   UNL     1     -12.003  15.727  70.894  1.00  0.00    -0.453 C  
BRANCH   9  10
HETATM   10  C   UNL     1     -13.329  15.012  71.132  1.00  0.00    -0.510 C  
BRANCH  10  11
HETATM   11  C   UNL     1     -13.327  14.290  72.477  1.00  0.00    -0.595 C  
BRANCH  11  12
HETATM   12  C   UNL     1     -13.677  12.815  72.304  1.00  0.00    -0.495 C  
BRANCH  12  13
HETATM   13  C   UNL     1     -12.687  12.122  71.371  1.00  0.00    -0.368 C  
BRANCH  13  14
HETATM   14  C   UNL     1     -13.016  10.638  71.230  1.00  0.00    -0.513 C  
BRANCH  14  15
HETATM   15  C   UNL     1     -11.769   9.777  71.411  1.00  0.00    -0.475 C  
BRANCH  15  16
HETATM   16  C   UNL     1     -11.004   9.627  70.105  1.00  0.00    -0.275 C  
HETATM   17  O   UNL     1      -9.696  10.160  70.250  1.00  0.00    -0.399 OA 
HETATM   18  H   UNL     1      -9.218  10.066  69.434  1.00  0.00     0.000 HD 
ENDBRANCH  15  16
ENDBRANCH  14  15
ENDBRANCH  13  14
ENDBRANCH  12  13
ENDBRANCH  11  12
ENDBRANCH  10  11
ENDBRANCH   9  10
ENDBRANCH   8   9
ENDBRANCH   7   8
ENDBRANCH   6   7
ENDBRANCH   5   6
ENDBRANCH   4   5
ENDBRANCH   3   4
ENDBRANCH   2   3
TORSDOF 14
ENDMDL
MODEL       92
REMARK 921   NORMALIZED FREE ENERGY PREDICTED BY IDOCK:   -3.69 KCAL/MOL
REMARK 922        TOTAL FREE ENERGY PREDICTED BY IDOCK:   -8.09 KCAL/MOL
REMARK 923 INTER-LIGAND FREE ENERGY PREDICTED BY IDOCK:   -6.70 KCAL/MOL
REMARK 924 INTRA-LIGAND FREE ENERGY PREDICTED BY IDOCK:   -1.39 KCAL/MOL
REMARK 927      BINDING AFFINITY PREDICTED BY RF-SCORE:    0.00 PKD
ROOT
HETATM    1  C   UNL     1      -9.826  20.298  67.083  1.00  0.00    -0.606 C  
HETATM    2  C   UNL     1     -10.758  19.109  67.244  1.00  0.00    -0.585 C  
ENDROOT
BRANCH   2   3
HETATM    3  C   UNL     1     -10.210  18.112  68.263  1.00  0.00    -0.402 C  
BRANCH   3   4
HETATM    4  C   UNL     1     -10.705  16.696  67.976  1.00  0.00    -0.350 C  
BRANCH   4   5
HETATM    5  C   UNL     1      -9.554  15.792  67.543  1.00  0.00    -0.224 C  
BRANCH   5   6
HETATM    6  C   UNL     1      -9.338  15.864  66.035  1.00  0.00    -0.385 C  
BRANCH   6   7
HETATM    7  C   UNL     1     -10.672  15.846  65.293  1.00  0.00    -0.442 C  
BRANCH   7   8
HETATM    8  C   UNL     1     -11.013  14.436  64.817  1.00  0.00    -0.409 C  
BRANCH   8   9
HETATM    9  C   UNL     1     -12.259  13.911  65.524  1.00  0.00    -0.467 C  
BRANCH   9  10
HETATM   10  C   UNL     1     -11.934  12.667  66.344  1.00  0.00    -0.425 C  
BRANCH  10  11
HETATM   11  C   UNL     1     -11.995  12.966  67.840  1.00  0.00    -0.333 C  
BRANCH  11  12
HETATM   12  C   UNL     1     -11.235  11.911  68.638  1.00  0.00    -0.311 C  
BRANCH  12  13
HETATM   13  C   UNL     1     -12.035  11.466  69.859  1.00  0.00    -0.434 C  
BRANCH  13  14
HETATM   14  C   UNL     1     -11.290  10.382  70.636  1.00  0.00    -0.411 C  
BRANCH  14  15
HETATM   15  C   UNL     1     -10.042   9.927  69.886  1.00  0.00    -0.297 C  
BRANCH  15  16
HETATM   16  C   UNL     1     -10.162   8.480  69.434  1.00  0.00    -0.211 C  
HETATM   17  O   UNL     1     -10.714   8.428  68.128  1.00  0.00    -0.405 OA 
HETATM   18  H   UNL     1     -10.790   7.524  67.846  1.00  0.00     0.000 HD 
ENDBRANCH  15  16
ENDBRANCH  14  15
ENDBRANCH  13  14
ENDBRANCH  12  13
ENDBRANCH  11  12
ENDBRANCH  10  11
ENDBRANCH   9  10
ENDBRANCH   8   9
ENDBRANCH   7   8
ENDBRANCH   6   7
ENDBRANCH   5   6
ENDBRANCH   4   5
ENDBRANCH   3   4
ENDBRANCH   2   3
TORSDOF 14
ENDMDL
MODEL       93
REMARK 921   NORMALIZED FREE ENERGY PREDICTED BY IDOCK:   -3.69 KCAL/MOL
REMARK 922        TOTAL FREE ENERGY PREDICTED BY IDOCK:   -8.09 KCAL/MOL
REMARK 923 INTER-LIGAND FREE ENERGY PREDICTED BY IDOCK:   -6.44 KCAL/MOL
REMARK 924 INTRA-LIGAND FREE ENERGY PREDICTED BY IDOCK:   -1.64 KCAL/MOL
REMARK 927      BINDING AFFINITY PREDICTED BY RF-SCORE:    0.00 PKD
ROOT
HETATM    1  C   UNL     1     -10.205  20.147  67.128  1.00  0.00    -0.554 C  
HETATM    2  C   UNL     1     -10.552  18.911  66.316  1.00  0.00    -0.463 C  
ENDROOT
BRANCH   2   3
HETATM    3  C   UNL     1     -10.401  17.641  67.151  1.00  0.00    -0.343 C  
BRANCH   3   4
HETATM    4  C   UNL     1      -9.941  16.464  66.293  1.00  0.00    -0.341 C  
BRANCH   4   5
HETATM    5  C   UNL     1     -11.008  16.085  65.269  1.00  0.00    -0.309 C  
BRANCH   5   6
HETATM    6  C   UNL     1     -10.841  14.640  64.812  1.00  0.00    -0.402 C  
BRANCH   6   7
HETATM    7  C   UNL     1     -12.195  14.010  64.493  1.00  0.00    -0.463 C  
BRANCH   7   8
HETATM    8  C   UNL     1     -12.169  12.505  64.742  1.00  0.00    -0.532 C  
BRANCH   8   9
HETATM    9  C   UNL     1     -11.256  11.803  63.741  1.00  0.00    -0.518 C  
BRANCH   9  10
HETATM   10  C   UNL     1      -9.958  11.358  64.408  1.00  0.00    -0.321 C  
BRANCH  10  11
HETATM   11  C   UNL     1     -10.220  10.828  65.815  1.00  0.00    -0.319 C  
BRANCH  11  12
HETATM   12  C   UNL     1      -9.213  11.399  66.809  1.00  0.00    -0.185 C  
BRANCH  12  13
HETATM   13  C   UNL     1      -9.909  11.875  68.082  1.00  0.00    -0.192 C  
BRANCH  13  14
HETATM   14  C   UNL     1     -10.091  13.391  68.071  1.00  0.00    -0.241 C  
BRANCH  14  15
HETATM   15  C   UNL     1     -11.524  13.776  68.426  1.00  0.00    -0.351 C  
BRANCH  15  16
HETATM   16  C   UNL     1     -11.561  14.806  69.544  1.00  0.00    -0.304 C  
HETATM   17  O   UNL     1     -12.901  15.206  69.786  1.00  0.00    -0.603 OA 
HETATM   18  H   UNL     1     -12.925  15.849  70.484  1.00  0.00     0.000 HD 
ENDBRANCH  15  16
ENDBRANCH  14  15
ENDBRANCH  13  14
ENDBRANCH  12  13
ENDBRANCH  11  12
ENDBRANCH  10  11
ENDBRANCH   9  10
ENDBRANCH   8   9
ENDBRANCH   7   8
ENDBRANCH   6   7
ENDBRANCH   5   6
ENDBRANCH   4   5
ENDBRANCH   3   4
ENDBRANCH   2   3
TORSDOF 14
ENDMDL
MODEL       94
REMARK 921   NORMALIZED FREE ENERGY PREDICTED BY IDOCK:   -3.67 KCAL/MOL
REMARK 922        TOTAL FREE ENERGY PREDICTED BY IDOCK:   -8.05 KCAL/MOL
REMARK 923 INTER-LIGAND FREE ENERGY PREDICTED BY IDOCK:   -6.46 KCAL/MOL
REMARK 924 INTRA-LIGAND FREE ENERGY PREDICTED BY IDOCK:   -1.59 KCAL/MOL
REMARK 927      BINDING AFFINITY PREDICTED BY RF-SCORE:    0.00 PKD
ROOT
HETATM    1  C   UNL     1     -14.336  14.773  71.663  1.00  0.00    -0.645 C  
HETATM    2  C   UNL     1     -13.609  13.629  72.349  1.00  0.00    -0.703 C  
ENDROOT
BRANCH   2   3
HETATM    3  C   UNL     1     -12.813  12.798  71.344  1.00  0.00    -0.371 C  
BRANCH   3   4
HETATM    4  C   UNL     1     -12.281  13.666  70.205  1.00  0.00    -0.423 C  
BRANCH   4   5
HETATM    5  C   UNL     1     -11.310  12.879  69.328  1.00  0.00    -0.303 C  
BRANCH   5   6
HETATM    6  C   UNL     1     -11.804  11.454  69.104  1.00  0.00    -0.413 C  
BRANCH   6   7
HETATM    7  C   UNL     1     -11.305  10.908  67.768  1.00  0.00    -0.366 C  
BRANCH   7   8
HETATM    8  C   UNL     1     -10.145  11.745  67.236  1.00  0.00    -0.211 C  
BRANCH   8   9
HETATM    9  C   UNL     1     -10.354  12.089  65.764  1.00  0.00    -0.289 C  
BRANCH   9  10
HETATM   10  C   UNL     1     -11.822  12.383  65.477  1.00  0.00    -0.469 C  
BRANCH  10  11
HETATM   11  C   UNL     1     -12.195  13.793  65.928  1.00  0.00    -0.501 C  
BRANCH  11  12
HETATM   12  C   UNL     1     -11.983  14.799  64.801  1.00  0.00    -0.408 C  
BRANCH  12  13
HETATM   13  C   UNL     1     -10.742  15.652  65.054  1.00  0.00    -0.458 C  
BRANCH  13  14
HETATM   14  C   UNL     1     -10.696  16.132  66.503  1.00  0.00    -0.220 C  
BRANCH  14  15
HETATM   15  C   UNL     1      -9.298  15.972  67.092  1.00  0.00    -0.222 C  
BRANCH  15  16
HETATM   16  C   UNL     1      -9.321  16.071  68.610  1.00  0.00    -0.214 C  
HETATM   17  O   UNL     1      -8.103  16.633  69.073  1.00  0.00    -0.239 OA 
HETATM   18  H   UNL     1      -8.116  16.694  70.021  1.00  0.00     0.000 HD 
ENDBRANCH  15  16
ENDBRANCH  14  15
ENDBRANCH  13  14
ENDBRANCH  12  13
ENDBRANCH  11  12
ENDBRANCH  10  11
ENDBRANCH   9  10
ENDBRANCH   8   9
ENDBRANCH   7   8
ENDBRANCH   6   7
ENDBRANCH   5   6
ENDBRANCH   4   5
ENDBRANCH   3   4
ENDBRANCH   2   3
TORSDOF 14
ENDMDL
MODEL       95
REMARK 921   NORMALIZED FREE ENERGY PREDICTED BY IDOCK:   -3.66 KCAL/MOL
REMARK 922        TOTAL FREE ENERGY PREDICTED BY IDOCK:   -8.04 KCAL/MOL
REMARK 923 INTER-LIGAND FREE ENERGY PREDICTED BY IDOCK:   -5.85 KCAL/MOL
REMARK 924 INTRA-LIGAND FREE ENERGY PREDICTED BY IDOCK:   -2.19 KCAL/MOL
REMARK 927      BINDING AFFINITY PREDICTED BY RF-SCORE:    0.00 PKD
ROOT
HETATM    1  C   UNL     1      -7.756  13.927  68.083  1.00  0.00    -0.142 C  
HETATM    2  C   UNL     1      -8.757  12.799  68.268  1.00  0.00    -0.168 C  
ENDROOT
BRANCH   2   3
HETATM    3  C   UNL     1      -8.890  11.965  66.996  1.00  0.00    -0.190 C  
BRANCH   3   4
HETATM    4  C   UNL     1     -10.031  10.957  67.111  1.00  0.00    -0.221 C  
BRANCH   4   5
HETATM    5  C   UNL     1     -10.604  10.621  65.736  1.00  0.00    -0.168 C  
BRANCH   5   6
HETATM    6  C   UNL     1      -9.604  10.947  64.631  1.00  0.00    -0.305 C  
BRANCH   6   7
HETATM    7  C   UNL     1     -10.293  11.659  63.469  1.00  0.00    -0.488 C  
BRANCH   7   8
HETATM    8  C   UNL     1     -11.774  11.877  63.762  1.00  0.00    -0.554 C  
BRANCH   8   9
HETATM    9  C   UNL     1     -12.211  13.277  63.339  1.00  0.00    -0.476 C  
BRANCH   9  10
HETATM   10  C   UNL     1     -12.075  14.262  64.496  1.00  0.00    -0.499 C  
BRANCH  10  11
HETATM   11  C   UNL     1     -12.815  13.757  65.733  1.00  0.00    -0.430 C  
BRANCH  11  12
HETATM   12  C   UNL     1     -12.036  14.083  67.004  1.00  0.00    -0.472 C  
BRANCH  12  13
HETATM   13  C   UNL     1     -10.986  15.160  66.743  1.00  0.00    -0.321 C  
BRANCH  13  14
HETATM   14  C   UNL     1     -10.995  16.211  67.850  1.00  0.00    -0.318 C  
BRANCH  14  15
HETATM   15  C   UNL     1      -9.784  17.133  67.745  1.00  0.00    -0.271 C  
BRANCH  15  16
HETATM   16  C   UNL     1     -10.197  18.554  67.392  1.00  0.00    -0.373 C  
HETATM   17  O   UNL     1     -10.543  18.627  66.017  1.00  0.00    -0.457 OA 
HETATM   18  H   UNL     1     -10.800  19.514  65.796  1.00  0.00     0.000 HD 
ENDBRANCH  15  16
ENDBRANCH  14  15
ENDBRANCH  13  14
ENDBRANCH  12  13
ENDBRANCH  11  12
ENDBRANCH  10  11
ENDBRANCH   9  10
ENDBRANCH   8   9
ENDBRANCH   7   8
ENDBRANCH   6   7
ENDBRANCH   5   6
ENDBRANCH   4   5
ENDBRANCH   3   4
ENDBRANCH   2   3
TORSDOF 14
ENDMDL
MODEL       96
REMARK 921   NORMALIZED FREE ENERGY PREDICTED BY IDOCK:   -3.66 KCAL/MOL
REMARK 922        TOTAL FREE ENERGY PREDICTED BY IDOCK:   -8.03 KCAL/MOL
REMARK 923 INTER-LIGAND FREE ENERGY PREDICTED BY IDOCK:   -6.64 KCAL/MOL
REMARK 924 INTRA-LIGAND FREE ENERGY PREDICTED BY IDOCK:   -1.39 KCAL/MOL
REMARK 927      BINDING AFFINITY PREDICTED BY RF-SCORE:    0.00 PKD
ROOT
HETATM    1  C   UNL     1     -11.567   6.285  70.529  1.00  0.00    -0.357 C  
HETATM    2  C   UNL     1     -12.377   7.321  71.290  1.00  0.00    -0.401 C  
ENDROOT
BRANCH   2   3
HETATM    3  C   UNL     1     -11.468   8.279  72.056  1.00  0.00    -0.399 C  
BRANCH   3   4
HETATM    4  C   UNL     1     -11.099   9.493  71.206  1.00  0.00    -0.449 C  
BRANCH   4   5
HETATM    5  C   UNL     1     -12.351  10.216  70.714  1.00  0.00    -0.422 C  
BRANCH   5   6
HETATM    6  C   UNL     1     -11.986  11.417  69.848  1.00  0.00    -0.434 C  
BRANCH   6   7
HETATM    7  C   UNL     1     -12.260  12.724  70.587  1.00  0.00    -0.374 C  
BRANCH   7   8
HETATM    8  C   UNL     1     -11.937  13.928  69.706  1.00  0.00    -0.398 C  
BRANCH   8   9
HETATM    9  C   UNL     1     -11.532  13.481  68.304  1.00  0.00    -0.345 C  
BRANCH   9  10
HETATM   10  C   UNL     1     -11.873  14.552  67.273  1.00  0.00    -0.419 C  
BRANCH  10  11
HETATM   11  C   UNL     1     -12.118  13.931  65.900  1.00  0.00    -0.459 C  
BRANCH  11  12
HETATM   12  C   UNL     1     -11.958  12.414  65.952  1.00  0.00    -0.434 C  
BRANCH  12  13
HETATM   13  C   UNL     1     -11.182  11.903  64.741  1.00  0.00    -0.356 C  
BRANCH  13  14
HETATM   14  C   UNL     1     -10.114  10.896  65.162  1.00  0.00    -0.352 C  
BRANCH  14  15
HETATM   15  C   UNL     1     -10.339  10.420  66.594  1.00  0.00    -0.292 C  
BRANCH  15  16
HETATM   16  C   UNL     1     -10.255   8.905  66.695  1.00  0.00    -0.268 C  
HETATM   17  O   UNL     1     -11.122   8.442  67.718  1.00  0.00    -0.481 OA 
HETATM   18  H   UNL     1     -11.069   7.495  67.782  1.00  0.00     0.000 HD 
ENDBRANCH  15  16
ENDBRANCH  14  15
ENDBRANCH  13  14
ENDBRANCH  12  13
ENDBRANCH  11  12
ENDBRANCH  10  11
ENDBRANCH   9  10
ENDBRANCH   8   9
ENDBRANCH   7   8
ENDBRANCH   6   7
ENDBRANCH   5   6
ENDBRANCH   4   5
ENDBRANCH   3   4
ENDBRANCH   2   3
TORSDOF 14
ENDMDL
MODEL       97
REMARK 921   NORMALIZED FREE ENERGY PREDICTED BY IDOCK:   -3.64 KCAL/MOL
REMARK 922        TOTAL FREE ENERGY PREDICTED BY IDOCK:   -8.01 KCAL/MOL
REMARK 923 INTER-LIGAND FREE ENERGY PREDICTED BY IDOCK:   -6.38 KCAL/MOL
REMARK 924 INTRA-LIGAND FREE ENERGY PREDICTED BY IDOCK:   -1.63 KCAL/MOL
REMARK 927      BINDING AFFINITY PREDICTED BY RF-SCORE:    0.00 PKD
ROOT
HETATM    1  C   UNL     1     -11.614  11.810  63.685  1.00  0.00    -0.521 C  
HETATM    2  C   UNL     1     -12.475  12.571  64.679  1.00  0.00    -0.539 C  
ENDROOT
BRANCH   2   3
HETATM    3  C   UNL     1     -11.657  13.018  65.889  1.00  0.00    -0.405 C  
BRANCH   3   4
HETATM    4  C   UNL     1     -11.274  11.830  66.769  1.00  0.00    -0.388 C  
BRANCH   4   5
HETATM    5  C   UNL     1     -11.730  12.048  68.209  1.00  0.00    -0.396 C  
BRANCH   5   6
HETATM    6  C   UNL     1     -12.137  13.499  68.442  1.00  0.00    -0.293 C  
BRANCH   6   7
HETATM    7  C   UNL     1     -11.859  13.918  69.884  1.00  0.00    -0.394 C  
BRANCH   7   8
HETATM    8  C   UNL     1     -11.046  15.209  69.930  1.00  0.00    -0.302 C  
BRANCH   8   9
HETATM    9  C   UNL     1     -10.459  15.531  68.559  1.00  0.00    -0.238 C  
BRANCH   9  10
HETATM   10  C   UNL     1      -9.006  15.078  68.469  1.00  0.00    -0.186 C  
BRANCH  10  11
HETATM   11  C   UNL     1      -8.578  14.896  67.015  1.00  0.00    -0.265 C  
BRANCH  11  12
HETATM   12  C   UNL     1      -8.938  16.124  66.184  1.00  0.00    -0.372 C  
BRANCH  12  13
HETATM   13  C   UNL     1      -7.844  17.185  66.271  1.00  0.00    -0.351 C  
BRANCH  13  14
HETATM   14  C   UNL     1      -8.327  18.404  67.055  1.00  0.00    -0.257 C  
BRANCH  14  15
HETATM   15  C   UNL     1      -9.812  18.660  66.816  1.00  0.00    -0.365 C  
BRANCH  15  16
HETATM   16  C   UNL     1     -10.276  19.929  67.515  1.00  0.00    -0.422 C  
HETATM   17  O   UNL     1      -9.608  21.053  66.963  1.00  0.00    -0.687 OA 
HETATM   18  H   UNL     1      -9.898  21.846  67.400  1.00  0.00     0.000 HD 
ENDBRANCH  15  16
ENDBRANCH  14  15
ENDBRANCH  13  14
ENDBRANCH  12  13
ENDBRANCH  11  12
ENDBRANCH  10  11
ENDBRANCH   9  10
ENDBRANCH   8   9
ENDBRANCH   7   8
ENDBRANCH   6   7
ENDBRANCH   5   6
ENDBRANCH   4   5
ENDBRANCH   3   4
ENDBRANCH   2   3
TORSDOF 14
ENDMDL
MODEL       98
REMARK 921   NORMALIZED FREE ENERGY PREDICTED BY IDOCK:   -3.63 KCAL/MOL
REMARK 922        TOTAL FREE ENERGY PREDICTED BY IDOCK:   -7.98 KCAL/MOL
REMARK 923 INTER-LIGAND FREE ENERGY PREDICTED BY IDOCK:   -6.18 KCAL/MOL
REMARK 924 INTRA-LIGAND FREE ENERGY PREDICTED BY IDOCK:   -1.81 KCAL/MOL
REMARK 927      BINDING AFFINITY PREDICTED BY RF-SCORE:    0.00 PKD
ROOT
HETATM    1  C   UNL     1     -12.243  13.419  63.570  1.00  0.00    -0.468 C  
HETATM    2  C   UNL     1     -11.866  11.949  63.627  1.00  0.00    -0.573 C  
ENDROOT
BRANCH   2   3
HETATM    3  C   UNL     1     -10.380  11.771  63.932  1.00  0.00    -0.428 C  
BRANCH   3   4
HETATM    4  C   UNL     1     -10.151  10.647  64.940  1.00  0.00    -0.402 C  
BRANCH   4   5
HETATM    5  C   UNL     1      -9.707  11.207  66.290  1.00  0.00    -0.244 C  
BRANCH   5   6
HETATM    6  C   UNL     1     -10.781  10.996  67.352  1.00  0.00    -0.303 C  
BRANCH   6   7
HETATM    7  C   UNL     1     -11.840  12.093  67.280  1.00  0.00    -0.293 C  
BRANCH   7   8
HETATM    8  C   UNL     1     -11.718  13.048  68.465  1.00  0.00    -0.377 C  
BRANCH   8   9
HETATM    9  C   UNL     1     -10.931  14.296  68.077  1.00  0.00    -0.261 C  
BRANCH   9  10
HETATM   10  C   UNL     1     -11.119  14.620  66.599  1.00  0.00    -0.334 C  
BRANCH  10  11
HETATM   11  C   UNL     1      -9.782  14.931  65.932  1.00  0.00    -0.366 C  
BRANCH  11  12
HETATM   12  C   UNL     1      -9.477  16.425  65.993  1.00  0.00    -0.345 C  
BRANCH  12  13
HETATM   13  C   UNL     1     -10.614  17.241  65.384  1.00  0.00    -0.083 C  
BRANCH  13  14
HETATM   14  C   UNL     1     -10.751  18.593  66.081  1.00  0.00    -0.282 C  
BRANCH  14  15
HETATM   15  C   UNL     1     -10.712  18.437  67.598  1.00  0.00    -0.390 C  
BRANCH  15  16
HETATM   16  C   UNL     1      -9.834  19.498  68.244  1.00  0.00    -0.416 C  
HETATM   17  O   UNL     1     -10.255  19.723  69.580  1.00  0.00    -0.611 OA 
HETATM   18  H   UNL     1      -9.707  20.386  69.983  1.00  0.00     0.000 HD 
ENDBRANCH  15  16
ENDBRANCH  14  15
ENDBRANCH  13  14
ENDBRANCH  12  13
ENDBRANCH  11  12
ENDBRANCH  10  11
ENDBRANCH   9  10
ENDBRANCH   8   9
ENDBRANCH   7   8
ENDBRANCH   6   7
ENDBRANCH   5   6
ENDBRANCH   4   5
ENDBRANCH   3   4
ENDBRANCH   2   3
TORSDOF 14
ENDMDL
MODEL       99
REMARK 921   NORMALIZED FREE ENERGY PREDICTED BY IDOCK:   -3.63 KCAL/MOL
REMARK 922        TOTAL FREE ENERGY PREDICTED BY IDOCK:   -7.98 KCAL/MOL
REMARK 923 INTER-LIGAND FREE ENERGY PREDICTED BY IDOCK:   -6.49 KCAL/MOL
REMARK 924 INTRA-LIGAND FREE ENERGY PREDICTED BY IDOCK:   -1.48 KCAL/MOL
REMARK 927      BINDING AFFINITY PREDICTED BY RF-SCORE:    0.00 PKD
ROOT
HETATM    1  C   UNL     1     -10.869   7.113  71.805  1.00  0.00    -0.253 C  
HETATM    2  C   UNL     1     -11.543   8.369  72.329  1.00  0.00    -0.453 C  
ENDROOT
BRANCH   2   3
HETATM    3  C   UNL     1     -11.287   9.559  71.406  1.00  0.00    -0.462 C  
BRANCH   3   4
HETATM    4  C   UNL     1     -12.596  10.206  70.959  1.00  0.00    -0.478 C  
BRANCH   4   5
HETATM    5  C   UNL     1     -12.562  11.716  71.180  1.00  0.00    -0.439 C  
BRANCH   5   6
HETATM    6  C   UNL     1     -13.620  12.147  72.190  1.00  0.00    -0.285 C  
BRANCH   6   7
HETATM    7  C   UNL     1     -13.729  13.669  72.248  1.00  0.00    -0.687 C  
BRANCH   7   8
HETATM    8  C   UNL     1     -12.452  14.328  71.733  1.00  0.00    -0.396 C  
BRANCH   8   9
HETATM    9  C   UNL     1     -12.777  15.572  70.911  1.00  0.00    -0.525 C  
BRANCH   9  10
HETATM   10  C   UNL     1     -12.032  15.555  69.580  1.00  0.00    -0.380 C  
BRANCH  10  11
HETATM   11  C   UNL     1     -10.530  15.394  69.797  1.00  0.00    -0.303 C  
BRANCH  11  12
HETATM   12  C   UNL     1      -9.846  14.898  68.525  1.00  0.00    -0.217 C  
BRANCH  12  13
HETATM   13  C   UNL     1     -10.720  13.882  67.794  1.00  0.00    -0.252 C  
BRANCH  13  14
HETATM   14  C   UNL     1     -10.508  12.477  68.353  1.00  0.00    -0.250 C  
BRANCH  14  15
HETATM   15  C   UNL     1     -11.416  11.465  67.660  1.00  0.00    -0.348 C  
BRANCH  15  16
HETATM   16  C   UNL     1     -10.635  10.244  67.199  1.00  0.00    -0.260 C  
HETATM   17  O   UNL     1     -11.092   9.092  67.891  1.00  0.00    -0.508 OA 
HETATM   18  H   UNL     1     -10.605   8.329  67.603  1.00  0.00     0.000 HD 
ENDBRANCH  15  16
ENDBRANCH  14  15
ENDBRANCH  13  14
ENDBRANCH  12  13
ENDBRANCH  11  12
ENDBRANCH  10  11
ENDBRANCH   9  10
ENDBRANCH   8   9
ENDBRANCH   7   8
ENDBRANCH   6   7
ENDBRANCH   5   6
ENDBRANCH   4   5
ENDBRANCH   3   4
ENDBRANCH   2   3
TORSDOF 14
ENDMDL
MODEL      100
REMARK 921   NORMALIZED FREE ENERGY PREDICTED BY IDOCK:   -3.63 KCAL/MOL
REMARK 922        TOTAL FREE ENERGY PREDICTED BY IDOCK:   -7.98 KCAL/MOL
REMARK 923 INTER-LIGAND FREE ENERGY PREDICTED BY IDOCK:   -6.04 KCAL/MOL
REMARK 924 INTRA-LIGAND FREE ENERGY PREDICTED BY IDOCK:   -1.93 KCAL/MOL
REMARK 927      BINDING AFFINITY PREDICTED BY RF-SCORE:    0.00 PKD
ROOT
HETATM    1  C   UNL     1     -12.783  12.948  64.784  1.00  0.00    -0.442 C  
HETATM    2  C   UNL     1     -11.961  12.546  63.571  1.00  0.00    -0.629 C  
ENDROOT
BRANCH   2   3
HETATM    3  C   UNL     1     -10.503  12.296  63.950  1.00  0.00    -0.458 C  
BRANCH   3   4
HETATM    4  C   UNL     1     -10.071  10.877  63.586  1.00  0.00    -0.414 C  
BRANCH   4   5
HETATM    5  C   UNL     1      -9.773  10.059  64.840  1.00  0.00    -0.377 C  
BRANCH   5   6
HETATM    6  C   UNL     1      -9.883  10.918  66.095  1.00  0.00    -0.268 C  
BRANCH   6   7
HETATM    7  C   UNL     1     -10.621  10.171  67.204  1.00  0.00    -0.308 C  
BRANCH   7   8
HETATM    8  C   UNL     1     -10.799  11.057  68.434  1.00  0.00    -0.264 C  
BRANCH   8   9
HETATM    9  C   UNL     1     -11.780  12.191  68.150  1.00  0.00    -0.402 C  
BRANCH   9  10
HETATM   10  C   UNL     1     -11.302  13.494  68.782  1.00  0.00    -0.329 C  
BRANCH  10  11
HETATM   11  C   UNL     1     -11.240  14.613  67.747  1.00  0.00    -0.320 C  
BRANCH  11  12
HETATM   12  C   UNL     1      -9.972  14.506  66.904  1.00  0.00    -0.259 C  
BRANCH  12  13
HETATM   13  C   UNL     1     -10.029  15.451  65.706  1.00  0.00    -0.393 C  
BRANCH  13  14
HETATM   14  C   UNL     1     -10.282  16.888  66.155  1.00  0.00    -0.352 C  
BRANCH  14  15
HETATM   15  C   UNL     1      -8.972  17.609  66.457  1.00  0.00    -0.283 C  
BRANCH  15  16
HETATM   16  C   UNL     1      -9.020  18.306  67.808  1.00  0.00    -0.267 C  
HETATM   17  O   UNL     1      -8.329  17.529  68.774  1.00  0.00    -0.275 OA 
HETATM   18  H   UNL     1      -8.360  17.964  69.619  1.00  0.00     0.000 HD 
ENDBRANCH  15  16
ENDBRANCH  14  15
ENDBRANCH  13  14
ENDBRANCH  12  13
ENDBRANCH  11  12
ENDBRANCH  10  11
ENDBRANCH   9  10
ENDBRANCH   8   9
ENDBRANCH   7   8
ENDBRANCH   6   7
ENDBRANCH   5   6
ENDBRANCH   4   5
ENDBRANCH   3   4
ENDBRANCH   2   3
TORSDOF 14
ENDMDL
MODEL      101
REMARK 921   NORMALIZED FREE ENERGY PREDICTED BY IDOCK:   -3.63 KCAL/MOL
REMARK 922        TOTAL FREE ENERGY PREDICTED BY IDOCK:   -7.97 KCAL/MOL
REMARK 923 INTER-LIGAND FREE ENERGY PREDICTED BY IDOCK:   -6.33 KCAL/MOL
REMARK 924 INTRA-LIGAND FREE ENERGY PREDICTED BY IDOCK:   -1.65 KCAL/MOL
REMARK 927      BINDING AFFINITY PREDICTED BY RF-SCORE:    0.00 PKD
ROOT
HETATM    1  C   UNL     1     -13.906  13.546  72.239  1.00  0.00    -0.680 C  
HETATM    2  C   UNL     1     -12.758  13.189  71.310  1.00  0.00    -0.396 C  
ENDROOT
BRANCH   2   3
HETATM    3  C   UNL     1     -12.072  14.442  70.772  1.00  0.00    -0.408 C  
BRANCH   3   4
HETATM    4  C   UNL     1     -12.149  14.506  69.248  1.00  0.00    -0.325 C  
BRANCH   4   5
HETATM    5  C   UNL     1     -11.777  15.897  68.740  1.00  0.00    -0.355 C  
BRANCH   5   6
HETATM    6  C   UNL     1     -10.483  16.387  69.382  1.00  0.00    -0.309 C  
BRANCH   6   7
HETATM    7  C   UNL     1      -9.312  16.260  68.411  1.00  0.00    -0.210 C  
BRANCH   7   8
HETATM    8  C   UNL     1      -9.798  15.887  67.014  1.00  0.00    -0.236 C  
BRANCH   8   9
HETATM    9  C   UNL     1      -9.140  14.596  66.536  1.00  0.00    -0.267 C  
BRANCH   9  10
HETATM   10  C   UNL     1      -8.686  13.747  67.719  1.00  0.00    -0.182 C  
BRANCH  10  11
HETATM   11  C   UNL     1      -9.538  12.487  67.847  1.00  0.00    -0.206 C  
BRANCH  11  12
HETATM   12  C   UNL     1     -10.459  12.327  66.641  1.00  0.00    -0.247 C  
BRANCH  12  13
HETATM   13  C   UNL     1     -10.249  10.974  65.966  1.00  0.00    -0.305 C  
BRANCH  13  14
HETATM   14  C   UNL     1     -10.491  11.071  64.461  1.00  0.00    -0.411 C  
BRANCH  14  15
HETATM   15  C   UNL     1     -10.781  12.509  64.041  1.00  0.00    -0.449 C  
BRANCH  15  16
HETATM   16  C   UNL     1     -12.151  12.633  63.393  1.00  0.00    -0.525 C  
HETATM   17  O   UNL     1     -13.162  12.362  64.352  1.00  0.00    -0.816 OA 
HETATM   18  H   UNL     1     -14.019  12.439  63.948  1.00  0.00     0.000 HD 
ENDBRANCH  15  16
ENDBRANCH  14  15
ENDBRANCH  13  14
ENDBRANCH  12  13
ENDBRANCH  11  12
ENDBRANCH  10  11
ENDBRANCH   9  10
ENDBRANCH   8   9
ENDBRANCH   7   8
ENDBRANCH   6   7
ENDBRANCH   5   6
ENDBRANCH   4   5
ENDBRANCH   3   4
ENDBRANCH   2   3
TORSDOF 14
ENDMDL
MODEL      102
REMARK 921   NORMALIZED FREE ENERGY PREDICTED BY IDOCK:   -3.59 KCAL/MOL
REMARK 922        TOTAL FREE ENERGY PREDICTED BY IDOCK:   -7.91 KCAL/MOL
REMARK 923 INTER-LIGAND FREE ENERGY PREDICTED BY IDOCK:   -6.34 KCAL/MOL
REMARK 924 INTRA-LIGAND FREE ENERGY PREDICTED BY IDOCK:   -1.56 KCAL/MOL
REMARK 927      BINDING AFFINITY PREDICTED BY RF-SCORE:    0.00 PKD
ROOT
HETATM    1  C   UNL     1      -9.998   6.131  68.100  1.00  0.00    -0.158 C  
HETATM    2  C   UNL     1     -10.765   6.956  67.081  1.00  0.00    -0.436 C  
ENDROOT
BRANCH   2   3
HETATM    3  C   UNL     1     -10.435   8.442  67.212  1.00  0.00    -0.373 C  
BRANCH   3   4
HETATM    4  C   UNL     1      -9.501   8.903  66.096  1.00  0.00    -0.318 C  
BRANCH   4   5
HETATM    5  C   UNL     1      -9.986  10.216  65.485  1.00  0.00    -0.363 C  
BRANCH   5   6
HETATM    6  C   UNL     1      -9.307  10.482  64.146  1.00  0.00    -0.309 C  
BRANCH   6   7
HETATM    7  C   UNL     1      -9.973  11.649  63.421  1.00  0.00    -0.447 C  
BRANCH   7   8
HETATM    8  C   UNL     1     -11.475  11.675  63.693  1.00  0.00    -0.458 C  
BRANCH   8   9
HETATM    9  C   UNL     1     -12.040  13.077  63.486  1.00  0.00    -0.617 C  
BRANCH   9  10
HETATM   10  C   UNL     1     -12.112  13.834  64.808  1.00  0.00    -0.438 C  
BRANCH  10  11
HETATM   11  C   UNL     1     -11.212  15.067  64.781  1.00  0.00    -0.393 C  
BRANCH  11  12
HETATM   12  C   UNL     1     -10.364  15.149  66.047  1.00  0.00    -0.326 C  
BRANCH  12  13
HETATM   13  C   UNL     1      -9.808  13.778  66.424  1.00  0.00    -0.305 C  
BRANCH  13  14
HETATM   14  C   UNL     1      -9.689  13.635  67.940  1.00  0.00    -0.234 C  
BRANCH  14  15
HETATM   15  C   UNL     1     -11.044  13.332  68.573  1.00  0.00    -0.294 C  
BRANCH  15  16
HETATM   16  C   UNL     1     -11.213  11.843  68.835  1.00  0.00    -0.254 C  
HETATM   17  O   UNL     1     -12.280  11.335  68.049  1.00  0.00    -0.621 OA 
HETATM   18  H   UNL     1     -12.386  10.405  68.212  1.00  0.00     0.000 HD 
ENDBRANCH  15  16
ENDBRANCH  14  15
ENDBRANCH  13  14
ENDBRANCH  12  13
ENDBRANCH  11  12
ENDBRANCH  10  11
ENDBRANCH   9  10
ENDBRANCH   8   9
ENDBRANCH   7   8
ENDBRANCH   6   7
ENDBRANCH   5   6
ENDBRANCH   4   5
ENDBRANCH   3   4
ENDBRANCH   2   3
TORSDOF 14
ENDMDL
MODEL      103
REMARK 921   NORMALIZED FREE ENERGY PREDICTED BY IDOCK:   -3.59 KCAL/MOL
REMARK 922        TOTAL FREE ENERGY PREDICTED BY IDOCK:   -7.91 KCAL/MOL
REMARK 923 INTER-LIGAND FREE ENERGY PREDICTED BY IDOCK:   -6.50 KCAL/MOL
REMARK 924 INTRA-LIGAND FREE ENERGY PREDICTED BY IDOCK:   -1.40 KCAL/MOL
REMARK 927      BINDING AFFINITY PREDICTED BY RF-SCORE:    0.00 PKD
ROOT
HETATM    1  C   UNL     1      -8.012   8.766  71.307  1.00  0.00    -0.176 C  
HETATM    2  C   UNL     1      -8.906   7.625  71.762  1.00  0.00    -0.139 C  
ENDROOT
BRANCH   2   3
HETATM    3  C   UNL     1     -10.071   8.139  72.605  1.00  0.00    -0.379 C  
BRANCH   3   4
HETATM    4  C   UNL     1     -11.369   7.412  72.259  1.00  0.00    -0.323 C  
BRANCH   4   5
HETATM    5  C   UNL     1     -12.205   8.227  71.275  1.00  0.00    -0.295 C  
BRANCH   5   6
HETATM    6  C   UNL     1     -11.962   9.722  71.455  1.00  0.00    -0.488 C  
BRANCH   6   7
HETATM    7  C   UNL     1     -11.823  10.417  70.103  1.00  0.00    -0.379 C  
BRANCH   7   8
HETATM    8  C   UNL     1     -10.790   9.711  69.230  1.00  0.00    -0.227 C  
BRANCH   8   9
HETATM    9  C   UNL     1      -9.973  10.722  68.429  1.00  0.00    -0.174 C  
BRANCH   9  10
HETATM   10  C   UNL     1     -10.809  11.953  68.096  1.00  0.00    -0.259 C  
BRANCH  10  11
HETATM   11  C   UNL     1      -9.919  13.170  67.860  1.00  0.00    -0.233 C  
BRANCH  11  12
HETATM   12  C   UNL     1     -10.615  14.188  66.961  1.00  0.00    -0.276 C  
BRANCH  12  13
HETATM   13  C   UNL     1     -12.130  14.002  66.993  1.00  0.00    -0.455 C  
BRANCH  13  14
HETATM   14  C   UNL     1     -12.711  14.009  65.581  1.00  0.00    -0.515 C  
BRANCH  14  15
HETATM   15  C   UNL     1     -12.651  12.619  64.954  1.00  0.00    -0.525 C  
BRANCH  15  16
HETATM   16  C   UNL     1     -12.125  12.676  63.528  1.00  0.00    -0.561 C  
HETATM   17  O   UNL     1     -12.374  13.959  62.974  1.00  0.00    -1.101 OA 
HETATM   18  H   UNL     1     -12.046  13.995  62.083  1.00  0.00     0.000 HD 
ENDBRANCH  15  16
ENDBRANCH  14  15
ENDBRANCH  13  14
ENDBRANCH  12  13
ENDBRANCH  11  12
ENDBRANCH  10  11
ENDBRANCH   9  10
ENDBRANCH   8   9
ENDBRANCH   7   8
ENDBRANCH   6   7
ENDBRANCH   5   6
ENDBRANCH   4   5
ENDBRANCH   3   4
ENDBRANCH   2   3
TORSDOF 14
ENDMDL
MODEL      104
REMARK 921   NORMALIZED FREE ENERGY PREDICTED BY IDOCK:   -3.59 KCAL/MOL
REMARK 922        TOTAL FREE ENERGY PREDICTED BY IDOCK:   -7.90 KCAL/MOL
REMARK 923 INTER-LIGAND FREE ENERGY PREDICTED BY IDOCK:   -6.87 KCAL/MOL
REMARK 924 INTRA-LIGAND FREE ENERGY PREDICTED BY IDOCK:   -1.03 KCAL/MOL
REMARK 927      BINDING AFFINITY PREDICTED BY RF-SCORE:    0.00 PKD
ROOT
HETATM    1  C   UNL     1     -11.285  15.097  64.971  1.00  0.00    -0.414 C  
HETATM    2  C   UNL     1     -12.302  13.969  64.948  1.00  0.00    -0.447 C  
ENDROOT
BRANCH   2   3
HETATM    3  C   UNL     1     -12.394  13.336  63.561  1.00  0.00    -0.442 C  
BRANCH   3   4
HETATM    4  C   UNL     1     -12.043  11.851  63.605  1.00  0.00    -0.580 C  
BRANCH   4   5
HETATM    5  C   UNL     1     -10.530  11.647  63.611  1.00  0.00    -0.483 C  
BRANCH   5   6
HETATM    6  C   UNL     1     -10.123  10.593  64.635  1.00  0.00    -0.417 C  
BRANCH   6   7
HETATM    7  C   UNL     1      -9.494  11.245  65.865  1.00  0.00    -0.247 C  
BRANCH   7   8
HETATM    8  C   UNL     1     -10.557  11.582  66.907  1.00  0.00    -0.284 C  
BRANCH   8   9
HETATM    9  C   UNL     1     -10.818  10.389  67.822  1.00  0.00    -0.351 C  
BRANCH   9  10
HETATM   10  C   UNL     1     -10.428  10.711  69.261  1.00  0.00    -0.252 C  
BRANCH  10  11
HETATM   11  C   UNL     1     -11.461  10.164  70.243  1.00  0.00    -0.381 C  
BRANCH  11  12
HETATM   12  C   UNL     1     -10.830   9.141  71.183  1.00  0.00    -0.381 C  
BRANCH  12  13
HETATM   13  C   UNL     1     -10.755   7.765  70.524  1.00  0.00    -0.238 C  
BRANCH  13  14
HETATM   14  C   UNL     1     -12.114   7.070  70.555  1.00  0.00    -0.278 C  
BRANCH  14  15
HETATM   15  C   UNL     1     -12.821   7.300  71.887  1.00  0.00    -0.299 C  
BRANCH  15  16
HETATM   16  C   UNL     1     -14.157   8.001  71.693  1.00  0.00    -0.431 C  
HETATM   17  O   UNL     1     -14.404   8.875  72.784  1.00  0.00    -0.949 OA 
HETATM   18  H   UNL     1     -15.239   9.313  72.663  1.00  0.00     0.000 HD 
ENDBRANCH  15  16
ENDBRANCH  14  15
ENDBRANCH  13  14
ENDBRANCH  12  13
ENDBRANCH  11  12
ENDBRANCH  10  11
ENDBRANCH   9  10
ENDBRANCH   8   9
ENDBRANCH   7   8
ENDBRANCH   6   7
ENDBRANCH   5   6
ENDBRANCH   4   5
ENDBRANCH   3   4
ENDBRANCH   2   3
TORSDOF 14
ENDMDL
MODEL      105
REMARK 921   NORMALIZED FREE ENERGY PREDICTED BY IDOCK:   -3.58 KCAL/MOL
REMARK 922        TOTAL FREE ENERGY PREDICTED BY IDOCK:   -7.90 KCAL/MOL
REMARK 923 INTER-LIGAND FREE ENERGY PREDICTED BY IDOCK:   -6.39 KCAL/MOL
REMARK 924 INTRA-LIGAND FREE ENERGY PREDICTED BY IDOCK:   -1.51 KCAL/MOL
REMARK 927      BINDING AFFINITY PREDICTED BY RF-SCORE:    0.00 PKD
ROOT
HETATM    1  C   UNL     1     -11.679   7.376  72.444  1.00  0.00    -0.306 C  
HETATM    2  C   UNL     1     -11.529   8.466  71.396  1.00  0.00    -0.328 C  
ENDROOT
BRANCH   2   3
HETATM    3  C   UNL     1     -10.118   9.051  71.407  1.00  0.00    -0.399 C  
BRANCH   3   4
HETATM    4  C   UNL     1      -9.491   9.014  70.015  1.00  0.00    -0.202 C  
BRANCH   4   5
HETATM    5  C   UNL     1     -10.564   9.081  68.931  1.00  0.00    -0.203 C  
BRANCH   5   6
HETATM    6  C   UNL     1     -10.215  10.127  67.878  1.00  0.00    -0.217 C  
BRANCH   6   7
HETATM    7  C   UNL     1     -11.332  11.160  67.745  1.00  0.00    -0.364 C  
BRANCH   7   8
HETATM    8  C   UNL     1     -11.993  11.425  69.095  1.00  0.00    -0.395 C  
BRANCH   8   9
HETATM    9  C   UNL     1     -11.772  12.869  69.534  1.00  0.00    -0.387 C  
BRANCH   9  10
HETATM   10  C   UNL     1     -11.896  13.822  68.349  1.00  0.00    -0.411 C  
BRANCH  10  11
HETATM   11  C   UNL     1     -10.771  14.853  68.357  1.00  0.00    -0.245 C  
BRANCH  11  12
HETATM   12  C   UNL     1      -9.719  14.519  67.302  1.00  0.00    -0.232 C  
BRANCH  12  13
HETATM   13  C   UNL     1      -9.739  15.539  66.166  1.00  0.00    -0.348 C  
BRANCH  13  14
HETATM   14  C   UNL     1     -10.689  15.099  65.054  1.00  0.00    -0.451 C  
BRANCH  14  15
HETATM   15  C   UNL     1     -10.655  13.585  64.867  1.00  0.00    -0.409 C  
BRANCH  15  16
HETATM   16  C   UNL     1     -11.982  13.060  64.342  1.00  0.00    -0.397 C  
HETATM   17  O   UNL     1     -12.356  13.780  63.177  1.00  0.00    -1.099 OA 
HETATM   18  H   UNL     1     -13.186  13.452  62.849  1.00  0.00     0.000 HD 
ENDBRANCH  15  16
ENDBRANCH  14  15
ENDBRANCH  13  14
ENDBRANCH  12  13
ENDBRANCH  11  12
ENDBRANCH  10  11
ENDBRANCH   9  10
ENDBRANCH   8   9
ENDBRANCH   7   8
ENDBRANCH   6   7
ENDBRANCH   5   6
ENDBRANCH   4   5
ENDBRANCH   3   4
ENDBRANCH   2   3
TORSDOF 14
ENDMDL
MODEL      106
REMARK 921   NORMALIZED FREE ENERGY PREDICTED BY IDOCK:   -3.58 KCAL/MOL
REMARK 922        TOTAL FREE ENERGY PREDICTED BY IDOCK:   -7.89 KCAL/MOL
REMARK 923 INTER-LIGAND FREE ENERGY PREDICTED BY IDOCK:   -6.34 KCAL/MOL
REMARK 924 INTRA-LIGAND FREE ENERGY PREDICTED BY IDOCK:   -1.55 KCAL/MOL
REMARK 927      BINDING AFFINITY PREDICTED BY RF-SCORE:    0.00 PKD
ROOT
HETATM    1  C   UNL     1     -10.826   7.248  73.268  1.00  0.00    -0.404 C  
HETATM    2  C   UNL     1     -10.274   8.391  72.434  1.00  0.00    -0.399 C  
ENDROOT
BRANCH   2   3
HETATM    3  C   UNL     1     -11.387   9.104  71.669  1.00  0.00    -0.446 C  
BRANCH   3   4
HETATM    4  C   UNL     1     -10.990   9.354  70.216  1.00  0.00    -0.305 C  
BRANCH   4   5
HETATM    5  C   UNL     1     -10.783   8.036  69.473  1.00  0.00    -0.185 C  
BRANCH   5   6
HETATM    6  C   UNL     1     -10.414   8.282  68.013  1.00  0.00    -0.239 C  
BRANCH   6   7
HETATM    7  C   UNL     1     -10.779   9.703  67.591  1.00  0.00    -0.324 C  
BRANCH   7   8
HETATM    8  C   UNL     1     -10.010  10.116  66.339  1.00  0.00    -0.295 C  
BRANCH   8   9
HETATM    9  C   UNL     1      -9.393  11.500  66.512  1.00  0.00    -0.210 C  
BRANCH   9  10
HETATM   10  C   UNL     1      -9.530  11.980  67.953  1.00  0.00    -0.196 C  
BRANCH  10  11
HETATM   11  C   UNL     1     -10.103  13.394  68.006  1.00  0.00    -0.241 C  
BRANCH  11  12
HETATM   12  C   UNL     1     -11.617  13.375  67.819  1.00  0.00    -0.375 C  
BRANCH  12  13
HETATM   13  C   UNL     1     -12.035  14.251  66.640  1.00  0.00    -0.454 C  
BRANCH  13  14
HETATM   14  C   UNL     1     -12.749  13.426  65.572  1.00  0.00    -0.469 C  
BRANCH  14  15
HETATM   15  C   UNL     1     -11.856  13.212  64.354  1.00  0.00    -0.441 C  
BRANCH  15  16
HETATM   16  C   UNL     1     -12.429  12.151  63.426  1.00  0.00    -0.512 C  
HETATM   17  O   UNL     1     -11.394  11.282  62.993  1.00  0.00    -0.847 OA 
HETATM   18  H   UNL     1     -11.752  10.619  62.413  1.00  0.00     0.000 HD 
ENDBRANCH  15  16
ENDBRANCH  14  15
ENDBRANCH  13  14
ENDBRANCH  12  13
ENDBRANCH  11  12
ENDBRANCH  10  11
ENDBRANCH   9  10
ENDBRANCH   8   9
ENDBRANCH   7   8
ENDBRANCH   6   7
ENDBRANCH   5   6
ENDBRANCH   4   5
ENDBRANCH   3   4
ENDBRANCH   2   3
TORSDOF 14
ENDMDL
MODEL      107
REMARK 921   NORMALIZED FREE ENERGY PREDICTED BY IDOCK:   -3.57 KCAL/MOL
REMARK 922        TOTAL FREE ENERGY PREDICTED BY IDOCK:   -7.88 KCAL/MOL
REMARK 923 INTER-LIGAND FREE ENERGY PREDICTED BY IDOCK:   -7.01 KCAL/MOL
REMARK 924 INTRA-LIGAND FREE ENERGY PREDICTED BY IDOCK:   -0.87 KCAL/MOL
REMARK 927      BINDING AFFINITY PREDICTED BY RF-SCORE:    0.00 PKD
ROOT
HETATM    1  C   UNL     1      -8.632   7.900  74.034  1.00  0.00    -0.322 C  
HETATM    2  C   UNL     1      -9.885   7.050  73.909  1.00  0.00    -0.354 C  
ENDROOT
BRANCH   2   3
HETATM    3  C   UNL     1     -10.893   7.689  72.956  1.00  0.00    -0.457 C  
BRANCH   3   4
HETATM    4  C   UNL     1     -10.198   8.592  71.939  1.00  0.00    -0.404 C  
BRANCH   4   5
HETATM    5  C   UNL     1     -11.220   9.344  71.089  1.00  0.00    -0.427 C  
BRANCH   5   6
HETATM    6  C   UNL     1     -12.418   9.777  71.927  1.00  0.00    -0.451 C  
BRANCH   6   7
HETATM    7  C   UNL     1     -12.910  11.158  71.501  1.00  0.00    -0.542 C  
BRANCH   7   8
HETATM    8  C   UNL     1     -12.067  11.708  70.354  1.00  0.00    -0.462 C  
BRANCH   8   9
HETATM    9  C   UNL     1     -12.084  13.234  70.350  1.00  0.00    -0.401 C  
BRANCH   9  10
HETATM   10  C   UNL     1     -12.204  13.772  68.928  1.00  0.00    -0.235 C  
BRANCH  10  11
HETATM   11  C   UNL     1     -12.004  15.285  68.898  1.00  0.00    -0.292 C  
BRANCH  11  12
HETATM   12  C   UNL     1     -10.907  15.670  67.910  1.00  0.00    -0.306 C  
BRANCH  12  13
HETATM   13  C   UNL     1     -10.666  14.554  66.896  1.00  0.00    -0.288 C  
BRANCH  13  14
HETATM   14  C   UNL     1     -10.692  15.097  65.469  1.00  0.00    -0.379 C  
BRANCH  14  15
HETATM   15  C   UNL     1     -11.539  14.212  64.559  1.00  0.00    -0.400 C  
BRANCH  15  16
HETATM   16  C   UNL     1     -12.284  13.151  65.353  1.00  0.00    -0.461 C  
HETATM   17  O   UNL     1     -13.058  12.348  64.475  1.00  0.00    -0.823 OA 
HETATM   18  H   UNL     1     -13.524  11.685  64.971  1.00  0.00     0.000 HD 
ENDBRANCH  15  16
ENDBRANCH  14  15
ENDBRANCH  13  14
ENDBRANCH  12  13
ENDBRANCH  11  12
ENDBRANCH  10  11
ENDBRANCH   9  10
ENDBRANCH   8   9
ENDBRANCH   7   8
ENDBRANCH   6   7
ENDBRANCH   5   6
ENDBRANCH   4   5
ENDBRANCH   3   4
ENDBRANCH   2   3
TORSDOF 14
ENDMDL
MODEL      108
REMARK 921   NORMALIZED FREE ENERGY PREDICTED BY IDOCK:   -3.57 KCAL/MOL
REMARK 922        TOTAL FREE ENERGY PREDICTED BY IDOCK:   -7.88 KCAL/MOL
REMARK 923 INTER-LIGAND FREE ENERGY PREDICTED BY IDOCK:   -5.59 KCAL/MOL
REMARK 924 INTRA-LIGAND FREE ENERGY PREDICTED BY IDOCK:   -2.29 KCAL/MOL
REMARK 927      BINDING AFFINITY PREDICTED BY RF-SCORE:    0.00 PKD
ROOT
HETATM    1  C   UNL     1      -7.646  14.598  67.331  1.00  0.00    -0.218 C  
HETATM    2  C   UNL     1      -8.275  13.334  67.893  1.00  0.00    -0.163 C  
ENDROOT
BRANCH   2   3
HETATM    3  C   UNL     1      -8.503  12.296  66.797  1.00  0.00    -0.119 C  
BRANCH   3   4
HETATM    4  C   UNL     1      -9.561  11.276  67.210  1.00  0.00    -0.188 C  
BRANCH   4   5
HETATM    5  C   UNL     1     -10.504  10.966  66.050  1.00  0.00    -0.287 C  
BRANCH   5   6
HETATM    6  C   UNL     1      -9.809  11.174  64.708  1.00  0.00    -0.326 C  
BRANCH   6   7
HETATM    7  C   UNL     1     -10.676  12.009  63.770  1.00  0.00    -0.478 C  
BRANCH   7   8
HETATM    8  C   UNL     1     -11.677  12.852  64.556  1.00  0.00    -0.416 C  
BRANCH   8   9
HETATM    9  C   UNL     1     -11.272  14.323  64.549  1.00  0.00    -0.331 C  
BRANCH   9  10
HETATM   10  C   UNL     1     -11.170  14.865  65.971  1.00  0.00    -0.327 C  
BRANCH  10  11
HETATM   11  C   UNL     1     -12.159  14.162  66.897  1.00  0.00    -0.466 C  
BRANCH  11  12
HETATM   12  C   UNL     1     -11.695  14.238  68.349  1.00  0.00    -0.373 C  
BRANCH  12  13
HETATM   13  C   UNL     1     -11.970  12.927  69.081  1.00  0.00    -0.308 C  
BRANCH  13  14
HETATM   14  C   UNL     1     -11.714  13.074  70.580  1.00  0.00    -0.012 C  
BRANCH  14  15
HETATM   15  C   UNL     1     -12.995  13.438  71.324  1.00  0.00    -0.368 C  
BRANCH  15  16
HETATM   16  C   UNL     1     -13.058  14.927  71.626  1.00  0.00    -0.341 C  
HETATM   17  O   UNL     1     -13.856  15.581  70.652  1.00  0.00    -0.864 OA 
HETATM   18  H   UNL     1     -13.896  16.512  70.840  1.00  0.00     0.000 HD 
ENDBRANCH  15  16
ENDBRANCH  14  15
ENDBRANCH  13  14
ENDBRANCH  12  13
ENDBRANCH  11  12
ENDBRANCH  10  11
ENDBRANCH   9  10
ENDBRANCH   8   9
ENDBRANCH   7   8
ENDBRANCH   6   7
ENDBRANCH   5   6
ENDBRANCH   4   5
ENDBRANCH   3   4
ENDBRANCH   2   3
TORSDOF 14
ENDMDL
MODEL      109
REMARK 921   NORMALIZED FREE ENERGY PREDICTED BY IDOCK:   -3.57 KCAL/MOL
REMARK 922        TOTAL FREE ENERGY PREDICTED BY IDOCK:   -7.88 KCAL/MOL
REMARK 923 INTER-LIGAND FREE ENERGY PREDICTED BY IDOCK:   -5.68 KCAL/MOL
REMARK 924 INTRA-LIGAND FREE ENERGY PREDICTED BY IDOCK:   -2.19 KCAL/MOL
REMARK 927      BINDING AFFINITY PREDICTED BY RF-SCORE:    0.00 PKD
ROOT
HETATM    1  C   UNL     1      -7.771  13.886  67.413  1.00  0.00    -0.165 C  
HETATM    2  C   UNL     1      -8.280  12.515  67.825  1.00  0.00    -0.166 C  
ENDROOT
BRANCH   2   3
HETATM    3  C   UNL     1      -8.283  11.549  66.642  1.00  0.00    -0.156 C  
BRANCH   3   4
HETATM    4  C   UNL     1      -9.279  10.412  66.857  1.00  0.00    -0.170 C  
BRANCH   4   5
HETATM    5  C   UNL     1     -10.065  10.126  65.580  1.00  0.00    -0.338 C  
BRANCH   5   6
HETATM    6  C   UNL     1      -9.284  10.564  64.345  1.00  0.00    -0.281 C  
BRANCH   6   7
HETATM    7  C   UNL     1     -10.149  11.431  63.433  1.00  0.00    -0.444 C  
BRANCH   7   8
HETATM    8  C   UNL     1     -11.291  12.075  64.214  1.00  0.00    -0.433 C  
BRANCH   8   9
HETATM    9  C   UNL     1     -11.079  13.581  64.343  1.00  0.00    -0.397 C  
BRANCH   9  10
HETATM   10  C   UNL     1     -11.102  14.010  65.806  1.00  0.00    -0.305 C  
BRANCH  10  11
HETATM   11  C   UNL     1     -12.046  13.129  66.619  1.00  0.00    -0.409 C  
BRANCH  11  12
HETATM   12  C   UNL     1     -11.639  13.107  68.090  1.00  0.00    -0.375 C  
BRANCH  12  13
HETATM   13  C   UNL     1     -11.842  11.719  68.694  1.00  0.00    -0.369 C  
BRANCH  13  14
HETATM   14  C   UNL     1     -11.501  11.716  70.182  1.00  0.00    -0.206 C  
BRANCH  14  15
HETATM   15  C   UNL     1     -11.943  10.415  70.846  1.00  0.00    -0.478 C  
BRANCH  15  16
HETATM   16  C   UNL     1     -13.252  10.594  71.601  1.00  0.00    -0.392 C  
HETATM   17  O   UNL     1     -13.325   9.655  72.663  1.00  0.00    -0.599 OA 
HETATM   18  H   UNL     1     -14.143   9.766  73.135  1.00  0.00     0.000 HD 
ENDBRANCH  15  16
ENDBRANCH  14  15
ENDBRANCH  13  14
ENDBRANCH  12  13
ENDBRANCH  11  12
ENDBRANCH  10  11
ENDBRANCH   9  10
ENDBRANCH   8   9
ENDBRANCH   7   8
ENDBRANCH   6   7
ENDBRANCH   5   6
ENDBRANCH   4   5
ENDBRANCH   3   4
ENDBRANCH   2   3
TORSDOF 14
ENDMDL
MODEL      110
REMARK 921   NORMALIZED FREE ENERGY PREDICTED BY IDOCK:   -3.57 KCAL/MOL
REMARK 922        TOTAL FREE ENERGY PREDICTED BY IDOCK:   -7.87 KCAL/MOL
REMARK 923 INTER-LIGAND FREE ENERGY PREDICTED BY IDOCK:   -6.61 KCAL/MOL
REMARK 924 INTRA-LIGAND FREE ENERGY PREDICTED BY IDOCK:   -1.26 KCAL/MOL
REMARK 927      BINDING AFFINITY PREDICTED BY RF-SCORE:    0.00 PKD
ROOT
HETATM    1  C   UNL     1     -13.803   9.027  72.259  1.00  0.00    -0.547 C  
HETATM    2  C   UNL     1     -12.582   8.179  72.573  1.00  0.00    -0.200 C  
ENDROOT
BRANCH   2   3
HETATM    3  C   UNL     1     -11.312   8.808  72.004  1.00  0.00    -0.441 C  
BRANCH   3   4
HETATM    4  C   UNL     1     -11.480   9.161  70.528  1.00  0.00    -0.271 C  
BRANCH   4   5
HETATM    5  C   UNL     1     -10.993  10.580  70.247  1.00  0.00    -0.306 C  
BRANCH   5   6
HETATM    6  C   UNL     1     -12.159  11.504  69.912  1.00  0.00    -0.389 C  
BRANCH   6   7
HETATM    7  C   UNL     1     -12.449  12.457  71.069  1.00  0.00    -0.353 C  
BRANCH   7   8
HETATM    8  C   UNL     1     -12.098  13.894  70.694  1.00  0.00    -0.417 C  
BRANCH   8   9
HETATM    9  C   UNL     1     -12.490  14.190  69.249  1.00  0.00    -0.059 C  
BRANCH   9  10
HETATM   10  C   UNL     1     -11.692  15.368  68.700  1.00  0.00    -0.371 C  
BRANCH  10  11
HETATM   11  C   UNL     1     -10.223  15.269  69.102  1.00  0.00    -0.242 C  
BRANCH  11  12
HETATM   12  C   UNL     1      -9.421  16.432  68.526  1.00  0.00    -0.227 C  
BRANCH  12  13
HETATM   13  C   UNL     1     -10.207  17.150  67.431  1.00  0.00    -0.321 C  
BRANCH  13  14
HETATM   14  C   UNL     1      -9.535  16.972  66.071  1.00  0.00    -0.195 C  
BRANCH  14  15
HETATM   15  C   UNL     1      -9.818  15.588  65.494  1.00  0.00    -0.348 C  
BRANCH  15  16
HETATM   16  C   UNL     1     -11.250  15.477  64.992  1.00  0.00    -0.358 C  
HETATM   17  O   UNL     1     -11.446  16.362  63.900  1.00  0.00    -1.569 OA 
HETATM   18  H   UNL     1     -12.340  16.294  63.587  1.00  0.00     0.000 HD 
ENDBRANCH  15  16
ENDBRANCH  14  15
ENDBRANCH  13  14
ENDBRANCH  12  13
ENDBRANCH  11  12
ENDBRANCH  10  11
ENDBRANCH   9  10
ENDBRANCH   8   9
ENDBRANCH   7   8
ENDBRANCH   6   7
ENDBRANCH   5   6
ENDBRANCH   4   5
ENDBRANCH   3   4
ENDBRANCH   2   3
TORSDOF 14
ENDMDL
MODEL      111
REMARK 921   NORMALIZED FREE ENERGY PREDICTED BY IDOCK:   -3.56 KCAL/MOL
REMARK 922        TOTAL FREE ENERGY PREDICTED BY IDOCK:   -7.86 KCAL/MOL
REMARK 923 INTER-LIGAND FREE ENERGY PREDICTED BY IDOCK:   -6.50 KCAL/MOL
REMARK 924 INTRA-LIGAND FREE ENERGY PREDICTED BY IDOCK:   -1.36 KCAL/MOL
REMARK 927      BINDING AFFINITY PREDICTED BY RF-SCORE:    0.00 PKD
ROOT
HETATM    1  C   UNL     1     -12.678   9.347  71.682  1.00  0.00    -0.459 C  
HETATM    2  C   UNL     1     -12.036  10.489  70.912  1.00  0.00    -0.487 C  
ENDROOT
BRANCH   2   3
HETATM    3  C   UNL     1     -11.136   9.964  69.795  1.00  0.00    -0.294 C  
BRANCH   3   4
HETATM    4  C   UNL     1     -11.378  10.716  68.489  1.00  0.00    -0.348 C  
BRANCH   4   5
HETATM    5  C   UNL     1     -11.361  12.226  68.716  1.00  0.00    -0.337 C  
BRANCH   5   6
HETATM    6  C   UNL     1     -12.027  12.963  67.559  1.00  0.00    -0.354 C  
BRANCH   6   7
HETATM    7  C   UNL     1     -11.625  12.349  66.220  1.00  0.00    -0.449 C  
BRANCH   7   8
HETATM    8  C   UNL     1     -12.609  12.741  65.122  1.00  0.00    -0.513 C  
BRANCH   8   9
HETATM    9  C   UNL     1     -12.010  13.807  64.210  1.00  0.00    -0.481 C  
BRANCH   9  10
HETATM   10  C   UNL     1     -10.573  14.122  64.612  1.00  0.00    -0.391 C  
BRANCH  10  11
HETATM   11  C   UNL     1     -10.460  15.536  65.176  1.00  0.00    -0.431 C  
BRANCH  11  12
HETATM   12  C   UNL     1      -9.376  15.610  66.248  1.00  0.00    -0.358 C  
BRANCH  12  13
HETATM   13  C   UNL     1      -9.689  16.701  67.269  1.00  0.00    -0.245 C  
BRANCH  13  14
HETATM   14  C   UNL     1     -10.997  16.406  68.000  1.00  0.00    -0.327 C  
BRANCH  14  15
HETATM   15  C   UNL     1     -10.739  15.988  69.444  1.00  0.00    -0.294 C  
BRANCH  15  16
HETATM   16  C   UNL     1     -12.040  15.819  70.214  1.00  0.00    -0.347 C  
HETATM   17  O   UNL     1     -11.774  15.807  71.608  1.00  0.00    -0.381 OA 
HETATM   18  H   UNL     1     -12.587  15.701  72.090  1.00  0.00     0.000 HD 
ENDBRANCH  15  16
ENDBRANCH  14  15
ENDBRANCH  13  14
ENDBRANCH  12  13
ENDBRANCH  11  12
ENDBRANCH  10  11
ENDBRANCH   9  10
ENDBRANCH   8   9
ENDBRANCH   7   8
ENDBRANCH   6   7
ENDBRANCH   5   6
ENDBRANCH   4   5
ENDBRANCH   3   4
ENDBRANCH   2   3
TORSDOF 14
ENDMDL
MODEL      112
REMARK 921   NORMALIZED FREE ENERGY PREDICTED BY IDOCK:   -3.55 KCAL/MOL
REMARK 922        TOTAL FREE ENERGY PREDICTED BY IDOCK:   -7.84 KCAL/MOL
REMARK 923 INTER-LIGAND FREE ENERGY PREDICTED BY IDOCK:   -6.66 KCAL/MOL
REMARK 924 INTRA-LIGAND FREE ENERGY PREDICTED BY IDOCK:   -1.18 KCAL/MOL
REMARK 927      BINDING AFFINITY PREDICTED BY RF-SCORE:    0.00 PKD
ROOT
HETATM    1  C   UNL     1     -12.285  12.434  63.627  1.00  0.00    -0.653 C  
HETATM    2  C   UNL     1     -12.220  12.468  65.144  1.00  0.00    -0.509 C  
ENDROOT
BRANCH   2   3
HETATM    3  C   UNL     1     -12.608  13.842  65.684  1.00  0.00    -0.553 C  
BRANCH   3   4
HETATM    4  C   UNL     1     -12.003  14.088  67.064  1.00  0.00    -0.472 C  
BRANCH   4   5
HETATM    5  C   UNL     1     -10.949  13.034  67.394  1.00  0.00    -0.284 C  
BRANCH   5   6
HETATM    6  C   UNL     1     -10.929  12.726  68.887  1.00  0.00    -0.275 C  
BRANCH   6   7
HETATM    7  C   UNL     1     -11.507  11.340  69.165  1.00  0.00    -0.364 C  
BRANCH   7   8
HETATM    8  C   UNL     1     -12.475  11.379  70.344  1.00  0.00    -0.345 C  
BRANCH   8   9
HETATM    9  C   UNL     1     -12.220  10.213  71.295  1.00  0.00    -0.496 C  
BRANCH   9  10
HETATM   10  C   UNL     1     -10.951   9.462  70.906  1.00  0.00    -0.391 C  
BRANCH  10  11
HETATM   11  C   UNL     1     -11.241   7.981  70.677  1.00  0.00    -0.266 C  
BRANCH  11  12
HETATM   12  C   UNL     1     -10.288   7.393  69.640  1.00  0.00    -0.226 C  
BRANCH  12  13
HETATM   13  C   UNL     1     -10.999   6.365  68.763  1.00  0.00    -0.404 C  
BRANCH  13  14
HETATM   14  C   UNL     1     -10.935   6.766  67.291  1.00  0.00    -0.433 C  
BRANCH  14  15
HETATM   15  C   UNL     1     -10.469   8.210  67.133  1.00  0.00    -0.396 C  
BRANCH  15  16
HETATM   16  C   UNL     1      -9.406   8.335  66.052  1.00  0.00    -0.149 C  
HETATM   17  O   UNL     1      -9.814   9.290  65.085  1.00  0.00    -0.441 OA 
HETATM   18  H   UNL     1      -9.151   9.368  64.409  1.00  0.00     0.000 HD 
ENDBRANCH  15  16
ENDBRANCH  14  15
ENDBRANCH  13  14
ENDBRANCH  12  13
ENDBRANCH  11  12
ENDBRANCH  10  11
ENDBRANCH   9  10
ENDBRANCH   8   9
ENDBRANCH   7   8
ENDBRANCH   6   7
ENDBRANCH   5   6
ENDBRANCH   4   5
ENDBRANCH   3   4
ENDBRANCH   2   3
TORSDOF 14
ENDMDL
MODEL      113
REMARK 921   NORMALIZED FREE ENERGY PREDICTED BY IDOCK:   -3.55 KCAL/MOL
REMARK 922        TOTAL FREE ENERGY PREDICTED BY IDOCK:   -7.83 KCAL/MOL
REMARK 923 INTER-LIGAND FREE ENERGY PREDICTED BY IDOCK:   -6.55 KCAL/MOL
REMARK 924 INTRA-LIGAND FREE ENERGY PREDICTED BY IDOCK:   -1.28 KCAL/MOL
REMARK 927      BINDING AFFINITY PREDICTED BY RF-SCORE:    0.00 PKD
ROOT
HETATM    1  C   UNL     1     -11.542  11.971  63.654  1.00  0.00    -0.578 C  
HETATM    2  C   UNL     1     -11.957  12.620  64.963  1.00  0.00    -0.467 C  
ENDROOT
BRANCH   2   3
HETATM    3  C   UNL     1     -12.286  14.098  64.767  1.00  0.00    -0.457 C  
BRANCH   3   4
HETATM    4  C   UNL     1     -11.363  14.987  65.597  1.00  0.00    -0.297 C  
BRANCH   4   5
HETATM    5  C   UNL     1     -10.865  14.250  66.838  1.00  0.00    -0.298 C  
BRANCH   5   6
HETATM    6  C   UNL     1     -11.397  14.897  68.112  1.00  0.00    -0.326 C  
BRANCH   6   7
HETATM    7  C   UNL     1     -11.788  13.837  69.139  1.00  0.00    -0.398 C  
BRANCH   7   8
HETATM    8  C   UNL     1     -11.714  12.438  68.534  1.00  0.00    -0.373 C  
BRANCH   8   9
HETATM    9  C   UNL     1     -11.810  11.371  69.621  1.00  0.00    -0.431 C  
BRANCH   9  10
HETATM   10  C   UNL     1     -12.446  11.938  70.885  1.00  0.00    -0.397 C  
BRANCH  10  11
HETATM   11  C   UNL     1     -13.060  10.828  71.734  1.00  0.00    -0.573 C  
BRANCH  11  12
HETATM   12  C   UNL     1     -12.644   9.454  71.217  1.00  0.00    -0.403 C  
BRANCH  12  13
HETATM   13  C   UNL     1     -12.118   8.578  72.352  1.00  0.00    -0.436 C  
BRANCH  13  14
HETATM   14  C   UNL     1     -10.603   8.412  72.257  1.00  0.00    -0.412 C  
BRANCH  14  15
HETATM   15  C   UNL     1     -10.168   8.141  70.820  1.00  0.00    -0.215 C  
BRANCH  15  16
HETATM   16  C   UNL     1      -8.671   8.349  70.645  1.00  0.00    -0.146 C  
HETATM   17  O   UNL     1      -8.324   9.675  71.012  1.00  0.00    -0.345 OA 
HETATM   18  H   UNL     1      -7.389   9.805  70.903  1.00  0.00     0.000 HD 
ENDBRANCH  15  16
ENDBRANCH  14  15
ENDBRANCH  13  14
ENDBRANCH  12  13
ENDBRANCH  11  12
ENDBRANCH  10  11
ENDBRANCH   9  10
ENDBRANCH   8   9
ENDBRANCH   7   8
ENDBRANCH   6   7
ENDBRANCH   5   6
ENDBRANCH   4   5
ENDBRANCH   3   4
ENDBRANCH   2   3
TORSDOF 14
ENDMDL
MODEL      114
REMARK 921   NORMALIZED FREE ENERGY PREDICTED BY IDOCK:   -3.54 KCAL/MOL
REMARK 922        TOTAL FREE ENERGY PREDICTED BY IDOCK:   -7.82 KCAL/MOL
REMARK 923 INTER-LIGAND FREE ENERGY PREDICTED BY IDOCK:   -6.16 KCAL/MOL
REMARK 924 INTRA-LIGAND FREE ENERGY PREDICTED BY IDOCK:   -1.66 KCAL/MOL
REMARK 927      BINDING AFFINITY PREDICTED BY RF-SCORE:    0.00 PKD
ROOT
HETATM    1  C   UNL     1     -10.053   5.993  67.785  1.00  0.00    -0.185 C  
HETATM    2  C   UNL     1     -10.906   7.021  67.063  1.00  0.00    -0.413 C  
ENDROOT
BRANCH   2   3
HETATM    3  C   UNL     1     -10.161   8.345  66.907  1.00  0.00    -0.364 C  
BRANCH   3   4
HETATM    4  C   UNL     1      -8.845   8.336  67.682  1.00  0.00    -0.137 C  
BRANCH   4   5
HETATM    5  C   UNL     1      -8.665   9.632  68.468  1.00  0.00    -0.120 C  
BRANCH   5   6
HETATM    6  C   UNL     1      -8.773   9.384  69.969  1.00  0.00    -0.227 C  
BRANCH   6   7
HETATM    7  C   UNL     1     -10.176   8.912  70.343  1.00  0.00    -0.236 C  
BRANCH   7   8
HETATM    8  C   UNL     1     -10.898   9.961  71.184  1.00  0.00    -0.226 C  
BRANCH   8   9
HETATM    9  C   UNL     1     -12.002  10.638  70.377  1.00  0.00    -0.436 C  
BRANCH   9  10
HETATM   10  C   UNL     1     -11.740  12.135  70.248  1.00  0.00    -0.240 C  
BRANCH  10  11
HETATM   11  C   UNL     1     -11.112  12.466  68.897  1.00  0.00    -0.307 C  
BRANCH  11  12
HETATM   12  C   UNL     1     -11.560  11.472  67.830  1.00  0.00    -0.338 C  
BRANCH  12  13
HETATM   13  C   UNL     1     -11.334  12.034  66.428  1.00  0.00    -0.411 C  
BRANCH  13  14
HETATM   14  C   UNL     1     -11.799  13.486  66.340  1.00  0.00    -0.435 C  
BRANCH  14  15
HETATM   15  C   UNL     1     -11.221  14.175  65.108  1.00  0.00    -0.337 C  
BRANCH  15  16
HETATM   16  C   UNL     1     -12.220  15.145  64.495  1.00  0.00    -0.267 C  
HETATM   17  O   UNL     1     -11.533  16.259  63.946  1.00  0.00    -1.484 OA 
HETATM   18  H   UNL     1     -12.157  16.865  63.563  1.00  0.00     0.000 HD 
ENDBRANCH  15  16
ENDBRANCH  14  15
ENDBRANCH  13  14
ENDBRANCH  12  13
ENDBRANCH  11  12
ENDBRANCH  10  11
ENDBRANCH   9  10
ENDBRANCH   8   9
ENDBRANCH   7   8
ENDBRANCH   6   7
ENDBRANCH   5   6
ENDBRANCH   4   5
ENDBRANCH   3   4
ENDBRANCH   2   3
TORSDOF 14
ENDMDL
MODEL      115
REMARK 921   NORMALIZED FREE ENERGY PREDICTED BY IDOCK:   -3.54 KCAL/MOL
REMARK 922        TOTAL FREE ENERGY PREDICTED BY IDOCK:   -7.82 KCAL/MOL
REMARK 923 INTER-LIGAND FREE ENERGY PREDICTED BY IDOCK:   -6.43 KCAL/MOL
REMARK 924 INTRA-LIGAND FREE ENERGY PREDICTED BY IDOCK:   -1.39 KCAL/MOL
REMARK 927      BINDING AFFINITY PREDICTED BY RF-SCORE:    0.00 PKD
ROOT
HETATM    1  C   UNL     1     -11.257   6.221  69.493  1.00  0.00    -0.500 C  
HETATM    2  C   UNL     1     -11.000   6.036  68.007  1.00  0.00    -0.340 C  
ENDROOT
BRANCH   2   3
HETATM    3  C   UNL     1     -10.485   7.326  67.372  1.00  0.00    -0.359 C  
BRANCH   3   4
HETATM    4  C   UNL     1     -10.276   8.416  68.420  1.00  0.00    -0.239 C  
BRANCH   4   5
HETATM    5  C   UNL     1     -10.168   9.791  67.764  1.00  0.00    -0.254 C  
BRANCH   5   6
HETATM    6  C   UNL     1     -10.246   9.681  66.244  1.00  0.00    -0.286 C  
BRANCH   6   7
HETATM    7  C   UNL     1      -9.534  10.856  65.577  1.00  0.00    -0.249 C  
BRANCH   7   8
HETATM    8  C   UNL     1      -9.453  10.658  64.066  1.00  0.00    -0.329 C  
BRANCH   8   9
HETATM    9  C   UNL     1     -10.157  11.794  63.330  1.00  0.00    -0.470 C  
BRANCH   9  10
HETATM   10  C   UNL     1     -11.642  11.827  63.676  1.00  0.00    -0.521 C  
BRANCH  10  11
HETATM   11  C   UNL     1     -12.242  13.200  63.382  1.00  0.00    -0.521 C  
BRANCH  11  12
HETATM   12  C   UNL     1     -12.233  14.077  64.631  1.00  0.00    -0.460 C  
BRANCH  12  13
HETATM   13  C   UNL     1     -12.408  13.235  65.893  1.00  0.00    -0.479 C  
BRANCH  13  14
HETATM   14  C   UNL     1     -11.873  13.972  67.119  1.00  0.00    -0.444 C  
BRANCH  14  15
HETATM   15  C   UNL     1     -11.909  13.080  68.356  1.00  0.00    -0.370 C  
BRANCH  15  16
HETATM   16  C   UNL     1     -11.750  13.894  69.632  1.00  0.00    -0.311 C  
HETATM   17  O   UNL     1     -12.546  13.330  70.663  1.00  0.00    -0.300 OA 
HETATM   18  H   UNL     1     -12.448  13.838  71.460  1.00  0.00     0.000 HD 
ENDBRANCH  15  16
ENDBRANCH  14  15
ENDBRANCH  13  14
ENDBRANCH  12  13
ENDBRANCH  11  12
ENDBRANCH  10  11
ENDBRANCH   9  10
ENDBRANCH   8   9
ENDBRANCH   7   8
ENDBRANCH   6   7
ENDBRANCH   5   6
ENDBRANCH   4   5
ENDBRANCH   3   4
ENDBRANCH   2   3
TORSDOF 14
ENDMDL
MODEL      116
REMARK 921   NORMALIZED FREE ENERGY PREDICTED BY IDOCK:   -3.53 KCAL/MOL
REMARK 922        TOTAL FREE ENERGY PREDICTED BY IDOCK:   -7.80 KCAL/MOL
REMARK 923 INTER-LIGAND FREE ENERGY PREDICTED BY IDOCK:   -5.70 KCAL/MOL
REMARK 924 INTRA-LIGAND FREE ENERGY PREDICTED BY IDOCK:   -2.10 KCAL/MOL
REMARK 927      BINDING AFFINITY PREDICTED BY RF-SCORE:    0.00 PKD
ROOT
HETATM    1  C   UNL     1     -10.883   5.070  73.567  1.00  0.00    -0.369 C  
HETATM    2  C   UNL     1     -10.343   6.443  73.930  1.00  0.00    -0.338 C  
ENDROOT
BRANCH   2   3
HETATM    3  C   UNL     1     -10.926   7.524  73.022  1.00  0.00    -0.443 C  
BRANCH   3   4
HETATM    4  C   UNL     1     -11.868   6.924  71.980  1.00  0.00    -0.345 C  
BRANCH   4   5
HETATM    5  C   UNL     1     -12.856   7.971  71.471  1.00  0.00    -0.331 C  
BRANCH   5   6
HETATM    6  C   UNL     1     -13.051   9.085  72.494  1.00  0.00    -0.450 C  
BRANCH   6   7
HETATM    7  C   UNL     1     -13.124  10.447  71.808  1.00  0.00    -0.567 C  
BRANCH   7   8
HETATM    8  C   UNL     1     -12.728  10.340  70.338  1.00  0.00    -0.243 C  
BRANCH   8   9
HETATM    9  C   UNL     1     -11.553  11.262  70.024  1.00  0.00    -0.404 C  
BRANCH   9  10
HETATM   10  C   UNL     1     -10.487  10.527  69.217  1.00  0.00    -0.258 C  
BRANCH  10  11
HETATM   11  C   UNL     1      -9.617   9.659  70.123  1.00  0.00    -0.300 C  
BRANCH  11  12
HETATM   12  C   UNL     1      -9.443   8.262  69.534  1.00  0.00    -0.162 C  
BRANCH  12  13
HETATM   13  C   UNL     1     -10.486   7.989  68.453  1.00  0.00    -0.205 C  
BRANCH  13  14
HETATM   14  C   UNL     1     -10.800   6.497  68.363  1.00  0.00    -0.357 C  
BRANCH  14  15
HETATM   15  C   UNL     1     -10.909   6.045  66.910  1.00  0.00    -0.396 C  
BRANCH  15  16
HETATM   16  C   UNL     1      -9.590   5.484  66.401  1.00  0.00    -0.158 C  
HETATM   17  O   UNL     1      -9.111   6.281  65.329  1.00  0.00    -0.371 OA 
HETATM   18  H   UNL     1      -8.286   5.931  65.011  1.00  0.00     0.000 HD 
ENDBRANCH  15  16
ENDBRANCH  14  15
ENDBRANCH  13  14
ENDBRANCH  12  13
ENDBRANCH  11  12
ENDBRANCH  10  11
ENDBRANCH   9  10
ENDBRANCH   8   9
ENDBRANCH   7   8
ENDBRANCH   6   7
ENDBRANCH   5   6
ENDBRANCH   4   5
ENDBRANCH   3   4
ENDBRANCH   2   3
TORSDOF 14
ENDMDL
MODEL      117
REMARK 921   NORMALIZED FREE ENERGY PREDICTED BY IDOCK:   -3.53 KCAL/MOL
REMARK 922        TOTAL FREE ENERGY PREDICTED BY IDOCK:   -7.80 KCAL/MOL
REMARK 923 INTER-LIGAND FREE ENERGY PREDICTED BY IDOCK:   -6.20 KCAL/MOL
REMARK 924 INTRA-LIGAND FREE ENERGY PREDICTED BY IDOCK:   -1.60 KCAL/MOL
REMARK 927      BINDING AFFINITY PREDICTED BY RF-SCORE:    0.00 PKD
ROOT
HETATM    1  C   UNL     1     -13.596   9.270  72.302  1.00  0.00    -0.544 C  
HETATM    2  C   UNL     1     -12.385   8.354  72.257  1.00  0.00    -0.436 C  
ENDROOT
BRANCH   2   3
HETATM    3  C   UNL     1     -12.612   7.183  71.305  1.00  0.00    -0.421 C  
BRANCH   3   4
HETATM    4  C   UNL     1     -11.296   6.497  70.944  1.00  0.00    -0.393 C  
BRANCH   4   5
HETATM    5  C   UNL     1     -11.269   6.111  69.467  1.00  0.00    -0.482 C  
BRANCH   5   6
HETATM    6  C   UNL     1      -9.883   5.627  69.053  1.00  0.00    -0.210 C  
BRANCH   6   7
HETATM    7  C   UNL     1      -8.794   6.511  69.656  1.00  0.00    -0.138 C  
BRANCH   7   8
HETATM    8  C   UNL     1      -8.434   7.654  68.712  1.00  0.00    -0.129 C  
BRANCH   8   9
HETATM    9  C   UNL     1      -8.756   9.004  69.346  1.00  0.00    -0.142 C  
BRANCH   9  10
HETATM   10  C   UNL     1     -10.107   9.522  68.864  1.00  0.00    -0.199 C  
BRANCH  10  11
HETATM   11  C   UNL     1     -10.772  10.389  69.929  1.00  0.00    -0.331 C  
BRANCH  11  12
HETATM   12  C   UNL     1     -12.054  11.021  69.395  1.00  0.00    -0.389 C  
BRANCH  12  13
HETATM   13  C   UNL     1     -11.743  12.206  68.484  1.00  0.00    -0.382 C  
BRANCH  13  14
HETATM   14  C   UNL     1     -11.295  13.418  69.298  1.00  0.00    -0.314 C  
BRANCH  14  15
HETATM   15  C   UNL     1     -12.301  13.745  70.398  1.00  0.00    -0.423 C  
BRANCH  15  16
HETATM   16  C   UNL     1     -12.555  15.242  70.492  1.00  0.00    -0.399 C  
HETATM   17  O   UNL     1     -13.937  15.483  70.701  1.00  0.00    -0.868 OA 
HETATM   18  H   UNL     1     -14.096  16.418  70.759  1.00  0.00     0.000 HD 
ENDBRANCH  15  16
ENDBRANCH  14  15
ENDBRANCH  13  14
ENDBRANCH  12  13
ENDBRANCH  11  12
ENDBRANCH  10  11
ENDBRANCH   9  10
ENDBRANCH   8   9
ENDBRANCH   7   8
ENDBRANCH   6   7
ENDBRANCH   5   6
ENDBRANCH   4   5
ENDBRANCH   3   4
ENDBRANCH   2   3
TORSDOF 14
ENDMDL
MODEL      118
REMARK 921   NORMALIZED FREE ENERGY PREDICTED BY IDOCK:   -3.52 KCAL/MOL
REMARK 922        TOTAL FREE ENERGY PREDICTED BY IDOCK:   -7.77 KCAL/MOL
REMARK 923 INTER-LIGAND FREE ENERGY PREDICTED BY IDOCK:   -6.38 KCAL/MOL
REMARK 924 INTRA-LIGAND FREE ENERGY PREDICTED BY IDOCK:   -1.39 KCAL/MOL
REMARK 927      BINDING AFFINITY PREDICTED BY RF-SCORE:    0.00 PKD
ROOT
HETATM    1  C   UNL     1     -10.113   6.465  70.743  1.00  0.00    -0.220 C  
HETATM    2  C   UNL     1     -11.583   6.588  70.380  1.00  0.00    -0.470 C  
ENDROOT
BRANCH   2   3
HETATM    3  C   UNL     1     -12.432   6.907  71.609  1.00  0.00    -0.418 C  
BRANCH   3   4
HETATM    4  C   UNL     1     -11.944   8.175  72.306  1.00  0.00    -0.434 C  
BRANCH   4   5
HETATM    5  C   UNL     1     -13.106   9.128  72.579  1.00  0.00    -0.445 C  
BRANCH   5   6
HETATM    6  C   UNL     1     -12.996  10.386  71.723  1.00  0.00    -0.580 C  
BRANCH   6   7
HETATM    7  C   UNL     1     -11.776  10.317  70.808  1.00  0.00    -0.453 C  
BRANCH   7   8
HETATM    8  C   UNL     1     -12.116  10.819  69.407  1.00  0.00    -0.315 C  
BRANCH   8   9
HETATM    9  C   UNL     1     -11.018  10.445  68.415  1.00  0.00    -0.312 C  
BRANCH   9  10
HETATM   10  C   UNL     1     -11.162  11.238  67.120  1.00  0.00    -0.344 C  
BRANCH  10  11
HETATM   11  C   UNL     1     -10.230  12.446  67.112  1.00  0.00    -0.226 C  
BRANCH  11  12
HETATM   12  C   UNL     1     -10.999  13.727  66.801  1.00  0.00    -0.307 C  
BRANCH  12  13
HETATM   13  C   UNL     1     -11.908  14.116  67.964  1.00  0.00    -0.400 C  
BRANCH  13  14
HETATM   14  C   UNL     1     -11.125  14.863  69.042  1.00  0.00    -0.260 C  
BRANCH  14  15
HETATM   15  C   UNL     1     -11.663  14.545  70.434  1.00  0.00    -0.354 C  
BRANCH  15  16
HETATM   16  C   UNL     1     -12.973  15.271  70.701  1.00  0.00    -0.391 C  
HETATM   17  O   UNL     1     -12.868  16.026  71.899  1.00  0.00    -0.452 OA 
HETATM   18  H   UNL     1     -13.686  16.479  72.066  1.00  0.00     0.000 HD 
ENDBRANCH  15  16
ENDBRANCH  14  15
ENDBRANCH  13  14
ENDBRANCH  12  13
ENDBRANCH  11  12
ENDBRANCH  10  11
ENDBRANCH   9  10
ENDBRANCH   8   9
ENDBRANCH   7   8
ENDBRANCH   6   7
ENDBRANCH   5   6
ENDBRANCH   4   5
ENDBRANCH   3   4
ENDBRANCH   2   3
TORSDOF 14
ENDMDL
MODEL      119
REMARK 921   NORMALIZED FREE ENERGY PREDICTED BY IDOCK:   -3.51 KCAL/MOL
REMARK 922        TOTAL FREE ENERGY PREDICTED BY IDOCK:   -7.77 KCAL/MOL
REMARK 923 INTER-LIGAND FREE ENERGY PREDICTED BY IDOCK:   -6.12 KCAL/MOL
REMARK 924 INTRA-LIGAND FREE ENERGY PREDICTED BY IDOCK:   -1.66 KCAL/MOL
REMARK 927      BINDING AFFINITY PREDICTED BY RF-SCORE:    0.00 PKD
ROOT
HETATM    1  C   UNL     1     -12.240  12.591  63.411  1.00  0.00    -0.613 C  
HETATM    2  C   UNL     1     -10.813  12.118  63.632  1.00  0.00    -0.523 C  
ENDROOT
BRANCH   2   3
HETATM    3  C   UNL     1     -10.161  12.855  64.800  1.00  0.00    -0.307 C  
BRANCH   3   4
HETATM    4  C   UNL     1      -9.538  11.877  65.794  1.00  0.00    -0.241 C  
BRANCH   4   5
HETATM    5  C   UNL     1     -10.523  10.771  66.163  1.00  0.00    -0.278 C  
BRANCH   5   6
HETATM    6  C   UNL     1      -9.847   9.404  66.138  1.00  0.00    -0.356 C  
BRANCH   6   7
HETATM    7  C   UNL     1      -9.454   8.965  67.546  1.00  0.00    -0.172 C  
BRANCH   7   8
HETATM    8  C   UNL     1     -10.522   8.058  68.153  1.00  0.00    -0.222 C  
BRANCH   8   9
HETATM    9  C   UNL     1     -10.438   8.066  69.677  1.00  0.00    -0.224 C  
BRANCH   9  10
HETATM   10  C   UNL     1     -10.361   9.493  70.210  1.00  0.00    -0.321 C  
BRANCH  10  11
HETATM   11  C   UNL     1     -11.507   9.779  71.176  1.00  0.00    -0.472 C  
BRANCH  11  12
HETATM   12  C   UNL     1     -12.597  10.606  70.499  1.00  0.00    -0.433 C  
BRANCH  12  13
HETATM   13  C   UNL     1     -12.032  11.399  69.323  1.00  0.00    -0.400 C  
BRANCH  13  14
HETATM   14  C   UNL     1     -11.919  12.882  69.668  1.00  0.00    -0.358 C  
BRANCH  14  15
HETATM   15  C   UNL     1     -11.019  13.612  68.676  1.00  0.00    -0.290 C  
BRANCH  15  16
HETATM   16  C   UNL     1     -11.718  14.825  68.081  1.00  0.00    -0.325 C  
HETATM   17  O   UNL     1     -12.496  14.431  66.962  1.00  0.00    -0.579 OA 
HETATM   18  H   UNL     1     -12.932  15.189  66.590  1.00  0.00     0.000 HD 
ENDBRANCH  15  16
ENDBRANCH  14  15
ENDBRANCH  13  14
ENDBRANCH  12  13
ENDBRANCH  11  12
ENDBRANCH  10  11
ENDBRANCH   9  10
ENDBRANCH   8   9
ENDBRANCH   7   8
ENDBRANCH   6   7
ENDBRANCH   5   6
ENDBRANCH   4   5
ENDBRANCH   3   4
ENDBRANCH   2   3
TORSDOF 14
ENDMDL
MODEL      120
REMARK 921   NORMALIZED FREE ENERGY PREDICTED BY IDOCK:   -3.51 KCAL/MOL
REMARK 922        TOTAL FREE ENERGY PREDICTED BY IDOCK:   -7.77 KCAL/MOL
REMARK 923 INTER-LIGAND FREE ENERGY PREDICTED BY IDOCK:   -6.20 KCAL/MOL
REMARK 924 INTRA-LIGAND FREE ENERGY PREDICTED BY IDOCK:   -1.57 KCAL/MOL
REMARK 927      BINDING AFFINITY PREDICTED BY RF-SCORE:    0.00 PKD
ROOT
HETATM    1  C   UNL     1      -9.305   9.805  69.732  1.00  0.00    -0.249 C  
HETATM    2  C   UNL     1     -10.296   8.794  69.182  1.00  0.00    -0.227 C  
ENDROOT
BRANCH   2   3
HETATM    3  C   UNL     1     -10.634   7.729  70.224  1.00  0.00    -0.231 C  
BRANCH   3   4
HETATM    4  C   UNL     1     -11.004   8.361  71.563  1.00  0.00    -0.326 C  
BRANCH   4   5
HETATM    5  C   UNL     1     -12.416   7.960  71.985  1.00  0.00    -0.338 C  
BRANCH   5   6
HETATM    6  C   UNL     1     -13.260   9.186  72.314  1.00  0.00    -0.528 C  
BRANCH   6   7
HETATM    7  C   UNL     1     -13.406  10.090  71.092  1.00  0.00    -0.379 C  
BRANCH   7   8
HETATM    8  C   UNL     1     -12.947  11.511  71.406  1.00  0.00    -0.450 C  
BRANCH   8   9
HETATM    9  C   UNL     1     -11.933  11.995  70.373  1.00  0.00    -0.379 C  
BRANCH   9  10
HETATM   10  C   UNL     1     -12.134  13.475  70.066  1.00  0.00    -0.411 C  
BRANCH  10  11
HETATM   11  C   UNL     1     -12.052  13.739  68.565  1.00  0.00    -0.327 C  
BRANCH  11  12
HETATM   12  C   UNL     1     -11.667  12.470  67.810  1.00  0.00    -0.419 C  
BRANCH  12  13
HETATM   13  C   UNL     1     -10.329  12.643  67.094  1.00  0.00    -0.239 C  
BRANCH  13  14
HETATM   14  C   UNL     1     -10.201  11.662  65.931  1.00  0.00    -0.277 C  
BRANCH  14  15
HETATM   15  C   UNL     1     -11.049  12.103  64.742  1.00  0.00    -0.364 C  
BRANCH  15  16
HETATM   16  C   UNL     1     -10.501  11.553  63.434  1.00  0.00    -0.406 C  
HETATM   17  O   UNL     1      -9.162  11.988  63.254  1.00  0.00    -0.650 OA 
HETATM   18  H   UNL     1      -8.819  11.644  62.437  1.00  0.00     0.000 HD 
ENDBRANCH  15  16
ENDBRANCH  14  15
ENDBRANCH  13  14
ENDBRANCH  12  13
ENDBRANCH  11  12
ENDBRANCH  10  11
ENDBRANCH   9  10
ENDBRANCH   8   9
ENDBRANCH   7   8
ENDBRANCH   6   7
ENDBRANCH   5   6
ENDBRANCH   4   5
ENDBRANCH   3   4
ENDBRANCH   2   3
TORSDOF 14
ENDMDL
MODEL      121
REMARK 921   NORMALIZED FREE ENERGY PREDICTED BY IDOCK:   -3.50 KCAL/MOL
REMARK 922        TOTAL FREE ENERGY PREDICTED BY IDOCK:   -7.74 KCAL/MOL
REMARK 923 INTER-LIGAND FREE ENERGY PREDICTED BY IDOCK:   -6.00 KCAL/MOL
REMARK 924 INTRA-LIGAND FREE ENERGY PREDICTED BY IDOCK:   -1.73 KCAL/MOL
REMARK 927      BINDING AFFINITY PREDICTED BY RF-SCORE:    0.00 PKD
ROOT
HETATM    1  C   UNL     1     -10.324  13.565  67.073  1.00  0.00    -0.252 C  
HETATM    2  C   UNL     1     -11.760  13.069  67.118  1.00  0.00    -0.439 C  
ENDROOT
BRANCH   2   3
HETATM    3  C   UNL     1     -12.615  13.757  66.056  1.00  0.00    -0.458 C  
BRANCH   3   4
HETATM    4  C   UNL     1     -11.794  14.090  64.812  1.00  0.00    -0.415 C  
BRANCH   4   5
HETATM    5  C   UNL     1     -12.255  13.263  63.615  1.00  0.00    -0.522 C  
BRANCH   5   6
HETATM    6  C   UNL     1     -11.751  11.827  63.713  1.00  0.00    -0.499 C  
BRANCH   6   7
HETATM    7  C   UNL     1     -10.226  11.790  63.781  1.00  0.00    -0.434 C  
BRANCH   7   8
HETATM    8  C   UNL     1      -9.706  10.366  63.602  1.00  0.00    -0.338 C  
BRANCH   8   9
HETATM    9  C   UNL     1      -8.470  10.126  64.463  1.00  0.00    -0.182 C  
BRANCH   9  10
HETATM   10  C   UNL     1      -8.576  10.876  65.787  1.00  0.00    -0.176 C  
BRANCH  10  11
HETATM   11  C   UNL     1      -8.855   9.916  66.940  1.00  0.00    -0.146 C  
BRANCH  11  12
HETATM   12  C   UNL     1     -10.356   9.715  67.131  1.00  0.00    -0.319 C  
BRANCH  12  13
HETATM   13  C   UNL     1     -10.669   9.234  68.545  1.00  0.00    -0.185 C  
BRANCH  13  14
HETATM   14  C   UNL     1     -10.833  10.415  69.499  1.00  0.00    -0.295 C  
BRANCH  14  15
HETATM   15  C   UNL     1     -11.140   9.940  70.916  1.00  0.00    -0.418 C  
BRANCH  15  16
HETATM   16  C   UNL     1     -12.413  10.577  71.452  1.00  0.00    -0.411 C  
HETATM   17  O   UNL     1     -13.515  10.209  70.637  1.00  0.00    -0.518 OA 
HETATM   18  H   UNL     1     -14.310  10.607  70.971  1.00  0.00     0.000 HD 
ENDBRANCH  15  16
ENDBRANCH  14  15
ENDBRANCH  13  14
ENDBRANCH  12  13
ENDBRANCH  11  12
ENDBRANCH  10  11
ENDBRANCH   9  10
ENDBRANCH   8   9
ENDBRANCH   7   8
ENDBRANCH   6   7
ENDBRANCH   5   6
ENDBRANCH   4   5
ENDBRANCH   3   4
ENDBRANCH   2   3
TORSDOF 14
ENDMDL
MODEL      122
REMARK 921   NORMALIZED FREE ENERGY PREDICTED BY IDOCK:   -3.50 KCAL/MOL
REMARK 922        TOTAL FREE ENERGY PREDICTED BY IDOCK:   -7.74 KCAL/MOL
REMARK 923 INTER-LIGAND FREE ENERGY PREDICTED BY IDOCK:   -6.17 KCAL/MOL
REMARK 924 INTRA-LIGAND FREE ENERGY PREDICTED BY IDOCK:   -1.57 KCAL/MOL
REMARK 927      BINDING AFFINITY PREDICTED BY RF-SCORE:    0.00 PKD
ROOT
HETATM    1  C   UNL     1     -12.498  14.286  65.729  1.00  0.00    -0.421 C  
HETATM    2  C   UNL     1     -12.138  14.479  64.266  1.00  0.00    -0.448 C  
ENDROOT
BRANCH   2   3
HETATM    3  C   UNL     1     -12.183  13.155  63.507  1.00  0.00    -0.552 C  
BRANCH   3   4
HETATM    4  C   UNL     1     -11.992  11.968  64.449  1.00  0.00    -0.385 C  
BRANCH   4   5
HETATM    5  C   UNL     1     -10.701  11.219  64.128  1.00  0.00    -0.436 C  
BRANCH   5   6
HETATM    6  C   UNL     1      -9.972  10.809  65.403  1.00  0.00    -0.330 C  
BRANCH   6   7
HETATM    7  C   UNL     1     -10.769  11.218  66.640  1.00  0.00    -0.321 C  
BRANCH   7   8
HETATM    8  C   UNL     1      -9.984  12.211  67.492  1.00  0.00    -0.202 C  
BRANCH   8   9
HETATM    9  C   UNL     1      -8.999  13.001  66.635  1.00  0.00    -0.132 C  
BRANCH   9  10
HETATM   10  C   UNL     1      -9.031  14.482  66.996  1.00  0.00    -0.258 C  
BRANCH  10  11
HETATM   11  C   UNL     1      -8.427  14.722  68.378  1.00  0.00    -0.157 C  
BRANCH  11  12
HETATM   12  C   UNL     1      -9.136  15.870  69.090  1.00  0.00    -0.255 C  
BRANCH  12  13
HETATM   13  C   UNL     1     -10.054  16.626  68.132  1.00  0.00    -0.267 C  
BRANCH  13  14
HETATM   14  C   UNL     1     -10.221  18.080  68.568  1.00  0.00    -0.392 C  
BRANCH  14  15
HETATM   15  C   UNL     1     -10.747  18.941  67.424  1.00  0.00    -0.519 C  
BRANCH  15  16
HETATM   16  C   UNL     1      -9.908  20.198  67.244  1.00  0.00    -0.441 C  
HETATM   17  O   UNL     1      -9.753  20.478  65.861  1.00  0.00    -0.653 OA 
HETATM   18  H   UNL     1      -9.229  21.263  65.749  1.00  0.00     0.000 HD 
ENDBRANCH  15  16
ENDBRANCH  14  15
ENDBRANCH  13  14
ENDBRANCH  12  13
ENDBRANCH  11  12
ENDBRANCH  10  11
ENDBRANCH   9  10
ENDBRANCH   8   9
ENDBRANCH   7   8
ENDBRANCH   6   7
ENDBRANCH   5   6
ENDBRANCH   4   5
ENDBRANCH   3   4
ENDBRANCH   2   3
TORSDOF 14
ENDMDL
MODEL      123
REMARK 921   NORMALIZED FREE ENERGY PREDICTED BY IDOCK:   -3.49 KCAL/MOL
REMARK 922        TOTAL FREE ENERGY PREDICTED BY IDOCK:   -7.73 KCAL/MOL
REMARK 923 INTER-LIGAND FREE ENERGY PREDICTED BY IDOCK:   -6.72 KCAL/MOL
REMARK 924 INTRA-LIGAND FREE ENERGY PREDICTED BY IDOCK:   -1.01 KCAL/MOL
REMARK 927      BINDING AFFINITY PREDICTED BY RF-SCORE:    0.00 PKD
ROOT
HETATM    1  C   UNL     1      -9.792  20.084  66.332  1.00  0.00    -0.578 C  
HETATM    2  C   UNL     1     -10.588  19.264  67.332  1.00  0.00    -0.594 C  
ENDROOT
BRANCH   2   3
HETATM    3  C   UNL     1      -9.703  18.233  68.030  1.00  0.00    -0.324 C  
BRANCH   3   4
HETATM    4  C   UNL     1      -9.250  17.144  67.061  1.00  0.00    -0.251 C  
BRANCH   4   5
HETATM    5  C   UNL     1     -10.346  16.100  66.861  1.00  0.00    -0.297 C  
BRANCH   5   6
HETATM    6  C   UNL     1     -10.777  16.030  65.400  1.00  0.00    -0.399 C  
BRANCH   6   7
HETATM    7  C   UNL     1     -10.831  14.582  64.917  1.00  0.00    -0.436 C  
BRANCH   7   8
HETATM    8  C   UNL     1     -12.249  14.196  64.506  1.00  0.00    -0.468 C  
BRANCH   8   9
HETATM    9  C   UNL     1     -12.425  12.680  64.522  1.00  0.00    -0.525 C  
BRANCH   9  10
HETATM   10  C   UNL     1     -11.176  11.993  65.064  1.00  0.00    -0.374 C  
BRANCH  10  11
HETATM   11  C   UNL     1     -10.436  11.249  63.956  1.00  0.00    -0.440 C  
BRANCH  11  12
HETATM   12  C   UNL     1      -9.194  10.552  64.504  1.00  0.00    -0.278 C  
BRANCH  12  13
HETATM   13  C   UNL     1      -9.220  10.504  66.029  1.00  0.00    -0.205 C  
BRANCH  13  14
HETATM   14  C   UNL     1      -9.415   9.074  66.528  1.00  0.00    -0.266 C  
BRANCH  14  15
HETATM   15  C   UNL     1     -10.442   9.019  67.654  1.00  0.00    -0.324 C  
BRANCH  15  16
HETATM   16  C   UNL     1     -10.583  10.367  68.344  1.00  0.00    -0.208 C  
HETATM   17  O   UNL     1     -11.946  10.763  68.351  1.00  0.00    -0.752 OA 
HETATM   18  H   UNL     1     -12.034  11.605  68.782  1.00  0.00     0.000 HD 
ENDBRANCH  15  16
ENDBRANCH  14  15
ENDBRANCH  13  14
ENDBRANCH  12  13
ENDBRANCH  11  12
ENDBRANCH  10  11
ENDBRANCH   9  10
ENDBRANCH   8   9
ENDBRANCH   7   8
ENDBRANCH   6   7
ENDBRANCH   5   6
ENDBRANCH   4   5
ENDBRANCH   3   4
ENDBRANCH   2   3
TORSDOF 14
ENDMDL
MODEL      124
REMARK 921   NORMALIZED FREE ENERGY PREDICTED BY IDOCK:   -3.49 KCAL/MOL
REMARK 922        TOTAL FREE ENERGY PREDICTED BY IDOCK:   -7.73 KCAL/MOL
REMARK 923 INTER-LIGAND FREE ENERGY PREDICTED BY IDOCK:   -6.33 KCAL/MOL
REMARK 924 INTRA-LIGAND FREE ENERGY PREDICTED BY IDOCK:   -1.40 KCAL/MOL
REMARK 927      BINDING AFFINITY PREDICTED BY RF-SCORE:    0.00 PKD
ROOT
HETATM    1  C   UNL     1     -12.847  15.314  73.475  1.00  0.00    -0.681 C  
HETATM    2  C   UNL     1     -13.555  14.422  72.470  1.00  0.00    -0.598 C  
ENDROOT
BRANCH   2   3
HETATM    3  C   UNL     1     -13.466  15.000  71.059  1.00  0.00    -0.461 C  
BRANCH   3   4
HETATM    4  C   UNL     1     -12.117  15.676  70.821  1.00  0.00    -0.454 C  
BRANCH   4   5
HETATM    5  C   UNL     1     -11.642  15.454  69.387  1.00  0.00    -0.354 C  
BRANCH   5   6
HETATM    6  C   UNL     1     -10.480  16.381  69.045  1.00  0.00    -0.288 C  
BRANCH   6   7
HETATM    7  C   UNL     1     -10.842  17.303  67.883  1.00  0.00    -0.283 C  
BRANCH   7   8
HETATM    8  C   UNL     1      -9.746  17.301  66.822  1.00  0.00    -0.285 C  
BRANCH   8   9
HETATM    9  C   UNL     1      -9.593  15.915  66.202  1.00  0.00    -0.365 C  
BRANCH   9  10
HETATM   10  C   UNL     1     -10.785  15.584  65.309  1.00  0.00    -0.440 C  
BRANCH  10  11
HETATM   11  C   UNL     1     -11.468  14.298  65.764  1.00  0.00    -0.335 C  
BRANCH  11  12
HETATM   12  C   UNL     1     -10.454  13.320  66.351  1.00  0.00    -0.286 C  
BRANCH  12  13
HETATM   13  C   UNL     1     -10.760  11.888  65.919  1.00  0.00    -0.326 C  
BRANCH  13  14
HETATM   14  C   UNL     1     -10.367  10.893  67.009  1.00  0.00    -0.276 C  
BRANCH  14  15
HETATM   15  C   UNL     1     -10.521  11.508  68.397  1.00  0.00    -0.226 C  
BRANCH  15  16
HETATM   16  C   UNL     1     -11.883  11.193  68.997  1.00  0.00    -0.348 C  
HETATM   17  O   UNL     1     -12.110  12.013  70.132  1.00  0.00    -0.322 OA 
HETATM   18  H   UNL     1     -12.960  11.816  70.507  1.00  0.00     0.000 HD 
ENDBRANCH  15  16
ENDBRANCH  14  15
ENDBRANCH  13  14
ENDBRANCH  12  13
ENDBRANCH  11  12
ENDBRANCH  10  11
ENDBRANCH   9  10
ENDBRANCH   8   9
ENDBRANCH   7   8
ENDBRANCH   6   7
ENDBRANCH   5   6
ENDBRANCH   4   5
ENDBRANCH   3   4
ENDBRANCH   2   3
TORSDOF 14
ENDMDL
MODEL      125
REMARK 921   NORMALIZED FREE ENERGY PREDICTED BY IDOCK:   -3.49 KCAL/MOL
REMARK 922        TOTAL FREE ENERGY PREDICTED BY IDOCK:   -7.72 KCAL/MOL
REMARK 923 INTER-LIGAND FREE ENERGY PREDICTED BY IDOCK:   -6.53 KCAL/MOL
REMARK 924 INTRA-LIGAND FREE ENERGY PREDICTED BY IDOCK:   -1.19 KCAL/MOL
REMARK 927      BINDING AFFINITY PREDICTED BY RF-SCORE:    0.00 PKD
ROOT
HETATM    1  C   UNL     1     -12.871  15.574  71.144  1.00  0.00    -0.551 C  
HETATM    2  C   UNL     1     -14.053  15.206  72.024  1.00  0.00    -0.659 C  
ENDROOT
BRANCH   2   3
HETATM    3  C   UNL     1     -14.035  13.721  72.380  1.00  0.00    -0.651 C  
BRANCH   3   4
HETATM    4  C   UNL     1     -12.941  12.980  71.614  1.00  0.00    -0.417 C  
BRANCH   4   5
HETATM    5  C   UNL     1     -13.008  11.479  71.883  1.00  0.00    -0.453 C  
BRANCH   5   6
HETATM    6  C   UNL     1     -12.683  10.681  70.625  1.00  0.00    -0.445 C  
BRANCH   6   7
HETATM    7  C   UNL     1     -11.331   9.982  70.757  1.00  0.00    -0.439 C  
BRANCH   7   8
HETATM    8  C   UNL     1     -10.414  10.342  69.592  1.00  0.00    -0.279 C  
BRANCH   8   9
HETATM    9  C   UNL     1     -11.058   9.972  68.259  1.00  0.00    -0.247 C  
BRANCH   9  10
HETATM   10  C   UNL     1     -10.980  11.134  67.275  1.00  0.00    -0.354 C  
BRANCH  10  11
HETATM   11  C   UNL     1     -10.941  12.471  68.011  1.00  0.00    -0.266 C  
BRANCH  11  12
HETATM   12  C   UNL     1     -10.521  13.598  67.071  1.00  0.00    -0.270 C  
BRANCH  12  13
HETATM   13  C   UNL     1     -11.656  14.602  66.878  1.00  0.00    -0.374 C  
BRANCH  13  14
HETATM   14  C   UNL     1     -11.445  15.839  67.749  1.00  0.00    -0.175 C  
BRANCH  14  15
HETATM   15  C   UNL     1      -9.959  16.111  67.968  1.00  0.00    -0.238 C  
BRANCH  15  16
HETATM   16  C   UNL     1      -9.595  17.538  67.590  1.00  0.00    -0.266 C  
HETATM   17  O   UNL     1      -9.764  17.723  66.193  1.00  0.00    -0.444 OA 
HETATM   18  H   UNL     1      -9.536  18.615  65.956  1.00  0.00     0.000 HD 
ENDBRANCH  15  16
ENDBRANCH  14  15
ENDBRANCH  13  14
ENDBRANCH  12  13
ENDBRANCH  11  12
ENDBRANCH  10  11
ENDBRANCH   9  10
ENDBRANCH   8   9
ENDBRANCH   7   8
ENDBRANCH   6   7
ENDBRANCH   5   6
ENDBRANCH   4   5
ENDBRANCH   3   4
ENDBRANCH   2   3
TORSDOF 14
ENDMDL
MODEL      126
REMARK 921   NORMALIZED FREE ENERGY PREDICTED BY IDOCK:   -3.48 KCAL/MOL
REMARK 922        TOTAL FREE ENERGY PREDICTED BY IDOCK:   -7.72 KCAL/MOL
REMARK 923 INTER-LIGAND FREE ENERGY PREDICTED BY IDOCK:   -6.47 KCAL/MOL
REMARK 924 INTRA-LIGAND FREE ENERGY PREDICTED BY IDOCK:   -1.24 KCAL/MOL
REMARK 927      BINDING AFFINITY PREDICTED BY RF-SCORE:    0.00 PKD
ROOT
HETATM    1  C   UNL     1      -9.487   7.982  67.498  1.00  0.00    -0.177 C  
HETATM    2  C   UNL     1     -10.688   7.129  67.129  1.00  0.00    -0.422 C  
ENDROOT
BRANCH   2   3
HETATM    3  C   UNL     1     -11.035   6.150  68.248  1.00  0.00    -0.397 C  
BRANCH   3   4
HETATM    4  C   UNL     1     -10.583   6.678  69.608  1.00  0.00    -0.276 C  
BRANCH   4   5
HETATM    5  C   UNL     1     -10.979   5.717  70.726  1.00  0.00    -0.312 C  
BRANCH   5   6
HETATM    6  C   UNL     1     -11.690   6.454  71.857  1.00  0.00    -0.378 C  
BRANCH   6   7
HETATM    7  C   UNL     1     -12.867   7.266  71.321  1.00  0.00    -0.391 C  
BRANCH   7   8
HETATM    8  C   UNL     1     -13.130   8.488  72.196  1.00  0.00    -0.393 C  
BRANCH   8   9
HETATM    9  C   UNL     1     -12.813   9.776  71.441  1.00  0.00    -0.489 C  
BRANCH   9  10
HETATM   10  C   UNL     1     -11.310   9.922  71.223  1.00  0.00    -0.404 C  
BRANCH  10  11
HETATM   11  C   UNL     1     -11.015  10.593  69.885  1.00  0.00    -0.337 C  
BRANCH  11  12
HETATM   12  C   UNL     1     -11.739  11.932  69.774  1.00  0.00    -0.403 C  
BRANCH  12  13
HETATM   13  C   UNL     1     -11.498  12.574  68.411  1.00  0.00    -0.355 C  
BRANCH  13  14
HETATM   14  C   UNL     1     -11.652  14.092  68.487  1.00  0.00    -0.357 C  
BRANCH  14  15
HETATM   15  C   UNL     1     -12.021  14.537  69.899  1.00  0.00    -0.382 C  
BRANCH  15  16
HETATM   16  C   UNL     1     -11.326  15.839  70.269  1.00  0.00    -0.361 C  
HETATM   17  O   UNL     1     -11.930  16.393  71.428  1.00  0.00    -0.638 OA 
HETATM   18  H   UNL     1     -11.497  17.206  71.659  1.00  0.00     0.000 HD 
ENDBRANCH  15  16
ENDBRANCH  14  15
ENDBRANCH  13  14
ENDBRANCH  12  13
ENDBRANCH  11  12
ENDBRANCH  10  11
ENDBRANCH   9  10
ENDBRANCH   8   9
ENDBRANCH   7   8
ENDBRANCH   6   7
ENDBRANCH   5   6
ENDBRANCH   4   5
ENDBRANCH   3   4
ENDBRANCH   2   3
TORSDOF 14
ENDMDL
MODEL      127
REMARK 921   NORMALIZED FREE ENERGY PREDICTED BY IDOCK:   -3.48 KCAL/MOL
REMARK 922        TOTAL FREE ENERGY PREDICTED BY IDOCK:   -7.70 KCAL/MOL
REMARK 923 INTER-LIGAND FREE ENERGY PREDICTED BY IDOCK:   -6.40 KCAL/MOL
REMARK 924 INTRA-LIGAND FREE ENERGY PREDICTED BY IDOCK:   -1.30 KCAL/MOL
REMARK 927      BINDING AFFINITY PREDICTED BY RF-SCORE:    0.00 PKD
ROOT
HETATM    1  C   UNL     1     -10.655  19.484  65.936  1.00  0.00    -0.572 C  
HETATM    2  C   UNL     1     -10.013  19.711  67.294  1.00  0.00    -0.518 C  
ENDROOT
BRANCH   2   3
HETATM    3  C   UNL     1     -10.083  18.452  68.156  1.00  0.00    -0.408 C  
BRANCH   3   4
HETATM    4  C   UNL     1      -9.895  17.192  67.314  1.00  0.00    -0.265 C  
BRANCH   4   5
HETATM    5  C   UNL     1     -10.487  15.972  68.017  1.00  0.00    -0.275 C  
BRANCH   5   6
HETATM    6  C   UNL     1     -11.076  14.991  67.010  1.00  0.00    -0.334 C  
BRANCH   6   7
HETATM    7  C   UNL     1     -10.904  15.506  65.583  1.00  0.00    -0.354 C  
BRANCH   7   8
HETATM    8  C   UNL     1     -11.873  14.810  64.631  1.00  0.00    -0.442 C  
BRANCH   8   9
HETATM    9  C   UNL     1     -12.676  13.737  65.361  1.00  0.00    -0.513 C  
BRANCH   9  10
HETATM   10  C   UNL     1     -12.588  12.401  64.630  1.00  0.00    -0.459 C  
BRANCH  10  11
HETATM   11  C   UNL     1     -11.685  12.507  63.404  1.00  0.00    -0.567 C  
BRANCH  11  12
HETATM   12  C   UNL     1     -10.344  11.823  63.655  1.00  0.00    -0.476 C  
BRANCH  12  13
HETATM   13  C   UNL     1     -10.358  11.055  64.974  1.00  0.00    -0.360 C  
BRANCH  13  14
HETATM   14  C   UNL     1      -9.093  11.334  65.783  1.00  0.00    -0.216 C  
BRANCH  14  15
HETATM   15  C   UNL     1      -9.049  10.484  67.048  1.00  0.00    -0.156 C  
BRANCH  15  16
HETATM   16  C   UNL     1      -8.074  11.054  68.067  1.00  0.00    -0.121 C  
HETATM   17  O   UNL     1      -8.730  12.025  68.869  1.00  0.00    -0.365 OA 
HETATM   18  H   UNL     1      -8.121  12.381  69.505  1.00  0.00     0.000 HD 
ENDBRANCH  15  16
ENDBRANCH  14  15
ENDBRANCH  13  14
ENDBRANCH  12  13
ENDBRANCH  11  12
ENDBRANCH  10  11
ENDBRANCH   9  10
ENDBRANCH   8   9
ENDBRANCH   7   8
ENDBRANCH   6   7
ENDBRANCH   5   6
ENDBRANCH   4   5
ENDBRANCH   3   4
ENDBRANCH   2   3
TORSDOF 14
ENDMDL
MODEL      128
REMARK 921   NORMALIZED FREE ENERGY PREDICTED BY IDOCK:   -3.47 KCAL/MOL
REMARK 922        TOTAL FREE ENERGY PREDICTED BY IDOCK:   -7.69 KCAL/MOL
REMARK 923 INTER-LIGAND FREE ENERGY PREDICTED BY IDOCK:   -6.69 KCAL/MOL
REMARK 924 INTRA-LIGAND FREE ENERGY PREDICTED BY IDOCK:   -0.99 KCAL/MOL
REMARK 927      BINDING AFFINITY PREDICTED BY RF-SCORE:    0.00 PKD
ROOT
HETATM    1  C   UNL     1     -12.314  14.018  64.976  1.00  0.00    -0.458 C  
HETATM    2  C   UNL     1     -12.040  12.721  65.719  1.00  0.00    -0.505 C  
ENDROOT
BRANCH   2   3
HETATM    3  C   UNL     1     -11.840  12.972  67.212  1.00  0.00    -0.419 C  
BRANCH   3   4
HETATM    4  C   UNL     1     -11.937  14.459  67.543  1.00  0.00    -0.389 C  
BRANCH   4   5
HETATM    5  C   UNL     1     -10.815  14.882  68.488  1.00  0.00    -0.249 C  
BRANCH   5   6
HETATM    6  C   UNL     1     -11.336  15.818  69.574  1.00  0.00    -0.328 C  
BRANCH   6   7
HETATM    7  C   UNL     1     -12.610  15.262  70.206  1.00  0.00    -0.388 C  
BRANCH   7   8
HETATM    8  C   UNL     1     -12.281  14.282  71.328  1.00  0.00    -0.426 C  
BRANCH   8   9
HETATM    9  C   UNL     1     -12.510  12.842  70.877  1.00  0.00    -0.383 C  
BRANCH   9  10
HETATM   10  C   UNL     1     -13.271  12.054  71.937  1.00  0.00    -0.469 C  
BRANCH  10  11
HETATM   11  C   UNL     1     -13.079  10.552  71.746  1.00  0.00    -0.570 C  
BRANCH  11  12
HETATM   12  C   UNL     1     -11.851  10.266  70.886  1.00  0.00    -0.473 C  
BRANCH  12  13
HETATM   13  C   UNL     1     -11.418   8.808  71.017  1.00  0.00    -0.337 C  
BRANCH  13  14
HETATM   14  C   UNL     1     -11.650   8.295  72.437  1.00  0.00    -0.464 C  
BRANCH  14  15
HETATM   15  C   UNL     1     -10.350   7.795  73.061  1.00  0.00    -0.410 C  
BRANCH  15  16
HETATM   16  C   UNL     1     -10.546   6.455  73.753  1.00  0.00    -0.253 C  
HETATM   17  O   UNL     1     -10.180   5.402  72.875  1.00  0.00    -0.175 OA 
HETATM   18  H   UNL     1     -10.303   4.565  73.307  1.00  0.00     0.000 HD 
ENDBRANCH  15  16
ENDBRANCH  14  15
ENDBRANCH  13  14
ENDBRANCH  12  13
ENDBRANCH  11  12
ENDBRANCH  10  11
ENDBRANCH   9  10
ENDBRANCH   8   9
ENDBRANCH   7   8
ENDBRANCH   6   7
ENDBRANCH   5   6
ENDBRANCH   4   5
ENDBRANCH   3   4
ENDBRANCH   2   3
TORSDOF 14
ENDMDL
MODEL      129
REMARK 921   NORMALIZED FREE ENERGY PREDICTED BY IDOCK:   -3.47 KCAL/MOL
REMARK 922        TOTAL FREE ENERGY PREDICTED BY IDOCK:   -7.68 KCAL/MOL
REMARK 923 INTER-LIGAND FREE ENERGY PREDICTED BY IDOCK:   -6.57 KCAL/MOL
REMARK 924 INTRA-LIGAND FREE ENERGY PREDICTED BY IDOCK:   -1.11 KCAL/MOL
REMARK 927      BINDING AFFINITY PREDICTED BY RF-SCORE:    0.00 PKD
ROOT
HETATM    1  C   UNL     1     -11.951   6.272  71.878  1.00  0.00    -0.342 C  
HETATM    2  C   UNL     1     -10.968   6.806  72.907  1.00  0.00    -0.297 C  
ENDROOT
BRANCH   2   3
HETATM    3  C   UNL     1     -10.589   8.255  72.608  1.00  0.00    -0.378 C  
BRANCH   3   4
HETATM    4  C   UNL     1     -11.495   8.856  71.536  1.00  0.00    -0.391 C  
BRANCH   4   5
HETATM    5  C   UNL     1     -10.686   9.678  70.535  1.00  0.00    -0.374 C  
BRANCH   5   6
HETATM    6  C   UNL     1     -11.591  10.299  69.477  1.00  0.00    -0.234 C  
BRANCH   6   7
HETATM    7  C   UNL     1     -10.806  11.259  68.585  1.00  0.00    -0.246 C  
BRANCH   7   8
HETATM    8  C   UNL     1      -9.634  10.547  67.915  1.00  0.00    -0.164 C  
BRANCH   8   9
HETATM    9  C   UNL     1      -9.226  11.262  66.631  1.00  0.00    -0.191 C  
BRANCH   9  10
HETATM   10  C   UNL     1      -9.424  10.358  65.419  1.00  0.00    -0.285 C  
BRANCH  10  11
HETATM   11  C   UNL     1     -10.504  10.912  64.493  1.00  0.00    -0.393 C  
BRANCH  11  12
HETATM   12  C   UNL     1     -10.715  12.404  64.735  1.00  0.00    -0.332 C  
BRANCH  12  13
HETATM   13  C   UNL     1     -12.090  12.671  65.343  1.00  0.00    -0.516 C  
BRANCH  13  14
HETATM   14  C   UNL     1     -12.236  14.139  65.739  1.00  0.00    -0.458 C  
BRANCH  14  15
HETATM   15  C   UNL     1     -10.882  14.842  65.757  1.00  0.00    -0.343 C  
BRANCH  15  16
HETATM   16  C   UNL     1     -10.913  16.126  64.941  1.00  0.00    -0.349 C  
HETATM   17  O   UNL     1     -11.810  15.981  63.850  1.00  0.00    -1.275 OA 
HETATM   18  H   UNL     1     -11.829  16.782  63.340  1.00  0.00     0.000 HD 
ENDBRANCH  15  16
ENDBRANCH  14  15
ENDBRANCH  13  14
ENDBRANCH  12  13
ENDBRANCH  11  12
ENDBRANCH  10  11
ENDBRANCH   9  10
ENDBRANCH   8   9
ENDBRANCH   7   8
ENDBRANCH   6   7
ENDBRANCH   5   6
ENDBRANCH   4   5
ENDBRANCH   3   4
ENDBRANCH   2   3
TORSDOF 14
ENDMDL
MODEL      130
REMARK 921   NORMALIZED FREE ENERGY PREDICTED BY IDOCK:   -3.46 KCAL/MOL
REMARK 922        TOTAL FREE ENERGY PREDICTED BY IDOCK:   -7.68 KCAL/MOL
REMARK 923 INTER-LIGAND FREE ENERGY PREDICTED BY IDOCK:   -6.40 KCAL/MOL
REMARK 924 INTRA-LIGAND FREE ENERGY PREDICTED BY IDOCK:   -1.28 KCAL/MOL
REMARK 927      BINDING AFFINITY PREDICTED BY RF-SCORE:    0.00 PKD
ROOT
HETATM    1  C   UNL     1      -8.752  17.421  68.314  1.00  0.00    -0.261 C  
HETATM    2  C   UNL     1     -10.256  17.628  68.353  1.00  0.00    -0.381 C  
ENDROOT
BRANCH   2   3
HETATM    3  C   UNL     1     -11.000  16.333  68.037  1.00  0.00    -0.328 C  
BRANCH   3   4
HETATM    4  C   UNL     1     -10.330  15.572  66.895  1.00  0.00    -0.290 C  
BRANCH   4   5
HETATM    5  C   UNL     1     -10.726  16.159  65.542  1.00  0.00    -0.355 C  
BRANCH   5   6
HETATM    6  C   UNL     1     -11.564  15.170  64.739  1.00  0.00    -0.364 C  
BRANCH   6   7
HETATM    7  C   UNL     1     -11.414  13.755  65.292  1.00  0.00    -0.320 C  
BRANCH   7   8
HETATM    8  C   UNL     1     -12.499  12.835  64.739  1.00  0.00    -0.539 C  
BRANCH   8   9
HETATM    9  C   UNL     1     -11.972  12.018  63.563  1.00  0.00    -0.605 C  
BRANCH   9  10
HETATM   10  C   UNL     1     -10.447  12.038  63.528  1.00  0.00    -0.505 C  
BRANCH  10  11
HETATM   11  C   UNL     1      -9.880  10.624  63.620  1.00  0.00    -0.392 C  
BRANCH  11  12
HETATM   12  C   UNL     1      -9.160  10.411  64.949  1.00  0.00    -0.242 C  
BRANCH  12  13
HETATM   13  C   UNL     1     -10.117   9.874  66.010  1.00  0.00    -0.314 C  
BRANCH  13  14
HETATM   14  C   UNL     1     -10.340  10.903  67.115  1.00  0.00    -0.262 C  
BRANCH  14  15
HETATM   15  C   UNL     1     -10.138  10.283  68.495  1.00  0.00    -0.181 C  
BRANCH  15  16
HETATM   16  C   UNL     1     -11.226  10.718  69.464  1.00  0.00    -0.281 C  
HETATM   17  O   UNL     1     -12.502  10.533  68.869  1.00  0.00    -0.776 OA 
HETATM   18  H   UNL     1     -13.182  10.805  69.474  1.00  0.00     0.000 HD 
ENDBRANCH  15  16
ENDBRANCH  14  15
ENDBRANCH  13  14
ENDBRANCH  12  13
ENDBRANCH  11  12
ENDBRANCH  10  11
ENDBRANCH   9  10
ENDBRANCH   8   9
ENDBRANCH   7   8
ENDBRANCH   6   7
ENDBRANCH   5   6
ENDBRANCH   4   5
ENDBRANCH   3   4
ENDBRANCH   2   3
TORSDOF 14
ENDMDL
MODEL      131
REMARK 921   NORMALIZED FREE ENERGY PREDICTED BY IDOCK:   -3.46 KCAL/MOL
REMARK 922        TOTAL FREE ENERGY PREDICTED BY IDOCK:   -7.67 KCAL/MOL
REMARK 923 INTER-LIGAND FREE ENERGY PREDICTED BY IDOCK:   -6.52 KCAL/MOL
REMARK 924 INTRA-LIGAND FREE ENERGY PREDICTED BY IDOCK:   -1.15 KCAL/MOL
REMARK 927      BINDING AFFINITY PREDICTED BY RF-SCORE:    0.00 PKD
ROOT
HETATM    1  C   UNL     1     -10.112   5.801  68.347  1.00  0.00    -0.216 C  
HETATM    2  C   UNL     1     -10.891   7.074  68.068  1.00  0.00    -0.229 C  
ENDROOT
BRANCH   2   3
HETATM    3  C   UNL     1     -10.399   7.754  66.792  1.00  0.00    -0.348 C  
BRANCH   3   4
HETATM    4  C   UNL     1     -10.087   9.229  67.034  1.00  0.00    -0.313 C  
BRANCH   4   5
HETATM    5  C   UNL     1     -10.963   9.797  68.148  1.00  0.00    -0.228 C  
BRANCH   5   6
HETATM    6  C   UNL     1     -11.474  11.189  67.789  1.00  0.00    -0.349 C  
BRANCH   6   7
HETATM    7  C   UNL     1     -11.216  11.500  66.316  1.00  0.00    -0.286 C  
BRANCH   7   8
HETATM    8  C   UNL     1     -11.870  12.819  65.915  1.00  0.00    -0.490 C  
BRANCH   8   9
HETATM    9  C   UNL     1     -12.126  13.693  67.139  1.00  0.00    -0.404 C  
BRANCH   9  10
HETATM   10  C   UNL     1     -11.318  14.984  67.064  1.00  0.00    -0.319 C  
BRANCH  10  11
HETATM   11  C   UNL     1     -10.577  15.242  68.374  1.00  0.00    -0.246 C  
BRANCH  11  12
HETATM   12  C   UNL     1     -11.130  14.366  69.494  1.00  0.00    -0.267 C  
BRANCH  12  13
HETATM   13  C   UNL     1     -11.473  15.201  70.725  1.00  0.00    -0.350 C  
BRANCH  13  14
HETATM   14  C   UNL     1     -12.960  15.547  70.754  1.00  0.00    -0.490 C  
BRANCH  14  15
HETATM   15  C   UNL     1     -13.661  14.865  71.925  1.00  0.00    -0.527 C  
BRANCH  15  16
HETATM   16  C   UNL     1     -12.874  15.029  73.216  1.00  0.00    -0.531 C  
HETATM   17  O   UNL     1     -13.405  16.109  73.969  1.00  0.00    -0.930 OA 
HETATM   18  H   UNL     1     -12.913  16.211  74.775  1.00  0.00     0.000 HD 
ENDBRANCH  15  16
ENDBRANCH  14  15
ENDBRANCH  13  14
ENDBRANCH  12  13
ENDBRANCH  11  12
ENDBRANCH  10  11
ENDBRANCH   9  10
ENDBRANCH   8   9
ENDBRANCH   7   8
ENDBRANCH   6   7
ENDBRANCH   5   6
ENDBRANCH   4   5
ENDBRANCH   3   4
ENDBRANCH   2   3
TORSDOF 14
ENDMDL
MODEL      132
REMARK 921   NORMALIZED FREE ENERGY PREDICTED BY IDOCK:   -3.46 KCAL/MOL
REMARK 922        TOTAL FREE ENERGY PREDICTED BY IDOCK:   -7.67 KCAL/MOL
REMARK 923 INTER-LIGAND FREE ENERGY PREDICTED BY IDOCK:   -6.22 KCAL/MOL
REMARK 924 INTRA-LIGAND FREE ENERGY PREDICTED BY IDOCK:   -1.45 KCAL/MOL
REMARK 927      BINDING AFFINITY PREDICTED BY RF-SCORE:    0.00 PKD
ROOT
HETATM    1  C   UNL     1     -13.552   9.479  72.215  1.00  0.00    -0.494 C  
HETATM    2  C   UNL     1     -13.245  10.946  71.964  1.00  0.00    -0.456 C  
ENDROOT
BRANCH   2   3
HETATM    3  C   UNL     1     -12.145  11.109  70.918  1.00  0.00    -0.427 C  
BRANCH   3   4
HETATM    4  C   UNL     1     -11.094  10.007  71.041  1.00  0.00    -0.341 C  
BRANCH   4   5
HETATM    5  C   UNL     1     -10.653   9.517  69.664  1.00  0.00    -0.245 C  
BRANCH   5   6
HETATM    6  C   UNL     1      -9.312  10.126  69.268  1.00  0.00    -0.227 C  
BRANCH   6   7
HETATM    7  C   UNL     1      -9.348  10.630  67.827  1.00  0.00    -0.154 C  
BRANCH   7   8
HETATM    8  C   UNL     1     -10.731  10.434  67.214  1.00  0.00    -0.331 C  
BRANCH   8   9
HETATM    9  C   UNL     1     -11.084  11.593  66.288  1.00  0.00    -0.345 C  
BRANCH   9  10
HETATM   10  C   UNL     1     -10.451  12.892  66.776  1.00  0.00    -0.262 C  
BRANCH  10  11
HETATM   11  C   UNL     1     -11.502  13.818  67.383  1.00  0.00    -0.372 C  
BRANCH  11  12
HETATM   12  C   UNL     1     -11.066  14.309  68.761  1.00  0.00    -0.276 C  
BRANCH  12  13
HETATM   13  C   UNL     1     -12.272  14.530  69.670  1.00  0.00    -0.336 C  
BRANCH  13  14
HETATM   14  C   UNL     1     -12.025  15.689  70.633  1.00  0.00    -0.438 C  
BRANCH  14  15
HETATM   15  C   UNL     1     -11.676  15.182  72.029  1.00  0.00    -0.504 C  
BRANCH  15  16
HETATM   16  C   UNL     1     -12.579  15.800  73.086  1.00  0.00    -0.494 C  
HETATM   17  O   UNL     1     -13.401  14.797  73.662  1.00  0.00    -0.516 OA 
HETATM   18  H   UNL     1     -13.965  15.183  74.322  1.00  0.00     0.000 HD 
ENDBRANCH  15  16
ENDBRANCH  14  15
ENDBRANCH  13  14
ENDBRANCH  12  13
ENDBRANCH  11  12
ENDBRANCH  10  11
ENDBRANCH   9  10
ENDBRANCH   8   9
ENDBRANCH   7   8
ENDBRANCH   6   7
ENDBRANCH   5   6
ENDBRANCH   4   5
ENDBRANCH   3   4
ENDBRANCH   2   3
TORSDOF 14
ENDMDL
MODEL      133
REMARK 921   NORMALIZED FREE ENERGY PREDICTED BY IDOCK:   -3.45 KCAL/MOL
REMARK 922        TOTAL FREE ENERGY PREDICTED BY IDOCK:   -7.66 KCAL/MOL
REMARK 923 INTER-LIGAND FREE ENERGY PREDICTED BY IDOCK:   -6.24 KCAL/MOL
REMARK 924 INTRA-LIGAND FREE ENERGY PREDICTED BY IDOCK:   -1.42 KCAL/MOL
REMARK 927      BINDING AFFINITY PREDICTED BY RF-SCORE:    0.00 PKD
ROOT
HETATM    1  C   UNL     1     -10.323   6.959  68.197  1.00  0.00    -0.223 C  
HETATM    2  C   UNL     1     -11.272   6.271  69.162  1.00  0.00    -0.439 C  
ENDROOT
BRANCH   2   3
HETATM    3  C   UNL     1     -10.507   5.469  70.212  1.00  0.00    -0.365 C  
BRANCH   3   4
HETATM    4  C   UNL     1     -10.684   6.067  71.606  1.00  0.00    -0.303 C  
BRANCH   4   5
HETATM    5  C   UNL     1     -11.994   6.847  71.702  1.00  0.00    -0.379 C  
BRANCH   5   6
HETATM    6  C   UNL     1     -11.748   8.275  72.177  1.00  0.00    -0.429 C  
BRANCH   6   7
HETATM    7  C   UNL     1     -10.317   8.711  71.873  1.00  0.00    -0.405 C  
BRANCH   7   8
HETATM    8  C   UNL     1     -10.278   9.675  70.691  1.00  0.00    -0.346 C  
BRANCH   8   9
HETATM    9  C   UNL     1     -11.596  10.434  70.566  1.00  0.00    -0.433 C  
BRANCH   9  10
HETATM   10  C   UNL     1     -11.883  10.789  69.111  1.00  0.00    -0.347 C  
BRANCH  10  11
HETATM   11  C   UNL     1     -11.728  12.289  68.873  1.00  0.00    -0.380 C  
BRANCH  11  12
HETATM   12  C   UNL     1     -11.608  12.595  67.383  1.00  0.00    -0.421 C  
BRANCH  12  13
HETATM   13  C   UNL     1     -11.814  14.083  67.111  1.00  0.00    -0.444 C  
BRANCH  13  14
HETATM   14  C   UNL     1     -11.798  14.883  68.412  1.00  0.00    -0.309 C  
BRANCH  14  15
HETATM   15  C   UNL     1     -10.976  16.160  68.263  1.00  0.00    -0.340 C  
BRANCH  15  16
HETATM   16  C   UNL     1      -9.542  15.954  68.724  1.00  0.00    -0.219 C  
HETATM   17  O   UNL     1      -9.524  15.160  69.900  1.00  0.00    -0.462 OA 
HETATM   18  H   UNL     1      -8.628  15.031  70.188  1.00  0.00     0.000 HD 
ENDBRANCH  15  16
ENDBRANCH  14  15
ENDBRANCH  13  14
ENDBRANCH  12  13
ENDBRANCH  11  12
ENDBRANCH  10  11
ENDBRANCH   9  10
ENDBRANCH   8   9
ENDBRANCH   7   8
ENDBRANCH   6   7
ENDBRANCH   5   6
ENDBRANCH   4   5
ENDBRANCH   3   4
ENDBRANCH   2   3
TORSDOF 14
ENDMDL
MODEL      134
REMARK 921   NORMALIZED FREE ENERGY PREDICTED BY IDOCK:   -3.45 KCAL/MOL
REMARK 922        TOTAL FREE ENERGY PREDICTED BY IDOCK:   -7.66 KCAL/MOL
REMARK 923 INTER-LIGAND FREE ENERGY PREDICTED BY IDOCK:   -6.44 KCAL/MOL
REMARK 924 INTRA-LIGAND FREE ENERGY PREDICTED BY IDOCK:   -1.21 KCAL/MOL
REMARK 927      BINDING AFFINITY PREDICTED BY RF-SCORE:    0.00 PKD
ROOT
HETATM    1  C   UNL     1     -12.798   8.525  72.084  1.00  0.00    -0.413 C  
HETATM    2  C   UNL     1     -12.272   9.825  71.500  1.00  0.00    -0.493 C  
ENDROOT
BRANCH   2   3
HETATM    3  C   UNL     1     -13.165  11.004  71.882  1.00  0.00    -0.503 C  
BRANCH   3   4
HETATM    4  C   UNL     1     -12.699  12.293  71.210  1.00  0.00    -0.351 C  
BRANCH   4   5
HETATM    5  C   UNL     1     -13.214  13.518  71.962  1.00  0.00    -0.529 C  
BRANCH   5   6
HETATM    6  C   UNL     1     -12.851  14.805  71.228  1.00  0.00    -0.408 C  
BRANCH   6   7
HETATM    7  C   UNL     1     -12.525  14.523  69.763  1.00  0.00    -0.259 C  
BRANCH   7   8
HETATM    8  C   UNL     1     -11.180  15.132  69.376  1.00  0.00    -0.293 C  
BRANCH   8   9
HETATM    9  C   UNL     1     -10.223  14.058  68.869  1.00  0.00    -0.159 C  
BRANCH   9  10
HETATM   10  C   UNL     1     -10.988  12.915  68.210  1.00  0.00    -0.282 C  
BRANCH  10  11
HETATM   11  C   UNL     1     -10.224  11.600  68.336  1.00  0.00    -0.211 C  
BRANCH  11  12
HETATM   12  C   UNL     1     -10.976  10.464  67.648  1.00  0.00    -0.374 C  
BRANCH  12  13
HETATM   13  C   UNL     1     -10.150   9.870  66.510  1.00  0.00    -0.298 C  
BRANCH  13  14
HETATM   14  C   UNL     1      -9.668  10.962  65.557  1.00  0.00    -0.282 C  
BRANCH  14  15
HETATM   15  C   UNL     1     -10.365  10.860  64.204  1.00  0.00    -0.432 C  
BRANCH  15  16
HETATM   16  C   UNL     1     -11.060  12.163  63.838  1.00  0.00    -0.404 C  
HETATM   17  O   UNL     1     -10.137  13.238  63.920  1.00  0.00    -0.754 OA 
HETATM   18  H   UNL     1     -10.570  14.052  63.691  1.00  0.00     0.000 HD 
ENDBRANCH  15  16
ENDBRANCH  14  15
ENDBRANCH  13  14
ENDBRANCH  12  13
ENDBRANCH  11  12
ENDBRANCH  10  11
ENDBRANCH   9  10
ENDBRANCH   8   9
ENDBRANCH   7   8
ENDBRANCH   6   7
ENDBRANCH   5   6
ENDBRANCH   4   5
ENDBRANCH   3   4
ENDBRANCH   2   3
TORSDOF 14
ENDMDL
MODEL      135
REMARK 921   NORMALIZED FREE ENERGY PREDICTED BY IDOCK:   -3.45 KCAL/MOL
REMARK 922        TOTAL FREE ENERGY PREDICTED BY IDOCK:   -7.65 KCAL/MOL
REMARK 923 INTER-LIGAND FREE ENERGY PREDICTED BY IDOCK:   -6.69 KCAL/MOL
REMARK 924 INTRA-LIGAND FREE ENERGY PREDICTED BY IDOCK:   -0.96 KCAL/MOL
REMARK 927      BINDING AFFINITY PREDICTED BY RF-SCORE:    0.00 PKD
ROOT
HETATM    1  C   UNL     1     -12.655  13.827  65.606  1.00  0.00    -0.551 C  
HETATM    2  C   UNL     1     -12.129  14.180  64.226  1.00  0.00    -0.471 C  
ENDROOT
BRANCH   2   3
HETATM    3  C   UNL     1     -12.039  12.943  63.335  1.00  0.00    -0.610 C  
BRANCH   3   4
HETATM    4  C   UNL     1     -11.381  11.777  64.070  1.00  0.00    -0.461 C  
BRANCH   4   5
HETATM    5  C   UNL     1     -10.131  11.303  63.332  1.00  0.00    -0.445 C  
BRANCH   5   6
HETATM    6  C   UNL     1      -9.451  10.163  64.082  1.00  0.00    -0.353 C  
BRANCH   6   7
HETATM    7  C   UNL     1      -9.831  10.181  65.561  1.00  0.00    -0.365 C  
BRANCH   7   8
HETATM    8  C   UNL     1      -9.683   8.793  66.179  1.00  0.00    -0.320 C  
BRANCH   8   9
HETATM    9  C   UNL     1     -10.676   8.600  67.322  1.00  0.00    -0.209 C  
BRANCH   9  10
HETATM   10  C   UNL     1     -10.139   7.604  68.346  1.00  0.00    -0.208 C  
BRANCH  10  11
HETATM   11  C   UNL     1     -11.102   6.434  68.527  1.00  0.00    -0.385 C  
BRANCH  11  12
HETATM   12  C   UNL     1     -11.620   6.372  69.961  1.00  0.00    -0.446 C  
BRANCH  12  13
HETATM   13  C   UNL     1     -11.134   7.570  70.772  1.00  0.00    -0.280 C  
BRANCH  13  14
HETATM   14  C   UNL     1     -12.309   8.320  71.396  1.00  0.00    -0.326 C  
BRANCH  14  15
HETATM   15  C   UNL     1     -11.999   9.807  71.542  1.00  0.00    -0.488 C  
BRANCH  15  16
HETATM   16  C   UNL     1     -12.046  10.518  70.198  1.00  0.00    -0.300 C  
HETATM   17  O   UNL     1     -10.931  11.388  70.075  1.00  0.00    -0.474 OA 
HETATM   18  H   UNL     1     -10.960  11.832  69.236  1.00  0.00     0.000 HD 
ENDBRANCH  15  16
ENDBRANCH  14  15
ENDBRANCH  13  14
ENDBRANCH  12  13
ENDBRANCH  11  12
ENDBRANCH  10  11
ENDBRANCH   9  10
ENDBRANCH   8   9
ENDBRANCH   7   8
ENDBRANCH   6   7
ENDBRANCH   5   6
ENDBRANCH   4   5
ENDBRANCH   3   4
ENDBRANCH   2   3
TORSDOF 14
ENDMDL
MODEL      136
REMARK 921   NORMALIZED FREE ENERGY PREDICTED BY IDOCK:   -3.44 KCAL/MOL
REMARK 922        TOTAL FREE ENERGY PREDICTED BY IDOCK:   -7.64 KCAL/MOL
REMARK 923 INTER-LIGAND FREE ENERGY PREDICTED BY IDOCK:   -6.69 KCAL/MOL
REMARK 924 INTRA-LIGAND FREE ENERGY PREDICTED BY IDOCK:   -0.95 KCAL/MOL
REMARK 927      BINDING AFFINITY PREDICTED BY RF-SCORE:    0.00 PKD
ROOT
HETATM    1  C   UNL     1      -9.798  19.812  68.090  1.00  0.00    -0.536 C  
HETATM    2  C   UNL     1     -10.731  19.174  67.076  1.00  0.00    -0.542 C  
ENDROOT
BRANCH   2   3
HETATM    3  C   UNL     1     -10.074  17.971  66.401  1.00  0.00    -0.384 C  
BRANCH   3   4
HETATM    4  C   UNL     1     -10.646  16.658  66.929  1.00  0.00    -0.229 C  
BRANCH   4   5
HETATM    5  C   UNL     1      -9.576  15.853  67.663  1.00  0.00    -0.221 C  
BRANCH   5   6
HETATM    6  C   UNL     1      -9.992  15.573  69.103  1.00  0.00    -0.246 C  
BRANCH   6   7
HETATM    7  C   UNL     1     -11.498  15.752  69.279  1.00  0.00    -0.368 C  
BRANCH   7   8
HETATM    8  C   UNL     1     -11.845  16.062  70.733  1.00  0.00    -0.372 C  
BRANCH   8   9
HETATM    9  C   UNL     1     -13.187  15.444  71.115  1.00  0.00    -0.583 C  
BRANCH   9  10
HETATM   10  C   UNL     1     -13.037  14.521  72.320  1.00  0.00    -0.458 C  
BRANCH  10  11
HETATM   11  C   UNL     1     -13.305  13.069  71.933  1.00  0.00    -0.539 C  
BRANCH  11  12
HETATM   12  C   UNL     1     -12.536  12.691  70.670  1.00  0.00    -0.323 C  
BRANCH  12  13
HETATM   13  C   UNL     1     -12.301  11.184  70.603  1.00  0.00    -0.482 C  
BRANCH  13  14
HETATM   14  C   UNL     1     -11.045  10.862  69.797  1.00  0.00    -0.328 C  
BRANCH  14  15
HETATM   15  C   UNL     1     -11.359  10.751  68.308  1.00  0.00    -0.376 C  
BRANCH  15  16
HETATM   16  C   UNL     1     -10.638   9.571  67.674  1.00  0.00    -0.269 C  
HETATM   17  O   UNL     1     -11.116   8.359  68.236  1.00  0.00    -0.433 OA 
HETATM   18  H   UNL     1     -10.666   7.621  67.841  1.00  0.00     0.000 HD 
ENDBRANCH  15  16
ENDBRANCH  14  15
ENDBRANCH  13  14
ENDBRANCH  12  13
ENDBRANCH  11  12
ENDBRANCH  10  11
ENDBRANCH   9  10
ENDBRANCH   8   9
ENDBRANCH   7   8
ENDBRANCH   6   7
ENDBRANCH   5   6
ENDBRANCH   4   5
ENDBRANCH   3   4
ENDBRANCH   2   3
TORSDOF 14
ENDMDL
MODEL      137
REMARK 921   NORMALIZED FREE ENERGY PREDICTED BY IDOCK:   -3.44 KCAL/MOL
REMARK 922        TOTAL FREE ENERGY PREDICTED BY IDOCK:   -7.63 KCAL/MOL
REMARK 923 INTER-LIGAND FREE ENERGY PREDICTED BY IDOCK:   -5.77 KCAL/MOL
REMARK 924 INTRA-LIGAND FREE ENERGY PREDICTED BY IDOCK:   -1.86 KCAL/MOL
REMARK 927      BINDING AFFINITY PREDICTED BY RF-SCORE:    0.00 PKD
ROOT
HETATM    1  C   UNL     1     -10.771  19.494  67.198  1.00  0.00    -0.599 C  
HETATM    2  C   UNL     1      -9.471  20.258  67.384  1.00  0.00    -0.547 C  
ENDROOT
BRANCH   2   3
HETATM    3  C   UNL     1      -8.264  19.327  67.288  1.00  0.00    -0.304 C  
BRANCH   3   4
HETATM    4  C   UNL     1      -8.538  18.160  66.342  1.00  0.00    -0.251 C  
BRANCH   4   5
HETATM    5  C   UNL     1      -7.723  16.932  66.739  1.00  0.00    -0.283 C  
BRANCH   5   6
HETATM    6  C   UNL     1      -8.621  15.836  67.304  1.00  0.00    -0.209 C  
BRANCH   6   7
HETATM    7  C   UNL     1      -9.925  15.741  66.516  1.00  0.00    -0.283 C  
BRANCH   7   8
HETATM    8  C   UNL     1     -11.098  15.424  67.439  1.00  0.00    -0.311 C  
BRANCH   8   9
HETATM    9  C   UNL     1     -10.874  16.017  68.827  1.00  0.00    -0.302 C  
BRANCH   9  10
HETATM   10  C   UNL     1     -11.310  15.039  69.913  1.00  0.00    -0.307 C  
BRANCH  10  11
HETATM   11  C   UNL     1     -12.134  13.898  69.323  1.00  0.00    -0.383 C  
BRANCH  11  12
HETATM   12  C   UNL     1     -11.933  12.611  70.119  1.00  0.00    -0.375 C  
BRANCH  12  13
HETATM   13  C   UNL     1     -11.565  11.450  69.199  1.00  0.00    -0.381 C  
BRANCH  13  14
HETATM   14  C   UNL     1     -11.713  11.847  67.732  1.00  0.00    -0.362 C  
BRANCH  14  15
HETATM   15  C   UNL     1     -10.550  11.318  66.898  1.00  0.00    -0.300 C  
BRANCH  15  16
HETATM   16  C   UNL     1      -9.230  11.938  67.330  1.00  0.00    -0.179 C  
HETATM   17  O   UNL     1      -8.442  12.235  66.187  1.00  0.00    -0.394 OA 
HETATM   18  H   UNL     1      -7.617  12.622  66.457  1.00  0.00     0.000 HD 
ENDBRANCH  15  16
ENDBRANCH  14  15
ENDBRANCH  13  14
ENDBRANCH  12  13
ENDBRANCH  11  12
ENDBRANCH  10  11
ENDBRANCH   9  10
ENDBRANCH   8   9
ENDBRANCH   7   8
ENDBRANCH   6   7
ENDBRANCH   5   6
ENDBRANCH   4   5
ENDBRANCH   3   4
ENDBRANCH   2   3
TORSDOF 14
ENDMDL
MODEL      138
REMARK 921   NORMALIZED FREE ENERGY PREDICTED BY IDOCK:   -3.44 KCAL/MOL
REMARK 922        TOTAL FREE ENERGY PREDICTED BY IDOCK:   -7.63 KCAL/MOL
REMARK 923 INTER-LIGAND FREE ENERGY PREDICTED BY IDOCK:   -6.27 KCAL/MOL
REMARK 924 INTRA-LIGAND FREE ENERGY PREDICTED BY IDOCK:   -1.36 KCAL/MOL
REMARK 927      BINDING AFFINITY PREDICTED BY RF-SCORE:    0.00 PKD
ROOT
HETATM    1  C   UNL     1     -11.353   8.719  72.047  1.00  0.00    -0.441 C  
HETATM    2  C   UNL     1     -12.667   9.393  71.690  1.00  0.00    -0.459 C  
ENDROOT
BRANCH   2   3
HETATM    3  C   UNL     1     -12.453  10.858  71.315  1.00  0.00    -0.493 C  
BRANCH   3   4
HETATM    4  C   UNL     1     -12.509  11.057  69.802  1.00  0.00    -0.251 C  
BRANCH   4   5
HETATM    5  C   UNL     1     -11.202  11.651  69.281  1.00  0.00    -0.328 C  
BRANCH   5   6
HETATM    6  C   UNL     1     -11.446  12.985  68.583  1.00  0.00    -0.344 C  
BRANCH   6   7
HETATM    7  C   UNL     1     -11.885  12.769  67.136  1.00  0.00    -0.415 C  
BRANCH   7   8
HETATM    8  C   UNL     1     -11.948  14.095  66.382  1.00  0.00    -0.457 C  
BRANCH   8   9
HETATM    9  C   UNL     1     -11.096  14.041  65.117  1.00  0.00    -0.341 C  
BRANCH   9  10
HETATM   10  C   UNL     1     -11.691  13.072  64.101  1.00  0.00    -0.470 C  
BRANCH  10  11
HETATM   11  C   UNL     1     -10.603  12.214  63.462  1.00  0.00    -0.501 C  
BRANCH  11  12
HETATM   12  C   UNL     1     -10.492  10.863  64.163  1.00  0.00    -0.397 C  
BRANCH  12  13
HETATM   13  C   UNL     1      -9.117  10.689  64.803  1.00  0.00    -0.236 C  
BRANCH  13  14
HETATM   14  C   UNL     1      -9.201  10.820  66.322  1.00  0.00    -0.195 C  
BRANCH  14  15
HETATM   15  C   UNL     1      -9.056   9.461  67.001  1.00  0.00    -0.155 C  
BRANCH  15  16
HETATM   16  C   UNL     1     -10.401   8.763  67.138  1.00  0.00    -0.293 C  
HETATM   17  O   UNL     1     -10.384   7.542  66.414  1.00  0.00    -0.490 OA 
HETATM   18  H   UNL     1     -11.224   7.106  66.499  1.00  0.00     0.000 HD 
ENDBRANCH  15  16
ENDBRANCH  14  15
ENDBRANCH  13  14
ENDBRANCH  12  13
ENDBRANCH  11  12
ENDBRANCH  10  11
ENDBRANCH   9  10
ENDBRANCH   8   9
ENDBRANCH   7   8
ENDBRANCH   6   7
ENDBRANCH   5   6
ENDBRANCH   4   5
ENDBRANCH   3   4
ENDBRANCH   2   3
TORSDOF 14
ENDMDL
MODEL      139
REMARK 921   NORMALIZED FREE ENERGY PREDICTED BY IDOCK:   -3.43 KCAL/MOL
REMARK 922        TOTAL FREE ENERGY PREDICTED BY IDOCK:   -7.62 KCAL/MOL
REMARK 923 INTER-LIGAND FREE ENERGY PREDICTED BY IDOCK:   -6.07 KCAL/MOL
REMARK 924 INTRA-LIGAND FREE ENERGY PREDICTED BY IDOCK:   -1.55 KCAL/MOL
REMARK 927      BINDING AFFINITY PREDICTED BY RF-SCORE:    0.00 PKD
ROOT
HETATM    1  C   UNL     1     -14.174  15.169  72.112  1.00  0.00    -0.656 C  
HETATM    2  C   UNL     1     -12.702  14.955  71.804  1.00  0.00    -0.401 C  
ENDROOT
BRANCH   2   3
HETATM    3  C   UNL     1     -12.493  13.714  70.938  1.00  0.00    -0.448 C  
BRANCH   3   4
HETATM    4  C   UNL     1     -13.113  12.477  71.583  1.00  0.00    -0.414 C  
BRANCH   4   5
HETATM    5  C   UNL     1     -12.571  11.200  70.946  1.00  0.00    -0.483 C  
BRANCH   5   6
HETATM    6  C   UNL     1     -12.646  10.027  71.918  1.00  0.00    -0.454 C  
BRANCH   6   7
HETATM    7  C   UNL     1     -11.374   9.184  71.852  1.00  0.00    -0.416 C  
BRANCH   7   8
HETATM    8  C   UNL     1     -11.679   7.775  71.350  1.00  0.00    -0.310 C  
BRANCH   8   9
HETATM    9  C   UNL     1     -10.663   7.343  70.297  1.00  0.00    -0.250 C  
BRANCH   9  10
HETATM   10  C   UNL     1     -10.064   8.554  69.590  1.00  0.00    -0.202 C  
BRANCH  10  11
HETATM   11  C   UNL     1     -10.495   8.602  68.127  1.00  0.00    -0.241 C  
BRANCH  11  12
HETATM   12  C   UNL     1     -10.708  10.042  67.668  1.00  0.00    -0.340 C  
BRANCH  12  13
HETATM   13  C   UNL     1      -9.717  10.985  68.346  1.00  0.00    -0.181 C  
BRANCH  13  14
HETATM   14  C   UNL     1     -10.272  12.406  68.411  1.00  0.00    -0.227 C  
BRANCH  14  15
HETATM   15  C   UNL     1     -11.101  12.731  67.173  1.00  0.00    -0.315 C  
BRANCH  15  16
HETATM   16  C   UNL     1     -11.858  14.040  67.339  1.00  0.00    -0.409 C  
HETATM   17  O   UNL     1     -11.562  14.908  66.256  1.00  0.00    -0.328 OA 
HETATM   18  H   UNL     1     -12.034  15.726  66.360  1.00  0.00     0.000 HD 
ENDBRANCH  15  16
ENDBRANCH  14  15
ENDBRANCH  13  14
ENDBRANCH  12  13
ENDBRANCH  11  12
ENDBRANCH  10  11
ENDBRANCH   9  10
ENDBRANCH   8   9
ENDBRANCH   7   8
ENDBRANCH   6   7
ENDBRANCH   5   6
ENDBRANCH   4   5
ENDBRANCH   3   4
ENDBRANCH   2   3
TORSDOF 14
ENDMDL
MODEL      140
REMARK 921   NORMALIZED FREE ENERGY PREDICTED BY IDOCK:   -3.43 KCAL/MOL
REMARK 922        TOTAL FREE ENERGY PREDICTED BY IDOCK:   -7.61 KCAL/MOL
REMARK 923 INTER-LIGAND FREE ENERGY PREDICTED BY IDOCK:   -6.30 KCAL/MOL
REMARK 924 INTRA-LIGAND FREE ENERGY PREDICTED BY IDOCK:   -1.32 KCAL/MOL
REMARK 927      BINDING AFFINITY PREDICTED BY RF-SCORE:    0.00 PKD
ROOT
HETATM    1  C   UNL     1     -13.269   9.738  71.768  1.00  0.00    -0.532 C  
HETATM    2  C   UNL     1     -12.861   8.331  72.169  1.00  0.00    -0.348 C  
ENDROOT
BRANCH   2   3
HETATM    3  C   UNL     1     -12.996   7.362  70.996  1.00  0.00    -0.204 C  
BRANCH   3   4
HETATM    4  C   UNL     1     -11.694   6.603  70.751  1.00  0.00    -0.445 C  
BRANCH   4   5
HETATM    5  C   UNL     1     -10.777   7.381  69.810  1.00  0.00    -0.252 C  
BRANCH   5   6
HETATM    6  C   UNL     1      -9.505   7.824  70.526  1.00  0.00    -0.163 C  
BRANCH   6   7
HETATM    7  C   UNL     1      -9.547   9.318  70.836  1.00  0.00    -0.339 C  
BRANCH   7   8
HETATM    8  C   UNL     1     -10.146  10.101  69.671  1.00  0.00    -0.265 C  
BRANCH   8   9
HETATM    9  C   UNL     1      -9.053  10.575  68.717  1.00  0.00    -0.166 C  
BRANCH   9  10
HETATM   10  C   UNL     1      -9.467  11.863  68.012  1.00  0.00    -0.197 C  
BRANCH  10  11
HETATM   11  C   UNL     1     -10.828  12.344  68.509  1.00  0.00    -0.270 C  
BRANCH  11  12
HETATM   12  C   UNL     1     -11.018  13.831  68.221  1.00  0.00    -0.269 C  
BRANCH  12  13
HETATM   13  C   UNL     1     -12.096  14.050  67.162  1.00  0.00    -0.436 C  
BRANCH  13  14
HETATM   14  C   UNL     1     -11.542  13.811  65.760  1.00  0.00    -0.342 C  
BRANCH  14  15
HETATM   15  C   UNL     1     -12.271  12.665  65.067  1.00  0.00    -0.535 C  
BRANCH  15  16
HETATM   16  C   UNL     1     -12.129  12.749  63.555  1.00  0.00    -0.559 C  
HETATM   17  O   UNL     1     -12.368  11.475  62.977  1.00  0.00    -0.975 OA 
HETATM   18  H   UNL     1     -12.279  11.528  62.033  1.00  0.00     0.000 HD 
ENDBRANCH  15  16
ENDBRANCH  14  15
ENDBRANCH  13  14
ENDBRANCH  12  13
ENDBRANCH  11  12
ENDBRANCH  10  11
ENDBRANCH   9  10
ENDBRANCH   8   9
ENDBRANCH   7   8
ENDBRANCH   6   7
ENDBRANCH   5   6
ENDBRANCH   4   5
ENDBRANCH   3   4
ENDBRANCH   2   3
TORSDOF 14
ENDMDL
MODEL      141
REMARK 921   NORMALIZED FREE ENERGY PREDICTED BY IDOCK:   -3.43 KCAL/MOL
REMARK 922        TOTAL FREE ENERGY PREDICTED BY IDOCK:   -7.61 KCAL/MOL
REMARK 923 INTER-LIGAND FREE ENERGY PREDICTED BY IDOCK:   -5.70 KCAL/MOL
REMARK 924 INTRA-LIGAND FREE ENERGY PREDICTED BY IDOCK:   -1.91 KCAL/MOL
REMARK 927      BINDING AFFINITY PREDICTED BY RF-SCORE:    0.00 PKD
ROOT
HETATM    1  C   UNL     1     -11.678  13.064  64.348  1.00  0.00    -0.426 C  
HETATM    2  C   UNL     1     -12.633  13.478  65.454  1.00  0.00    -0.531 C  
ENDROOT
BRANCH   2   3
HETATM    3  C   UNL     1     -11.883  14.115  66.622  1.00  0.00    -0.447 C  
BRANCH   3   4
HETATM    4  C   UNL     1     -10.413  14.344  66.278  1.00  0.00    -0.292 C  
BRANCH   4   5
HETATM    5  C   UNL     1      -9.545  14.297  67.533  1.00  0.00    -0.216 C  
BRANCH   5   6
HETATM    6  C   UNL     1      -8.340  13.383  67.333  1.00  0.00    -0.193 C  
BRANCH   6   7
HETATM    7  C   UNL     1      -8.698  12.199  66.437  1.00  0.00    -0.052 C  
BRANCH   7   8
HETATM    8  C   UNL     1      -9.121  10.993  67.271  1.00  0.00    -0.142 C  
BRANCH   8   9
HETATM    9  C   UNL     1     -10.506  10.505  66.856  1.00  0.00    -0.303 C  
BRANCH   9  10
HETATM   10  C   UNL     1     -11.561  10.939  67.868  1.00  0.00    -0.270 C  
BRANCH  10  11
HETATM   11  C   UNL     1     -10.926  11.256  69.219  1.00  0.00    -0.297 C  
BRANCH  11  12
HETATM   12  C   UNL     1     -11.995  11.503  70.280  1.00  0.00    -0.455 C  
BRANCH  12  13
HETATM   13  C   UNL     1     -12.233  12.997  70.481  1.00  0.00    -0.392 C  
BRANCH  13  14
HETATM   14  C   UNL     1     -12.809  13.276  71.868  1.00  0.00    -0.335 C  
BRANCH  14  15
HETATM   15  C   UNL     1     -13.632  14.561  71.874  1.00  0.00    -0.484 C  
BRANCH  15  16
HETATM   16  C   UNL     1     -13.183  15.513  70.775  1.00  0.00    -0.337 C  
HETATM   17  O   UNL     1     -11.943  16.105  71.129  1.00  0.00    -0.532 OA 
HETATM   18  H   UNL     1     -11.663  16.700  70.443  1.00  0.00     0.000 HD 
ENDBRANCH  15  16
ENDBRANCH  14  15
ENDBRANCH  13  14
ENDBRANCH  12  13
ENDBRANCH  11  12
ENDBRANCH  10  11
ENDBRANCH   9  10
ENDBRANCH   8   9
ENDBRANCH   7   8
ENDBRANCH   6   7
ENDBRANCH   5   6
ENDBRANCH   4   5
ENDBRANCH   3   4
ENDBRANCH   2   3
TORSDOF 14
ENDMDL
MODEL      142
REMARK 921   NORMALIZED FREE ENERGY PREDICTED BY IDOCK:   -3.42 KCAL/MOL
REMARK 922        TOTAL FREE ENERGY PREDICTED BY IDOCK:   -7.61 KCAL/MOL
REMARK 923 INTER-LIGAND FREE ENERGY PREDICTED BY IDOCK:   -5.89 KCAL/MOL
REMARK 924 INTRA-LIGAND FREE ENERGY PREDICTED BY IDOCK:   -1.71 KCAL/MOL
REMARK 927      BINDING AFFINITY PREDICTED BY RF-SCORE:    0.00 PKD
ROOT
HETATM    1  C   UNL     1      -7.108  18.739  65.739  1.00  0.00    -0.265 C  
HETATM    2  C   UNL     1      -7.859  19.973  66.208  1.00  0.00    -0.323 C  
ENDROOT
BRANCH   2   3
HETATM    3  C   UNL     1      -9.369  19.741  66.188  1.00  0.00    -0.439 C  
BRANCH   3   4
HETATM    4  C   UNL     1      -9.917  19.536  67.598  1.00  0.00    -0.498 C  
BRANCH   4   5
HETATM    5  C   UNL     1     -10.679  18.217  67.701  1.00  0.00    -0.364 C  
BRANCH   5   6
HETATM    6  C   UNL     1      -9.762  17.087  68.157  1.00  0.00    -0.268 C  
BRANCH   6   7
HETATM    7  C   UNL     1      -9.412  16.166  66.991  1.00  0.00    -0.233 C  
BRANCH   7   8
HETATM    8  C   UNL     1      -8.098  15.434  67.250  1.00  0.00    -0.228 C  
BRANCH   8   9
HETATM    9  C   UNL     1      -8.290  13.923  67.154  1.00  0.00    -0.171 C  
BRANCH   9  10
HETATM   10  C   UNL     1      -8.682  13.338  68.506  1.00  0.00    -0.059 C  
BRANCH  10  11
HETATM   11  C   UNL     1     -10.006  12.584  68.412  1.00  0.00    -0.212 C  
BRANCH  11  12
HETATM   12  C   UNL     1     -11.182  13.509  68.711  1.00  0.00    -0.311 C  
BRANCH  12  13
HETATM   13  C   UNL     1     -12.063  13.692  67.477  1.00  0.00    -0.352 C  
BRANCH  13  14
HETATM   14  C   UNL     1     -11.666  12.714  66.374  1.00  0.00    -0.466 C  
BRANCH  14  15
HETATM   15  C   UNL     1     -12.541  12.894  65.137  1.00  0.00    -0.536 C  
BRANCH  15  16
HETATM   16  C   UNL     1     -11.946  13.917  64.180  1.00  0.00    -0.428 C  
HETATM   17  O   UNL     1     -11.802  13.341  62.891  1.00  0.00    -0.742 OA 
HETATM   18  H   UNL     1     -11.430  13.980  62.293  1.00  0.00     0.000 HD 
ENDBRANCH  15  16
ENDBRANCH  14  15
ENDBRANCH  13  14
ENDBRANCH  12  13
ENDBRANCH  11  12
ENDBRANCH  10  11
ENDBRANCH   9  10
ENDBRANCH   8   9
ENDBRANCH   7   8
ENDBRANCH   6   7
ENDBRANCH   5   6
ENDBRANCH   4   5
ENDBRANCH   3   4
ENDBRANCH   2   3
TORSDOF 14
ENDMDL
MODEL      143
REMARK 921   NORMALIZED FREE ENERGY PREDICTED BY IDOCK:   -3.42 KCAL/MOL
REMARK 922        TOTAL FREE ENERGY PREDICTED BY IDOCK:   -7.60 KCAL/MOL
REMARK 923 INTER-LIGAND FREE ENERGY PREDICTED BY IDOCK:   -6.19 KCAL/MOL
REMARK 924 INTRA-LIGAND FREE ENERGY PREDICTED BY IDOCK:   -1.41 KCAL/MOL
REMARK 927      BINDING AFFINITY PREDICTED BY RF-SCORE:    0.00 PKD
ROOT
HETATM    1  C   UNL     1     -10.632  16.685  69.658  1.00  0.00    -0.274 C  
HETATM    2  C   UNL     1     -11.276  15.369  70.060  1.00  0.00    -0.314 C  
ENDROOT
BRANCH   2   3
HETATM    3  C   UNL     1     -11.976  14.711  68.873  1.00  0.00    -0.309 C  
BRANCH   3   4
HETATM    4  C   UNL     1     -11.372  13.344  68.561  1.00  0.00    -0.324 C  
BRANCH   4   5
HETATM    5  C   UNL     1     -11.908  12.280  69.515  1.00  0.00    -0.380 C  
BRANCH   5   6
HETATM    6  C   UNL     1     -11.196  10.947  69.307  1.00  0.00    -0.327 C  
BRANCH   6   7
HETATM    7  C   UNL     1     -11.113  10.600  67.822  1.00  0.00    -0.385 C  
BRANCH   7   8
HETATM    8  C   UNL     1      -9.993   9.598  67.558  1.00  0.00    -0.231 C  
BRANCH   8   9
HETATM    9  C   UNL     1     -10.024   9.118  66.110  1.00  0.00    -0.338 C  
BRANCH   9  10
HETATM   10  C   UNL     1      -8.915   9.775  65.295  1.00  0.00    -0.233 C  
BRANCH  10  11
HETATM   11  C   UNL     1      -9.432  10.227  63.931  1.00  0.00    -0.356 C  
BRANCH  11  12
HETATM   12  C   UNL     1     -10.690  11.078  64.080  1.00  0.00    -0.344 C  
BRANCH  12  13
HETATM   13  C   UNL     1     -10.408  12.538  63.734  1.00  0.00    -0.418 C  
BRANCH  13  14
HETATM   14  C   UNL     1     -10.169  13.362  64.997  1.00  0.00    -0.325 C  
BRANCH  14  15
HETATM   15  C   UNL     1     -10.889  14.705  64.923  1.00  0.00    -0.436 C  
BRANCH  15  16
HETATM   16  C   UNL     1     -12.277  14.558  64.317  1.00  0.00    -0.415 C  
HETATM   17  O   UNL     1     -13.163  14.004  65.277  1.00  0.00    -0.782 OA 
HETATM   18  H   UNL     1     -14.030  13.912  64.900  1.00  0.00     0.000 HD 
ENDBRANCH  15  16
ENDBRANCH  14  15
ENDBRANCH  13  14
ENDBRANCH  12  13
ENDBRANCH  11  12
ENDBRANCH  10  11
ENDBRANCH   9  10
ENDBRANCH   8   9
ENDBRANCH   7   8
ENDBRANCH   6   7
ENDBRANCH   5   6
ENDBRANCH   4   5
ENDBRANCH   3   4
ENDBRANCH   2   3
TORSDOF 14
ENDMDL
MODEL      144
REMARK 921   NORMALIZED FREE ENERGY PREDICTED BY IDOCK:   -3.42 KCAL/MOL
REMARK 922        TOTAL FREE ENERGY PREDICTED BY IDOCK:   -7.60 KCAL/MOL
REMARK 923 INTER-LIGAND FREE ENERGY PREDICTED BY IDOCK:   -6.21 KCAL/MOL
REMARK 924 INTRA-LIGAND FREE ENERGY PREDICTED BY IDOCK:   -1.39 KCAL/MOL
REMARK 927      BINDING AFFINITY PREDICTED BY RF-SCORE:    0.00 PKD
ROOT
HETATM    1  C   UNL     1      -6.814  17.397  66.304  1.00  0.00    -0.307 C  
HETATM    2  C   UNL     1      -6.994  18.831  66.771  1.00  0.00    -0.215 C  
ENDROOT
BRANCH   2   3
HETATM    3  C   UNL     1      -8.332  19.401  66.305  1.00  0.00    -0.346 C  
BRANCH   3   4
HETATM    4  C   UNL     1      -9.349  19.432  67.444  1.00  0.00    -0.388 C  
BRANCH   4   5
HETATM    5  C   UNL     1     -10.641  18.726  67.041  1.00  0.00    -0.483 C  
BRANCH   5   6
HETATM    6  C   UNL     1     -10.393  17.248  66.758  1.00  0.00    -0.308 C  
BRANCH   6   7
HETATM    7  C   UNL     1     -10.851  16.879  65.349  1.00  0.00    -0.113 C  
BRANCH   7   8
HETATM    8  C   UNL     1     -10.739  15.375  65.115  1.00  0.00    -0.460 C  
BRANCH   8   9
HETATM    9  C   UNL     1     -12.043  14.813  64.557  1.00  0.00    -0.460 C  
BRANCH   9  10
HETATM   10  C   UNL     1     -11.858  13.375  64.085  1.00  0.00    -0.492 C  
BRANCH  10  11
HETATM   11  C   UNL     1     -12.048  12.392  65.238  1.00  0.00    -0.451 C  
BRANCH  11  12
HETATM   12  C   UNL     1     -10.719  11.759  65.639  1.00  0.00    -0.328 C  
BRANCH  12  13
HETATM   13  C   UNL     1     -10.381  12.070  67.095  1.00  0.00    -0.235 C  
BRANCH  13  14
HETATM   14  C   UNL     1     -11.581  11.805  68.002  1.00  0.00    -0.386 C  
BRANCH  14  15
HETATM   15  C   UNL     1     -11.571  12.733  69.213  1.00  0.00    -0.372 C  
BRANCH  15  16
HETATM   16  C   UNL     1     -11.322  14.176  68.804  1.00  0.00    -0.278 C  
HETATM   17  O   UNL     1     -12.509  14.734  68.262  1.00  0.00    -0.584 OA 
HETATM   18  H   UNL     1     -12.354  15.636  68.007  1.00  0.00     0.000 HD 
ENDBRANCH  15  16
ENDBRANCH  14  15
ENDBRANCH  13  14
ENDBRANCH  12  13
ENDBRANCH  11  12
ENDBRANCH  10  11
ENDBRANCH   9  10
ENDBRANCH   8   9
ENDBRANCH   7   8
ENDBRANCH   6   7
ENDBRANCH   5   6
ENDBRANCH   4   5
ENDBRANCH   3   4
ENDBRANCH   2   3
TORSDOF 14
ENDMDL
MODEL      145
REMARK 921   NORMALIZED FREE ENERGY PREDICTED BY IDOCK:   -3.41 KCAL/MOL
REMARK 922        TOTAL FREE ENERGY PREDICTED BY IDOCK:   -7.58 KCAL/MOL
REMARK 923 INTER-LIGAND FREE ENERGY PREDICTED BY IDOCK:   -6.08 KCAL/MOL
REMARK 924 INTRA-LIGAND FREE ENERGY PREDICTED BY IDOCK:   -1.50 KCAL/MOL
REMARK 927      BINDING AFFINITY PREDICTED BY RF-SCORE:    0.00 PKD
ROOT
HETATM    1  C   UNL     1      -7.197  15.888  67.095  1.00  0.00    -0.254 C  
HETATM    2  C   UNL     1      -7.478  14.650  67.930  1.00  0.00    -0.158 C  
ENDROOT
BRANCH   2   3
HETATM    3  C   UNL     1      -8.436  13.704  67.209  1.00  0.00    -0.203 C  
BRANCH   3   4
HETATM    4  C   UNL     1      -9.177  12.806  68.198  1.00  0.00    -0.212 C  
BRANCH   4   5
HETATM    5  C   UNL     1     -10.651  13.193  68.287  1.00  0.00    -0.260 C  
BRANCH   5   6
HETATM    6  C   UNL     1     -11.536  12.135  67.638  1.00  0.00    -0.413 C  
BRANCH   6   7
HETATM    7  C   UNL     1     -11.837  12.494  66.184  1.00  0.00    -0.459 C  
BRANCH   7   8
HETATM    8  C   UNL     1     -12.301  13.943  66.065  1.00  0.00    -0.511 C  
BRANCH   8   9
HETATM    9  C   UNL     1     -12.200  14.429  64.622  1.00  0.00    -0.479 C  
BRANCH   9  10
HETATM   10  C   UNL     1     -11.125  15.501  64.483  1.00  0.00    -0.290 C  
BRANCH  10  11
HETATM   11  C   UNL     1     -10.618  15.948  65.851  1.00  0.00    -0.348 C  
BRANCH  11  12
HETATM   12  C   UNL     1     -10.528  17.469  65.930  1.00  0.00    -0.251 C  
BRANCH  12  13
HETATM   13  C   UNL     1     -10.223  17.928  67.353  1.00  0.00    -0.363 C  
BRANCH  13  14
HETATM   14  C   UNL     1     -10.575  19.402  67.540  1.00  0.00    -0.591 C  
BRANCH  14  15
HETATM   15  C   UNL     1      -9.752  20.287  66.610  1.00  0.00    -0.550 C  
BRANCH  15  16
HETATM   16  C   UNL     1      -8.262  20.020  66.764  1.00  0.00    -0.318 C  
HETATM   17  O   UNL     1      -7.721  19.590  65.524  1.00  0.00    -0.419 OA 
HETATM   18  H   UNL     1      -6.790  19.423  65.620  1.00  0.00     0.000 HD 
ENDBRANCH  15  16
ENDBRANCH  14  15
ENDBRANCH  13  14
ENDBRANCH  12  13
ENDBRANCH  11  12
ENDBRANCH  10  11
ENDBRANCH   9  10
ENDBRANCH   8   9
ENDBRANCH   7   8
ENDBRANCH   6   7
ENDBRANCH   5   6
ENDBRANCH   4   5
ENDBRANCH   3   4
ENDBRANCH   2   3
TORSDOF 14
ENDMDL
MODEL      146
REMARK 921   NORMALIZED FREE ENERGY PREDICTED BY IDOCK:   -3.40 KCAL/MOL
REMARK 922        TOTAL FREE ENERGY PREDICTED BY IDOCK:   -7.56 KCAL/MOL
REMARK 923 INTER-LIGAND FREE ENERGY PREDICTED BY IDOCK:   -6.72 KCAL/MOL
REMARK 924 INTRA-LIGAND FREE ENERGY PREDICTED BY IDOCK:   -0.84 KCAL/MOL
REMARK 927      BINDING AFFINITY PREDICTED BY RF-SCORE:    0.00 PKD
ROOT
HETATM    1  C   UNL     1      -8.801   4.352  71.661  1.00  0.00    -0.147 C  
HETATM    2  C   UNL     1     -10.178   4.722  71.136  1.00  0.00    -0.229 C  
ENDROOT
BRANCH   2   3
HETATM    3  C   UNL     1     -10.079   5.469  69.807  1.00  0.00    -0.302 C  
BRANCH   3   4
HETATM    4  C   UNL     1     -11.266   6.409  69.610  1.00  0.00    -0.483 C  
BRANCH   4   5
HETATM    5  C   UNL     1     -11.358   7.420  70.750  1.00  0.00    -0.303 C  
BRANCH   5   6
HETATM    6  C   UNL     1     -12.741   7.397  71.394  1.00  0.00    -0.408 C  
BRANCH   6   7
HETATM    7  C   UNL     1     -13.075   8.751  72.014  1.00  0.00    -0.436 C  
BRANCH   7   8
HETATM    8  C   UNL     1     -12.118   9.831  71.517  1.00  0.00    -0.493 C  
BRANCH   8   9
HETATM    9  C   UNL     1     -12.748  10.636  70.385  1.00  0.00    -0.340 C  
BRANCH   9  10
HETATM   10  C   UNL     1     -12.087  12.004  70.257  1.00  0.00    -0.395 C  
BRANCH  10  11
HETATM   11  C   UNL     1     -11.750  12.315  68.801  1.00  0.00    -0.390 C  
BRANCH  11  12
HETATM   12  C   UNL     1     -11.375  11.044  68.045  1.00  0.00    -0.374 C  
BRANCH  12  13
HETATM   13  C   UNL     1     -10.587  11.372  66.779  1.00  0.00    -0.298 C  
BRANCH  13  14
HETATM   14  C   UNL     1     -10.726  12.849  66.417  1.00  0.00    -0.286 C  
BRANCH  14  15
HETATM   15  C   UNL     1     -10.871  13.035  64.909  1.00  0.00    -0.343 C  
BRANCH  15  16
HETATM   16  C   UNL     1     -12.264  13.523  64.542  1.00  0.00    -0.398 C  
HETATM   17  O   UNL     1     -12.332  13.777  63.147  1.00  0.00    -1.099 OA 
HETATM   18  H   UNL     1     -13.202  14.082  62.918  1.00  0.00     0.000 HD 
ENDBRANCH  15  16
ENDBRANCH  14  15
ENDBRANCH  13  14
ENDBRANCH  12  13
ENDBRANCH  11  12
ENDBRANCH  10  11
ENDBRANCH   9  10
ENDBRANCH   8   9
ENDBRANCH   7   8
ENDBRANCH   6   7
ENDBRANCH   5   6
ENDBRANCH   4   5
ENDBRANCH   3   4
ENDBRANCH   2   3
TORSDOF 14
ENDMDL
MODEL      147
REMARK 921   NORMALIZED FREE ENERGY PREDICTED BY IDOCK:   -3.39 KCAL/MOL
REMARK 922        TOTAL FREE ENERGY PREDICTED BY IDOCK:   -7.55 KCAL/MOL
REMARK 923 INTER-LIGAND FREE ENERGY PREDICTED BY IDOCK:   -5.85 KCAL/MOL
REMARK 924 INTRA-LIGAND FREE ENERGY PREDICTED BY IDOCK:   -1.71 KCAL/MOL
REMARK 927      BINDING AFFINITY PREDICTED BY RF-SCORE:    0.00 PKD
ROOT
HETATM    1  C   UNL     1     -10.397   7.161  68.286  1.00  0.00    -0.227 C  
HETATM    2  C   UNL     1     -11.270   6.249  69.130  1.00  0.00    -0.439 C  
ENDROOT
BRANCH   2   3
HETATM    3  C   UNL     1     -10.424   5.369  70.048  1.00  0.00    -0.373 C  
BRANCH   3   4
HETATM    4  C   UNL     1     -10.467   5.870  71.490  1.00  0.00    -0.287 C  
BRANCH   4   5
HETATM    5  C   UNL     1     -11.823   6.493  71.812  1.00  0.00    -0.384 C  
BRANCH   5   6
HETATM    6  C   UNL     1     -11.657   7.860  72.467  1.00  0.00    -0.443 C  
BRANCH   6   7
HETATM    7  C   UNL     1     -10.327   8.496  72.071  1.00  0.00    -0.408 C  
BRANCH   7   8
HETATM    8  C   UNL     1     -10.527   9.551  70.987  1.00  0.00    -0.377 C  
BRANCH   8   9
HETATM    9  C   UNL     1     -11.912  10.183  71.094  1.00  0.00    -0.480 C  
BRANCH   9  10
HETATM   10  C   UNL     1     -12.072  11.315  70.085  1.00  0.00    -0.448 C  
BRANCH  10  11
HETATM   11  C   UNL     1     -11.609  10.881  68.697  1.00  0.00    -0.373 C  
BRANCH  11  12
HETATM   12  C   UNL     1     -11.559  12.070  67.742  1.00  0.00    -0.400 C  
BRANCH  12  13
HETATM   13  C   UNL     1     -10.468  11.884  66.691  1.00  0.00    -0.250 C  
BRANCH  13  14
HETATM   14  C   UNL     1      -9.662  10.614  66.960  1.00  0.00    -0.207 C  
BRANCH  14  15
HETATM   15  C   UNL     1      -8.337  10.633  66.204  1.00  0.00    -0.158 C  
BRANCH  15  16
HETATM   16  C   UNL     1      -8.551  10.488  64.705  1.00  0.00    -0.161 C  
HETATM   17  O   UNL     1      -9.309   9.318  64.438  1.00  0.00    -0.433 OA 
HETATM   18  H   UNL     1      -9.443   9.227  63.502  1.00  0.00     0.000 HD 
ENDBRANCH  15  16
ENDBRANCH  14  15
ENDBRANCH  13  14
ENDBRANCH  12  13
ENDBRANCH  11  12
ENDBRANCH  10  11
ENDBRANCH   9  10
ENDBRANCH   8   9
ENDBRANCH   7   8
ENDBRANCH   6   7
ENDBRANCH   5   6
ENDBRANCH   4   5
ENDBRANCH   3   4
ENDBRANCH   2   3
TORSDOF 14
ENDMDL
MODEL      148
REMARK 921   NORMALIZED FREE ENERGY PREDICTED BY IDOCK:   -3.39 KCAL/MOL
REMARK 922        TOTAL FREE ENERGY PREDICTED BY IDOCK:   -7.55 KCAL/MOL
REMARK 923 INTER-LIGAND FREE ENERGY PREDICTED BY IDOCK:   -5.73 KCAL/MOL
REMARK 924 INTRA-LIGAND FREE ENERGY PREDICTED BY IDOCK:   -1.82 KCAL/MOL
REMARK 927      BINDING AFFINITY PREDICTED BY RF-SCORE:    0.00 PKD
ROOT
HETATM    1  C   UNL     1     -13.208  10.590  71.299  1.00  0.00    -0.399 C  
HETATM    2  C   UNL     1     -13.526   9.441  72.241  1.00  0.00    -0.539 C  
ENDROOT
BRANCH   2   3
HETATM    3  C   UNL     1     -14.121   8.255  71.484  1.00  0.00    -0.446 C  
BRANCH   3   4
HETATM    4  C   UNL     1     -13.262   7.004  71.650  1.00  0.00    -0.368 C  
BRANCH   4   5
HETATM    5  C   UNL     1     -12.026   7.068  70.755  1.00  0.00    -0.392 C  
BRANCH   5   6
HETATM    6  C   UNL     1     -10.821   6.427  71.436  1.00  0.00    -0.301 C  
BRANCH   6   7
HETATM    7  C   UNL     1      -9.571   7.284  71.250  1.00  0.00    -0.164 C  
BRANCH   7   8
HETATM    8  C   UNL     1      -9.909   8.770  71.343  1.00  0.00    -0.353 C  
BRANCH   8   9
HETATM    9  C   UNL     1      -9.175   9.562  70.265  1.00  0.00    -0.303 C  
BRANCH   9  10
HETATM   10  C   UNL     1      -9.249   8.847  68.920  1.00  0.00    -0.140 C  
BRANCH  10  11
HETATM   11  C   UNL     1     -10.524   9.222  68.171  1.00  0.00    -0.263 C  
BRANCH  11  12
HETATM   12  C   UNL     1     -10.395  10.601  67.530  1.00  0.00    -0.254 C  
BRANCH  12  13
HETATM   13  C   UNL     1     -11.508  11.532  68.004  1.00  0.00    -0.381 C  
BRANCH  13  14
HETATM   14  C   UNL     1     -10.933  12.747  68.728  1.00  0.00    -0.289 C  
BRANCH  14  15
HETATM   15  C   UNL     1     -11.811  13.978  68.523  1.00  0.00    -0.399 C  
BRANCH  15  16
HETATM   16  C   UNL     1     -12.136  14.188  67.052  1.00  0.00    -0.414 C  
HETATM   17  O   UNL     1     -11.042  14.816  66.403  1.00  0.00    -0.330 OA 
HETATM   18  H   UNL     1     -11.245  14.947  65.484  1.00  0.00     0.000 HD 
ENDBRANCH  15  16
ENDBRANCH  14  15
ENDBRANCH  13  14
ENDBRANCH  12  13
ENDBRANCH  11  12
ENDBRANCH  10  11
ENDBRANCH   9  10
ENDBRANCH   8   9
ENDBRANCH   7   8
ENDBRANCH   6   7
ENDBRANCH   5   6
ENDBRANCH   4   5
ENDBRANCH   3   4
ENDBRANCH   2   3
TORSDOF 14
ENDMDL
MODEL      149
REMARK 921   NORMALIZED FREE ENERGY PREDICTED BY IDOCK:   -3.38 KCAL/MOL
REMARK 922        TOTAL FREE ENERGY PREDICTED BY IDOCK:   -7.53 KCAL/MOL
REMARK 923 INTER-LIGAND FREE ENERGY PREDICTED BY IDOCK:   -6.51 KCAL/MOL
REMARK 924 INTRA-LIGAND FREE ENERGY PREDICTED BY IDOCK:   -1.02 KCAL/MOL
REMARK 927      BINDING AFFINITY PREDICTED BY RF-SCORE:    0.00 PKD
ROOT
HETATM    1  C   UNL     1      -9.117   7.345  73.125  1.00  0.00    -0.207 C  
HETATM    2  C   UNL     1     -10.582   7.053  73.401  1.00  0.00    -0.399 C  
ENDROOT
BRANCH   2   3
HETATM    3  C   UNL     1     -11.490   8.008  72.629  1.00  0.00    -0.465 C  
BRANCH   3   4
HETATM    4  C   UNL     1     -11.240   7.917  71.125  1.00  0.00    -0.284 C  
BRANCH   4   5
HETATM    5  C   UNL     1     -10.980   9.299  70.531  1.00  0.00    -0.318 C  
BRANCH   5   6
HETATM    6  C   UNL     1     -11.822  10.363  71.227  1.00  0.00    -0.381 C  
BRANCH   6   7
HETATM    7  C   UNL     1     -12.079  11.548  70.299  1.00  0.00    -0.444 C  
BRANCH   7   8
HETATM    8  C   UNL     1     -11.832  11.164  68.843  1.00  0.00    -0.406 C  
BRANCH   8   9
HETATM    9  C   UNL     1     -11.725  12.406  67.964  1.00  0.00    -0.414 C  
BRANCH   9  10
HETATM   10  C   UNL     1     -11.273  12.038  66.554  1.00  0.00    -0.387 C  
BRANCH  10  11
HETATM   11  C   UNL     1     -12.191  12.660  65.505  1.00  0.00    -0.501 C  
BRANCH  11  12
HETATM   12  C   UNL     1     -12.053  14.179  65.492  1.00  0.00    -0.421 C  
BRANCH  12  13
HETATM   13  C   UNL     1     -10.712  14.603  64.899  1.00  0.00    -0.447 C  
BRANCH  13  14
HETATM   14  C   UNL     1     -10.120  15.781  65.670  1.00  0.00    -0.401 C  
BRANCH  14  15
HETATM   15  C   UNL     1     -10.556  15.756  67.132  1.00  0.00    -0.313 C  
BRANCH  15  16
HETATM   16  C   UNL     1     -10.480  17.141  67.757  1.00  0.00    -0.362 C  
HETATM   17  O   UNL     1     -10.571  18.131  66.744  1.00  0.00    -0.357 OA 
HETATM   18  H   UNL     1     -10.524  18.996  67.134  1.00  0.00     0.000 HD 
ENDBRANCH  15  16
ENDBRANCH  14  15
ENDBRANCH  13  14
ENDBRANCH  12  13
ENDBRANCH  11  12
ENDBRANCH  10  11
ENDBRANCH   9  10
ENDBRANCH   8   9
ENDBRANCH   7   8
ENDBRANCH   6   7
ENDBRANCH   5   6
ENDBRANCH   4   5
ENDBRANCH   3   4
ENDBRANCH   2   3
TORSDOF 14
ENDMDL
MODEL      150
REMARK 921   NORMALIZED FREE ENERGY PREDICTED BY IDOCK:   -3.38 KCAL/MOL
REMARK 922        TOTAL FREE ENERGY PREDICTED BY IDOCK:   -7.53 KCAL/MOL
REMARK 923 INTER-LIGAND FREE ENERGY PREDICTED BY IDOCK:   -6.01 KCAL/MOL
REMARK 924 INTRA-LIGAND FREE ENERGY PREDICTED BY IDOCK:   -1.52 KCAL/MOL
REMARK 927      BINDING AFFINITY PREDICTED BY RF-SCORE:    0.00 PKD
ROOT
HETATM    1  C   UNL     1      -8.562  12.160  67.973  1.00  0.00    -0.175 C  
HETATM    2  C   UNL     1      -9.460  13.251  67.415  1.00  0.00    -0.218 C  
ENDROOT
BRANCH   2   3
HETATM    3  C   UNL     1      -9.433  14.496  68.300  1.00  0.00    -0.207 C  
BRANCH   3   4
HETATM    4  C   UNL     1     -10.774  15.224  68.274  1.00  0.00    -0.254 C  
BRANCH   4   5
HETATM    5  C   UNL     1     -11.894  14.325  68.794  1.00  0.00    -0.377 C  
BRANCH   5   6
HETATM    6  C   UNL     1     -11.992  14.394  70.314  1.00  0.00    -0.388 C  
BRANCH   6   7
HETATM    7  C   UNL     1     -12.498  13.072  70.887  1.00  0.00    -0.396 C  
BRANCH   7   8
HETATM    8  C   UNL     1     -12.000  11.892  70.058  1.00  0.00    -0.409 C  
BRANCH   8   9
HETATM    9  C   UNL     1     -11.862  10.641  70.921  1.00  0.00    -0.433 C  
BRANCH   9  10
HETATM   10  C   UNL     1     -13.154  10.360  71.681  1.00  0.00    -0.553 C  
BRANCH  10  11
HETATM   11  C   UNL     1     -13.080   9.019  72.407  1.00  0.00    -0.487 C  
BRANCH  11  12
HETATM   12  C   UNL     1     -11.874   8.211  71.938  1.00  0.00    -0.366 C  
BRANCH  12  13
HETATM   13  C   UNL     1     -12.306   6.862  71.368  1.00  0.00    -0.421 C  
BRANCH  13  14
HETATM   14  C   UNL     1     -11.436   6.469  70.176  1.00  0.00    -0.477 C  
BRANCH  14  15
HETATM   15  C   UNL     1     -10.219   7.382  70.058  1.00  0.00    -0.211 C  
BRANCH  15  16
HETATM   16  C   UNL     1     -10.001   7.833  68.621  1.00  0.00    -0.182 C  
HETATM   17  O   UNL     1     -11.138   8.549  68.165  1.00  0.00    -0.452 OA 
HETATM   18  H   UNL     1     -11.003   8.831  67.268  1.00  0.00     0.000 HD 
ENDBRANCH  15  16
ENDBRANCH  14  15
ENDBRANCH  13  14
ENDBRANCH  12  13
ENDBRANCH  11  12
ENDBRANCH  10  11
ENDBRANCH   9  10
ENDBRANCH   8   9
ENDBRANCH   7   8
ENDBRANCH   6   7
ENDBRANCH   5   6
ENDBRANCH   4   5
ENDBRANCH   3   4
ENDBRANCH   2   3
TORSDOF 14
ENDMDL
MODEL      151
REMARK 921   NORMALIZED FREE ENERGY PREDICTED BY IDOCK:   -3.38 KCAL/MOL
REMARK 922        TOTAL FREE ENERGY PREDICTED BY IDOCK:   -7.52 KCAL/MOL
REMARK 923 INTER-LIGAND FREE ENERGY PREDICTED BY IDOCK:   -6.64 KCAL/MOL
REMARK 924 INTRA-LIGAND FREE ENERGY PREDICTED BY IDOCK:   -0.88 KCAL/MOL
REMARK 927      BINDING AFFINITY PREDICTED BY RF-SCORE:    0.00 PKD
ROOT
HETATM    1  C   UNL     1     -10.636  19.532  65.935  1.00  0.00    -0.572 C  
HETATM    2  C   UNL     1     -10.605  19.802  67.429  1.00  0.00    -0.553 C  
ENDROOT
BRANCH   2   3
HETATM    3  C   UNL     1      -9.790  18.742  68.166  1.00  0.00    -0.396 C  
BRANCH   3   4
HETATM    4  C   UNL     1     -10.216  17.333  67.760  1.00  0.00    -0.332 C  
BRANCH   4   5
HETATM    5  C   UNL     1     -10.444  16.456  68.988  1.00  0.00    -0.288 C  
BRANCH   5   6
HETATM    6  C   UNL     1     -11.633  15.522  68.783  1.00  0.00    -0.390 C  
BRANCH   6   7
HETATM    7  C   UNL     1     -11.543  14.816  67.432  1.00  0.00    -0.377 C  
BRANCH   7   8
HETATM    8  C   UNL     1     -11.860  13.330  67.571  1.00  0.00    -0.403 C  
BRANCH   8   9
HETATM    9  C   UNL     1     -11.825  12.901  69.035  1.00  0.00    -0.352 C  
BRANCH   9  10
HETATM   10  C   UNL     1     -11.615  11.395  69.155  1.00  0.00    -0.381 C  
BRANCH  10  11
HETATM   11  C   UNL     1     -11.140  10.801  67.832  1.00  0.00    -0.369 C  
BRANCH  11  12
HETATM   12  C   UNL     1      -9.866   9.984  68.027  1.00  0.00    -0.164 C  
BRANCH  12  13
HETATM   13  C   UNL     1      -9.088   9.862  66.720  1.00  0.00    -0.164 C  
BRANCH  13  14
HETATM   14  C   UNL     1     -10.012  10.034  65.516  1.00  0.00    -0.367 C  
BRANCH  14  15
HETATM   15  C   UNL     1      -9.784  11.379  64.834  1.00  0.00    -0.283 C  
BRANCH  15  16
HETATM   16  C   UNL     1     -10.085  11.305  63.344  1.00  0.00    -0.400 C  
HETATM   17  O   UNL     1     -11.487  11.221  63.141  1.00  0.00    -0.850 OA 
HETATM   18  H   UNL     1     -11.675  11.174  62.211  1.00  0.00     0.000 HD 
ENDBRANCH  15  16
ENDBRANCH  14  15
ENDBRANCH  13  14
ENDBRANCH  12  13
ENDBRANCH  11  12
ENDBRANCH  10  11
ENDBRANCH   9  10
ENDBRANCH   8   9
ENDBRANCH   7   8
ENDBRANCH   6   7
ENDBRANCH   5   6
ENDBRANCH   4   5
ENDBRANCH   3   4
ENDBRANCH   2   3
TORSDOF 14
ENDMDL
MODEL      152
REMARK 921   NORMALIZED FREE ENERGY PREDICTED BY IDOCK:   -3.38 KCAL/MOL
REMARK 922        TOTAL FREE ENERGY PREDICTED BY IDOCK:   -7.52 KCAL/MOL
REMARK 923 INTER-LIGAND FREE ENERGY PREDICTED BY IDOCK:   -5.91 KCAL/MOL
REMARK 924 INTRA-LIGAND FREE ENERGY PREDICTED BY IDOCK:   -1.61 KCAL/MOL
REMARK 927      BINDING AFFINITY PREDICTED BY RF-SCORE:    0.00 PKD
ROOT
HETATM    1  C   UNL     1     -14.101   8.535  72.140  1.00  0.00    -0.493 C  
HETATM    2  C   UNL     1     -13.435   9.767  71.552  1.00  0.00    -0.417 C  
ENDROOT
BRANCH   2   3
HETATM    3  C   UNL     1     -11.914   9.645  71.594  1.00  0.00    -0.470 C  
BRANCH   3   4
HETATM    4  C   UNL     1     -11.480   8.288  72.142  1.00  0.00    -0.427 C  
BRANCH   4   5
HETATM    5  C   UNL     1     -10.125   7.877  71.572  1.00  0.00    -0.221 C  
BRANCH   5   6
HETATM    6  C   UNL     1      -9.351   9.090  71.067  1.00  0.00    -0.339 C  
BRANCH   6   7
HETATM    7  C   UNL     1      -8.799   8.838  69.666  1.00  0.00    -0.141 C  
BRANCH   7   8
HETATM    8  C   UNL     1      -9.632   7.793  68.930  1.00  0.00    -0.154 C  
BRANCH   8   9
HETATM    9  C   UNL     1     -10.375   8.420  67.754  1.00  0.00    -0.297 C  
BRANCH   9  10
HETATM   10  C   UNL     1     -10.125   9.924  67.692  1.00  0.00    -0.241 C  
BRANCH  10  11
HETATM   11  C   UNL     1     -11.375  10.668  67.232  1.00  0.00    -0.122 C  
BRANCH  11  12
HETATM   12  C   UNL     1     -11.207  12.175  67.405  1.00  0.00    -0.362 C  
BRANCH  12  13
HETATM   13  C   UNL     1     -10.767  12.518  68.826  1.00  0.00    -0.235 C  
BRANCH  13  14
HETATM   14  C   UNL     1     -11.975  12.791  69.720  1.00  0.00    -0.362 C  
BRANCH  14  15
HETATM   15  C   UNL     1     -12.274  14.285  69.800  1.00  0.00    -0.390 C  
BRANCH  15  16
HETATM   16  C   UNL     1     -13.053  14.628  71.061  1.00  0.00    -0.367 C  
HETATM   17  O   UNL     1     -14.126  15.500  70.741  1.00  0.00    -0.871 OA 
HETATM   18  H   UNL     1     -14.612  15.715  71.528  1.00  0.00     0.000 HD 
ENDBRANCH  15  16
ENDBRANCH  14  15
ENDBRANCH  13  14
ENDBRANCH  12  13
ENDBRANCH  11  12
ENDBRANCH  10  11
ENDBRANCH   9  10
ENDBRANCH   8   9
ENDBRANCH   7   8
ENDBRANCH   6   7
ENDBRANCH   5   6
ENDBRANCH   4   5
ENDBRANCH   3   4
ENDBRANCH   2   3
TORSDOF 14
ENDMDL
MODEL      153
REMARK 921   NORMALIZED FREE ENERGY PREDICTED BY IDOCK:   -3.37 KCAL/MOL
REMARK 922        TOTAL FREE ENERGY PREDICTED BY IDOCK:   -7.50 KCAL/MOL
REMARK 923 INTER-LIGAND FREE ENERGY PREDICTED BY IDOCK:   -5.68 KCAL/MOL
REMARK 924 INTRA-LIGAND FREE ENERGY PREDICTED BY IDOCK:   -1.83 KCAL/MOL
REMARK 927      BINDING AFFINITY PREDICTED BY RF-SCORE:    0.00 PKD
ROOT
HETATM    1  C   UNL     1      -7.596  14.268  67.495  1.00  0.00    -0.202 C  
HETATM    2  C   UNL     1      -8.099  15.617  67.011  1.00  0.00    -0.276 C  
ENDROOT
BRANCH   2   3
HETATM    3  C   UNL     1      -9.392  16.012  67.723  1.00  0.00    -0.211 C  
BRANCH   3   4
HETATM    4  C   UNL     1     -10.573  16.035  66.755  1.00  0.00    -0.297 C  
BRANCH   4   5
HETATM    5  C   UNL     1     -10.133  15.638  65.347  1.00  0.00    -0.370 C  
BRANCH   5   6
HETATM    6  C   UNL     1     -11.035  14.548  64.778  1.00  0.00    -0.404 C  
BRANCH   6   7
HETATM    7  C   UNL     1     -12.242  14.313  65.682  1.00  0.00    -0.409 C  
BRANCH   7   8
HETATM    8  C   UNL     1     -12.327  12.850  66.110  1.00  0.00    -0.266 C  
BRANCH   8   9
HETATM    9  C   UNL     1     -10.935  12.229  66.201  1.00  0.00    -0.328 C  
BRANCH   9  10
HETATM   10  C   UNL     1     -10.900  11.127  67.254  1.00  0.00    -0.326 C  
BRANCH  10  11
HETATM   11  C   UNL     1     -10.421  11.670  68.598  1.00  0.00    -0.234 C  
BRANCH  11  12
HETATM   12  C   UNL     1     -11.596  12.180  69.429  1.00  0.00    -0.381 C  
BRANCH  12  13
HETATM   13  C   UNL     1     -11.449  13.669  69.729  1.00  0.00    -0.256 C  
BRANCH  13  14
HETATM   14  C   UNL     1     -12.725  14.228  70.355  1.00  0.00    -0.355 C  
BRANCH  14  15
HETATM   15  C   UNL     1     -12.989  13.601  71.721  1.00  0.00    -0.441 C  
BRANCH  15  16
HETATM   16  C   UNL     1     -12.991  14.651  72.822  1.00  0.00    -0.470 C  
HETATM   17  O   UNL     1     -13.077  15.947  72.251  1.00  0.00    -0.449 OA 
HETATM   18  H   UNL     1     -13.078  16.603  72.938  1.00  0.00     0.000 HD 
ENDBRANCH  15  16
ENDBRANCH  14  15
ENDBRANCH  13  14
ENDBRANCH  12  13
ENDBRANCH  11  12
ENDBRANCH  10  11
ENDBRANCH   9  10
ENDBRANCH   8   9
ENDBRANCH   7   8
ENDBRANCH   6   7
ENDBRANCH   5   6
ENDBRANCH   4   5
ENDBRANCH   3   4
ENDBRANCH   2   3
TORSDOF 14
ENDMDL
MODEL      154
REMARK 921   NORMALIZED FREE ENERGY PREDICTED BY IDOCK:   -3.37 KCAL/MOL
REMARK 922        TOTAL FREE ENERGY PREDICTED BY IDOCK:   -7.50 KCAL/MOL
REMARK 923 INTER-LIGAND FREE ENERGY PREDICTED BY IDOCK:   -5.80 KCAL/MOL
REMARK 924 INTRA-LIGAND FREE ENERGY PREDICTED BY IDOCK:   -1.70 KCAL/MOL
REMARK 927      BINDING AFFINITY PREDICTED BY RF-SCORE:    0.00 PKD
ROOT
HETATM    1  C   UNL     1     -12.585  15.934  72.041  1.00  0.00    -0.517 C  
HETATM    2  C   UNL     1     -12.738  15.092  70.786  1.00  0.00    -0.463 C  
ENDROOT
BRANCH   2   3
HETATM    3  C   UNL     1     -12.147  15.802  69.569  1.00  0.00    -0.261 C  
BRANCH   3   4
HETATM    4  C   UNL     1     -10.729  16.294  69.849  1.00  0.00    -0.322 C  
BRANCH   4   5
HETATM    5  C   UNL     1      -9.912  16.367  68.561  1.00  0.00    -0.239 C  
BRANCH   5   6
HETATM    6  C   UNL     1      -8.469  15.935  68.801  1.00  0.00    -0.204 C  
BRANCH   6   7
HETATM    7  C   UNL     1      -7.805  15.506  67.495  1.00  0.00    -0.191 C  
BRANCH   7   8
HETATM    8  C   UNL     1      -6.970  14.245  67.696  1.00  0.00    -0.202 C  
BRANCH   8   9
HETATM    9  C   UNL     1      -7.706  13.016  67.170  1.00  0.00    -0.049 C  
BRANCH   9  10
HETATM   10  C   UNL     1      -8.174  12.129  68.319  1.00  0.00    -0.168 C  
BRANCH  10  11
HETATM   11  C   UNL     1      -9.598  11.632  68.082  1.00  0.00    -0.190 C  
BRANCH  11  12
HETATM   12  C   UNL     1     -10.619  12.696  68.477  1.00  0.00    -0.262 C  
BRANCH  12  13
HETATM   13  C   UNL     1     -11.829  12.666  67.547  1.00  0.00    -0.396 C  
BRANCH  13  14
HETATM   14  C   UNL     1     -11.432  13.050  66.123  1.00  0.00    -0.381 C  
BRANCH  14  15
HETATM   15  C   UNL     1     -12.510  12.642  65.123  1.00  0.00    -0.531 C  
BRANCH  15  16
HETATM   16  C   UNL     1     -12.070  12.914  63.692  1.00  0.00    -0.535 C  
HETATM   17  O   UNL     1     -11.972  11.691  62.978  1.00  0.00    -0.887 OA 
HETATM   18  H   UNL     1     -11.697  11.861  62.085  1.00  0.00     0.000 HD 
ENDBRANCH  15  16
ENDBRANCH  14  15
ENDBRANCH  13  14
ENDBRANCH  12  13
ENDBRANCH  11  12
ENDBRANCH  10  11
ENDBRANCH   9  10
ENDBRANCH   8   9
ENDBRANCH   7   8
ENDBRANCH   6   7
ENDBRANCH   5   6
ENDBRANCH   4   5
ENDBRANCH   3   4
ENDBRANCH   2   3
TORSDOF 14
ENDMDL
MODEL      155
REMARK 921   NORMALIZED FREE ENERGY PREDICTED BY IDOCK:   -3.35 KCAL/MOL
REMARK 922        TOTAL FREE ENERGY PREDICTED BY IDOCK:   -7.48 KCAL/MOL
REMARK 923 INTER-LIGAND FREE ENERGY PREDICTED BY IDOCK:   -5.69 KCAL/MOL
REMARK 924 INTRA-LIGAND FREE ENERGY PREDICTED BY IDOCK:   -1.79 KCAL/MOL
REMARK 927      BINDING AFFINITY PREDICTED BY RF-SCORE:    0.00 PKD
ROOT
HETATM    1  C   UNL     1      -8.911  12.388  68.122  1.00  0.00    -0.196 C  
HETATM    2  C   UNL     1     -10.123  11.633  68.640  1.00  0.00    -0.206 C  
ENDROOT
BRANCH   2   3
HETATM    3  C   UNL     1     -11.422  12.280  68.165  1.00  0.00    -0.371 C  
BRANCH   3   4
HETATM    4  C   UNL     1     -11.156  13.345  67.103  1.00  0.00    -0.303 C  
BRANCH   4   5
HETATM    5  C   UNL     1     -12.462  13.850  66.497  1.00  0.00    -0.364 C  
BRANCH   5   6
HETATM    6  C   UNL     1     -12.627  13.359  65.062  1.00  0.00    -0.459 C  
BRANCH   6   7
HETATM    7  C   UNL     1     -11.268  13.178  64.390  1.00  0.00    -0.403 C  
BRANCH   7   8
HETATM    8  C   UNL     1     -11.305  12.030  63.385  1.00  0.00    -0.484 C  
BRANCH   8   9
HETATM    9  C   UNL     1      -9.956  11.318  63.325  1.00  0.00    -0.428 C  
BRANCH   9  10
HETATM   10  C   UNL     1      -9.428  11.035  64.728  1.00  0.00    -0.267 C  
BRANCH  10  11
HETATM   11  C   UNL     1     -10.271   9.970  65.425  1.00  0.00    -0.226 C  
BRANCH  11  12
HETATM   12  C   UNL     1      -9.386   8.980  66.175  1.00  0.00    -0.294 C  
BRANCH  12  13
HETATM   13  C   UNL     1     -10.222   7.882  66.827  1.00  0.00    -0.358 C  
BRANCH  13  14
HETATM   14  C   UNL     1      -9.936   7.793  68.325  1.00  0.00    -0.201 C  
BRANCH  14  15
HETATM   15  C   UNL     1     -10.248   6.400  68.864  1.00  0.00    -0.215 C  
BRANCH  15  16
HETATM   16  C   UNL     1     -11.329   6.448  69.933  1.00  0.00    -0.434 C  
HETATM   17  O   UNL     1     -11.780   7.783  70.101  1.00  0.00    -0.480 OA 
HETATM   18  H   UNL     1     -12.455   7.813  70.769  1.00  0.00     0.000 HD 
ENDBRANCH  15  16
ENDBRANCH  14  15
ENDBRANCH  13  14
ENDBRANCH  12  13
ENDBRANCH  11  12
ENDBRANCH  10  11
ENDBRANCH   9  10
ENDBRANCH   8   9
ENDBRANCH   7   8
ENDBRANCH   6   7
ENDBRANCH   5   6
ENDBRANCH   4   5
ENDBRANCH   3   4
ENDBRANCH   2   3
TORSDOF 14
ENDMDL
MODEL      156
REMARK 921   NORMALIZED FREE ENERGY PREDICTED BY IDOCK:   -3.35 KCAL/MOL
REMARK 922        TOTAL FREE ENERGY PREDICTED BY IDOCK:   -7.47 KCAL/MOL
REMARK 923 INTER-LIGAND FREE ENERGY PREDICTED BY IDOCK:   -6.42 KCAL/MOL
REMARK 924 INTRA-LIGAND FREE ENERGY PREDICTED BY IDOCK:   -1.05 KCAL/MOL
REMARK 927      BINDING AFFINITY PREDICTED BY RF-SCORE:    0.00 PKD
ROOT
HETATM    1  C   UNL     1     -10.704  19.350  66.188  1.00  0.00    -0.506 C  
HETATM    2  C   UNL     1      -9.770  20.239  66.991  1.00  0.00    -0.598 C  
ENDROOT
BRANCH   2   3
HETATM    3  C   UNL     1      -9.367  19.573  68.305  1.00  0.00    -0.420 C  
BRANCH   3   4
HETATM    4  C   UNL     1     -10.031  18.207  68.461  1.00  0.00    -0.408 C  
BRANCH   4   5
HETATM    5  C   UNL     1      -9.000  17.134  68.802  1.00  0.00    -0.233 C  
BRANCH   5   6
HETATM    6  C   UNL     1      -9.652  15.951  69.511  1.00  0.00    -0.239 C  
BRANCH   6   7
HETATM    7  C   UNL     1     -11.172  16.007  69.375  1.00  0.00    -0.349 C  
BRANCH   7   8
HETATM    8  C   UNL     1     -11.729  14.661  68.919  1.00  0.00    -0.343 C  
BRANCH   8   9
HETATM    9  C   UNL     1     -10.661  13.850  68.192  1.00  0.00    -0.258 C  
BRANCH   9  10
HETATM   10  C   UNL     1     -10.945  13.797  66.694  1.00  0.00    -0.298 C  
BRANCH  10  11
HETATM   11  C   UNL     1     -11.778  12.568  66.339  1.00  0.00    -0.458 C  
BRANCH  11  12
HETATM   12  C   UNL     1     -12.744  12.876  65.198  1.00  0.00    -0.443 C  
BRANCH  12  13
HETATM   13  C   UNL     1     -12.013  12.923  63.859  1.00  0.00    -0.550 C  
BRANCH  13  14
HETATM   14  C   UNL     1     -11.543  11.530  63.444  1.00  0.00    -0.232 C  
BRANCH  14  15
HETATM   15  C   UNL     1     -10.023  11.471  63.334  1.00  0.00    -0.445 C  
BRANCH  15  16
HETATM   16  C   UNL     1      -9.425  10.545  64.382  1.00  0.00    -0.281 C  
HETATM   17  O   UNL     1      -8.035  10.798  64.510  1.00  0.00    -0.355 OA 
HETATM   18  H   UNL     1      -7.661  10.219  65.165  1.00  0.00     0.000 HD 
ENDBRANCH  15  16
ENDBRANCH  14  15
ENDBRANCH  13  14
ENDBRANCH  12  13
ENDBRANCH  11  12
ENDBRANCH  10  11
ENDBRANCH   9  10
ENDBRANCH   8   9
ENDBRANCH   7   8
ENDBRANCH   6   7
ENDBRANCH   5   6
ENDBRANCH   4   5
ENDBRANCH   3   4
ENDBRANCH   2   3
TORSDOF 14
ENDMDL
MODEL      157
REMARK 921   NORMALIZED FREE ENERGY PREDICTED BY IDOCK:   -3.34 KCAL/MOL
REMARK 922        TOTAL FREE ENERGY PREDICTED BY IDOCK:   -7.46 KCAL/MOL
REMARK 923 INTER-LIGAND FREE ENERGY PREDICTED BY IDOCK:   -6.02 KCAL/MOL
REMARK 924 INTRA-LIGAND FREE ENERGY PREDICTED BY IDOCK:   -1.43 KCAL/MOL
REMARK 927      BINDING AFFINITY PREDICTED BY RF-SCORE:    0.00 PKD
ROOT
HETATM    1  C   UNL     1     -12.128  13.701  64.059  1.00  0.00    -0.474 C  
HETATM    2  C   UNL     1     -11.609  12.465  63.345  1.00  0.00    -0.541 C  
ENDROOT
BRANCH   2   3
HETATM    3  C   UNL     1     -10.261  12.025  63.911  1.00  0.00    -0.424 C  
BRANCH   3   4
HETATM    4  C   UNL     1     -10.373  10.685  64.635  1.00  0.00    -0.353 C  
BRANCH   4   5
HETATM    5  C   UNL     1     -10.683  10.889  66.115  1.00  0.00    -0.225 C  
BRANCH   5   6
HETATM    6  C   UNL     1      -9.699  10.122  66.993  1.00  0.00    -0.224 C  
BRANCH   6   7
HETATM    7  C   UNL     1      -8.935  11.072  67.912  1.00  0.00    -0.144 C  
BRANCH   7   8
HETATM    8  C   UNL     1      -8.161  12.109  67.104  1.00  0.00    -0.175 C  
BRANCH   8   9
HETATM    9  C   UNL     1      -8.505  13.523  67.563  1.00  0.00    -0.192 C  
BRANCH   9  10
HETATM   10  C   UNL     1      -9.460  14.196  66.583  1.00  0.00    -0.303 C  
BRANCH  10  11
HETATM   11  C   UNL     1     -10.514  15.015  67.323  1.00  0.00    -0.265 C  
BRANCH  11  12
HETATM   12  C   UNL     1     -11.124  14.211  68.468  1.00  0.00    -0.276 C  
BRANCH  12  13
HETATM   13  C   UNL     1     -12.024  15.089  69.334  1.00  0.00    -0.336 C  
BRANCH  13  14
HETATM   14  C   UNL     1     -12.775  14.250  70.366  1.00  0.00    -0.355 C  
BRANCH  14  15
HETATM   15  C   UNL     1     -13.657  15.125  71.251  1.00  0.00    -0.559 C  
BRANCH  15  16
HETATM   16  C   UNL     1     -12.854  15.768  72.372  1.00  0.00    -0.457 C  
HETATM   17  O   UNL     1     -13.684  15.963  73.507  1.00  0.00    -0.722 OA 
HETATM   18  H   UNL     1     -13.183  16.365  74.207  1.00  0.00     0.000 HD 
ENDBRANCH  15  16
ENDBRANCH  14  15
ENDBRANCH  13  14
ENDBRANCH  12  13
ENDBRANCH  11  12
ENDBRANCH  10  11
ENDBRANCH   9  10
ENDBRANCH   8   9
ENDBRANCH   7   8
ENDBRANCH   6   7
ENDBRANCH   5   6
ENDBRANCH   4   5
ENDBRANCH   3   4
ENDBRANCH   2   3
TORSDOF 14
ENDMDL
MODEL      158
REMARK 921   NORMALIZED FREE ENERGY PREDICTED BY IDOCK:   -3.34 KCAL/MOL
REMARK 922        TOTAL FREE ENERGY PREDICTED BY IDOCK:   -7.45 KCAL/MOL
REMARK 923 INTER-LIGAND FREE ENERGY PREDICTED BY IDOCK:   -5.52 KCAL/MOL
REMARK 924 INTRA-LIGAND FREE ENERGY PREDICTED BY IDOCK:   -1.92 KCAL/MOL
REMARK 927      BINDING AFFINITY PREDICTED BY RF-SCORE:    0.00 PKD
ROOT
HETATM    1  C   UNL     1      -7.334  13.427  68.391  1.00  0.00    -0.112 C  
HETATM    2  C   UNL     1      -8.478  12.456  68.152  1.00  0.00    -0.180 C  
ENDROOT
BRANCH   2   3
HETATM    3  C   UNL     1      -8.295  11.700  66.838  1.00  0.00    -0.169 C  
BRANCH   3   4
HETATM    4  C   UNL     1      -9.184  10.460  66.782  1.00  0.00    -0.176 C  
BRANCH   4   5
HETATM    5  C   UNL     1     -10.292  10.628  65.746  1.00  0.00    -0.287 C  
BRANCH   5   6
HETATM    6  C   UNL     1      -9.740  10.508  64.329  1.00  0.00    -0.391 C  
BRANCH   6   7
HETATM    7  C   UNL     1     -10.407  11.518  63.398  1.00  0.00    -0.469 C  
BRANCH   7   8
HETATM    8  C   UNL     1     -11.664  12.102  64.037  1.00  0.00    -0.515 C  
BRANCH   8   9
HETATM    9  C   UNL     1     -12.071  13.401  63.347  1.00  0.00    -0.437 C  
BRANCH   9  10
HETATM   10  C   UNL     1     -12.103  14.557  64.340  1.00  0.00    -0.492 C  
BRANCH  10  11
HETATM   11  C   UNL     1     -11.527  14.136  65.689  1.00  0.00    -0.325 C  
BRANCH  11  12
HETATM   12  C   UNL     1     -10.252  14.912  66.004  1.00  0.00    -0.317 C  
BRANCH  12  13
HETATM   13  C   UNL     1     -10.262  15.423  67.443  1.00  0.00    -0.249 C  
BRANCH  13  14
HETATM   14  C   UNL     1     -11.625  15.196  68.093  1.00  0.00    -0.358 C  
BRANCH  14  15
HETATM   15  C   UNL     1     -11.494  14.383  69.377  1.00  0.00    -0.330 C  
BRANCH  15  16
HETATM   16  C   UNL     1     -12.097  12.995  69.219  1.00  0.00    -0.200 C  
HETATM   17  O   UNL     1     -11.601  12.138  70.236  1.00  0.00    -0.516 OA 
HETATM   18  H   UNL     1     -11.977  11.271  70.137  1.00  0.00     0.000 HD 
ENDBRANCH  15  16
ENDBRANCH  14  15
ENDBRANCH  13  14
ENDBRANCH  12  13
ENDBRANCH  11  12
ENDBRANCH  10  11
ENDBRANCH   9  10
ENDBRANCH   8   9
ENDBRANCH   7   8
ENDBRANCH   6   7
ENDBRANCH   5   6
ENDBRANCH   4   5
ENDBRANCH   3   4
ENDBRANCH   2   3
TORSDOF 14
ENDMDL
MODEL      159
REMARK 921   NORMALIZED FREE ENERGY PREDICTED BY IDOCK:   -3.33 KCAL/MOL
REMARK 922        TOTAL FREE ENERGY PREDICTED BY IDOCK:   -7.44 KCAL/MOL
REMARK 923 INTER-LIGAND FREE ENERGY PREDICTED BY IDOCK:   -5.74 KCAL/MOL
REMARK 924 INTRA-LIGAND FREE ENERGY PREDICTED BY IDOCK:   -1.70 KCAL/MOL
REMARK 927      BINDING AFFINITY PREDICTED BY RF-SCORE:    0.00 PKD
ROOT
HETATM    1  C   UNL     1     -11.308  12.790  63.909  1.00  0.00    -0.498 C  
HETATM    2  C   UNL     1     -12.670  13.267  64.386  1.00  0.00    -0.188 C  
ENDROOT
BRANCH   2   3
HETATM    3  C   UNL     1     -12.764  13.235  65.910  1.00  0.00    -0.220 C  
BRANCH   3   4
HETATM    4  C   UNL     1     -11.435  13.621  66.556  1.00  0.00    -0.357 C  
BRANCH   4   5
HETATM    5  C   UNL     1     -11.298  12.991  67.940  1.00  0.00    -0.327 C  
BRANCH   5   6
HETATM    6  C   UNL     1      -9.875  12.496  68.178  1.00  0.00    -0.221 C  
BRANCH   6   7
HETATM    7  C   UNL     1      -9.162  12.231  66.855  1.00  0.00    -0.209 C  
BRANCH   7   8
HETATM    8  C   UNL     1      -8.869  10.743  66.680  1.00  0.00    -0.151 C  
BRANCH   8   9
HETATM    9  C   UNL     1     -10.118   9.994  66.227  1.00  0.00    -0.310 C  
BRANCH   9  10
HETATM   10  C   UNL     1     -10.717   9.190  67.376  1.00  0.00    -0.247 C  
BRANCH  10  11
HETATM   11  C   UNL     1      -9.627   8.687  68.318  1.00  0.00    -0.160 C  
BRANCH  11  12
HETATM   12  C   UNL     1     -10.220   8.250  69.655  1.00  0.00    -0.209 C  
BRANCH  12  13
HETATM   13  C   UNL     1     -10.016   9.323  70.721  1.00  0.00    -0.357 C  
BRANCH  13  14
HETATM   14  C   UNL     1     -11.100   9.239  71.794  1.00  0.00    -0.398 C  
BRANCH  14  15
HETATM   15  C   UNL     1     -12.371   9.956  71.349  1.00  0.00    -0.498 C  
BRANCH  15  16
HETATM   16  C   UNL     1     -13.614   9.151  71.698  1.00  0.00    -0.390 C  
HETATM   17  O   UNL     1     -13.635   8.881  73.091  1.00  0.00    -0.997 OA 
HETATM   18  H   UNL     1     -14.411   8.378  73.309  1.00  0.00     0.000 HD 
ENDBRANCH  15  16
ENDBRANCH  14  15
ENDBRANCH  13  14
ENDBRANCH  12  13
ENDBRANCH  11  12
ENDBRANCH  10  11
ENDBRANCH   9  10
ENDBRANCH   8   9
ENDBRANCH   7   8
ENDBRANCH   6   7
ENDBRANCH   5   6
ENDBRANCH   4   5
ENDBRANCH   3   4
ENDBRANCH   2   3
TORSDOF 14
ENDMDL
MODEL      160
REMARK 921   NORMALIZED FREE ENERGY PREDICTED BY IDOCK:   -3.32 KCAL/MOL
REMARK 922        TOTAL FREE ENERGY PREDICTED BY IDOCK:   -7.43 KCAL/MOL
REMARK 923 INTER-LIGAND FREE ENERGY PREDICTED BY IDOCK:   -6.30 KCAL/MOL
REMARK 924 INTRA-LIGAND FREE ENERGY PREDICTED BY IDOCK:   -1.12 KCAL/MOL
REMARK 927      BINDING AFFINITY PREDICTED BY RF-SCORE:    0.00 PKD
ROOT
HETATM    1  C   UNL     1     -10.577   6.640  71.438  1.00  0.00    -0.255 C  
HETATM    2  C   UNL     1     -11.910   6.601  70.710  1.00  0.00    -0.441 C  
ENDROOT
BRANCH   2   3
HETATM    3  C   UNL     1     -12.995   7.323  71.506  1.00  0.00    -0.434 C  
BRANCH   3   4
HETATM    4  C   UNL     1     -12.437   8.554  72.215  1.00  0.00    -0.448 C  
BRANCH   4   5
HETATM    5  C   UNL     1     -13.256   9.797  71.877  1.00  0.00    -0.545 C  
BRANCH   5   6
HETATM    6  C   UNL     1     -12.674  10.525  70.669  1.00  0.00    -0.441 C  
BRANCH   6   7
HETATM    7  C   UNL     1     -11.190  10.203  70.503  1.00  0.00    -0.411 C  
BRANCH   7   8
HETATM    8  C   UNL     1     -10.647  10.791  69.204  1.00  0.00    -0.254 C  
BRANCH   8   9
HETATM    9  C   UNL     1     -11.766  11.429  68.386  1.00  0.00    -0.373 C  
BRANCH   9  10
HETATM   10  C   UNL     1     -11.479  12.904  68.128  1.00  0.00    -0.354 C  
BRANCH  10  11
HETATM   11  C   UNL     1     -11.885  13.301  66.711  1.00  0.00    -0.448 C  
BRANCH  11  12
HETATM   12  C   UNL     1     -11.169  14.577  66.277  1.00  0.00    -0.342 C  
BRANCH  12  13
HETATM   13  C   UNL     1      -9.696  14.544  66.679  1.00  0.00    -0.285 C  
BRANCH  13  14
HETATM   14  C   UNL     1      -9.298  15.828  67.402  1.00  0.00    -0.214 C  
BRANCH  14  15
HETATM   15  C   UNL     1     -10.488  16.440  68.135  1.00  0.00    -0.302 C  
BRANCH  15  16
HETATM   16  C   UNL     1     -10.491  17.957  68.021  1.00  0.00    -0.382 C  
HETATM   17  O   UNL     1     -10.416  18.336  66.655  1.00  0.00    -0.372 OA 
HETATM   18  H   UNL     1     -10.418  19.283  66.583  1.00  0.00     0.000 HD 
ENDBRANCH  15  16
ENDBRANCH  14  15
ENDBRANCH  13  14
ENDBRANCH  12  13
ENDBRANCH  11  12
ENDBRANCH  10  11
ENDBRANCH   9  10
ENDBRANCH   8   9
ENDBRANCH   7   8
ENDBRANCH   6   7
ENDBRANCH   5   6
ENDBRANCH   4   5
ENDBRANCH   3   4
ENDBRANCH   2   3
TORSDOF 14
ENDMDL
MODEL      161
REMARK 921   NORMALIZED FREE ENERGY PREDICTED BY IDOCK:   -3.32 KCAL/MOL
REMARK 922        TOTAL FREE ENERGY PREDICTED BY IDOCK:   -7.42 KCAL/MOL
REMARK 923 INTER-LIGAND FREE ENERGY PREDICTED BY IDOCK:   -5.99 KCAL/MOL
REMARK 924 INTRA-LIGAND FREE ENERGY PREDICTED BY IDOCK:   -1.43 KCAL/MOL
REMARK 927      BINDING AFFINITY PREDICTED BY RF-SCORE:    0.00 PKD
ROOT
HETATM    1  C   UNL     1      -9.392  16.850  68.780  1.00  0.00    -0.260 C  
HETATM    2  C   UNL     1      -9.768  15.550  69.468  1.00  0.00    -0.282 C  
ENDROOT
BRANCH   2   3
HETATM    3  C   UNL     1     -11.147  15.647  70.118  1.00  0.00    -0.347 C  
BRANCH   3   4
HETATM    4  C   UNL     1     -12.051  14.499  69.676  1.00  0.00    -0.369 C  
BRANCH   4   5
HETATM    5  C   UNL     1     -11.942  14.266  68.171  1.00  0.00    -0.343 C  
BRANCH   5   6
HETATM    6  C   UNL     1     -11.832  12.779  67.852  1.00  0.00    -0.392 C  
BRANCH   6   7
HETATM    7  C   UNL     1     -11.119  12.033  68.977  1.00  0.00    -0.291 C  
BRANCH   7   8
HETATM    8  C   UNL     1      -9.702  11.645  68.563  1.00  0.00    -0.187 C  
BRANCH   8   9
HETATM    9  C   UNL     1      -9.724  10.491  67.565  1.00  0.00    -0.190 C  
BRANCH   9  10
HETATM   10  C   UNL     1      -9.255   9.196  68.220  1.00  0.00    -0.135 C  
BRANCH  10  11
HETATM   11  C   UNL     1     -10.385   8.172  68.276  1.00  0.00    -0.241 C  
BRANCH  11  12
HETATM   12  C   UNL     1     -10.485   7.546  69.665  1.00  0.00    -0.235 C  
BRANCH  12  13
HETATM   13  C   UNL     1     -10.295   8.599  70.754  1.00  0.00    -0.249 C  
BRANCH  13  14
HETATM   14  C   UNL     1     -11.292   8.393  71.892  1.00  0.00    -0.382 C  
BRANCH  14  15
HETATM   15  C   UNL     1     -12.346   9.496  71.907  1.00  0.00    -0.450 C  
BRANCH  15  16
HETATM   16  C   UNL     1     -13.753   8.918  71.938  1.00  0.00    -0.439 C  
HETATM   17  O   UNL     1     -14.250   8.933  73.267  1.00  0.00    -1.197 OA 
HETATM   18  H   UNL     1     -15.129   8.572  73.287  1.00  0.00     0.000 HD 
ENDBRANCH  15  16
ENDBRANCH  14  15
ENDBRANCH  13  14
ENDBRANCH  12  13
ENDBRANCH  11  12
ENDBRANCH  10  11
ENDBRANCH   9  10
ENDBRANCH   8   9
ENDBRANCH   7   8
ENDBRANCH   6   7
ENDBRANCH   5   6
ENDBRANCH   4   5
ENDBRANCH   3   4
ENDBRANCH   2   3
TORSDOF 14
ENDMDL
MODEL      162
REMARK 921   NORMALIZED FREE ENERGY PREDICTED BY IDOCK:   -3.30 KCAL/MOL
REMARK 922        TOTAL FREE ENERGY PREDICTED BY IDOCK:   -7.38 KCAL/MOL
REMARK 923 INTER-LIGAND FREE ENERGY PREDICTED BY IDOCK:   -5.82 KCAL/MOL
REMARK 924 INTRA-LIGAND FREE ENERGY PREDICTED BY IDOCK:   -1.56 KCAL/MOL
REMARK 927      BINDING AFFINITY PREDICTED BY RF-SCORE:    0.00 PKD
ROOT
HETATM    1  C   UNL     1      -7.253  19.734  65.931  1.00  0.00    -0.320 C  
HETATM    2  C   UNL     1      -7.729  20.137  67.316  1.00  0.00    -0.341 C  
ENDROOT
BRANCH   2   3
HETATM    3  C   UNL     1      -9.209  20.512  67.304  1.00  0.00    -0.500 C  
BRANCH   3   4
HETATM    4  C   UNL     1     -10.001  19.674  68.305  1.00  0.00    -0.543 C  
BRANCH   4   5
HETATM    5  C   UNL     1     -10.997  18.764  67.589  1.00  0.00    -0.255 C  
BRANCH   5   6
HETATM    6  C   UNL     1     -10.696  17.295  67.868  1.00  0.00    -0.351 C  
BRANCH   6   7
HETATM    7  C   UNL     1      -9.428  16.852  67.142  1.00  0.00    -0.241 C  
BRANCH   7   8
HETATM    8  C   UNL     1      -8.621  15.879  67.997  1.00  0.00    -0.164 C  
BRANCH   8   9
HETATM    9  C   UNL     1      -8.175  14.674  67.175  1.00  0.00    -0.227 C  
BRANCH   9  10
HETATM   10  C   UNL     1      -8.884  13.406  67.640  1.00  0.00    -0.200 C  
BRANCH  10  11
HETATM   11  C   UNL     1     -10.146  13.153  66.819  1.00  0.00    -0.253 C  
BRANCH  11  12
HETATM   12  C   UNL     1     -11.289  12.676  67.711  1.00  0.00    -0.349 C  
BRANCH  12  13
HETATM   13  C   UNL     1     -11.969  13.853  68.406  1.00  0.00    -0.391 C  
BRANCH  13  14
HETATM   14  C   UNL     1     -11.918  13.693  69.924  1.00  0.00    -0.415 C  
BRANCH  14  15
HETATM   15  C   UNL     1     -12.633  14.846  70.623  1.00  0.00    -0.420 C  
BRANCH  15  16
HETATM   16  C   UNL     1     -12.917  14.519  72.082  1.00  0.00    -0.346 C  
HETATM   17  O   UNL     1     -13.691  13.333  72.167  1.00  0.00    -0.507 OA 
HETATM   18  H   UNL     1     -13.869  13.129  73.078  1.00  0.00     0.000 HD 
ENDBRANCH  15  16
ENDBRANCH  14  15
ENDBRANCH  13  14
ENDBRANCH  12  13
ENDBRANCH  11  12
ENDBRANCH  10  11
ENDBRANCH   9  10
ENDBRANCH   8   9
ENDBRANCH   7   8
ENDBRANCH   6   7
ENDBRANCH   5   6
ENDBRANCH   4   5
ENDBRANCH   3   4
ENDBRANCH   2   3
TORSDOF 14
ENDMDL
MODEL      163
REMARK 921   NORMALIZED FREE ENERGY PREDICTED BY IDOCK:   -3.30 KCAL/MOL
REMARK 922        TOTAL FREE ENERGY PREDICTED BY IDOCK:   -7.38 KCAL/MOL
REMARK 923 INTER-LIGAND FREE ENERGY PREDICTED BY IDOCK:   -5.51 KCAL/MOL
REMARK 924 INTRA-LIGAND FREE ENERGY PREDICTED BY IDOCK:   -1.86 KCAL/MOL
REMARK 927      BINDING AFFINITY PREDICTED BY RF-SCORE:    0.00 PKD
ROOT
HETATM    1  C   UNL     1      -8.197   7.347  66.512  1.00  0.00    -0.120 C  
HETATM    2  C   UNL     1      -8.369   7.402  68.020  1.00  0.00    -0.124 C  
ENDROOT
BRANCH   2   3
HETATM    3  C   UNL     1      -9.700   6.786  68.447  1.00  0.00    -0.128 C  
BRANCH   3   4
HETATM    4  C   UNL     1      -9.557   6.006  69.752  1.00  0.00    -0.180 C  
BRANCH   4   5
HETATM    5  C   UNL     1     -10.018   6.845  70.942  1.00  0.00    -0.200 C  
BRANCH   5   6
HETATM    6  C   UNL     1     -11.489   7.222  70.811  1.00  0.00    -0.328 C  
BRANCH   6   7
HETATM    7  C   UNL     1     -11.667   8.738  70.834  1.00  0.00    -0.299 C  
BRANCH   7   8
HETATM    8  C   UNL     1     -10.316   9.445  70.892  1.00  0.00    -0.380 C  
BRANCH   8   9
HETATM    9  C   UNL     1     -10.101  10.310  69.654  1.00  0.00    -0.257 C  
BRANCH   9  10
HETATM   10  C   UNL     1     -11.343  10.310  68.769  1.00  0.00    -0.226 C  
BRANCH  10  11
HETATM   11  C   UNL     1     -10.967  10.149  67.298  1.00  0.00    -0.250 C  
BRANCH  11  12
HETATM   12  C   UNL     1      -9.627  10.817  67.003  1.00  0.00    -0.195 C  
BRANCH  12  13
HETATM   13  C   UNL     1      -9.740  11.771  65.816  1.00  0.00    -0.260 C  
BRANCH  13  14
HETATM   14  C   UNL     1     -10.362  11.070  64.610  1.00  0.00    -0.410 C  
BRANCH  14  15
HETATM   15  C   UNL     1     -10.707  12.069  63.510  1.00  0.00    -0.513 C  
BRANCH  15  16
HETATM   16  C   UNL     1     -12.156  12.523  63.607  1.00  0.00    -0.554 C  
HETATM   17  O   UNL     1     -12.291  13.822  63.051  1.00  0.00    -1.089 OA 
HETATM   18  H   UNL     1     -13.196  14.105  63.112  1.00  0.00     0.000 HD 
ENDBRANCH  15  16
ENDBRANCH  14  15
ENDBRANCH  13  14
ENDBRANCH  12  13
ENDBRANCH  11  12
ENDBRANCH  10  11
ENDBRANCH   9  10
ENDBRANCH   8   9
ENDBRANCH   7   8
ENDBRANCH   6   7
ENDBRANCH   5   6
ENDBRANCH   4   5
ENDBRANCH   3   4
ENDBRANCH   2   3
TORSDOF 14
ENDMDL
MODEL      164
REMARK 921   NORMALIZED FREE ENERGY PREDICTED BY IDOCK:   -3.29 KCAL/MOL
REMARK 922        TOTAL FREE ENERGY PREDICTED BY IDOCK:   -7.37 KCAL/MOL
REMARK 923 INTER-LIGAND FREE ENERGY PREDICTED BY IDOCK:   -5.32 KCAL/MOL
REMARK 924 INTRA-LIGAND FREE ENERGY PREDICTED BY IDOCK:   -2.05 KCAL/MOL
REMARK 927      BINDING AFFINITY PREDICTED BY RF-SCORE:    0.00 PKD
ROOT
HETATM    1  C   UNL     1      -7.629   6.473  70.568  1.00  0.00    -0.096 C  
HETATM    2  C   UNL     1      -7.255   7.904  70.221  1.00  0.00    -0.057 C  
ENDROOT
BRANCH   2   3
HETATM    3  C   UNL     1      -8.146   8.902  70.958  1.00  0.00    -0.205 C  
BRANCH   3   4
HETATM    4  C   UNL     1      -8.830   8.253  72.159  1.00  0.00    -0.265 C  
BRANCH   4   5
HETATM    5  C   UNL     1     -10.317   8.596  72.192  1.00  0.00    -0.403 C  
BRANCH   5   6
HETATM    6  C   UNL     1     -11.136   7.435  72.747  1.00  0.00    -0.394 C  
BRANCH   6   7
HETATM    7  C   UNL     1     -11.218   6.294  71.735  1.00  0.00    -0.334 C  
BRANCH   7   8
HETATM    8  C   UNL     1     -11.706   6.800  70.380  1.00  0.00    -0.418 C  
BRANCH   8   9
HETATM    9  C   UNL     1     -11.018   6.052  69.242  1.00  0.00    -0.436 C  
BRANCH   9  10
HETATM   10  C   UNL     1     -10.482   7.026  68.198  1.00  0.00    -0.242 C  
BRANCH  10  11
HETATM   11  C   UNL     1     -10.743   8.472  68.613  1.00  0.00    -0.082 C  
BRANCH  11  12
HETATM   12  C   UNL     1     -10.004   9.444  67.698  1.00  0.00    -0.238 C  
BRANCH  12  13
HETATM   13  C   UNL     1     -10.048   8.972  66.247  1.00  0.00    -0.311 C  
BRANCH  13  14
HETATM   14  C   UNL     1      -9.411  10.003  65.318  1.00  0.00    -0.323 C  
BRANCH  14  15
HETATM   15  C   UNL     1     -10.253  11.274  65.245  1.00  0.00    -0.328 C  
BRANCH  15  16
HETATM   16  C   UNL     1     -10.205  11.892  63.856  1.00  0.00    -0.389 C  
HETATM   17  O   UNL     1     -10.802  11.011  62.917  1.00  0.00    -0.797 OA 
HETATM   18  H   UNL     1     -10.771  11.396  62.049  1.00  0.00     0.000 HD 
ENDBRANCH  15  16
ENDBRANCH  14  15
ENDBRANCH  13  14
ENDBRANCH  12  13
ENDBRANCH  11  12
ENDBRANCH  10  11
ENDBRANCH   9  10
ENDBRANCH   8   9
ENDBRANCH   7   8
ENDBRANCH   6   7
ENDBRANCH   5   6
ENDBRANCH   4   5
ENDBRANCH   3   4
ENDBRANCH   2   3
TORSDOF 14
ENDMDL
MODEL      165
REMARK 921   NORMALIZED FREE ENERGY PREDICTED BY IDOCK:   -3.29 KCAL/MOL
REMARK 922        TOTAL FREE ENERGY PREDICTED BY IDOCK:   -7.37 KCAL/MOL
REMARK 923 INTER-LIGAND FREE ENERGY PREDICTED BY IDOCK:   -6.07 KCAL/MOL
REMARK 924 INTRA-LIGAND FREE ENERGY PREDICTED BY IDOCK:   -1.29 KCAL/MOL
REMARK 927      BINDING AFFINITY PREDICTED BY RF-SCORE:    0.00 PKD
ROOT
HETATM    1  C   UNL     1     -13.109  12.197  71.801  1.00  0.00    -0.457 C  
HETATM    2  C   UNL     1     -13.118  10.678  71.777  1.00  0.00    -0.571 C  
ENDROOT
BRANCH   2   3
HETATM    3  C   UNL     1     -12.132  10.136  70.744  1.00  0.00    -0.438 C  
BRANCH   3   4
HETATM    4  C   UNL     1     -11.881  11.152  69.632  1.00  0.00    -0.419 C  
BRANCH   4   5
HETATM    5  C   UNL     1     -10.593  10.828  68.878  1.00  0.00    -0.246 C  
BRANCH   5   6
HETATM    6  C   UNL     1     -10.550  11.545  67.533  1.00  0.00    -0.243 C  
BRANCH   6   7
HETATM    7  C   UNL     1     -11.779  12.433  67.349  1.00  0.00    -0.417 C  
BRANCH   7   8
HETATM    8  C   UNL     1     -12.105  12.615  65.869  1.00  0.00    -0.459 C  
BRANCH   8   9
HETATM    9  C   UNL     1     -12.009  14.085  65.469  1.00  0.00    -0.393 C  
BRANCH   9  10
HETATM   10  C   UNL     1     -10.643  14.397  64.866  1.00  0.00    -0.456 C  
BRANCH  10  11
HETATM   11  C   UNL     1      -9.948  15.515  65.637  1.00  0.00    -0.394 C  
BRANCH  11  12
HETATM   12  C   UNL     1     -10.766  15.926  66.859  1.00  0.00    -0.289 C  
BRANCH  12  13
HETATM   13  C   UNL     1     -10.064  17.032  67.641  1.00  0.00    -0.298 C  
BRANCH  13  14
HETATM   14  C   UNL     1      -9.492  16.496  68.952  1.00  0.00    -0.260 C  
BRANCH  14  15
HETATM   15  C   UNL     1      -7.977  16.334  68.866  1.00  0.00    -0.230 C  
BRANCH  15  16
HETATM   16  C   UNL     1      -7.582  14.870  68.741  1.00  0.00    -0.135 C  
HETATM   17  O   UNL     1      -8.695  14.044  69.043  1.00  0.00    -0.368 OA 
HETATM   18  H   UNL     1      -8.448  13.130  68.965  1.00  0.00     0.000 HD 
ENDBRANCH  15  16
ENDBRANCH  14  15
ENDBRANCH  13  14
ENDBRANCH  12  13
ENDBRANCH  11  12
ENDBRANCH  10  11
ENDBRANCH   9  10
ENDBRANCH   8   9
ENDBRANCH   7   8
ENDBRANCH   6   7
ENDBRANCH   5   6
ENDBRANCH   4   5
ENDBRANCH   3   4
ENDBRANCH   2   3
TORSDOF 14
ENDMDL
MODEL      166
REMARK 921   NORMALIZED FREE ENERGY PREDICTED BY IDOCK:   -3.28 KCAL/MOL
REMARK 922        TOTAL FREE ENERGY PREDICTED BY IDOCK:   -7.34 KCAL/MOL
REMARK 923 INTER-LIGAND FREE ENERGY PREDICTED BY IDOCK:   -4.91 KCAL/MOL
REMARK 924 INTRA-LIGAND FREE ENERGY PREDICTED BY IDOCK:   -2.43 KCAL/MOL
REMARK 927      BINDING AFFINITY PREDICTED BY RF-SCORE:    0.00 PKD
ROOT
HETATM    1  C   UNL     1      -7.805   6.556  70.977  1.00  0.00    -0.110 C  
HETATM    2  C   UNL     1      -7.558   7.941  70.404  1.00  0.00    -0.082 C  
ENDROOT
BRANCH   2   3
HETATM    3  C   UNL     1      -8.769   8.848  70.612  1.00  0.00    -0.230 C  
BRANCH   3   4
HETATM    4  C   UNL     1      -9.439   8.579  71.958  1.00  0.00    -0.364 C  
BRANCH   4   5
HETATM    5  C   UNL     1     -10.955   8.729  71.853  1.00  0.00    -0.435 C  
BRANCH   5   6
HETATM    6  C   UNL     1     -11.667   7.484  72.370  1.00  0.00    -0.335 C  
BRANCH   6   7
HETATM    7  C   UNL     1     -11.378   6.281  71.475  1.00  0.00    -0.352 C  
BRANCH   7   8
HETATM    8  C   UNL     1     -11.785   6.564  70.032  1.00  0.00    -0.388 C  
BRANCH   8   9
HETATM    9  C   UNL     1     -10.870   5.831  69.055  1.00  0.00    -0.330 C  
BRANCH   9  10
HETATM   10  C   UNL     1     -10.773   6.583  67.732  1.00  0.00    -0.368 C  
BRANCH  10  11
HETATM   11  C   UNL     1      -9.321   6.713  67.281  1.00  0.00    -0.144 C  
BRANCH  11  12
HETATM   12  C   UNL     1      -9.087   8.046  66.575  1.00  0.00    -0.213 C  
BRANCH  12  13
HETATM   13  C   UNL     1     -10.365   8.880  66.541  1.00  0.00    -0.267 C  
BRANCH  13  14
HETATM   14  C   UNL     1     -10.210  10.152  67.371  1.00  0.00    -0.267 C  
BRANCH  14  15
HETATM   15  C   UNL     1     -11.302  10.254  68.431  1.00  0.00    -0.244 C  
BRANCH  15  16
HETATM   16  C   UNL     1     -11.727  11.698  68.653  1.00  0.00    -0.325 C  
HETATM   17  O   UNL     1     -10.797  12.348  69.505  1.00  0.00    -0.457 OA 
HETATM   18  H   UNL     1     -11.063  13.249  69.644  1.00  0.00     0.000 HD 
ENDBRANCH  15  16
ENDBRANCH  14  15
ENDBRANCH  13  14
ENDBRANCH  12  13
ENDBRANCH  11  12
ENDBRANCH  10  11
ENDBRANCH   9  10
ENDBRANCH   8   9
ENDBRANCH   7   8
ENDBRANCH   6   7
ENDBRANCH   5   6
ENDBRANCH   4   5
ENDBRANCH   3   4
ENDBRANCH   2   3
TORSDOF 14
ENDMDL
MODEL      167
REMARK 921   NORMALIZED FREE ENERGY PREDICTED BY IDOCK:   -3.27 KCAL/MOL
REMARK 922        TOTAL FREE ENERGY PREDICTED BY IDOCK:   -7.32 KCAL/MOL
REMARK 923 INTER-LIGAND FREE ENERGY PREDICTED BY IDOCK:   -6.06 KCAL/MOL
REMARK 924 INTRA-LIGAND FREE ENERGY PREDICTED BY IDOCK:   -1.26 KCAL/MOL
REMARK 927      BINDING AFFINITY PREDICTED BY RF-SCORE:    0.00 PKD
ROOT
HETATM    1  C   UNL     1      -6.869  19.485  65.587  1.00  0.00    -0.313 C  
HETATM    2  C   UNL     1      -7.294  19.379  67.042  1.00  0.00    -0.232 C  
ENDROOT
BRANCH   2   3
HETATM    3  C   UNL     1      -8.504  20.265  67.330  1.00  0.00    -0.415 C  
BRANCH   3   4
HETATM    4  C   UNL     1      -9.529  19.539  68.198  1.00  0.00    -0.439 C  
BRANCH   4   5
HETATM    5  C   UNL     1     -10.671  18.985  67.348  1.00  0.00    -0.559 C  
BRANCH   5   6
HETATM    6  C   UNL     1     -10.574  17.468  67.221  1.00  0.00    -0.287 C  
BRANCH   6   7
HETATM    7  C   UNL     1     -10.051  17.070  65.842  1.00  0.00    -0.281 C  
BRANCH   7   8
HETATM    8  C   UNL     1     -10.231  15.574  65.601  1.00  0.00    -0.403 C  
BRANCH   8   9
HETATM    9  C   UNL     1     -11.450  15.309  64.722  1.00  0.00    -0.364 C  
BRANCH   9  10
HETATM   10  C   UNL     1     -12.434  14.378  65.424  1.00  0.00    -0.357 C  
BRANCH  10  11
HETATM   11  C   UNL     1     -12.054  14.186  66.890  1.00  0.00    -0.466 C  
BRANCH  11  12
HETATM   12  C   UNL     1     -11.801  12.713  67.198  1.00  0.00    -0.399 C  
BRANCH  12  13
HETATM   13  C   UNL     1     -11.137  12.012  66.015  1.00  0.00    -0.364 C  
BRANCH  13  14
HETATM   14  C   UNL     1      -9.621  11.960  66.191  1.00  0.00    -0.250 C  
BRANCH  14  15
HETATM   15  C   UNL     1      -8.975  11.063  65.140  1.00  0.00    -0.159 C  
BRANCH  15  16
HETATM   16  C   UNL     1      -9.971  10.662  64.063  1.00  0.00    -0.337 C  
HETATM   17  O   UNL     1      -9.539  11.151  62.803  1.00  0.00    -0.442 OA 
HETATM   18  H   UNL     1     -10.162  10.901  62.130  1.00  0.00     0.000 HD 
ENDBRANCH  15  16
ENDBRANCH  14  15
ENDBRANCH  13  14
ENDBRANCH  12  13
ENDBRANCH  11  12
ENDBRANCH  10  11
ENDBRANCH   9  10
ENDBRANCH   8   9
ENDBRANCH   7   8
ENDBRANCH   6   7
ENDBRANCH   5   6
ENDBRANCH   4   5
ENDBRANCH   3   4
ENDBRANCH   2   3
TORSDOF 14
ENDMDL
MODEL      168
REMARK 921   NORMALIZED FREE ENERGY PREDICTED BY IDOCK:   -3.27 KCAL/MOL
REMARK 922        TOTAL FREE ENERGY PREDICTED BY IDOCK:   -7.32 KCAL/MOL
REMARK 923 INTER-LIGAND FREE ENERGY PREDICTED BY IDOCK:   -5.67 KCAL/MOL
REMARK 924 INTRA-LIGAND FREE ENERGY PREDICTED BY IDOCK:   -1.65 KCAL/MOL
REMARK 927      BINDING AFFINITY PREDICTED BY RF-SCORE:    0.00 PKD
ROOT
HETATM    1  C   UNL     1      -9.810   4.455  66.885  1.00  0.00    -0.235 C  
HETATM    2  C   UNL     1     -10.727   5.647  66.669  1.00  0.00    -0.339 C  
ENDROOT
BRANCH   2   3
HETATM    3  C   UNL     1     -10.927   6.432  67.964  1.00  0.00    -0.400 C  
BRANCH   3   4
HETATM    4  C   UNL     1      -9.844   7.493  68.142  1.00  0.00    -0.179 C  
BRANCH   4   5
HETATM    5  C   UNL     1      -9.847   8.479  66.977  1.00  0.00    -0.289 C  
BRANCH   5   6
HETATM    6  C   UNL     1      -8.604   9.361  67.000  1.00  0.00    -0.131 C  
BRANCH   6   7
HETATM    7  C   UNL     1      -8.768  10.559  66.068  1.00  0.00    -0.174 C  
BRANCH   7   8
HETATM    8  C   UNL     1     -10.205  10.665  65.564  1.00  0.00    -0.329 C  
BRANCH   8   9
HETATM    9  C   UNL     1     -10.748  12.077  65.764  1.00  0.00    -0.319 C  
BRANCH   9  10
HETATM   10  C   UNL     1     -11.830  12.095  66.839  1.00  0.00    -0.295 C  
BRANCH  10  11
HETATM   11  C   UNL     1     -11.220  12.287  68.225  1.00  0.00    -0.315 C  
BRANCH  11  12
HETATM   12  C   UNL     1     -11.947  11.436  69.262  1.00  0.00    -0.400 C  
BRANCH  12  13
HETATM   13  C   UNL     1     -10.994  10.438  69.917  1.00  0.00    -0.364 C  
BRANCH  13  14
HETATM   14  C   UNL     1     -11.749   9.490  70.845  1.00  0.00    -0.391 C  
BRANCH  14  15
HETATM   15  C   UNL     1     -13.141  10.025  71.165  1.00  0.00    -0.472 C  
BRANCH  15  16
HETATM   16  C   UNL     1     -14.012   8.957  71.810  1.00  0.00    -0.393 C  
HETATM   17  O   UNL     1     -14.284   7.928  70.871  1.00  0.00    -0.643 OA 
HETATM   18  H   UNL     1     -14.829   7.261  71.274  1.00  0.00     0.000 HD 
ENDBRANCH  15  16
ENDBRANCH  14  15
ENDBRANCH  13  14
ENDBRANCH  12  13
ENDBRANCH  11  12
ENDBRANCH  10  11
ENDBRANCH   9  10
ENDBRANCH   8   9
ENDBRANCH   7   8
ENDBRANCH   6   7
ENDBRANCH   5   6
ENDBRANCH   4   5
ENDBRANCH   3   4
ENDBRANCH   2   3
TORSDOF 14
ENDMDL
MODEL      169
REMARK 921   NORMALIZED FREE ENERGY PREDICTED BY IDOCK:   -3.26 KCAL/MOL
REMARK 922        TOTAL FREE ENERGY PREDICTED BY IDOCK:   -7.30 KCAL/MOL
REMARK 923 INTER-LIGAND FREE ENERGY PREDICTED BY IDOCK:   -4.83 KCAL/MOL
REMARK 924 INTRA-LIGAND FREE ENERGY PREDICTED BY IDOCK:   -2.47 KCAL/MOL
REMARK 927      BINDING AFFINITY PREDICTED BY RF-SCORE:    0.00 PKD
ROOT
HETATM    1  C   UNL     1      -6.633  12.810  67.337  1.00  0.00    -0.140 C  
HETATM    2  C   UNL     1      -8.039  13.355  67.149  1.00  0.00    -0.096 C  
ENDROOT
BRANCH   2   3
HETATM    3  C   UNL     1      -8.498  14.134  68.380  1.00  0.00    -0.170 C  
BRANCH   3   4
HETATM    4  C   UNL     1      -9.991  14.447  68.312  1.00  0.00    -0.232 C  
BRANCH   4   5
HETATM    5  C   UNL     1     -10.646  13.736  67.131  1.00  0.00    -0.277 C  
BRANCH   5   6
HETATM    6  C   UNL     1     -11.785  12.835  67.595  1.00  0.00    -0.422 C  
BRANCH   6   7
HETATM    7  C   UNL     1     -11.945  12.897  69.112  1.00  0.00    -0.308 C  
BRANCH   7   8
HETATM    8  C   UNL     1     -11.894  11.500  69.725  1.00  0.00    -0.429 C  
BRANCH   8   9
HETATM    9  C   UNL     1     -11.169  10.528  68.799  1.00  0.00    -0.317 C  
BRANCH   9  10
HETATM   10  C   UNL     1      -9.838  10.093  69.402  1.00  0.00    -0.247 C  
BRANCH  10  11
HETATM   11  C   UNL     1      -8.771   9.942  68.321  1.00  0.00    -0.119 C  
BRANCH  11  12
HETATM   12  C   UNL     1      -9.409   9.694  66.957  1.00  0.00    -0.180 C  
BRANCH  12  13
HETATM   13  C   UNL     1      -8.345   9.576  65.868  1.00  0.00    -0.124 C  
BRANCH  13  14
HETATM   14  C   UNL     1      -8.859  10.130  64.540  1.00  0.00    -0.228 C  
BRANCH  14  15
HETATM   15  C   UNL     1     -10.124  10.959  64.742  1.00  0.00    -0.383 C  
BRANCH  15  16
HETATM   16  C   UNL     1     -10.536  11.664  63.459  1.00  0.00    -0.443 C  
HETATM   17  O   UNL     1     -10.272  10.826  62.344  1.00  0.00    -0.717 OA 
HETATM   18  H   UNL     1     -10.529  11.266  61.542  1.00  0.00     0.000 HD 
ENDBRANCH  15  16
ENDBRANCH  14  15
ENDBRANCH  13  14
ENDBRANCH  12  13
ENDBRANCH  11  12
ENDBRANCH  10  11
ENDBRANCH   9  10
ENDBRANCH   8   9
ENDBRANCH   7   8
ENDBRANCH   6   7
ENDBRANCH   5   6
ENDBRANCH   4   5
ENDBRANCH   3   4
ENDBRANCH   2   3
TORSDOF 14
ENDMDL
MODEL      170
REMARK 921   NORMALIZED FREE ENERGY PREDICTED BY IDOCK:   -3.25 KCAL/MOL
REMARK 922        TOTAL FREE ENERGY PREDICTED BY IDOCK:   -7.29 KCAL/MOL
REMARK 923 INTER-LIGAND FREE ENERGY PREDICTED BY IDOCK:   -5.94 KCAL/MOL
REMARK 924 INTRA-LIGAND FREE ENERGY PREDICTED BY IDOCK:   -1.35 KCAL/MOL
REMARK 927      BINDING AFFINITY PREDICTED BY RF-SCORE:    0.00 PKD
ROOT
HETATM    1  C   UNL     1     -12.110  13.922  69.763  1.00  0.00    -0.404 C  
HETATM    2  C   UNL     1     -12.434  12.859  70.799  1.00  0.00    -0.370 C  
ENDROOT
BRANCH   2   3
HETATM    3  C   UNL     1     -12.251  11.455  70.227  1.00  0.00    -0.433 C  
BRANCH   3   4
HETATM    4  C   UNL     1     -12.525  10.386  71.282  1.00  0.00    -0.521 C  
BRANCH   4   5
HETATM    5  C   UNL     1     -11.310   9.481  71.471  1.00  0.00    -0.456 C  
BRANCH   5   6
HETATM    6  C   UNL     1     -11.647   8.288  72.359  1.00  0.00    -0.464 C  
BRANCH   6   7
HETATM    7  C   UNL     1     -11.037   7.004  71.799  1.00  0.00    -0.270 C  
BRANCH   7   8
HETATM    8  C   UNL     1     -11.778   6.549  70.545  1.00  0.00    -0.438 C  
BRANCH   8   9
HETATM    9  C   UNL     1     -10.812   5.934  69.537  1.00  0.00    -0.442 C  
BRANCH   9  10
HETATM   10  C   UNL     1     -11.065   6.484  68.137  1.00  0.00    -0.332 C  
BRANCH  10  11
HETATM   11  C   UNL     1      -9.999   7.505  67.750  1.00  0.00    -0.214 C  
BRANCH  11  12
HETATM   12  C   UNL     1     -10.574   8.918  67.745  1.00  0.00    -0.266 C  
BRANCH  12  13
HETATM   13  C   UNL     1      -9.598   9.905  67.110  1.00  0.00    -0.201 C  
BRANCH  13  14
HETATM   14  C   UNL     1      -9.525  11.198  67.919  1.00  0.00    -0.178 C  
BRANCH  14  15
HETATM   15  C   UNL     1      -8.780  12.287  67.152  1.00  0.00    -0.193 C  
BRANCH  15  16
HETATM   16  C   UNL     1      -9.731  13.365  66.656  1.00  0.00    -0.275 C  
HETATM   17  O   UNL     1      -9.813  13.319  65.240  1.00  0.00    -0.483 OA 
HETATM   18  H   UNL     1     -10.407  13.992  64.929  1.00  0.00     0.000 HD 
ENDBRANCH  15  16
ENDBRANCH  14  15
ENDBRANCH  13  14
ENDBRANCH  12  13
ENDBRANCH  11  12
ENDBRANCH  10  11
ENDBRANCH   9  10
ENDBRANCH   8   9
ENDBRANCH   7   8
ENDBRANCH   6   7
ENDBRANCH   5   6
ENDBRANCH   4   5
ENDBRANCH   3   4
ENDBRANCH   2   3
TORSDOF 14
ENDMDL
MODEL      171
REMARK 921   NORMALIZED FREE ENERGY PREDICTED BY IDOCK:   -3.25 KCAL/MOL
REMARK 922        TOTAL FREE ENERGY PREDICTED BY IDOCK:   -7.29 KCAL/MOL
REMARK 923 INTER-LIGAND FREE ENERGY PREDICTED BY IDOCK:   -6.09 KCAL/MOL
REMARK 924 INTRA-LIGAND FREE ENERGY PREDICTED BY IDOCK:   -1.19 KCAL/MOL
REMARK 927      BINDING AFFINITY PREDICTED BY RF-SCORE:    0.00 PKD
ROOT
HETATM    1  C   UNL     1      -8.000   9.423  62.605  1.00  0.00    -0.127 C  
HETATM    2  C   UNL     1      -9.328  10.154  62.701  1.00  0.00    -0.322 C  
ENDROOT
BRANCH   2   3
HETATM    3  C   UNL     1      -9.770  10.308  64.155  1.00  0.00    -0.357 C  
BRANCH   3   4
HETATM    4  C   UNL     1     -10.026  11.772  64.506  1.00  0.00    -0.273 C  
BRANCH   4   5
HETATM    5  C   UNL     1     -10.149  11.959  66.016  1.00  0.00    -0.261 C  
BRANCH   5   6
HETATM    6  C   UNL     1     -11.579  12.309  66.411  1.00  0.00    -0.445 C  
BRANCH   6   7
HETATM    7  C   UNL     1     -11.851  11.930  67.865  1.00  0.00    -0.308 C  
BRANCH   7   8
HETATM    8  C   UNL     1     -11.175  12.911  68.820  1.00  0.00    -0.323 C  
BRANCH   8   9
HETATM    9  C   UNL     1     -12.060  14.130  69.063  1.00  0.00    -0.348 C  
BRANCH   9  10
HETATM   10  C   UNL     1     -11.569  14.927  70.267  1.00  0.00    -0.332 C  
BRANCH  10  11
HETATM   11  C   UNL     1     -11.263  16.371  69.878  1.00  0.00    -0.253 C  
BRANCH  11  12
HETATM   12  C   UNL     1     -10.341  16.425  68.664  1.00  0.00    -0.273 C  
BRANCH  12  13
HETATM   13  C   UNL     1     -10.596  17.683  67.837  1.00  0.00    -0.390 C  
BRANCH  13  14
HETATM   14  C   UNL     1     -10.518  17.379  66.342  1.00  0.00    -0.267 C  
BRANCH  14  15
HETATM   15  C   UNL     1     -10.725  15.892  66.071  1.00  0.00    -0.289 C  
BRANCH  15  16
HETATM   16  C   UNL     1     -10.692  15.590  64.581  1.00  0.00    -0.165 C  
HETATM   17  O   UNL     1     -11.807  16.193  63.943  1.00  0.00    -1.359 OA 
HETATM   18  H   UNL     1     -11.787  16.004  63.012  1.00  0.00     0.000 HD 
ENDBRANCH  15  16
ENDBRANCH  14  15
ENDBRANCH  13  14
ENDBRANCH  12  13
ENDBRANCH  11  12
ENDBRANCH  10  11
ENDBRANCH   9  10
ENDBRANCH   8   9
ENDBRANCH   7   8
ENDBRANCH   6   7
ENDBRANCH   5   6
ENDBRANCH   4   5
ENDBRANCH   3   4
ENDBRANCH   2   3
TORSDOF 14
ENDMDL
MODEL      172
REMARK 921   NORMALIZED FREE ENERGY PREDICTED BY IDOCK:   -3.24 KCAL/MOL
REMARK 922        TOTAL FREE ENERGY PREDICTED BY IDOCK:   -7.27 KCAL/MOL
REMARK 923 INTER-LIGAND FREE ENERGY PREDICTED BY IDOCK:   -5.34 KCAL/MOL
REMARK 924 INTRA-LIGAND FREE ENERGY PREDICTED BY IDOCK:   -1.93 KCAL/MOL
REMARK 927      BINDING AFFINITY PREDICTED BY RF-SCORE:    0.00 PKD
ROOT
HETATM    1  C   UNL     1     -10.376   9.741  70.242  1.00  0.00    -0.348 C  
HETATM    2  C   UNL     1      -9.235  10.153  69.328  1.00  0.00    -0.220 C  
ENDROOT
BRANCH   2   3
HETATM    3  C   UNL     1      -9.672  11.248  68.357  1.00  0.00    -0.194 C  
BRANCH   3   4
HETATM    4  C   UNL     1      -8.648  11.443  67.242  1.00  0.00    -0.146 C  
BRANCH   4   5
HETATM    5  C   UNL     1      -8.392  12.926  66.988  1.00  0.00    -0.112 C  
BRANCH   5   6
HETATM    6  C   UNL     1      -7.902  13.623  68.253  1.00  0.00    -0.141 C  
BRANCH   6   7
HETATM    7  C   UNL     1      -7.222  14.948  67.915  1.00  0.00    -0.166 C  
BRANCH   7   8
HETATM    8  C   UNL     1      -8.063  15.760  66.935  1.00  0.00    -0.292 C  
BRANCH   8   9
HETATM    9  C   UNL     1      -9.169  16.516  67.665  1.00  0.00    -0.200 C  
BRANCH   9  10
HETATM   10  C   UNL     1     -10.532  16.213  67.051  1.00  0.00    -0.306 C  
BRANCH  10  11
HETATM   11  C   UNL     1     -10.417  15.996  65.545  1.00  0.00    -0.426 C  
BRANCH  11  12
HETATM   12  C   UNL     1     -11.403  14.932  65.071  1.00  0.00    -0.398 C  
BRANCH  12  13
HETATM   13  C   UNL     1     -11.872  14.063  66.235  1.00  0.00    -0.428 C  
BRANCH  13  14
HETATM   14  C   UNL     1     -11.998  12.601  65.809  1.00  0.00    -0.503 C  
BRANCH  14  15
HETATM   15  C   UNL     1     -11.131  12.306  64.589  1.00  0.00    -0.358 C  
BRANCH  15  16
HETATM   16  C   UNL     1     -11.978  11.920  63.386  1.00  0.00    -0.425 C  
HETATM   17  O   UNL     1     -13.355  12.018  63.717  1.00  0.00    -0.681 OA 
HETATM   18  H   UNL     1     -13.884  11.776  62.966  1.00  0.00     0.000 HD 
ENDBRANCH  15  16
ENDBRANCH  14  15
ENDBRANCH  13  14
ENDBRANCH  12  13
ENDBRANCH  11  12
ENDBRANCH  10  11
ENDBRANCH   9  10
ENDBRANCH   8   9
ENDBRANCH   7   8
ENDBRANCH   6   7
ENDBRANCH   5   6
ENDBRANCH   4   5
ENDBRANCH   3   4
ENDBRANCH   2   3
TORSDOF 14
ENDMDL
MODEL      173
REMARK 921   NORMALIZED FREE ENERGY PREDICTED BY IDOCK:   -3.24 KCAL/MOL
REMARK 922        TOTAL FREE ENERGY PREDICTED BY IDOCK:   -7.26 KCAL/MOL
REMARK 923 INTER-LIGAND FREE ENERGY PREDICTED BY IDOCK:   -5.77 KCAL/MOL
REMARK 924 INTRA-LIGAND FREE ENERGY PREDICTED BY IDOCK:   -1.49 KCAL/MOL
REMARK 927      BINDING AFFINITY PREDICTED BY RF-SCORE:    0.00 PKD
ROOT
HETATM    1  C   UNL     1     -12.165  14.065  64.321  1.00  0.00    -0.453 C  
HETATM    2  C   UNL     1     -11.250  12.936  63.877  1.00  0.00    -0.471 C  
ENDROOT
BRANCH   2   3
HETATM    3  C   UNL     1     -11.391  11.719  64.788  1.00  0.00    -0.313 C  
BRANCH   3   4
HETATM    4  C   UNL     1     -10.423  11.793  65.967  1.00  0.00    -0.286 C  
BRANCH   4   5
HETATM    5  C   UNL     1     -11.157  11.594  67.290  1.00  0.00    -0.346 C  
BRANCH   5   6
HETATM    6  C   UNL     1     -11.006  10.162  67.792  1.00  0.00    -0.338 C  
BRANCH   6   7
HETATM    7  C   UNL     1      -9.654   9.964  68.474  1.00  0.00    -0.159 C  
BRANCH   7   8
HETATM    8  C   UNL     1      -9.812   9.890  69.990  1.00  0.00    -0.291 C  
BRANCH   8   9
HETATM    9  C   UNL     1     -11.275   9.686  70.374  1.00  0.00    -0.342 C  
BRANCH   9  10
HETATM   10  C   UNL     1     -11.405   8.658  71.493  1.00  0.00    -0.358 C  
BRANCH  10  11
HETATM   11  C   UNL     1     -12.131   7.408  71.006  1.00  0.00    -0.330 C  
BRANCH  11  12
HETATM   12  C   UNL     1     -11.139   6.360  70.508  1.00  0.00    -0.388 C  
BRANCH  12  13
HETATM   13  C   UNL     1     -11.199   6.227  68.988  1.00  0.00    -0.415 C  
BRANCH  13  14
HETATM   14  C   UNL     1      -9.800   6.295  68.379  1.00  0.00    -0.141 C  
BRANCH  14  15
HETATM   15  C   UNL     1      -9.865   6.579  66.881  1.00  0.00    -0.211 C  
BRANCH  15  16
HETATM   16  C   UNL     1      -9.925   5.291  66.074  1.00  0.00    -0.124 C  
HETATM   17  O   UNL     1     -11.275   4.971  65.778  1.00  0.00    -0.804 OA 
HETATM   18  H   UNL     1     -11.313   4.167  65.274  1.00  0.00     0.000 HD 
ENDBRANCH  15  16
ENDBRANCH  14  15
ENDBRANCH  13  14
ENDBRANCH  12  13
ENDBRANCH  11  12
ENDBRANCH  10  11
ENDBRANCH   9  10
ENDBRANCH   8   9
ENDBRANCH   7   8
ENDBRANCH   6   7
ENDBRANCH   5   6
ENDBRANCH   4   5
ENDBRANCH   3   4
ENDBRANCH   2   3
TORSDOF 14
ENDMDL
MODEL      174
REMARK 921   NORMALIZED FREE ENERGY PREDICTED BY IDOCK:   -3.23 KCAL/MOL
REMARK 922        TOTAL FREE ENERGY PREDICTED BY IDOCK:   -7.25 KCAL/MOL
REMARK 923 INTER-LIGAND FREE ENERGY PREDICTED BY IDOCK:   -5.48 KCAL/MOL
REMARK 924 INTRA-LIGAND FREE ENERGY PREDICTED BY IDOCK:   -1.77 KCAL/MOL
REMARK 927      BINDING AFFINITY PREDICTED BY RF-SCORE:    0.00 PKD
ROOT
HETATM    1  C   UNL     1     -10.387  10.720  64.439  1.00  0.00    -0.405 C  
HETATM    2  C   UNL     1      -9.542  11.475  65.450  1.00  0.00    -0.249 C  
ENDROOT
BRANCH   2   3
HETATM    3  C   UNL     1     -10.402  12.404  66.304  1.00  0.00    -0.267 C  
BRANCH   3   4
HETATM    4  C   UNL     1     -11.711  12.752  65.600  1.00  0.00    -0.443 C  
BRANCH   4   5
HETATM    5  C   UNL     1     -11.623  14.120  64.927  1.00  0.00    -0.379 C  
BRANCH   5   6
HETATM    6  C   UNL     1     -10.425  14.910  65.445  1.00  0.00    -0.406 C  
BRANCH   6   7
HETATM    7  C   UNL     1     -10.700  16.411  65.393  1.00  0.00    -0.310 C  
BRANCH   7   8
HETATM    8  C   UNL     1      -9.585  17.194  66.082  1.00  0.00    -0.242 C  
BRANCH   8   9
HETATM    9  C   UNL     1      -8.334  16.335  66.237  1.00  0.00    -0.343 C  
BRANCH   9  10
HETATM   10  C   UNL     1      -7.638  16.622  67.563  1.00  0.00    -0.177 C  
BRANCH  10  11
HETATM   11  C   UNL     1      -7.044  15.347  68.156  1.00  0.00    -0.128 C  
BRANCH  11  12
HETATM   12  C   UNL     1      -8.146  14.386  68.595  1.00  0.00    -0.146 C  
BRANCH  12  13
HETATM   13  C   UNL     1      -9.323  15.144  69.205  1.00  0.00    -0.207 C  
BRANCH  13  14
HETATM   14  C   UNL     1     -10.614  14.338  69.082  1.00  0.00    -0.201 C  
BRANCH  14  15
HETATM   15  C   UNL     1     -11.836  15.211  69.349  1.00  0.00    -0.357 C  
BRANCH  15  16
HETATM   16  C   UNL     1     -12.581  14.758  70.595  1.00  0.00    -0.354 C  
HETATM   17  O   UNL     1     -13.805  15.468  70.708  1.00  0.00    -0.867 OA 
HETATM   18  H   UNL     1     -14.270  15.186  71.487  1.00  0.00     0.000 HD 
ENDBRANCH  15  16
ENDBRANCH  14  15
ENDBRANCH  13  14
ENDBRANCH  12  13
ENDBRANCH  11  12
ENDBRANCH  10  11
ENDBRANCH   9  10
ENDBRANCH   8   9
ENDBRANCH   7   8
ENDBRANCH   6   7
ENDBRANCH   5   6
ENDBRANCH   4   5
ENDBRANCH   3   4
ENDBRANCH   2   3
TORSDOF 14
ENDMDL
MODEL      175
REMARK 921   NORMALIZED FREE ENERGY PREDICTED BY IDOCK:   -3.22 KCAL/MOL
REMARK 922        TOTAL FREE ENERGY PREDICTED BY IDOCK:   -7.24 KCAL/MOL
REMARK 923 INTER-LIGAND FREE ENERGY PREDICTED BY IDOCK:   -5.17 KCAL/MOL
REMARK 924 INTRA-LIGAND FREE ENERGY PREDICTED BY IDOCK:   -2.07 KCAL/MOL
REMARK 927      BINDING AFFINITY PREDICTED BY RF-SCORE:    0.00 PKD
ROOT
HETATM    1  C   UNL     1      -7.068   8.985  68.222  1.00  0.00    -0.077 C  
HETATM    2  C   UNL     1      -8.342   8.448  67.593  1.00  0.00    -0.130 C  
ENDROOT
BRANCH   2   3
HETATM    3  C   UNL     1      -8.792   9.322  66.424  1.00  0.00    -0.169 C  
BRANCH   3   4
HETATM    4  C   UNL     1      -8.000  10.626  66.370  1.00  0.00    -0.142 C  
BRANCH   4   5
HETATM    5  C   UNL     1      -8.923  11.833  66.516  1.00  0.00    -0.196 C  
BRANCH   5   6
HETATM    6  C   UNL     1     -10.297  11.413  67.028  1.00  0.00    -0.258 C  
BRANCH   6   7
HETATM    7  C   UNL     1     -10.787  12.365  68.116  1.00  0.00    -0.250 C  
BRANCH   7   8
HETATM    8  C   UNL     1     -10.130  13.736  67.979  1.00  0.00    -0.245 C  
BRANCH   8   9
HETATM    9  C   UNL     1     -11.062  14.717  67.274  1.00  0.00    -0.331 C  
BRANCH   9  10
HETATM   10  C   UNL     1     -10.355  15.392  66.103  1.00  0.00    -0.325 C  
BRANCH  10  11
HETATM   11  C   UNL     1     -11.065  15.087  64.787  1.00  0.00    -0.388 C  
BRANCH  11  12
HETATM   12  C   UNL     1     -12.221  14.115  65.004  1.00  0.00    -0.450 C  
BRANCH  12  13
HETATM   13  C   UNL     1     -12.226  13.022  63.938  1.00  0.00    -0.511 C  
BRANCH  13  14
HETATM   14  C   UNL     1     -10.802  12.639  63.542  1.00  0.00    -0.373 C  
BRANCH  14  15
HETATM   15  C   UNL     1     -10.628  11.124  63.509  1.00  0.00    -0.393 C  
BRANCH  15  16
HETATM   16  C   UNL     1      -9.456  10.718  62.628  1.00  0.00    -0.300 C  
HETATM   17  O   UNL     1      -8.454  11.723  62.670  1.00  0.00    -0.626 OA 
HETATM   18  H   UNL     1      -7.722  11.470  62.120  1.00  0.00     0.000 HD 
ENDBRANCH  15  16
ENDBRANCH  14  15
ENDBRANCH  13  14
ENDBRANCH  12  13
ENDBRANCH  11  12
ENDBRANCH  10  11
ENDBRANCH   9  10
ENDBRANCH   8   9
ENDBRANCH   7   8
ENDBRANCH   6   7
ENDBRANCH   5   6
ENDBRANCH   4   5
ENDBRANCH   3   4
ENDBRANCH   2   3
TORSDOF 14
ENDMDL
MODEL      176
REMARK 921   NORMALIZED FREE ENERGY PREDICTED BY IDOCK:   -3.22 KCAL/MOL
REMARK 922        TOTAL FREE ENERGY PREDICTED BY IDOCK:   -7.24 KCAL/MOL
REMARK 923 INTER-LIGAND FREE ENERGY PREDICTED BY IDOCK:   -6.00 KCAL/MOL
REMARK 924 INTRA-LIGAND FREE ENERGY PREDICTED BY IDOCK:   -1.23 KCAL/MOL
REMARK 927      BINDING AFFINITY PREDICTED BY RF-SCORE:    0.00 PKD
ROOT
HETATM    1  C   UNL     1      -8.979  12.242  67.641  1.00  0.00    -0.181 C  
HETATM    2  C   UNL     1      -9.083  10.928  66.885  1.00  0.00    -0.164 C  
ENDROOT
BRANCH   2   3
HETATM    3  C   UNL     1      -9.224  11.166  65.383  1.00  0.00    -0.225 C  
BRANCH   3   4
HETATM    4  C   UNL     1     -10.669  10.981  64.925  1.00  0.00    -0.278 C  
BRANCH   4   5
HETATM    5  C   UNL     1     -10.891  11.612  63.553  1.00  0.00    -0.497 C  
BRANCH   5   6
HETATM    6  C   UNL     1     -12.232  12.336  63.492  1.00  0.00    -0.669 C  
BRANCH   6   7
HETATM    7  C   UNL     1     -12.453  13.179  64.746  1.00  0.00    -0.460 C  
BRANCH   7   8
HETATM    8  C   UNL     1     -11.764  14.535  64.621  1.00  0.00    -0.438 C  
BRANCH   8   9
HETATM    9  C   UNL     1     -10.769  14.746  65.758  1.00  0.00    -0.333 C  
BRANCH   9  10
HETATM   10  C   UNL     1     -10.414  16.223  65.903  1.00  0.00    -0.359 C  
BRANCH  10  11
HETATM   11  C   UNL     1      -8.940  16.399  66.256  1.00  0.00    -0.368 C  
BRANCH  11  12
HETATM   12  C   UNL     1      -8.634  15.808  67.629  1.00  0.00    -0.173 C  
BRANCH  12  13
HETATM   13  C   UNL     1      -7.976  16.843  68.537  1.00  0.00    -0.242 C  
BRANCH  13  14
HETATM   14  C   UNL     1      -7.924  18.210  67.859  1.00  0.00    -0.249 C  
BRANCH  14  15
HETATM   15  C   UNL     1      -8.953  19.163  68.459  1.00  0.00    -0.406 C  
BRANCH  15  16
HETATM   16  C   UNL     1      -9.928  19.665  67.404  1.00  0.00    -0.385 C  
HETATM   17  O   UNL     1      -9.820  21.074  67.281  1.00  0.00    -0.578 OA 
HETATM   18  H   UNL     1     -10.428  21.388  66.623  1.00  0.00     0.000 HD 
ENDBRANCH  15  16
ENDBRANCH  14  15
ENDBRANCH  13  14
ENDBRANCH  12  13
ENDBRANCH  11  12
ENDBRANCH  10  11
ENDBRANCH   9  10
ENDBRANCH   8   9
ENDBRANCH   7   8
ENDBRANCH   6   7
ENDBRANCH   5   6
ENDBRANCH   4   5
ENDBRANCH   3   4
ENDBRANCH   2   3
TORSDOF 14
ENDMDL
MODEL      177
REMARK 921   NORMALIZED FREE ENERGY PREDICTED BY IDOCK:   -3.22 KCAL/MOL
REMARK 922        TOTAL FREE ENERGY PREDICTED BY IDOCK:   -7.23 KCAL/MOL
REMARK 923 INTER-LIGAND FREE ENERGY PREDICTED BY IDOCK:   -5.97 KCAL/MOL
REMARK 924 INTRA-LIGAND FREE ENERGY PREDICTED BY IDOCK:   -1.26 KCAL/MOL
REMARK 927      BINDING AFFINITY PREDICTED BY RF-SCORE:    0.00 PKD
ROOT
HETATM    1  C   UNL     1     -10.224  10.914  64.802  1.00  0.00    -0.398 C  
HETATM    2  C   UNL     1     -10.464  11.670  63.506  1.00  0.00    -0.498 C  
ENDROOT
BRANCH   2   3
HETATM    3  C   UNL     1     -11.468  12.803  63.706  1.00  0.00    -0.533 C  
BRANCH   3   4
HETATM    4  C   UNL     1     -12.402  12.517  64.880  1.00  0.00    -0.539 C  
BRANCH   4   5
HETATM    5  C   UNL     1     -12.577  13.757  65.753  1.00  0.00    -0.525 C  
BRANCH   5   6
HETATM    6  C   UNL     1     -11.227  14.326  66.175  1.00  0.00    -0.331 C  
BRANCH   6   7
HETATM    7  C   UNL     1     -10.723  13.648  67.447  1.00  0.00    -0.272 C  
BRANCH   7   8
HETATM    8  C   UNL     1     -11.873  12.993  68.208  1.00  0.00    -0.381 C  
BRANCH   8   9
HETATM    9  C   UNL     1     -11.967  13.542  69.628  1.00  0.00    -0.397 C  
BRANCH   9  10
HETATM   10  C   UNL     1     -12.371  12.446  70.609  1.00  0.00    -0.367 C  
BRANCH  10  11
HETATM   11  C   UNL     1     -12.323  11.073  69.945  1.00  0.00    -0.356 C  
BRANCH  11  12
HETATM   12  C   UNL     1     -11.634  10.055  70.849  1.00  0.00    -0.463 C  
BRANCH  12  13
HETATM   13  C   UNL     1     -10.373   9.502  70.190  1.00  0.00    -0.300 C  
BRANCH  13  14
HETATM   14  C   UNL     1     -10.644   8.145  69.544  1.00  0.00    -0.215 C  
BRANCH  14  15
HETATM   15  C   UNL     1      -9.740   7.921  68.335  1.00  0.00    -0.170 C  
BRANCH  15  16
HETATM   16  C   UNL     1      -8.822   9.110  68.100  1.00  0.00    -0.129 C  
HETATM   17  O   UNL     1      -7.677   8.697  67.370  1.00  0.00    -0.096 OA 
HETATM   18  H   UNL     1      -7.104   9.440  67.223  1.00  0.00     0.000 HD 
ENDBRANCH  15  16
ENDBRANCH  14  15
ENDBRANCH  13  14
ENDBRANCH  12  13
ENDBRANCH  11  12
ENDBRANCH  10  11
ENDBRANCH   9  10
ENDBRANCH   8   9
ENDBRANCH   7   8
ENDBRANCH   6   7
ENDBRANCH   5   6
ENDBRANCH   4   5
ENDBRANCH   3   4
ENDBRANCH   2   3
TORSDOF 14
ENDMDL
MODEL      178
REMARK 921   NORMALIZED FREE ENERGY PREDICTED BY IDOCK:   -3.22 KCAL/MOL
REMARK 922        TOTAL FREE ENERGY PREDICTED BY IDOCK:   -7.23 KCAL/MOL
REMARK 923 INTER-LIGAND FREE ENERGY PREDICTED BY IDOCK:   -6.68 KCAL/MOL
REMARK 924 INTRA-LIGAND FREE ENERGY PREDICTED BY IDOCK:   -0.55 KCAL/MOL
REMARK 927      BINDING AFFINITY PREDICTED BY RF-SCORE:    0.00 PKD
ROOT
HETATM    1  C   UNL     1      -9.809   4.718  68.838  1.00  0.00    -0.230 C  
HETATM    2  C   UNL     1      -9.950   5.624  70.049  1.00  0.00    -0.267 C  
ENDROOT
BRANCH   2   3
HETATM    3  C   UNL     1     -11.329   6.280  70.091  1.00  0.00    -0.476 C  
BRANCH   3   4
HETATM    4  C   UNL     1     -11.795   6.501  71.528  1.00  0.00    -0.386 C  
BRANCH   4   5
HETATM    5  C   UNL     1     -12.919   7.532  71.585  1.00  0.00    -0.397 C  
BRANCH   5   6
HETATM    6  C   UNL     1     -12.387   8.902  71.990  1.00  0.00    -0.460 C  
BRANCH   6   7
HETATM    7  C   UNL     1     -13.305  10.014  71.487  1.00  0.00    -0.451 C  
BRANCH   7   8
HETATM    8  C   UNL     1     -12.528  11.309  71.273  1.00  0.00    -0.441 C  
BRANCH   8   9
HETATM    9  C   UNL     1     -13.216  12.478  71.972  1.00  0.00    -0.524 C  
BRANCH   9  10
HETATM   10  C   UNL     1     -12.926  13.790  71.251  1.00  0.00    -0.409 C  
BRANCH  10  11
HETATM   11  C   UNL     1     -12.597  14.900  72.245  1.00  0.00    -0.413 C  
BRANCH  11  12
HETATM   12  C   UNL     1     -11.776  16.001  71.580  1.00  0.00    -0.583 C  
BRANCH  12  13
HETATM   13  C   UNL     1     -11.569  15.710  70.096  1.00  0.00    -0.366 C  
BRANCH  13  14
HETATM   14  C   UNL     1     -10.095  15.453  69.790  1.00  0.00    -0.266 C  
BRANCH  14  15
HETATM   15  C   UNL     1      -9.547  16.488  68.813  1.00  0.00    -0.248 C  
BRANCH  15  16
HETATM   16  C   UNL     1     -10.661  17.125  67.995  1.00  0.00    -0.374 C  
HETATM   17  O   UNL     1     -10.525  18.537  68.016  1.00  0.00    -0.384 OA 
HETATM   18  H   UNL     1     -11.221  18.935  67.506  1.00  0.00     0.000 HD 
ENDBRANCH  15  16
ENDBRANCH  14  15
ENDBRANCH  13  14
ENDBRANCH  12  13
ENDBRANCH  11  12
ENDBRANCH  10  11
ENDBRANCH   9  10
ENDBRANCH   8   9
ENDBRANCH   7   8
ENDBRANCH   6   7
ENDBRANCH   5   6
ENDBRANCH   4   5
ENDBRANCH   3   4
ENDBRANCH   2   3
TORSDOF 14
ENDMDL
MODEL      179
REMARK 921   NORMALIZED FREE ENERGY PREDICTED BY IDOCK:   -3.21 KCAL/MOL
REMARK 922        TOTAL FREE ENERGY PREDICTED BY IDOCK:   -7.21 KCAL/MOL
REMARK 923 INTER-LIGAND FREE ENERGY PREDICTED BY IDOCK:   -4.79 KCAL/MOL
REMARK 924 INTRA-LIGAND FREE ENERGY PREDICTED BY IDOCK:   -2.43 KCAL/MOL
REMARK 927      BINDING AFFINITY PREDICTED BY RF-SCORE:    0.00 PKD
ROOT
HETATM    1  C   UNL     1     -10.362  10.968  64.900  1.00  0.00    -0.378 C  
HETATM    2  C   UNL     1      -9.495  11.836  65.796  1.00  0.00    -0.232 C  
ENDROOT
BRANCH   2   3
HETATM    3  C   UNL     1      -9.977  11.789  67.244  1.00  0.00    -0.208 C  
BRANCH   3   4
HETATM    4  C   UNL     1     -11.400  11.242  67.338  1.00  0.00    -0.349 C  
BRANCH   4   5
HETATM    5  C   UNL     1     -11.777  10.948  68.788  1.00  0.00    -0.355 C  
BRANCH   5   6
HETATM    6  C   UNL     1     -10.536  10.692  69.636  1.00  0.00    -0.260 C  
BRANCH   6   7
HETATM    7  C   UNL     1     -10.827   9.666  70.730  1.00  0.00    -0.400 C  
BRANCH   7   8
HETATM    8  C   UNL     1      -9.539   9.009  71.218  1.00  0.00    -0.361 C  
BRANCH   8   9
HETATM    9  C   UNL     1      -8.328   9.570  70.477  1.00  0.00    -0.203 C  
BRANCH   9  10
HETATM   10  C   UNL     1      -7.465   8.445  69.915  1.00  0.00    -0.064 C  
BRANCH  10  11
HETATM   11  C   UNL     1      -6.943   8.799  68.525  1.00  0.00    -0.065 C  
BRANCH  11  12
HETATM   12  C   UNL     1      -8.084   8.857  67.513  1.00  0.00    -0.109 C  
BRANCH  12  13
HETATM   13  C   UNL     1      -8.760   7.496  67.371  1.00  0.00    -0.124 C  
BRANCH  13  14
HETATM   14  C   UNL     1     -10.229   7.653  66.982  1.00  0.00    -0.371 C  
BRANCH  14  15
HETATM   15  C   UNL     1     -11.078   6.530  67.569  1.00  0.00    -0.396 C  
BRANCH  15  16
HETATM   16  C   UNL     1     -10.728   6.273  69.027  1.00  0.00    -0.302 C  
HETATM   17  O   UNL     1     -11.873   6.482  69.840  1.00  0.00    -0.609 OA 
HETATM   18  H   UNL     1     -11.655   6.322  70.750  1.00  0.00     0.000 HD 
ENDBRANCH  15  16
ENDBRANCH  14  15
ENDBRANCH  13  14
ENDBRANCH  12  13
ENDBRANCH  11  12
ENDBRANCH  10  11
ENDBRANCH   9  10
ENDBRANCH   8   9
ENDBRANCH   7   8
ENDBRANCH   6   7
ENDBRANCH   5   6
ENDBRANCH   4   5
ENDBRANCH   3   4
ENDBRANCH   2   3
TORSDOF 14
ENDMDL
MODEL      180
REMARK 921   NORMALIZED FREE ENERGY PREDICTED BY IDOCK:   -3.20 KCAL/MOL
REMARK 922        TOTAL FREE ENERGY PREDICTED BY IDOCK:   -7.19 KCAL/MOL
REMARK 923 INTER-LIGAND FREE ENERGY PREDICTED BY IDOCK:   -4.97 KCAL/MOL
REMARK 924 INTRA-LIGAND FREE ENERGY PREDICTED BY IDOCK:   -2.22 KCAL/MOL
REMARK 927      BINDING AFFINITY PREDICTED BY RF-SCORE:    0.00 PKD
ROOT
HETATM    1  C   UNL     1     -10.833   6.166  68.665  1.00  0.00    -0.403 C  
HETATM    2  C   UNL     1     -10.832   7.607  68.182  1.00  0.00    -0.040 C  
ENDROOT
BRANCH   2   3
HETATM    3  C   UNL     1      -9.673   8.393  68.792  1.00  0.00    -0.168 C  
BRANCH   3   4
HETATM    4  C   UNL     1      -9.258   7.811  70.142  1.00  0.00    -0.153 C  
BRANCH   4   5
HETATM    5  C   UNL     1      -8.899   8.920  71.128  1.00  0.00    -0.297 C  
BRANCH   5   6
HETATM    6  C   UNL     1      -9.383   8.583  72.534  1.00  0.00    -0.316 C  
BRANCH   6   7
HETATM    7  C   UNL     1     -10.521   7.565  72.488  1.00  0.00    -0.300 C  
BRANCH   7   8
HETATM    8  C   UNL     1     -11.872   8.248  72.681  1.00  0.00    -0.382 C  
BRANCH   8   9
HETATM    9  C   UNL     1     -12.757   8.058  71.452  1.00  0.00    -0.297 C  
BRANCH   9  10
HETATM   10  C   UNL     1     -13.344   9.389  70.994  1.00  0.00    -0.186 C  
BRANCH  10  11
HETATM   11  C   UNL     1     -12.473  10.557  71.451  1.00  0.00    -0.516 C  
BRANCH  11  12
HETATM   12  C   UNL     1     -11.808  11.240  70.260  1.00  0.00    -0.446 C  
BRANCH  12  13
HETATM   13  C   UNL     1     -12.108  12.737  70.248  1.00  0.00    -0.373 C  
BRANCH  13  14
HETATM   14  C   UNL     1     -11.467  13.412  69.038  1.00  0.00    -0.348 C  
BRANCH  14  15
HETATM   15  C   UNL     1     -11.201  12.407  67.922  1.00  0.00    -0.316 C  
BRANCH  15  16
HETATM   16  C   UNL     1      -9.798  12.564  67.355  1.00  0.00    -0.201 C  
HETATM   17  O   UNL     1      -8.841  12.400  68.389  1.00  0.00    -0.232 OA 
HETATM   18  H   UNL     1      -7.965  12.499  68.035  1.00  0.00     0.000 HD 
ENDBRANCH  15  16
ENDBRANCH  14  15
ENDBRANCH  13  14
ENDBRANCH  12  13
ENDBRANCH  11  12
ENDBRANCH  10  11
ENDBRANCH   9  10
ENDBRANCH   8   9
ENDBRANCH   7   8
ENDBRANCH   6   7
ENDBRANCH   5   6
ENDBRANCH   4   5
ENDBRANCH   3   4
ENDBRANCH   2   3
TORSDOF 14
ENDMDL
MODEL      181
REMARK 921   NORMALIZED FREE ENERGY PREDICTED BY IDOCK:   -3.20 KCAL/MOL
REMARK 922        TOTAL FREE ENERGY PREDICTED BY IDOCK:   -7.19 KCAL/MOL
REMARK 923 INTER-LIGAND FREE ENERGY PREDICTED BY IDOCK:   -5.58 KCAL/MOL
REMARK 924 INTRA-LIGAND FREE ENERGY PREDICTED BY IDOCK:   -1.61 KCAL/MOL
REMARK 927      BINDING AFFINITY PREDICTED BY RF-SCORE:    0.00 PKD
ROOT
HETATM    1  C   UNL     1     -12.387  12.676  64.017  1.00  0.00    -0.528 C  
HETATM    2  C   UNL     1     -10.906  12.394  64.205  1.00  0.00    -0.414 C  
ENDROOT
BRANCH   2   3
HETATM    3  C   UNL     1     -10.247  13.460  65.078  1.00  0.00    -0.325 C  
BRANCH   3   4
HETATM    4  C   UNL     1     -10.878  14.832  64.850  1.00  0.00    -0.433 C  
BRANCH   4   5
HETATM    5  C   UNL     1     -10.116  15.916  65.608  1.00  0.00    -0.388 C  
BRANCH   5   6
HETATM    6  C   UNL     1      -9.989  15.565  67.087  1.00  0.00    -0.242 C  
BRANCH   6   7
HETATM    7  C   UNL     1     -10.812  16.521  67.946  1.00  0.00    -0.326 C  
BRANCH   7   8
HETATM    8  C   UNL     1     -11.643  15.756  68.972  1.00  0.00    -0.406 C  
BRANCH   8   9
HETATM    9  C   UNL     1     -11.857  14.311  68.529  1.00  0.00    -0.382 C  
BRANCH   9  10
HETATM   10  C   UNL     1     -12.020  13.392  69.735  1.00  0.00    -0.396 C  
BRANCH  10  11
HETATM   11  C   UNL     1     -12.013  11.926  69.309  1.00  0.00    -0.342 C  
BRANCH  11  12
HETATM   12  C   UNL     1     -11.098  11.712  68.107  1.00  0.00    -0.298 C  
BRANCH  12  13
HETATM   13  C   UNL     1     -11.147  10.262  67.631  1.00  0.00    -0.319 C  
BRANCH  13  14
HETATM   14  C   UNL     1      -9.774   9.604  67.740  1.00  0.00    -0.173 C  
BRANCH  14  15
HETATM   15  C   UNL     1      -9.799   8.434  68.718  1.00  0.00    -0.180 C  
BRANCH  15  16
HETATM   16  C   UNL     1      -9.910   8.915  70.157  1.00  0.00    -0.178 C  
HETATM   17  O   UNL     1     -11.180   8.562  70.685  1.00  0.00    -0.252 OA 
HETATM   18  H   UNL     1     -11.249   8.863  71.583  1.00  0.00     0.000 HD 
ENDBRANCH  15  16
ENDBRANCH  14  15
ENDBRANCH  13  14
ENDBRANCH  12  13
ENDBRANCH  11  12
ENDBRANCH  10  11
ENDBRANCH   9  10
ENDBRANCH   8   9
ENDBRANCH   7   8
ENDBRANCH   6   7
ENDBRANCH   5   6
ENDBRANCH   4   5
ENDBRANCH   3   4
ENDBRANCH   2   3
TORSDOF 14
ENDMDL
MODEL      182
REMARK 921   NORMALIZED FREE ENERGY PREDICTED BY IDOCK:   -3.19 KCAL/MOL
REMARK 922        TOTAL FREE ENERGY PREDICTED BY IDOCK:   -7.19 KCAL/MOL
REMARK 923 INTER-LIGAND FREE ENERGY PREDICTED BY IDOCK:   -5.37 KCAL/MOL
REMARK 924 INTRA-LIGAND FREE ENERGY PREDICTED BY IDOCK:   -1.82 KCAL/MOL
REMARK 927      BINDING AFFINITY PREDICTED BY RF-SCORE:    0.00 PKD
ROOT
HETATM    1  C   UNL     1      -9.058   9.750  63.104  1.00  0.00    -0.270 C  
HETATM    2  C   UNL     1      -8.903  10.852  64.138  1.00  0.00    -0.055 C  
ENDROOT
BRANCH   2   3
HETATM    3  C   UNL     1      -9.883  11.994  63.878  1.00  0.00    -0.266 C  
BRANCH   3   4
HETATM    4  C   UNL     1     -11.156  11.490  63.203  1.00  0.00    -0.151 C  
BRANCH   4   5
HETATM    5  C   UNL     1     -12.286  12.508  63.341  1.00  0.00    -0.577 C  
BRANCH   5   6
HETATM    6  C   UNL     1     -11.885  13.651  64.267  1.00  0.00    -0.464 C  
BRANCH   6   7
HETATM    7  C   UNL     1     -12.848  13.759  65.447  1.00  0.00    -0.455 C  
BRANCH   7   8
HETATM    8  C   UNL     1     -12.108  14.162  66.720  1.00  0.00    -0.474 C  
BRANCH   8   9
HETATM    9  C   UNL     1     -10.907  13.253  66.960  1.00  0.00    -0.278 C  
BRANCH   9  10
HETATM   10  C   UNL     1     -11.290  12.065  67.837  1.00  0.00    -0.369 C  
BRANCH  10  11
HETATM   11  C   UNL     1     -11.372  10.782  67.014  1.00  0.00    -0.046 C  
BRANCH  11  12
HETATM   12  C   UNL     1     -10.431   9.717  67.570  1.00  0.00    -0.309 C  
BRANCH  12  13
HETATM   13  C   UNL     1     -10.617   8.388  66.843  1.00  0.00    -0.285 C  
BRANCH  13  14
HETATM   14  C   UNL     1      -9.287   7.651  66.702  1.00  0.00    -0.239 C  
BRANCH  14  15
HETATM   15  C   UNL     1      -9.498   6.217  66.229  1.00  0.00    -0.144 C  
BRANCH  15  16
HETATM   16  C   UNL     1     -10.869   5.695  66.633  1.00  0.00    -0.204 C  
HETATM   17  O   UNL     1     -11.522   5.135  65.504  1.00  0.00    -0.780 OA 
HETATM   18  H   UNL     1     -12.378   4.810  65.756  1.00  0.00     0.000 HD 
ENDBRANCH  15  16
ENDBRANCH  14  15
ENDBRANCH  13  14
ENDBRANCH  12  13
ENDBRANCH  11  12
ENDBRANCH  10  11
ENDBRANCH   9  10
ENDBRANCH   8   9
ENDBRANCH   7   8
ENDBRANCH   6   7
ENDBRANCH   5   6
ENDBRANCH   4   5
ENDBRANCH   3   4
ENDBRANCH   2   3
TORSDOF 14
ENDMDL
MODEL      183
REMARK 921   NORMALIZED FREE ENERGY PREDICTED BY IDOCK:   -3.19 KCAL/MOL
REMARK 922        TOTAL FREE ENERGY PREDICTED BY IDOCK:   -7.18 KCAL/MOL
REMARK 923 INTER-LIGAND FREE ENERGY PREDICTED BY IDOCK:   -5.75 KCAL/MOL
REMARK 924 INTRA-LIGAND FREE ENERGY PREDICTED BY IDOCK:   -1.43 KCAL/MOL
REMARK 927      BINDING AFFINITY PREDICTED BY RF-SCORE:    0.00 PKD
ROOT
HETATM    1  C   UNL     1     -10.373  19.755  66.092  1.00  0.00    -0.627 C  
HETATM    2  C   UNL     1     -10.631  19.927  67.579  1.00  0.00    -0.492 C  
ENDROOT
BRANCH   2   3
HETATM    3  C   UNL     1      -9.822  18.925  68.400  1.00  0.00    -0.435 C  
BRANCH   3   4
HETATM    4  C   UNL     1     -10.148  17.488  68.000  1.00  0.00    -0.332 C  
BRANCH   4   5
HETATM    5  C   UNL     1     -10.483  16.643  69.227  1.00  0.00    -0.333 C  
BRANCH   5   6
HETATM    6  C   UNL     1     -11.783  15.872  69.023  1.00  0.00    -0.377 C  
BRANCH   6   7
HETATM    7  C   UNL     1     -11.674  14.926  67.829  1.00  0.00    -0.340 C  
BRANCH   7   8
HETATM    8  C   UNL     1     -12.081  13.508  68.218  1.00  0.00    -0.295 C  
BRANCH   8   9
HETATM    9  C   UNL     1     -12.133  13.354  69.735  1.00  0.00    -0.374 C  
BRANCH   9  10
HETATM   10  C   UNL     1     -11.840  11.914  70.146  1.00  0.00    -0.390 C  
BRANCH  10  11
HETATM   11  C   UNL     1     -12.021  10.962  68.967  1.00  0.00    -0.322 C  
BRANCH  11  12
HETATM   12  C   UNL     1     -10.717  10.233  68.650  1.00  0.00    -0.255 C  
BRANCH  12  13
HETATM   13  C   UNL     1     -10.388  10.322  67.162  1.00  0.00    -0.292 C  
BRANCH  13  14
HETATM   14  C   UNL     1      -8.975  10.860  66.947  1.00  0.00    -0.158 C  
BRANCH  14  15
HETATM   15  C   UNL     1      -8.989  12.369  66.721  1.00  0.00    -0.205 C  
BRANCH  15  16
HETATM   16  C   UNL     1      -7.994  13.076  67.629  1.00  0.00    -0.169 C  
HETATM   17  O   UNL     1      -8.641  13.485  68.824  1.00  0.00    -0.349 OA 
HETATM   18  H   UNL     1      -8.020  13.927  69.391  1.00  0.00     0.000 HD 
ENDBRANCH  15  16
ENDBRANCH  14  15
ENDBRANCH  13  14
ENDBRANCH  12  13
ENDBRANCH  11  12
ENDBRANCH  10  11
ENDBRANCH   9  10
ENDBRANCH   8   9
ENDBRANCH   7   8
ENDBRANCH   6   7
ENDBRANCH   5   6
ENDBRANCH   4   5
ENDBRANCH   3   4
ENDBRANCH   2   3
TORSDOF 14
ENDMDL
MODEL      184
REMARK 921   NORMALIZED FREE ENERGY PREDICTED BY IDOCK:   -3.18 KCAL/MOL
REMARK 922        TOTAL FREE ENERGY PREDICTED BY IDOCK:   -7.17 KCAL/MOL
REMARK 923 INTER-LIGAND FREE ENERGY PREDICTED BY IDOCK:   -4.89 KCAL/MOL
REMARK 924 INTRA-LIGAND FREE ENERGY PREDICTED BY IDOCK:   -2.28 KCAL/MOL
REMARK 927      BINDING AFFINITY PREDICTED BY RF-SCORE:    0.00 PKD
ROOT
HETATM    1  C   UNL     1     -10.451  13.284  64.417  1.00  0.00    -0.424 C  
HETATM    2  C   UNL     1     -11.958  13.292  64.225  1.00  0.00    -0.477 C  
ENDROOT
BRANCH   2   3
HETATM    3  C   UNL     1     -12.684  13.487  65.555  1.00  0.00    -0.493 C  
BRANCH   3   4
HETATM    4  C   UNL     1     -11.861  14.344  66.515  1.00  0.00    -0.406 C  
BRANCH   4   5
HETATM    5  C   UNL     1     -12.094  13.918  67.962  1.00  0.00    -0.318 C  
BRANCH   5   6
HETATM    6  C   UNL     1     -11.548  14.958  68.935  1.00  0.00    -0.339 C  
BRANCH   6   7
HETATM    7  C   UNL     1     -11.158  16.239  68.200  1.00  0.00    -0.329 C  
BRANCH   7   8
HETATM    8  C   UNL     1      -9.704  16.608  68.480  1.00  0.00    -0.244 C  
BRANCH   8   9
HETATM    9  C   UNL     1      -8.951  16.875  67.180  1.00  0.00    -0.219 C  
BRANCH   9  10
HETATM   10  C   UNL     1      -8.401  15.579  66.594  1.00  0.00    -0.286 C  
BRANCH  10  11
HETATM   11  C   UNL     1      -7.490  14.871  67.592  1.00  0.00    -0.205 C  
BRANCH  11  12
HETATM   12  C   UNL     1      -7.526  13.359  67.385  1.00  0.00    -0.134 C  
BRANCH  12  13
HETATM   13  C   UNL     1      -8.769  12.748  68.025  1.00  0.00    -0.194 C  
BRANCH  13  14
HETATM   14  C   UNL     1      -8.841  11.247  67.754  1.00  0.00    -0.141 C  
BRANCH  14  15
HETATM   15  C   UNL     1     -10.162  10.869  67.090  1.00  0.00    -0.249 C  
BRANCH  15  16
HETATM   16  C   UNL     1     -11.030  10.031  68.017  1.00  0.00    -0.240 C  
HETATM   17  O   UNL     1     -10.316   9.736  69.208  1.00  0.00    -0.192 OA 
HETATM   18  H   UNL     1     -10.857   9.212  69.786  1.00  0.00     0.000 HD 
ENDBRANCH  15  16
ENDBRANCH  14  15
ENDBRANCH  13  14
ENDBRANCH  12  13
ENDBRANCH  11  12
ENDBRANCH  10  11
ENDBRANCH   9  10
ENDBRANCH   8   9
ENDBRANCH   7   8
ENDBRANCH   6   7
ENDBRANCH   5   6
ENDBRANCH   4   5
ENDBRANCH   3   4
ENDBRANCH   2   3
TORSDOF 14
ENDMDL
MODEL      185
REMARK 921   NORMALIZED FREE ENERGY PREDICTED BY IDOCK:   -3.18 KCAL/MOL
REMARK 922        TOTAL FREE ENERGY PREDICTED BY IDOCK:   -7.17 KCAL/MOL
REMARK 923 INTER-LIGAND FREE ENERGY PREDICTED BY IDOCK:   -5.63 KCAL/MOL
REMARK 924 INTRA-LIGAND FREE ENERGY PREDICTED BY IDOCK:   -1.54 KCAL/MOL
REMARK 927      BINDING AFFINITY PREDICTED BY RF-SCORE:    0.00 PKD
ROOT
HETATM    1  C   UNL     1     -11.900  13.794  64.194  1.00  0.00    -0.439 C  
HETATM    2  C   UNL     1     -11.968  12.329  63.796  1.00  0.00    -0.609 C  
ENDROOT
BRANCH   2   3
HETATM    3  C   UNL     1     -10.685  11.593  64.178  1.00  0.00    -0.418 C  
BRANCH   3   4
HETATM    4  C   UNL     1     -10.528  11.503  65.695  1.00  0.00    -0.317 C  
BRANCH   4   5
HETATM    5  C   UNL     1      -9.116  11.897  66.122  1.00  0.00    -0.162 C  
BRANCH   5   6
HETATM    6  C   UNL     1      -9.123  12.559  67.496  1.00  0.00    -0.187 C  
BRANCH   6   7
HETATM    7  C   UNL     1      -8.633  14.003  67.407  1.00  0.00    -0.211 C  
BRANCH   7   8
HETATM    8  C   UNL     1      -9.312  14.740  66.256  1.00  0.00    -0.310 C  
BRANCH   8   9
HETATM    9  C   UNL     1      -8.864  16.198  66.205  1.00  0.00    -0.371 C  
BRANCH   9  10
HETATM   10  C   UNL     1      -8.429  16.681  67.585  1.00  0.00    -0.200 C  
BRANCH  10  11
HETATM   11  C   UNL     1      -9.360  17.775  68.099  1.00  0.00    -0.281 C  
BRANCH  11  12
HETATM   12  C   UNL     1     -10.744  17.212  68.411  1.00  0.00    -0.347 C  
BRANCH  12  13
HETATM   13  C   UNL     1     -10.784  16.602  69.810  1.00  0.00    -0.254 C  
BRANCH  13  14
HETATM   14  C   UNL     1     -11.932  15.602  69.936  1.00  0.00    -0.376 C  
BRANCH  14  15
HETATM   15  C   UNL     1     -11.413  14.167  69.952  1.00  0.00    -0.288 C  
BRANCH  15  16
HETATM   16  C   UNL     1     -12.033  13.340  68.836  1.00  0.00    -0.297 C  
HETATM   17  O   UNL     1     -12.377  14.183  67.748  1.00  0.00    -0.565 OA 
HETATM   18  H   UNL     1     -12.765  13.667  67.050  1.00  0.00     0.000 HD 
ENDBRANCH  15  16
ENDBRANCH  14  15
ENDBRANCH  13  14
ENDBRANCH  12  13
ENDBRANCH  11  12
ENDBRANCH  10  11
ENDBRANCH   9  10
ENDBRANCH   8   9
ENDBRANCH   7   8
ENDBRANCH   6   7
ENDBRANCH   5   6
ENDBRANCH   4   5
ENDBRANCH   3   4
ENDBRANCH   2   3
TORSDOF 14
ENDMDL
MODEL      186
REMARK 921   NORMALIZED FREE ENERGY PREDICTED BY IDOCK:   -3.18 KCAL/MOL
REMARK 922        TOTAL FREE ENERGY PREDICTED BY IDOCK:   -7.17 KCAL/MOL
REMARK 923 INTER-LIGAND FREE ENERGY PREDICTED BY IDOCK:   -6.36 KCAL/MOL
REMARK 924 INTRA-LIGAND FREE ENERGY PREDICTED BY IDOCK:   -0.81 KCAL/MOL
REMARK 927      BINDING AFFINITY PREDICTED BY RF-SCORE:    0.00 PKD
ROOT
HETATM    1  C   UNL     1     -10.706  19.914  66.908  1.00  0.00    -0.471 C  
HETATM    2  C   UNL     1      -9.340  19.488  67.416  1.00  0.00    -0.405 C  
ENDROOT
BRANCH   2   3
HETATM    3  C   UNL     1      -9.312  17.995  67.740  1.00  0.00    -0.263 C  
BRANCH   3   4
HETATM    4  C   UNL     1     -10.417  17.246  66.998  1.00  0.00    -0.287 C  
BRANCH   4   5
HETATM    5  C   UNL     1      -9.829  16.293  65.961  1.00  0.00    -0.371 C  
BRANCH   5   6
HETATM    6  C   UNL     1     -10.650  15.011  65.866  1.00  0.00    -0.338 C  
BRANCH   6   7
HETATM    7  C   UNL     1     -11.743  14.985  66.931  1.00  0.00    -0.181 C  
BRANCH   7   8
HETATM    8  C   UNL     1     -11.765  13.643  67.658  1.00  0.00    -0.398 C  
BRANCH   8   9
HETATM    9  C   UNL     1     -12.178  13.822  69.116  1.00  0.00    -0.289 C  
BRANCH   9  10
HETATM   10  C   UNL     1     -11.718  12.638  69.961  1.00  0.00    -0.289 C  
BRANCH  10  11
HETATM   11  C   UNL     1     -12.669  12.399  71.131  1.00  0.00    -0.336 C  
BRANCH  11  12
HETATM   12  C   UNL     1     -12.841  10.907  71.397  1.00  0.00    -0.554 C  
BRANCH  12  13
HETATM   13  C   UNL     1     -11.903  10.082  70.519  1.00  0.00    -0.387 C  
BRANCH  13  14
HETATM   14  C   UNL     1     -11.307   8.915  71.303  1.00  0.00    -0.371 C  
BRANCH  14  15
HETATM   15  C   UNL     1     -12.341   8.290  72.234  1.00  0.00    -0.410 C  
BRANCH  15  16
HETATM   16  C   UNL     1     -13.033   7.104  71.580  1.00  0.00    -0.383 C  
HETATM   17  O   UNL     1     -14.329   6.939  72.133  1.00  0.00    -0.624 OA 
HETATM   18  H   UNL     1     -14.762   6.198  71.724  1.00  0.00     0.000 HD 
ENDBRANCH  15  16
ENDBRANCH  14  15
ENDBRANCH  13  14
ENDBRANCH  12  13
ENDBRANCH  11  12
ENDBRANCH  10  11
ENDBRANCH   9  10
ENDBRANCH   8   9
ENDBRANCH   7   8
ENDBRANCH   6   7
ENDBRANCH   5   6
ENDBRANCH   4   5
ENDBRANCH   3   4
ENDBRANCH   2   3
TORSDOF 14
ENDMDL
MODEL      187
REMARK 921   NORMALIZED FREE ENERGY PREDICTED BY IDOCK:   -3.18 KCAL/MOL
REMARK 922        TOTAL FREE ENERGY PREDICTED BY IDOCK:   -7.16 KCAL/MOL
REMARK 923 INTER-LIGAND FREE ENERGY PREDICTED BY IDOCK:   -5.65 KCAL/MOL
REMARK 924 INTRA-LIGAND FREE ENERGY PREDICTED BY IDOCK:   -1.51 KCAL/MOL
REMARK 927      BINDING AFFINITY PREDICTED BY RF-SCORE:    0.00 PKD
ROOT
HETATM    1  C   UNL     1     -10.210   8.619  69.117  1.00  0.00    -0.215 C  
HETATM    2  C   UNL     1     -10.490   9.398  67.844  1.00  0.00    -0.296 C  
ENDROOT
BRANCH   2   3
HETATM    3  C   UNL     1     -11.217  10.707  68.145  1.00  0.00    -0.366 C  
BRANCH   3   4
HETATM    4  C   UNL     1     -11.466  11.510  66.870  1.00  0.00    -0.261 C  
BRANCH   4   5
HETATM    5  C   UNL     1     -10.898  12.922  66.995  1.00  0.00    -0.282 C  
BRANCH   5   6
HETATM    6  C   UNL     1      -9.574  12.916  67.752  1.00  0.00    -0.212 C  
BRANCH   6   7
HETATM    7  C   UNL     1      -8.621  13.968  67.191  1.00  0.00    -0.220 C  
BRANCH   7   8
HETATM    8  C   UNL     1      -9.390  15.184  66.682  1.00  0.00    -0.291 C  
BRANCH   8   9
HETATM    9  C   UNL     1      -8.950  16.450  67.413  1.00  0.00    -0.200 C  
BRANCH   9  10
HETATM   10  C   UNL     1      -9.955  16.830  68.495  1.00  0.00    -0.271 C  
BRANCH  10  11
HETATM   11  C   UNL     1     -11.330  16.237  68.197  1.00  0.00    -0.248 C  
BRANCH  11  12
HETATM   12  C   UNL     1     -11.911  15.558  69.434  1.00  0.00    -0.392 C  
BRANCH  12  13
HETATM   13  C   UNL     1     -11.065  15.855  70.670  1.00  0.00    -0.368 C  
BRANCH  13  14
HETATM   14  C   UNL     1     -11.636  15.159  71.903  1.00  0.00    -0.490 C  
BRANCH  14  15
HETATM   15  C   UNL     1     -12.820  14.270  71.535  1.00  0.00    -0.419 C  
BRANCH  15  16
HETATM   16  C   UNL     1     -14.079  14.685  72.282  1.00  0.00    -0.491 C  
HETATM   17  O   UNL     1     -13.847  15.901  72.976  1.00  0.00    -0.628 OA 
HETATM   18  H   UNL     1     -14.633  16.160  73.443  1.00  0.00     0.000 HD 
ENDBRANCH  15  16
ENDBRANCH  14  15
ENDBRANCH  13  14
ENDBRANCH  12  13
ENDBRANCH  11  12
ENDBRANCH  10  11
ENDBRANCH   9  10
ENDBRANCH   8   9
ENDBRANCH   7   8
ENDBRANCH   6   7
ENDBRANCH   5   6
ENDBRANCH   4   5
ENDBRANCH   3   4
ENDBRANCH   2   3
TORSDOF 14
ENDMDL
MODEL      188
REMARK 921   NORMALIZED FREE ENERGY PREDICTED BY IDOCK:   -3.17 KCAL/MOL
REMARK 922        TOTAL FREE ENERGY PREDICTED BY IDOCK:   -7.15 KCAL/MOL
REMARK 923 INTER-LIGAND FREE ENERGY PREDICTED BY IDOCK:   -5.18 KCAL/MOL
REMARK 924 INTRA-LIGAND FREE ENERGY PREDICTED BY IDOCK:   -1.96 KCAL/MOL
REMARK 927      BINDING AFFINITY PREDICTED BY RF-SCORE:    0.00 PKD
ROOT
HETATM    1  C   UNL     1      -8.950   7.792  66.446  1.00  0.00    -0.196 C  
HETATM    2  C   UNL     1      -8.676   6.887  67.635  1.00  0.00    -0.120 C  
ENDROOT
BRANCH   2   3
HETATM    3  C   UNL     1      -9.701   5.758  67.718  1.00  0.00    -0.130 C  
BRANCH   3   4
HETATM    4  C   UNL     1     -10.994   6.231  68.379  1.00  0.00    -0.409 C  
BRANCH   4   5
HETATM    5  C   UNL     1     -11.032   5.834  69.852  1.00  0.00    -0.389 C  
BRANCH   5   6
HETATM    6  C   UNL     1     -12.027   6.692  70.627  1.00  0.00    -0.404 C  
BRANCH   6   7
HETATM    7  C   UNL     1     -11.911   6.439  72.128  1.00  0.00    -0.346 C  
BRANCH   7   8
HETATM    8  C   UNL     1     -11.256   7.623  72.833  1.00  0.00    -0.426 C  
BRANCH   8   9
HETATM    9  C   UNL     1      -9.823   7.290  73.238  1.00  0.00    -0.302 C  
BRANCH   9  10
HETATM   10  C   UNL     1      -8.847   8.321  72.681  1.00  0.00    -0.304 C  
BRANCH  10  11
HETATM   11  C   UNL     1      -8.501   8.017  71.227  1.00  0.00    -0.138 C  
BRANCH  11  12
HETATM   12  C   UNL     1      -8.797   9.218  70.333  1.00  0.00    -0.271 C  
BRANCH  12  13
HETATM   13  C   UNL     1     -10.211   9.742  70.571  1.00  0.00    -0.321 C  
BRANCH  13  14
HETATM   14  C   UNL     1     -10.913  10.041  69.248  1.00  0.00    -0.264 C  
BRANCH  14  15
HETATM   15  C   UNL     1     -12.153  10.902  69.465  1.00  0.00    -0.380 C  
BRANCH  15  16
HETATM   16  C   UNL     1     -12.485  11.037  70.944  1.00  0.00    -0.410 C  
HETATM   17  O   UNL     1     -13.361   9.991  71.337  1.00  0.00    -0.377 OA 
HETATM   18  H   UNL     1     -13.568  10.075  72.260  1.00  0.00     0.000 HD 
ENDBRANCH  15  16
ENDBRANCH  14  15
ENDBRANCH  13  14
ENDBRANCH  12  13
ENDBRANCH  11  12
ENDBRANCH  10  11
ENDBRANCH   9  10
ENDBRANCH   8   9
ENDBRANCH   7   8
ENDBRANCH   6   7
ENDBRANCH   5   6
ENDBRANCH   4   5
ENDBRANCH   3   4
ENDBRANCH   2   3
TORSDOF 14
ENDMDL
MODEL      189
REMARK 921   NORMALIZED FREE ENERGY PREDICTED BY IDOCK:   -3.17 KCAL/MOL
REMARK 922        TOTAL FREE ENERGY PREDICTED BY IDOCK:   -7.15 KCAL/MOL
REMARK 923 INTER-LIGAND FREE ENERGY PREDICTED BY IDOCK:   -6.08 KCAL/MOL
REMARK 924 INTRA-LIGAND FREE ENERGY PREDICTED BY IDOCK:   -1.07 KCAL/MOL
REMARK 927      BINDING AFFINITY PREDICTED BY RF-SCORE:    0.00 PKD
ROOT
HETATM    1  C   UNL     1      -7.353   9.374  63.446  1.00  0.00    -0.102 C  
HETATM    2  C   UNL     1      -8.853   9.600  63.355  1.00  0.00    -0.251 C  
ENDROOT
BRANCH   2   3
HETATM    3  C   UNL     1      -9.348  10.490  64.493  1.00  0.00    -0.299 C  
BRANCH   3   4
HETATM    4  C   UNL     1     -10.755  11.014  64.216  1.00  0.00    -0.348 C  
BRANCH   4   5
HETATM    5  C   UNL     1     -10.707  12.410  63.600  1.00  0.00    -0.497 C  
BRANCH   5   6
HETATM    6  C   UNL     1     -12.059  13.106  63.711  1.00  0.00    -0.563 C  
BRANCH   6   7
HETATM    7  C   UNL     1     -12.201  13.809  65.058  1.00  0.00    -0.448 C  
BRANCH   7   8
HETATM    8  C   UNL     1     -10.877  14.432  65.491  1.00  0.00    -0.335 C  
BRANCH   8   9
HETATM    9  C   UNL     1     -11.032  15.172  66.817  1.00  0.00    -0.321 C  
BRANCH   9  10
HETATM   10  C   UNL     1     -12.031  14.459  67.723  1.00  0.00    -0.368 C  
BRANCH  10  11
HETATM   11  C   UNL     1     -11.313  13.574  68.739  1.00  0.00    -0.329 C  
BRANCH  11  12
HETATM   12  C   UNL     1     -11.694  12.109  68.549  1.00  0.00    -0.382 C  
BRANCH  12  13
HETATM   13  C   UNL     1     -10.512  11.192  68.853  1.00  0.00    -0.233 C  
BRANCH  13  14
HETATM   14  C   UNL     1     -10.906  10.104  69.849  1.00  0.00    -0.347 C  
BRANCH  14  15
HETATM   15  C   UNL     1     -12.014  10.586  70.781  1.00  0.00    -0.472 C  
BRANCH  15  16
HETATM   16  C   UNL     1     -12.369   9.528  71.815  1.00  0.00    -0.394 C  
HETATM   17  O   UNL     1     -13.767   9.283  71.791  1.00  0.00    -0.389 OA 
HETATM   18  H   UNL     1     -13.989   8.623  72.437  1.00  0.00     0.000 HD 
ENDBRANCH  15  16
ENDBRANCH  14  15
ENDBRANCH  13  14
ENDBRANCH  12  13
ENDBRANCH  11  12
ENDBRANCH  10  11
ENDBRANCH   9  10
ENDBRANCH   8   9
ENDBRANCH   7   8
ENDBRANCH   6   7
ENDBRANCH   5   6
ENDBRANCH   4   5
ENDBRANCH   3   4
ENDBRANCH   2   3
TORSDOF 14
ENDMDL
MODEL      190
REMARK 921   NORMALIZED FREE ENERGY PREDICTED BY IDOCK:   -3.17 KCAL/MOL
REMARK 922        TOTAL FREE ENERGY PREDICTED BY IDOCK:   -7.14 KCAL/MOL
REMARK 923 INTER-LIGAND FREE ENERGY PREDICTED BY IDOCK:   -6.15 KCAL/MOL
REMARK 924 INTRA-LIGAND FREE ENERGY PREDICTED BY IDOCK:   -0.99 KCAL/MOL
REMARK 927      BINDING AFFINITY PREDICTED BY RF-SCORE:    0.00 PKD
ROOT
HETATM    1  C   UNL     1      -9.243  16.785  66.395  1.00  0.00    -0.309 C  
HETATM    2  C   UNL     1     -10.554  16.043  66.594  1.00  0.00    -0.297 C  
ENDROOT
BRANCH   2   3
HETATM    3  C   UNL     1     -10.777  15.012  65.490  1.00  0.00    -0.372 C  
BRANCH   3   4
HETATM    4  C   UNL     1     -12.088  14.256  65.695  1.00  0.00    -0.399 C  
BRANCH   4   5
HETATM    5  C   UNL     1     -11.842  12.753  65.798  1.00  0.00    -0.484 C  
BRANCH   5   6
HETATM    6  C   UNL     1     -11.770  12.308  67.255  1.00  0.00    -0.394 C  
BRANCH   6   7
HETATM    7  C   UNL     1     -10.706  11.229  67.443  1.00  0.00    -0.285 C  
BRANCH   7   8
HETATM    8  C   UNL     1     -11.016  10.362  68.660  1.00  0.00    -0.288 C  
BRANCH   8   9
HETATM    9  C   UNL     1     -11.933  11.098  69.632  1.00  0.00    -0.429 C  
BRANCH   9  10
HETATM   10  C   UNL     1     -11.745  10.581  71.054  1.00  0.00    -0.384 C  
BRANCH  10  11
HETATM   11  C   UNL     1     -13.091  10.342  71.732  1.00  0.00    -0.567 C  
BRANCH  11  12
HETATM   12  C   UNL     1     -13.133   8.967  72.391  1.00  0.00    -0.476 C  
BRANCH  12  13
HETATM   13  C   UNL     1     -13.606   7.901  71.406  1.00  0.00    -0.310 C  
BRANCH  13  14
HETATM   14  C   UNL     1     -12.584   6.772  71.291  1.00  0.00    -0.328 C  
BRANCH  14  15
HETATM   15  C   UNL     1     -11.616   7.021  70.138  1.00  0.00    -0.273 C  
BRANCH  15  16
HETATM   16  C   UNL     1     -10.918   5.738  69.711  1.00  0.00    -0.327 C  
HETATM   17  O   UNL     1     -10.384   5.080  70.849  1.00  0.00    -0.230 OA 
HETATM   18  H   UNL     1      -9.948   4.279  70.583  1.00  0.00     0.000 HD 
ENDBRANCH  15  16
ENDBRANCH  14  15
ENDBRANCH  13  14
ENDBRANCH  12  13
ENDBRANCH  11  12
ENDBRANCH  10  11
ENDBRANCH   9  10
ENDBRANCH   8   9
ENDBRANCH   7   8
ENDBRANCH   6   7
ENDBRANCH   5   6
ENDBRANCH   4   5
ENDBRANCH   3   4
ENDBRANCH   2   3
TORSDOF 14
ENDMDL
MODEL      191
REMARK 921   NORMALIZED FREE ENERGY PREDICTED BY IDOCK:   -3.16 KCAL/MOL
REMARK 922        TOTAL FREE ENERGY PREDICTED BY IDOCK:   -7.13 KCAL/MOL
REMARK 923 INTER-LIGAND FREE ENERGY PREDICTED BY IDOCK:   -5.26 KCAL/MOL
REMARK 924 INTRA-LIGAND FREE ENERGY PREDICTED BY IDOCK:   -1.87 KCAL/MOL
REMARK 927      BINDING AFFINITY PREDICTED BY RF-SCORE:    0.00 PKD
ROOT
HETATM    1  C   UNL     1      -7.099   6.848  68.591  1.00  0.00    -0.085 C  
HETATM    2  C   UNL     1      -7.858   7.206  67.325  1.00  0.00    -0.111 C  
ENDROOT
BRANCH   2   3
HETATM    3  C   UNL     1      -9.344   6.882  67.463  1.00  0.00    -0.130 C  
BRANCH   3   4
HETATM    4  C   UNL     1     -10.196   7.807  66.596  1.00  0.00    -0.288 C  
BRANCH   4   5
HETATM    5  C   UNL     1      -9.733   9.256  66.723  1.00  0.00    -0.260 C  
BRANCH   5   6
HETATM    6  C   UNL     1     -10.839  10.138  67.291  1.00  0.00    -0.295 C  
BRANCH   6   7
HETATM    7  C   UNL     1     -10.439  10.706  68.651  1.00  0.00    -0.211 C  
BRANCH   7   8
HETATM    8  C   UNL     1      -9.015  10.297  69.015  1.00  0.00    -0.175 C  
BRANCH   8   9
HETATM    9  C   UNL     1      -8.982   9.583  70.363  1.00  0.00    -0.291 C  
BRANCH   9  10
HETATM   10  C   UNL     1     -10.221   8.712  70.546  1.00  0.00    -0.229 C  
BRANCH  10  11
HETATM   11  C   UNL     1     -11.014   9.141  71.778  1.00  0.00    -0.429 C  
BRANCH  11  12
HETATM   12  C   UNL     1     -12.497   8.822  71.609  1.00  0.00    -0.392 C  
BRANCH  12  13
HETATM   13  C   UNL     1     -13.359  10.040  71.933  1.00  0.00    -0.516 C  
BRANCH  13  14
HETATM   14  C   UNL     1     -12.710  11.322  71.417  1.00  0.00    -0.501 C  
BRANCH  14  15
HETATM   15  C   UNL     1     -13.371  12.557  72.022  1.00  0.00    -0.528 C  
BRANCH  15  16
HETATM   16  C   UNL     1     -12.939  13.826  71.304  1.00  0.00    -0.334 C  
HETATM   17  O   UNL     1     -11.815  13.554  70.481  1.00  0.00    -0.481 OA 
HETATM   18  H   UNL     1     -11.545  14.347  70.033  1.00  0.00     0.000 HD 
ENDBRANCH  15  16
ENDBRANCH  14  15
ENDBRANCH  13  14
ENDBRANCH  12  13
ENDBRANCH  11  12
ENDBRANCH  10  11
ENDBRANCH   9  10
ENDBRANCH   8   9
ENDBRANCH   7   8
ENDBRANCH   6   7
ENDBRANCH   5   6
ENDBRANCH   4   5
ENDBRANCH   3   4
ENDBRANCH   2   3
TORSDOF 14
ENDMDL
MODEL      192
REMARK 921   NORMALIZED FREE ENERGY PREDICTED BY IDOCK:   -3.15 KCAL/MOL
REMARK 922        TOTAL FREE ENERGY PREDICTED BY IDOCK:   -7.10 KCAL/MOL
REMARK 923 INTER-LIGAND FREE ENERGY PREDICTED BY IDOCK:   -5.50 KCAL/MOL
REMARK 924 INTRA-LIGAND FREE ENERGY PREDICTED BY IDOCK:   -1.60 KCAL/MOL
REMARK 927      BINDING AFFINITY PREDICTED BY RF-SCORE:    0.00 PKD
ROOT
HETATM    1  C   UNL     1     -13.837  13.510  72.207  1.00  0.00    -0.680 C  
HETATM    2  C   UNL     1     -12.744  12.971  71.299  1.00  0.00    -0.385 C  
ENDROOT
BRANCH   2   3
HETATM    3  C   UNL     1     -11.822  14.090  70.820  1.00  0.00    -0.289 C  
BRANCH   3   4
HETATM    4  C   UNL     1     -11.907  14.269  69.306  1.00  0.00    -0.372 C  
BRANCH   4   5
HETATM    5  C   UNL     1     -11.819  15.744  68.924  1.00  0.00    -0.354 C  
BRANCH   5   6
HETATM    6  C   UNL     1     -10.703  16.444  69.692  1.00  0.00    -0.337 C  
BRANCH   6   7
HETATM    7  C   UNL     1      -9.786  17.211  68.741  1.00  0.00    -0.293 C  
BRANCH   7   8
HETATM    8  C   UNL     1     -10.319  17.163  67.312  1.00  0.00    -0.320 C  
BRANCH   8   9
HETATM    9  C   UNL     1      -9.293  16.538  66.371  1.00  0.00    -0.316 C  
BRANCH   9  10
HETATM   10  C   UNL     1      -8.349  15.614  67.133  1.00  0.00    -0.237 C  
BRANCH  10  11
HETATM   11  C   UNL     1      -8.816  14.164  67.049  1.00  0.00    -0.237 C  
BRANCH  11  12
HETATM   12  C   UNL     1      -9.979  14.022  66.072  1.00  0.00    -0.331 C  
BRANCH  12  13
HETATM   13  C   UNL     1     -10.171  12.565  65.656  1.00  0.00    -0.287 C  
BRANCH  13  14
HETATM   14  C   UNL     1     -11.222  11.882  66.528  1.00  0.00    -0.383 C  
BRANCH  14  15
HETATM   15  C   UNL     1     -10.574  10.939  67.536  1.00  0.00    -0.271 C  
BRANCH  15  16
HETATM   16  C   UNL     1     -10.723   9.485  67.112  1.00  0.00    -0.182 C  
HETATM   17  O   UNL     1      -9.683   9.138  66.212  1.00  0.00    -0.231 OA 
HETATM   18  H   UNL     1      -9.777   8.230  65.947  1.00  0.00     0.000 HD 
ENDBRANCH  15  16
ENDBRANCH  14  15
ENDBRANCH  13  14
ENDBRANCH  12  13
ENDBRANCH  11  12
ENDBRANCH  10  11
ENDBRANCH   9  10
ENDBRANCH   8   9
ENDBRANCH   7   8
ENDBRANCH   6   7
ENDBRANCH   5   6
ENDBRANCH   4   5
ENDBRANCH   3   4
ENDBRANCH   2   3
TORSDOF 14
ENDMDL
MODEL      193
REMARK 921   NORMALIZED FREE ENERGY PREDICTED BY IDOCK:   -3.15 KCAL/MOL
REMARK 922        TOTAL FREE ENERGY PREDICTED BY IDOCK:   -7.10 KCAL/MOL
REMARK 923 INTER-LIGAND FREE ENERGY PREDICTED BY IDOCK:   -6.12 KCAL/MOL
REMARK 924 INTRA-LIGAND FREE ENERGY PREDICTED BY IDOCK:   -0.98 KCAL/MOL
REMARK 927      BINDING AFFINITY PREDICTED BY RF-SCORE:    0.00 PKD
ROOT
HETATM    1  C   UNL     1      -9.248  16.833  66.255  1.00  0.00    -0.313 C  
HETATM    2  C   UNL     1     -10.546  16.049  66.344  1.00  0.00    -0.284 C  
ENDROOT
BRANCH   2   3
HETATM    3  C   UNL     1     -10.620  14.976  65.259  1.00  0.00    -0.418 C  
BRANCH   3   4
HETATM    4  C   UNL     1     -11.923  14.186  65.348  1.00  0.00    -0.382 C  
BRANCH   4   5
HETATM    5  C   UNL     1     -11.656  12.735  65.742  1.00  0.00    -0.419 C  
BRANCH   5   6
HETATM    6  C   UNL     1     -11.609  12.578  67.258  1.00  0.00    -0.434 C  
BRANCH   6   7
HETATM    7  C   UNL     1     -10.450  11.676  67.675  1.00  0.00    -0.219 C  
BRANCH   7   8
HETATM    8  C   UNL     1     -10.659  11.137  69.088  1.00  0.00    -0.238 C  
BRANCH   8   9
HETATM    9  C   UNL     1     -12.138  10.871  69.354  1.00  0.00    -0.362 C  
BRANCH   9  10
HETATM   10  C   UNL     1     -12.448  10.971  70.844  1.00  0.00    -0.509 C  
BRANCH  10  11
HETATM   11  C   UNL     1     -13.397   9.859  71.281  1.00  0.00    -0.419 C  
BRANCH  11  12
HETATM   12  C   UNL     1     -12.879   9.161  72.536  1.00  0.00    -0.387 C  
BRANCH  12  13
HETATM   13  C   UNL     1     -11.998   7.968  72.175  1.00  0.00    -0.399 C  
BRANCH  13  14
HETATM   14  C   UNL     1     -10.653   8.045  72.894  1.00  0.00    -0.399 C  
BRANCH  14  15
HETATM   15  C   UNL     1      -9.556   8.545  71.958  1.00  0.00    -0.371 C  
BRANCH  15  16
HETATM   16  C   UNL     1      -8.175   8.160  72.467  1.00  0.00    -0.159 C  
HETATM   17  O   UNL     1      -7.992   8.655  73.784  1.00  0.00    -0.407 OA 
HETATM   18  H   UNL     1      -7.130   8.415  74.102  1.00  0.00     0.000 HD 
ENDBRANCH  15  16
ENDBRANCH  14  15
ENDBRANCH  13  14
ENDBRANCH  12  13
ENDBRANCH  11  12
ENDBRANCH  10  11
ENDBRANCH   9  10
ENDBRANCH   8   9
ENDBRANCH   7   8
ENDBRANCH   6   7
ENDBRANCH   5   6
ENDBRANCH   4   5
ENDBRANCH   3   4
ENDBRANCH   2   3
TORSDOF 14
ENDMDL
MODEL      194
REMARK 921   NORMALIZED FREE ENERGY PREDICTED BY IDOCK:   -3.14 KCAL/MOL
REMARK 922        TOTAL FREE ENERGY PREDICTED BY IDOCK:   -7.09 KCAL/MOL
REMARK 923 INTER-LIGAND FREE ENERGY PREDICTED BY IDOCK:   -5.54 KCAL/MOL
REMARK 924 INTRA-LIGAND FREE ENERGY PREDICTED BY IDOCK:   -1.55 KCAL/MOL
REMARK 927      BINDING AFFINITY PREDICTED BY RF-SCORE:    0.00 PKD
ROOT
HETATM    1  C   UNL     1     -12.613  12.129  63.449  1.00  0.00    -0.584 C  
HETATM    2  C   UNL     1     -11.211  11.697  63.843  1.00  0.00    -0.479 C  
ENDROOT
BRANCH   2   3
HETATM    3  C   UNL     1     -10.342  12.900  64.198  1.00  0.00    -0.385 C  
BRANCH   3   4
HETATM    4  C   UNL     1      -9.560  12.659  65.487  1.00  0.00    -0.026 C  
BRANCH   4   5
HETATM    5  C   UNL     1      -9.899  11.295  66.084  1.00  0.00    -0.262 C  
BRANCH   5   6
HETATM    6  C   UNL     1      -9.010  10.985  67.284  1.00  0.00    -0.138 C  
BRANCH   6   7
HETATM    7  C   UNL     1      -9.799  11.085  68.587  1.00  0.00    -0.197 C  
BRANCH   7   8
HETATM    8  C   UNL     1     -11.283  10.819  68.349  1.00  0.00    -0.345 C  
BRANCH   8   9
HETATM    9  C   UNL     1     -12.138  11.916  68.976  1.00  0.00    -0.245 C  
BRANCH   9  10
HETATM   10  C   UNL     1     -11.278  13.103  69.397  1.00  0.00    -0.210 C  
BRANCH  10  11
HETATM   11  C   UNL     1     -11.883  14.417  68.909  1.00  0.00    -0.355 C  
BRANCH  11  12
HETATM   12  C   UNL     1     -11.644  14.604  67.413  1.00  0.00    -0.408 C  
BRANCH  12  13
HETATM   13  C   UNL     1     -10.668  15.748  67.152  1.00  0.00    -0.312 C  
BRANCH  13  14
HETATM   14  C   UNL     1     -10.911  16.904  68.120  1.00  0.00    -0.351 C  
BRANCH  14  15
HETATM   15  C   UNL     1      -9.984  18.078  67.819  1.00  0.00    -0.329 C  
BRANCH  15  16
HETATM   16  C   UNL     1     -10.763  19.289  67.330  1.00  0.00    -0.488 C  
HETATM   17  O   UNL     1      -9.868  20.252  66.793  1.00  0.00    -0.427 OA 
HETATM   18  H   UNL     1     -10.354  21.008  66.488  1.00  0.00     0.000 HD 
ENDBRANCH  15  16
ENDBRANCH  14  15
ENDBRANCH  13  14
ENDBRANCH  12  13
ENDBRANCH  11  12
ENDBRANCH  10  11
ENDBRANCH   9  10
ENDBRANCH   8   9
ENDBRANCH   7   8
ENDBRANCH   6   7
ENDBRANCH   5   6
ENDBRANCH   4   5
ENDBRANCH   3   4
ENDBRANCH   2   3
TORSDOF 14
ENDMDL
MODEL      195
REMARK 921   NORMALIZED FREE ENERGY PREDICTED BY IDOCK:   -3.13 KCAL/MOL
REMARK 922        TOTAL FREE ENERGY PREDICTED BY IDOCK:   -7.08 KCAL/MOL
REMARK 923 INTER-LIGAND FREE ENERGY PREDICTED BY IDOCK:   -6.12 KCAL/MOL
REMARK 924 INTRA-LIGAND FREE ENERGY PREDICTED BY IDOCK:   -0.96 KCAL/MOL
REMARK 927      BINDING AFFINITY PREDICTED BY RF-SCORE:    0.00 PKD
ROOT
HETATM    1  C   UNL     1      -9.042   7.909  67.671  1.00  0.00    -0.139 C  
HETATM    2  C   UNL     1     -10.368   7.869  68.411  1.00  0.00    -0.235 C  
ENDROOT
BRANCH   2   3
HETATM    3  C   UNL     1     -10.284   6.977  69.648  1.00  0.00    -0.212 C  
BRANCH   3   4
HETATM    4  C   UNL     1     -11.663   6.464  70.057  1.00  0.00    -0.345 C  
BRANCH   4   5
HETATM    5  C   UNL     1     -11.778   6.362  71.576  1.00  0.00    -0.369 C  
BRANCH   5   6
HETATM    6  C   UNL     1     -11.772   7.743  72.221  1.00  0.00    -0.390 C  
BRANCH   6   7
HETATM    7  C   UNL     1     -12.826   8.646  71.585  1.00  0.00    -0.380 C  
BRANCH   7   8
HETATM    8  C   UNL     1     -12.448  10.117  71.736  1.00  0.00    -0.455 C  
BRANCH   8   9
HETATM    9  C   UNL     1     -11.928  10.683  70.418  1.00  0.00    -0.436 C  
BRANCH   9  10
HETATM   10  C   UNL     1     -11.986  12.207  70.419  1.00  0.00    -0.360 C  
BRANCH  10  11
HETATM   11  C   UNL     1     -11.722  12.766  69.024  1.00  0.00    -0.371 C  
BRANCH  11  12
HETATM   12  C   UNL     1     -10.789  13.972  69.088  1.00  0.00    -0.235 C  
BRANCH  12  13
HETATM   13  C   UNL     1     -11.580  15.277  69.107  1.00  0.00    -0.349 C  
BRANCH  13  14
HETATM   14  C   UNL     1     -11.283  16.077  70.373  1.00  0.00    -0.401 C  
BRANCH  14  15
HETATM   15  C   UNL     1     -12.107  15.569  71.552  1.00  0.00    -0.458 C  
BRANCH  15  16
HETATM   16  C   UNL     1     -13.534  15.247  71.135  1.00  0.00    -0.489 C  
HETATM   17  O   UNL     1     -14.335  15.035  72.287  1.00  0.00    -0.492 OA 
HETATM   18  H   UNL     1     -15.227  14.833  72.026  1.00  0.00     0.000 HD 
ENDBRANCH  15  16
ENDBRANCH  14  15
ENDBRANCH  13  14
ENDBRANCH  12  13
ENDBRANCH  11  12
ENDBRANCH  10  11
ENDBRANCH   9  10
ENDBRANCH   8   9
ENDBRANCH   7   8
ENDBRANCH   6   7
ENDBRANCH   5   6
ENDBRANCH   4   5
ENDBRANCH   3   4
ENDBRANCH   2   3
TORSDOF 14
ENDMDL
MODEL      196
REMARK 921   NORMALIZED FREE ENERGY PREDICTED BY IDOCK:   -3.13 KCAL/MOL
REMARK 922        TOTAL FREE ENERGY PREDICTED BY IDOCK:   -7.07 KCAL/MOL
REMARK 923 INTER-LIGAND FREE ENERGY PREDICTED BY IDOCK:   -5.41 KCAL/MOL
REMARK 924 INTRA-LIGAND FREE ENERGY PREDICTED BY IDOCK:   -1.65 KCAL/MOL
REMARK 927      BINDING AFFINITY PREDICTED BY RF-SCORE:    0.00 PKD
ROOT
HETATM    1  C   UNL     1     -11.883  16.050  72.366  1.00  0.00    -0.639 C  
HETATM    2  C   UNL     1     -12.682  14.930  71.722  1.00  0.00    -0.401 C  
ENDROOT
BRANCH   2   3
HETATM    3  C   UNL     1     -12.751  15.102  70.206  1.00  0.00    -0.340 C  
BRANCH   3   4
HETATM    4  C   UNL     1     -11.598  15.961  69.692  1.00  0.00    -0.339 C  
BRANCH   4   5
HETATM    5  C   UNL     1     -11.263  15.614  68.243  1.00  0.00    -0.353 C  
BRANCH   5   6
HETATM    6  C   UNL     1      -9.827  15.117  68.115  1.00  0.00    -0.218 C  
BRANCH   6   7
HETATM    7  C   UNL     1      -9.018  15.463  69.362  1.00  0.00    -0.258 C  
BRANCH   7   8
HETATM    8  C   UNL     1      -7.590  14.935  69.251  1.00  0.00    -0.170 C  
BRANCH   8   9
HETATM    9  C   UNL     1      -6.579  16.059  69.455  1.00  0.00    -0.182 C  
BRANCH   9  10
HETATM   10  C   UNL     1      -5.579  16.106  68.303  1.00  0.00    -0.107 C  
BRANCH  10  11
HETATM   11  C   UNL     1      -5.883  17.268  67.362  1.00  0.00    -0.162 C  
BRANCH  11  12
HETATM   12  C   UNL     1      -6.994  16.899  66.382  1.00  0.00    -0.219 C  
BRANCH  12  13
HETATM   13  C   UNL     1      -8.047  18.002  66.307  1.00  0.00    -0.259 C  
BRANCH  13  14
HETATM   14  C   UNL     1      -8.176  18.726  67.646  1.00  0.00    -0.282 C  
BRANCH  14  15
HETATM   15  C   UNL     1      -9.002  20.001  67.505  1.00  0.00    -0.437 C  
BRANCH  15  16
HETATM   16  C   UNL     1     -10.408  19.816  68.056  1.00  0.00    -0.434 C  
HETATM   17  O   UNL     1     -10.415  20.075  69.451  1.00  0.00    -0.614 OA 
HETATM   18  H   UNL     1     -11.293  19.959  69.795  1.00  0.00     0.000 HD 
ENDBRANCH  15  16
ENDBRANCH  14  15
ENDBRANCH  13  14
ENDBRANCH  12  13
ENDBRANCH  11  12
ENDBRANCH  10  11
ENDBRANCH   9  10
ENDBRANCH   8   9
ENDBRANCH   7   8
ENDBRANCH   6   7
ENDBRANCH   5   6
ENDBRANCH   4   5
ENDBRANCH   3   4
ENDBRANCH   2   3
TORSDOF 14
ENDMDL
MODEL      197
REMARK 921   NORMALIZED FREE ENERGY PREDICTED BY IDOCK:   -3.13 KCAL/MOL
REMARK 922        TOTAL FREE ENERGY PREDICTED BY IDOCK:   -7.06 KCAL/MOL
REMARK 923 INTER-LIGAND FREE ENERGY PREDICTED BY IDOCK:   -5.93 KCAL/MOL
REMARK 924 INTRA-LIGAND FREE ENERGY PREDICTED BY IDOCK:   -1.13 KCAL/MOL
REMARK 927      BINDING AFFINITY PREDICTED BY RF-SCORE:    0.00 PKD
ROOT
HETATM    1  C   UNL     1     -10.585   7.712  67.203  1.00  0.00    -0.410 C  
HETATM    2  C   UNL     1     -10.418   9.221  67.227  1.00  0.00    -0.334 C  
ENDROOT
BRANCH   2   3
HETATM    3  C   UNL     1      -8.977   9.622  66.918  1.00  0.00    -0.151 C  
BRANCH   3   4
HETATM    4  C   UNL     1      -8.908  10.565  65.719  1.00  0.00    -0.190 C  
BRANCH   4   5
HETATM    5  C   UNL     1      -9.927  10.168  64.653  1.00  0.00    -0.304 C  
BRANCH   5   6
HETATM    6  C   UNL     1      -9.696  10.940  63.358  1.00  0.00    -0.392 C  
BRANCH   6   7
HETATM    7  C   UNL     1     -10.587  12.178  63.296  1.00  0.00    -0.367 C  
BRANCH   7   8
HETATM    8  C   UNL     1     -11.887  11.954  64.063  1.00  0.00    -0.458 C  
BRANCH   8   9
HETATM    9  C   UNL     1     -12.218  13.161  64.935  1.00  0.00    -0.477 C  
BRANCH   9  10
HETATM   10  C   UNL     1     -12.140  14.453  64.128  1.00  0.00    -0.405 C  
BRANCH  10  11
HETATM   11  C   UNL     1     -11.322  15.510  64.866  1.00  0.00    -0.339 C  
BRANCH  11  12
HETATM   12  C   UNL     1     -10.652  14.916  66.101  1.00  0.00    -0.322 C  
BRANCH  12  13
HETATM   13  C   UNL     1     -10.893  15.791  67.329  1.00  0.00    -0.298 C  
BRANCH  13  14
HETATM   14  C   UNL     1     -11.333  14.947  68.523  1.00  0.00    -0.314 C  
BRANCH  14  15
HETATM   15  C   UNL     1     -10.641  15.403  69.804  1.00  0.00    -0.304 C  
BRANCH  15  16
HETATM   16  C   UNL     1     -11.652  15.759  70.885  1.00  0.00    -0.405 C  
HETATM   17  O   UNL     1     -11.196  15.286  72.143  1.00  0.00    -0.462 OA 
HETATM   18  H   UNL     1     -11.827  15.508  72.818  1.00  0.00     0.000 HD 
ENDBRANCH  15  16
ENDBRANCH  14  15
ENDBRANCH  13  14
ENDBRANCH  12  13
ENDBRANCH  11  12
ENDBRANCH  10  11
ENDBRANCH   9  10
ENDBRANCH   8   9
ENDBRANCH   7   8
ENDBRANCH   6   7
ENDBRANCH   5   6
ENDBRANCH   4   5
ENDBRANCH   3   4
ENDBRANCH   2   3
TORSDOF 14
ENDMDL
MODEL      198
REMARK 921   NORMALIZED FREE ENERGY PREDICTED BY IDOCK:   -3.12 KCAL/MOL
REMARK 922        TOTAL FREE ENERGY PREDICTED BY IDOCK:   -7.06 KCAL/MOL
REMARK 923 INTER-LIGAND FREE ENERGY PREDICTED BY IDOCK:   -5.69 KCAL/MOL
REMARK 924 INTRA-LIGAND FREE ENERGY PREDICTED BY IDOCK:   -1.37 KCAL/MOL
REMARK 927      BINDING AFFINITY PREDICTED BY RF-SCORE:    0.00 PKD
ROOT
HETATM    1  C   UNL     1      -5.977   7.823  67.842  1.00  0.00    -0.041 C  
HETATM    2  C   UNL     1      -7.357   8.419  67.623  1.00  0.00    -0.093 C  
ENDROOT
BRANCH   2   3
HETATM    3  C   UNL     1      -8.344   7.930  68.681  1.00  0.00    -0.128 C  
BRANCH   3   4
HETATM    4  C   UNL     1      -9.637   7.428  68.044  1.00  0.00    -0.152 C  
BRANCH   4   5
HETATM    5  C   UNL     1     -10.199   8.458  67.067  1.00  0.00    -0.377 C  
BRANCH   5   6
HETATM    6  C   UNL     1     -10.670   9.710  67.799  1.00  0.00    -0.316 C  
BRANCH   6   7
HETATM    7  C   UNL     1     -10.948  10.844  66.816  1.00  0.00    -0.248 C  
BRANCH   7   8
HETATM    8  C   UNL     1      -9.857  10.923  65.751  1.00  0.00    -0.286 C  
BRANCH   8   9
HETATM    9  C   UNL     1     -10.447  10.746  64.355  1.00  0.00    -0.344 C  
BRANCH   9  10
HETATM   10  C   UNL     1     -10.671  12.097  63.684  1.00  0.00    -0.518 C  
BRANCH  10  11
HETATM   11  C   UNL     1     -12.149  12.475  63.695  1.00  0.00    -0.642 C  
BRANCH  11  12
HETATM   12  C   UNL     1     -12.345  13.893  64.227  1.00  0.00    -0.390 C  
BRANCH  12  13
HETATM   13  C   UNL     1     -12.532  13.889  65.742  1.00  0.00    -0.530 C  
BRANCH  13  14
HETATM   14  C   UNL     1     -11.294  14.439  66.446  1.00  0.00    -0.351 C  
BRANCH  14  15
HETATM   15  C   UNL     1     -10.576  15.467  65.576  1.00  0.00    -0.400 C  
BRANCH  15  16
HETATM   16  C   UNL     1     -10.028  16.614  66.411  1.00  0.00    -0.302 C  
HETATM   17  O   UNL     1     -10.093  17.822  65.668  1.00  0.00    -0.570 OA 
HETATM   18  H   UNL     1      -9.751  18.539  66.189  1.00  0.00     0.000 HD 
ENDBRANCH  15  16
ENDBRANCH  14  15
ENDBRANCH  13  14
ENDBRANCH  12  13
ENDBRANCH  11  12
ENDBRANCH  10  11
ENDBRANCH   9  10
ENDBRANCH   8   9
ENDBRANCH   7   8
ENDBRANCH   6   7
ENDBRANCH   5   6
ENDBRANCH   4   5
ENDBRANCH   3   4
ENDBRANCH   2   3
TORSDOF 14
ENDMDL
MODEL      199
REMARK 921   NORMALIZED FREE ENERGY PREDICTED BY IDOCK:   -3.11 KCAL/MOL
REMARK 922        TOTAL FREE ENERGY PREDICTED BY IDOCK:   -7.04 KCAL/MOL
REMARK 923 INTER-LIGAND FREE ENERGY PREDICTED BY IDOCK:   -5.91 KCAL/MOL
REMARK 924 INTRA-LIGAND FREE ENERGY PREDICTED BY IDOCK:   -1.13 KCAL/MOL
REMARK 927      BINDING AFFINITY PREDICTED BY RF-SCORE:    0.00 PKD
ROOT
HETATM    1  C   UNL     1     -11.033   7.637  72.225  1.00  0.00    -0.328 C  
HETATM    2  C   UNL     1     -10.806   9.063  71.752  1.00  0.00    -0.437 C  
ENDROOT
BRANCH   2   3
HETATM    3  C   UNL     1     -12.013   9.586  70.976  1.00  0.00    -0.407 C  
BRANCH   3   4
HETATM    4  C   UNL     1     -12.896  10.471  71.854  1.00  0.00    -0.509 C  
BRANCH   4   5
HETATM    5  C   UNL     1     -12.659  11.949  71.553  1.00  0.00    -0.298 C  
BRANCH   5   6
HETATM    6  C   UNL     1     -13.617  12.831  72.346  1.00  0.00    -0.507 C  
BRANCH   6   7
HETATM    7  C   UNL     1     -12.931  14.122  72.785  1.00  0.00    -0.516 C  
BRANCH   7   8
HETATM    8  C   UNL     1     -12.928  15.150  71.657  1.00  0.00    -0.454 C  
BRANCH   8   9
HETATM    9  C   UNL     1     -11.514  15.658  71.389  1.00  0.00    -0.488 C  
BRANCH   9  10
HETATM   10  C   UNL     1     -10.919  14.985  70.156  1.00  0.00    -0.247 C  
BRANCH  10  11
HETATM   11  C   UNL     1     -12.011  14.602  69.161  1.00  0.00    -0.329 C  
BRANCH  11  12
HETATM   12  C   UNL     1     -11.514  14.746  67.725  1.00  0.00    -0.363 C  
BRANCH  12  13
HETATM   13  C   UNL     1     -10.330  15.706  67.648  1.00  0.00    -0.275 C  
BRANCH  13  14
HETATM   14  C   UNL     1      -9.191  15.104  66.828  1.00  0.00    -0.277 C  
BRANCH  14  15
HETATM   15  C   UNL     1      -7.975  14.815  67.703  1.00  0.00    -0.191 C  
BRANCH  15  16
HETATM   16  C   UNL     1      -7.547  13.359  67.596  1.00  0.00    -0.174 C  
HETATM   17  O   UNL     1      -6.169  13.239  67.913  1.00  0.00    -0.112 OA 
HETATM   18  H   UNL     1      -5.902  12.330  67.846  1.00  0.00     0.000 HD 
ENDBRANCH  15  16
ENDBRANCH  14  15
ENDBRANCH  13  14
ENDBRANCH  12  13
ENDBRANCH  11  12
ENDBRANCH  10  11
ENDBRANCH   9  10
ENDBRANCH   8   9
ENDBRANCH   7   8
ENDBRANCH   6   7
ENDBRANCH   5   6
ENDBRANCH   4   5
ENDBRANCH   3   4
ENDBRANCH   2   3
TORSDOF 14
ENDMDL
MODEL      200
REMARK 921   NORMALIZED FREE ENERGY PREDICTED BY IDOCK:   -3.11 KCAL/MOL
REMARK 922        TOTAL FREE ENERGY PREDICTED BY IDOCK:   -7.03 KCAL/MOL
REMARK 923 INTER-LIGAND FREE ENERGY PREDICTED BY IDOCK:   -5.20 KCAL/MOL
REMARK 924 INTRA-LIGAND FREE ENERGY PREDICTED BY IDOCK:   -1.83 KCAL/MOL
REMARK 927      BINDING AFFINITY PREDICTED BY RF-SCORE:    0.00 PKD
ROOT
HETATM    1  C   UNL     1     -13.561  13.702  72.354  1.00  0.00    -0.703 C  
HETATM    2  C   UNL     1     -12.770  13.071  71.222  1.00  0.00    -0.385 C  
ENDROOT
BRANCH   2   3
HETATM    3  C   UNL     1     -12.076  14.135  70.373  1.00  0.00    -0.417 C  
BRANCH   3   4
HETATM    4  C   UNL     1     -12.054  13.741  68.898  1.00  0.00    -0.348 C  
BRANCH   4   5
HETATM    5  C   UNL     1     -11.600  14.909  68.028  1.00  0.00    -0.363 C  
BRANCH   5   6
HETATM    6  C   UNL     1     -11.225  16.116  68.881  1.00  0.00    -0.351 C  
BRANCH   6   7
HETATM    7  C   UNL     1     -10.605  17.218  68.025  1.00  0.00    -0.394 C  
BRANCH   7   8
HETATM    8  C   UNL     1     -10.272  16.700  66.628  1.00  0.00    -0.304 C  
BRANCH   8   9
HETATM    9  C   UNL     1      -8.765  16.716  66.388  1.00  0.00    -0.345 C  
BRANCH   9  10
HETATM   10  C   UNL     1      -8.024  17.230  67.618  1.00  0.00    -0.195 C  
BRANCH  10  11
HETATM   11  C   UNL     1      -7.130  16.144  68.211  1.00  0.00    -0.130 C  
BRANCH  11  12
HETATM   12  C   UNL     1      -7.351  14.810  67.503  1.00  0.00    -0.225 C  
BRANCH  12  13
HETATM   13  C   UNL     1      -8.105  13.832  68.401  1.00  0.00    -0.148 C  
BRANCH  13  14
HETATM   14  C   UNL     1      -8.532  12.592  67.619  1.00  0.00    -0.171 C  
BRANCH  14  15
HETATM   15  C   UNL     1      -9.177  11.557  68.537  1.00  0.00    -0.167 C  
BRANCH  15  16
HETATM   16  C   UNL     1      -8.186  10.473  68.934  1.00  0.00    -0.141 C  
HETATM   17  O   UNL     1      -7.548  10.828  70.151  1.00  0.00    -0.414 OA 
HETATM   18  H   UNL     1      -6.929  10.152  70.399  1.00  0.00     0.000 HD 
ENDBRANCH  15  16
ENDBRANCH  14  15
ENDBRANCH  13  14
ENDBRANCH  12  13
ENDBRANCH  11  12
ENDBRANCH  10  11
ENDBRANCH   9  10
ENDBRANCH   8   9
ENDBRANCH   7   8
ENDBRANCH   6   7
ENDBRANCH   5   6
ENDBRANCH   4   5
ENDBRANCH   3   4
ENDBRANCH   2   3
TORSDOF 14
ENDMDL
MODEL      201
REMARK 921   NORMALIZED FREE ENERGY PREDICTED BY IDOCK:   -3.11 KCAL/MOL
REMARK 922        TOTAL FREE ENERGY PREDICTED BY IDOCK:   -7.03 KCAL/MOL
REMARK 923 INTER-LIGAND FREE ENERGY PREDICTED BY IDOCK:   -5.93 KCAL/MOL
REMARK 924 INTRA-LIGAND FREE ENERGY PREDICTED BY IDOCK:   -1.10 KCAL/MOL
REMARK 927      BINDING AFFINITY PREDICTED BY RF-SCORE:    0.00 PKD
ROOT
HETATM    1  C   UNL     1     -10.061   4.904  67.246  1.00  0.00    -0.212 C  
HETATM    2  C   UNL     1      -9.430   4.571  68.587  1.00  0.00    -0.220 C  
ENDROOT
BRANCH   2   3
HETATM    3  C   UNL     1      -9.301   5.817  69.461  1.00  0.00    -0.157 C  
BRANCH   3   4
HETATM    4  C   UNL     1      -9.503   5.482  70.938  1.00  0.00    -0.208 C  
BRANCH   4   5
HETATM    5  C   UNL     1     -10.975   5.601  71.328  1.00  0.00    -0.251 C  
BRANCH   5   6
HETATM    6  C   UNL     1     -11.582   6.893  70.791  1.00  0.00    -0.397 C  
BRANCH   6   7
HETATM    7  C   UNL     1     -11.562   7.987  71.856  1.00  0.00    -0.348 C  
BRANCH   7   8
HETATM    8  C   UNL     1     -10.765   9.199  71.379  1.00  0.00    -0.414 C  
BRANCH   8   9
HETATM    9  C   UNL     1     -10.779   9.293  69.857  1.00  0.00    -0.253 C  
BRANCH   9  10
HETATM   10  C   UNL     1     -10.445  10.708  69.396  1.00  0.00    -0.252 C  
BRANCH  10  11
HETATM   11  C   UNL     1     -11.668  11.616  69.488  1.00  0.00    -0.410 C  
BRANCH  11  12
HETATM   12  C   UNL     1     -11.592  12.737  68.454  1.00  0.00    -0.365 C  
BRANCH  12  13
HETATM   13  C   UNL     1     -12.160  14.038  69.015  1.00  0.00    -0.358 C  
BRANCH  13  14
HETATM   14  C   UNL     1     -12.113  14.042  70.541  1.00  0.00    -0.424 C  
BRANCH  14  15
HETATM   15  C   UNL     1     -13.390  14.634  71.130  1.00  0.00    -0.433 C  
BRANCH  15  16
HETATM   16  C   UNL     1     -13.551  14.259  72.596  1.00  0.00    -0.501 C  
HETATM   17  O   UNL     1     -14.153  12.978  72.701  1.00  0.00    -0.726 OA 
HETATM   18  H   UNL     1     -14.254  12.744  73.616  1.00  0.00     0.000 HD 
ENDBRANCH  15  16
ENDBRANCH  14  15
ENDBRANCH  13  14
ENDBRANCH  12  13
ENDBRANCH  11  12
ENDBRANCH  10  11
ENDBRANCH   9  10
ENDBRANCH   8   9
ENDBRANCH   7   8
ENDBRANCH   6   7
ENDBRANCH   5   6
ENDBRANCH   4   5
ENDBRANCH   3   4
ENDBRANCH   2   3
TORSDOF 14
ENDMDL
MODEL      202
REMARK 921   NORMALIZED FREE ENERGY PREDICTED BY IDOCK:   -3.10 KCAL/MOL
REMARK 922        TOTAL FREE ENERGY PREDICTED BY IDOCK:   -7.01 KCAL/MOL
REMARK 923 INTER-LIGAND FREE ENERGY PREDICTED BY IDOCK:   -5.98 KCAL/MOL
REMARK 924 INTRA-LIGAND FREE ENERGY PREDICTED BY IDOCK:   -1.03 KCAL/MOL
REMARK 927      BINDING AFFINITY PREDICTED BY RF-SCORE:    0.00 PKD
ROOT
HETATM    1  C   UNL     1     -12.124  14.587  64.361  1.00  0.00    -0.492 C  
HETATM    2  C   UNL     1     -12.826  13.814  65.464  1.00  0.00    -0.464 C  
ENDROOT
BRANCH   2   3
HETATM    3  C   UNL     1     -12.137  14.024  66.810  1.00  0.00    -0.480 C  
BRANCH   3   4
HETATM    4  C   UNL     1     -10.811  13.270  66.879  1.00  0.00    -0.286 C  
BRANCH   4   5
HETATM    5  C   UNL     1     -11.040  11.788  67.169  1.00  0.00    -0.350 C  
BRANCH   5   6
HETATM    6  C   UNL     1     -10.302  11.356  68.431  1.00  0.00    -0.209 C  
BRANCH   6   7
HETATM    7  C   UNL     1     -11.281  10.854  69.490  1.00  0.00    -0.340 C  
BRANCH   7   8
HETATM    8  C   UNL     1     -11.913  12.020  70.245  1.00  0.00    -0.398 C  
BRANCH   8   9
HETATM    9  C   UNL     1     -12.856  11.515  71.333  1.00  0.00    -0.489 C  
BRANCH   9  10
HETATM   10  C   UNL     1     -13.273  10.073  71.065  1.00  0.00    -0.399 C  
BRANCH  10  11
HETATM   11  C   UNL     1     -13.219   9.241  72.343  1.00  0.00    -0.501 C  
BRANCH  11  12
HETATM   12  C   UNL     1     -12.041   8.271  72.313  1.00  0.00    -0.439 C  
BRANCH  12  13
HETATM   13  C   UNL     1     -11.907   7.615  70.940  1.00  0.00    -0.272 C  
BRANCH  13  14
HETATM   14  C   UNL     1     -11.477   6.156  71.072  1.00  0.00    -0.316 C  
BRANCH  14  15
HETATM   15  C   UNL     1      -9.974   6.044  71.309  1.00  0.00    -0.223 C  
BRANCH  15  16
HETATM   16  C   UNL     1      -9.589   4.651  71.784  1.00  0.00    -0.158 C  
HETATM   17  O   UNL     1      -9.583   3.754  70.684  1.00  0.00    -0.167 OA 
HETATM   18  H   UNL     1      -9.343   2.883  70.980  1.00  0.00     0.000 HD 
ENDBRANCH  15  16
ENDBRANCH  14  15
ENDBRANCH  13  14
ENDBRANCH  12  13
ENDBRANCH  11  12
ENDBRANCH  10  11
ENDBRANCH   9  10
ENDBRANCH   8   9
ENDBRANCH   7   8
ENDBRANCH   6   7
ENDBRANCH   5   6
ENDBRANCH   4   5
ENDBRANCH   3   4
ENDBRANCH   2   3
TORSDOF 14
ENDMDL
MODEL      203
REMARK 921   NORMALIZED FREE ENERGY PREDICTED BY IDOCK:   -3.09 KCAL/MOL
REMARK 922        TOTAL FREE ENERGY PREDICTED BY IDOCK:   -7.00 KCAL/MOL
REMARK 923 INTER-LIGAND FREE ENERGY PREDICTED BY IDOCK:   -5.82 KCAL/MOL
REMARK 924 INTRA-LIGAND FREE ENERGY PREDICTED BY IDOCK:   -1.18 KCAL/MOL
REMARK 927      BINDING AFFINITY PREDICTED BY RF-SCORE:    0.00 PKD
ROOT
HETATM    1  C   UNL     1     -12.835  15.696  71.112  1.00  0.00    -0.540 C  
HETATM    2  C   UNL     1     -13.864  15.319  72.164  1.00  0.00    -0.625 C  
ENDROOT
BRANCH   2   3
HETATM    3  C   UNL     1     -13.870  13.812  72.415  1.00  0.00    -0.681 C  
BRANCH   3   4
HETATM    4  C   UNL     1     -12.863  13.096  71.518  1.00  0.00    -0.401 C  
BRANCH   4   5
HETATM    5  C   UNL     1     -12.943  11.583  71.706  1.00  0.00    -0.500 C  
BRANCH   5   6
HETATM    6  C   UNL     1     -12.220  10.851  70.580  1.00  0.00    -0.459 C  
BRANCH   6   7
HETATM    7  C   UNL     1     -11.303   9.765  71.138  1.00  0.00    -0.459 C  
BRANCH   7   8
HETATM    8  C   UNL     1     -10.205   9.412  70.138  1.00  0.00    -0.271 C  
BRANCH   8   9
HETATM    9  C   UNL     1     -10.445   8.032  69.533  1.00  0.00    -0.226 C  
BRANCH   9  10
HETATM   10  C   UNL     1     -10.221   8.054  68.025  1.00  0.00    -0.260 C  
BRANCH  10  11
HETATM   11  C   UNL     1     -10.742   9.351  67.413  1.00  0.00    -0.280 C  
BRANCH  11  12
HETATM   12  C   UNL     1      -9.984   9.694  66.133  1.00  0.00    -0.346 C  
BRANCH  12  13
HETATM   13  C   UNL     1      -8.517   9.286  66.240  1.00  0.00    -0.133 C  
BRANCH  13  14
HETATM   14  C   UNL     1      -7.636  10.494  66.552  1.00  0.00    -0.128 C  
BRANCH  14  15
HETATM   15  C   UNL     1      -7.236  10.518  68.024  1.00  0.00    -0.087 C  
BRANCH  15  16
HETATM   16  C   UNL     1      -7.051  11.942  68.526  1.00  0.00    -0.089 C  
HETATM   17  O   UNL     1      -8.318  12.533  68.772  1.00  0.00    -0.337 OA 
HETATM   18  H   UNL     1      -8.203  13.422  69.085  1.00  0.00     0.000 HD 
ENDBRANCH  15  16
ENDBRANCH  14  15
ENDBRANCH  13  14
ENDBRANCH  12  13
ENDBRANCH  11  12
ENDBRANCH  10  11
ENDBRANCH   9  10
ENDBRANCH   8   9
ENDBRANCH   7   8
ENDBRANCH   6   7
ENDBRANCH   5   6
ENDBRANCH   4   5
ENDBRANCH   3   4
ENDBRANCH   2   3
TORSDOF 14
ENDMDL
MODEL      204
REMARK 921   NORMALIZED FREE ENERGY PREDICTED BY IDOCK:   -3.09 KCAL/MOL
REMARK 922        TOTAL FREE ENERGY PREDICTED BY IDOCK:   -6.99 KCAL/MOL
REMARK 923 INTER-LIGAND FREE ENERGY PREDICTED BY IDOCK:   -6.09 KCAL/MOL
REMARK 924 INTRA-LIGAND FREE ENERGY PREDICTED BY IDOCK:   -0.90 KCAL/MOL
REMARK 927      BINDING AFFINITY PREDICTED BY RF-SCORE:    0.00 PKD
ROOT
HETATM    1  C   UNL     1     -12.522  16.164  74.275  1.00  0.00    -0.684 C  
HETATM    2  C   UNL     1     -12.218  14.857  73.562  1.00  0.00    -0.490 C  
ENDROOT
BRANCH   2   3
HETATM    3  C   UNL     1     -13.142  14.654  72.363  1.00  0.00    -0.472 C  
BRANCH   3   4
HETATM    4  C   UNL     1     -12.702  13.459  71.520  1.00  0.00    -0.386 C  
BRANCH   4   5
HETATM    5  C   UNL     1     -13.383  12.177  71.992  1.00  0.00    -0.470 C  
BRANCH   5   6
HETATM    6  C   UNL     1     -12.651  10.944  71.475  1.00  0.00    -0.480 C  
BRANCH   6   7
HETATM    7  C   UNL     1     -13.386   9.667  71.875  1.00  0.00    -0.526 C  
BRANCH   7   8
HETATM    8  C   UNL     1     -12.403   8.590  72.327  1.00  0.00    -0.450 C  
BRANCH   8   9
HETATM    9  C   UNL     1     -12.735   7.246  71.685  1.00  0.00    -0.410 C  
BRANCH   9  10
HETATM   10  C   UNL     1     -11.491   6.615  71.069  1.00  0.00    -0.382 C  
BRANCH  10  11
HETATM   11  C   UNL     1     -10.505   7.686  70.610  1.00  0.00    -0.217 C  
BRANCH  11  12
HETATM   12  C   UNL     1     -10.774   8.091  69.164  1.00  0.00    -0.121 C  
BRANCH  12  13
HETATM   13  C   UNL     1     -10.335   9.531  68.908  1.00  0.00    -0.225 C  
BRANCH  13  14
HETATM   14  C   UNL     1      -9.221   9.584  67.865  1.00  0.00    -0.134 C  
BRANCH  14  15
HETATM   15  C   UNL     1      -9.786   9.813  66.466  1.00  0.00    -0.286 C  
BRANCH  15  16
HETATM   16  C   UNL     1      -9.004  10.882  65.719  1.00  0.00    -0.193 C  
HETATM   17  O   UNL     1      -8.277  10.289  64.653  1.00  0.00    -0.160 OA 
HETATM   18  H   UNL     1      -7.788  10.957  64.187  1.00  0.00     0.000 HD 
ENDBRANCH  15  16
ENDBRANCH  14  15
ENDBRANCH  13  14
ENDBRANCH  12  13
ENDBRANCH  11  12
ENDBRANCH  10  11
ENDBRANCH   9  10
ENDBRANCH   8   9
ENDBRANCH   7   8
ENDBRANCH   6   7
ENDBRANCH   5   6
ENDBRANCH   4   5
ENDBRANCH   3   4
ENDBRANCH   2   3
TORSDOF 14
ENDMDL
MODEL      205
REMARK 921   NORMALIZED FREE ENERGY PREDICTED BY IDOCK:   -3.08 KCAL/MOL
REMARK 922        TOTAL FREE ENERGY PREDICTED BY IDOCK:   -6.98 KCAL/MOL
REMARK 923 INTER-LIGAND FREE ENERGY PREDICTED BY IDOCK:   -4.68 KCAL/MOL
REMARK 924 INTRA-LIGAND FREE ENERGY PREDICTED BY IDOCK:   -2.31 KCAL/MOL
REMARK 927      BINDING AFFINITY PREDICTED BY RF-SCORE:    0.00 PKD
ROOT
HETATM    1  C   UNL     1      -7.499  14.195  68.564  1.00  0.00    -0.123 C  
HETATM    2  C   UNL     1      -7.830  12.715  68.472  1.00  0.00    -0.104 C  
ENDROOT
BRANCH   2   3
HETATM    3  C   UNL     1      -7.448  12.148  67.106  1.00  0.00    -0.129 C  
BRANCH   3   4
HETATM    4  C   UNL     1      -6.635  10.863  67.246  1.00  0.00    -0.078 C  
BRANCH   4   5
HETATM    5  C   UNL     1      -6.573  10.412  68.704  1.00  0.00    -0.052 C  
BRANCH   5   6
HETATM    6  C   UNL     1      -7.014   8.960  68.848  1.00  0.00    -0.065 C  
BRANCH   6   7
HETATM    7  C   UNL     1      -7.818   8.760  70.131  1.00  0.00    -0.094 C  
BRANCH   7   8
HETATM    8  C   UNL     1      -9.020   9.700  70.173  1.00  0.00    -0.273 C  
BRANCH   8   9
HETATM    9  C   UNL     1     -10.037   9.330  69.098  1.00  0.00    -0.204 C  
BRANCH   9  10
HETATM   10  C   UNL     1     -10.895  10.534  68.722  1.00  0.00    -0.269 C  
BRANCH  10  11
HETATM   11  C   UNL     1     -11.019  10.666  67.207  1.00  0.00    -0.348 C  
BRANCH  11  12
HETATM   12  C   UNL     1     -10.103   9.673  66.497  1.00  0.00    -0.314 C  
BRANCH  12  13
HETATM   13  C   UNL     1      -9.853  10.095  65.051  1.00  0.00    -0.392 C  
BRANCH  13  14
HETATM   14  C   UNL     1     -10.318  11.530  64.813  1.00  0.00    -0.341 C  
BRANCH  14  15
HETATM   15  C   UNL     1     -11.247  11.615  63.606  1.00  0.00    -0.497 C  
BRANCH  15  16
HETATM   16  C   UNL     1     -12.405  12.568  63.862  1.00  0.00    -0.485 C  
HETATM   17  O   UNL     1     -12.119  13.836  63.292  1.00  0.00    -0.909 OA 
HETATM   18  H   UNL     1     -12.842  14.431  63.452  1.00  0.00     0.000 HD 
ENDBRANCH  15  16
ENDBRANCH  14  15
ENDBRANCH  13  14
ENDBRANCH  12  13
ENDBRANCH  11  12
ENDBRANCH  10  11
ENDBRANCH   9  10
ENDBRANCH   8   9
ENDBRANCH   7   8
ENDBRANCH   6   7
ENDBRANCH   5   6
ENDBRANCH   4   5
ENDBRANCH   3   4
ENDBRANCH   2   3
TORSDOF 14
ENDMDL
MODEL      206
REMARK 921   NORMALIZED FREE ENERGY PREDICTED BY IDOCK:   -3.07 KCAL/MOL
REMARK 922        TOTAL FREE ENERGY PREDICTED BY IDOCK:   -6.96 KCAL/MOL
REMARK 923 INTER-LIGAND FREE ENERGY PREDICTED BY IDOCK:   -5.70 KCAL/MOL
REMARK 924 INTRA-LIGAND FREE ENERGY PREDICTED BY IDOCK:   -1.27 KCAL/MOL
REMARK 927      BINDING AFFINITY PREDICTED BY RF-SCORE:    0.00 PKD
ROOT
HETATM    1  C   UNL     1     -10.075   5.853  69.015  1.00  0.00    -0.237 C  
HETATM    2  C   UNL     1     -10.546   5.742  70.454  1.00  0.00    -0.365 C  
ENDROOT
BRANCH   2   3
HETATM    3  C   UNL     1      -9.971   6.867  71.312  1.00  0.00    -0.189 C  
BRANCH   3   4
HETATM    4  C   UNL     1     -11.045   7.495  72.197  1.00  0.00    -0.300 C  
BRANCH   4   5
HETATM    5  C   UNL     1     -12.140   8.141  71.351  1.00  0.00    -0.326 C  
BRANCH   5   6
HETATM    6  C   UNL     1     -12.869   9.227  72.134  1.00  0.00    -0.485 C  
BRANCH   6   7
HETATM    7  C   UNL     1     -12.667  10.595  71.486  1.00  0.00    -0.549 C  
BRANCH   7   8
HETATM    8  C   UNL     1     -11.541  10.549  70.457  1.00  0.00    -0.441 C  
BRANCH   8   9
HETATM    9  C   UNL     1     -11.815  11.517  69.309  1.00  0.00    -0.414 C  
BRANCH   9  10
HETATM   10  C   UNL     1     -12.087  12.922  69.837  1.00  0.00    -0.335 C  
BRANCH  10  11
HETATM   11  C   UNL     1     -11.696  13.978  68.807  1.00  0.00    -0.388 C  
BRANCH  11  12
HETATM   12  C   UNL     1     -11.978  13.488  67.390  1.00  0.00    -0.398 C  
BRANCH  12  13
HETATM   13  C   UNL     1     -10.796  13.772  66.466  1.00  0.00    -0.287 C  
BRANCH  13  14
HETATM   14  C   UNL     1     -10.054  12.484  66.118  1.00  0.00    -0.265 C  
BRANCH  14  15
HETATM   15  C   UNL     1      -8.860  12.268  67.044  1.00  0.00    -0.205 C  
BRANCH  15  16
HETATM   16  C   UNL     1      -8.218  13.590  67.438  1.00  0.00    -0.181 C  
HETATM   17  O   UNL     1      -8.177  13.701  68.852  1.00  0.00    -0.331 OA 
HETATM   18  H   UNL     1      -7.776  14.526  69.099  1.00  0.00     0.000 HD 
ENDBRANCH  15  16
ENDBRANCH  14  15
ENDBRANCH  13  14
ENDBRANCH  12  13
ENDBRANCH  11  12
ENDBRANCH  10  11
ENDBRANCH   9  10
ENDBRANCH   8   9
ENDBRANCH   7   8
ENDBRANCH   6   7
ENDBRANCH   5   6
ENDBRANCH   4   5
ENDBRANCH   3   4
ENDBRANCH   2   3
TORSDOF 14
ENDMDL
MODEL      207
REMARK 921   NORMALIZED FREE ENERGY PREDICTED BY IDOCK:   -3.06 KCAL/MOL
REMARK 922        TOTAL FREE ENERGY PREDICTED BY IDOCK:   -6.95 KCAL/MOL
REMARK 923 INTER-LIGAND FREE ENERGY PREDICTED BY IDOCK:   -5.82 KCAL/MOL
REMARK 924 INTRA-LIGAND FREE ENERGY PREDICTED BY IDOCK:   -1.13 KCAL/MOL
REMARK 927      BINDING AFFINITY PREDICTED BY RF-SCORE:    0.00 PKD
ROOT
HETATM    1  C   UNL     1      -5.817  13.342  68.117  1.00  0.00    -0.108 C  
HETATM    2  C   UNL     1      -6.837  12.488  67.383  1.00  0.00    -0.145 C  
ENDROOT
BRANCH   2   3
HETATM    3  C   UNL     1      -8.116  12.330  68.203  1.00  0.00    -0.158 C  
BRANCH   3   4
HETATM    4  C   UNL     1      -9.330  12.118  67.301  1.00  0.00    -0.183 C  
BRANCH   4   5
HETATM    5  C   UNL     1      -9.866  10.695  67.432  1.00  0.00    -0.198 C  
BRANCH   5   6
HETATM    6  C   UNL     1     -11.251  10.686  68.069  1.00  0.00    -0.373 C  
BRANCH   6   7
HETATM    7  C   UNL     1     -11.667  12.095  68.487  1.00  0.00    -0.382 C  
BRANCH   7   8
HETATM    8  C   UNL     1     -11.947  12.160  69.986  1.00  0.00    -0.391 C  
BRANCH   8   9
HETATM    9  C   UNL     1     -11.949  10.762  70.599  1.00  0.00    -0.466 C  
BRANCH   9  10
HETATM   10  C   UNL     1     -13.005  10.651  71.694  1.00  0.00    -0.582 C  
BRANCH  10  11
HETATM   11  C   UNL     1     -13.358   9.191  71.966  1.00  0.00    -0.507 C  
BRANCH  11  12
HETATM   12  C   UNL     1     -12.100   8.328  72.023  1.00  0.00    -0.402 C  
BRANCH  12  13
HETATM   13  C   UNL     1     -12.204   7.144  71.065  1.00  0.00    -0.384 C  
BRANCH  13  14
HETATM   14  C   UNL     1     -11.244   7.308  69.889  1.00  0.00    -0.195 C  
BRANCH  14  15
HETATM   15  C   UNL     1     -10.943   5.965  69.232  1.00  0.00    -0.397 C  
BRANCH  15  16
HETATM   16  C   UNL     1     -10.547   6.136  67.773  1.00  0.00    -0.269 C  
HETATM   17  O   UNL     1     -11.586   6.798  67.068  1.00  0.00    -0.681 OA 
HETATM   18  H   UNL     1     -11.339   6.905  66.157  1.00  0.00     0.000 HD 
ENDBRANCH  15  16
ENDBRANCH  14  15
ENDBRANCH  13  14
ENDBRANCH  12  13
ENDBRANCH  11  12
ENDBRANCH  10  11
ENDBRANCH   9  10
ENDBRANCH   8   9
ENDBRANCH   7   8
ENDBRANCH   6   7
ENDBRANCH   5   6
ENDBRANCH   4   5
ENDBRANCH   3   4
ENDBRANCH   2   3
TORSDOF 14
ENDMDL
MODEL      208
REMARK 921   NORMALIZED FREE ENERGY PREDICTED BY IDOCK:   -3.05 KCAL/MOL
REMARK 922        TOTAL FREE ENERGY PREDICTED BY IDOCK:   -6.93 KCAL/MOL
REMARK 923 INTER-LIGAND FREE ENERGY PREDICTED BY IDOCK:   -5.59 KCAL/MOL
REMARK 924 INTRA-LIGAND FREE ENERGY PREDICTED BY IDOCK:   -1.34 KCAL/MOL
REMARK 927      BINDING AFFINITY PREDICTED BY RF-SCORE:    0.00 PKD
ROOT
HETATM    1  C   UNL     1     -12.789  10.456  70.968  1.00  0.00    -0.494 C  
HETATM    2  C   UNL     1     -12.740  11.938  71.299  1.00  0.00    -0.401 C  
ENDROOT
BRANCH   2   3
HETATM    3  C   UNL     1     -12.311  12.760  70.086  1.00  0.00    -0.235 C  
BRANCH   3   4
HETATM    4  C   UNL     1     -11.849  11.861  68.941  1.00  0.00    -0.366 C  
BRANCH   4   5
HETATM    5  C   UNL     1     -10.444  12.241  68.481  1.00  0.00    -0.248 C  
BRANCH   5   6
HETATM    6  C   UNL     1      -9.441  11.142  68.818  1.00  0.00    -0.173 C  
BRANCH   6   7
HETATM    7  C   UNL     1      -8.031  11.541  68.388  1.00  0.00    -0.143 C  
BRANCH   7   8
HETATM    8  C   UNL     1      -7.868  13.058  68.393  1.00  0.00    -0.134 C  
BRANCH   8   9
HETATM    9  C   UNL     1      -7.873  13.610  66.971  1.00  0.00     0.104 C  
BRANCH   9  10
HETATM   10  C   UNL     1      -7.821  15.134  66.978  1.00  0.00    -0.197 C  
BRANCH  10  11
HETATM   11  C   UNL     1      -9.193  15.730  66.672  1.00  0.00    -0.283 C  
BRANCH  11  12
HETATM   12  C   UNL     1     -10.010  14.790  65.791  1.00  0.00    -0.375 C  
BRANCH  12  13
HETATM   13  C   UNL     1     -11.473  14.763  66.228  1.00  0.00    -0.316 C  
BRANCH  13  14
HETATM   14  C   UNL     1     -12.214  13.595  65.580  1.00  0.00    -0.490 C  
BRANCH  14  15
HETATM   15  C   UNL     1     -11.761  13.386  64.138  1.00  0.00    -0.466 C  
BRANCH  15  16
HETATM   16  C   UNL     1     -11.535  11.913  63.835  1.00  0.00    -0.426 C  
HETATM   17  O   UNL     1     -12.526  11.451  62.930  1.00  0.00    -0.949 OA 
HETATM   18  H   UNL     1     -12.386  10.531  62.741  1.00  0.00     0.000 HD 
ENDBRANCH  15  16
ENDBRANCH  14  15
ENDBRANCH  13  14
ENDBRANCH  12  13
ENDBRANCH  11  12
ENDBRANCH  10  11
ENDBRANCH   9  10
ENDBRANCH   8   9
ENDBRANCH   7   8
ENDBRANCH   6   7
ENDBRANCH   5   6
ENDBRANCH   4   5
ENDBRANCH   3   4
ENDBRANCH   2   3
TORSDOF 14
ENDMDL
MODEL      209
REMARK 921   NORMALIZED FREE ENERGY PREDICTED BY IDOCK:   -3.05 KCAL/MOL
REMARK 922        TOTAL FREE ENERGY PREDICTED BY IDOCK:   -6.93 KCAL/MOL
REMARK 923 INTER-LIGAND FREE ENERGY PREDICTED BY IDOCK:   -6.19 KCAL/MOL
REMARK 924 INTRA-LIGAND FREE ENERGY PREDICTED BY IDOCK:   -0.74 KCAL/MOL
REMARK 927      BINDING AFFINITY PREDICTED BY RF-SCORE:    0.00 PKD
ROOT
HETATM    1  C   UNL     1      -8.184   3.392  66.016  1.00  0.00    -0.094 C  
HETATM    2  C   UNL     1      -8.216   4.907  66.129  1.00  0.00    -0.108 C  
ENDROOT
BRANCH   2   3
HETATM    3  C   UNL     1      -9.647   5.420  66.274  1.00  0.00    -0.175 C  
BRANCH   3   4
HETATM    4  C   UNL     1     -10.159   5.243  67.702  1.00  0.00    -0.216 C  
BRANCH   4   5
HETATM    5  C   UNL     1     -10.807   6.527  68.212  1.00  0.00    -0.359 C  
BRANCH   5   6
HETATM    6  C   UNL     1     -10.579   7.681  67.242  1.00  0.00    -0.388 C  
BRANCH   6   7
HETATM    7  C   UNL     1     -10.374   8.993  67.995  1.00  0.00    -0.275 C  
BRANCH   7   8
HETATM    8  C   UNL     1     -10.309   8.754  69.500  1.00  0.00    -0.213 C  
BRANCH   8   9
HETATM    9  C   UNL     1     -10.899   9.936  70.264  1.00  0.00    -0.367 C  
BRANCH   9  10
HETATM   10  C   UNL     1     -12.315   9.624  70.739  1.00  0.00    -0.279 C  
BRANCH  10  11
HETATM   11  C   UNL     1     -12.742  10.580  71.849  1.00  0.00    -0.436 C  
BRANCH  11  12
HETATM   12  C   UNL     1     -12.683  12.029  71.373  1.00  0.00    -0.380 C  
BRANCH  12  13
HETATM   13  C   UNL     1     -13.648  12.906  72.166  1.00  0.00    -0.589 C  
BRANCH  13  14
HETATM   14  C   UNL     1     -13.317  14.386  71.983  1.00  0.00    -0.469 C  
BRANCH  14  15
HETATM   15  C   UNL     1     -12.814  15.002  73.285  1.00  0.00    -0.647 C  
BRANCH  15  16
HETATM   16  C   UNL     1     -12.133  16.340  73.038  1.00  0.00    -0.530 C  
HETATM   17  O   UNL     1     -11.825  16.476  71.659  1.00  0.00    -0.665 OA 
HETATM   18  H   UNL     1     -11.399  17.311  71.505  1.00  0.00     0.000 HD 
ENDBRANCH  15  16
ENDBRANCH  14  15
ENDBRANCH  13  14
ENDBRANCH  12  13
ENDBRANCH  11  12
ENDBRANCH  10  11
ENDBRANCH   9  10
ENDBRANCH   8   9
ENDBRANCH   7   8
ENDBRANCH   6   7
ENDBRANCH   5   6
ENDBRANCH   4   5
ENDBRANCH   3   4
ENDBRANCH   2   3
TORSDOF 14
ENDMDL
MODEL      210
REMARK 921   NORMALIZED FREE ENERGY PREDICTED BY IDOCK:   -3.05 KCAL/MOL
REMARK 922        TOTAL FREE ENERGY PREDICTED BY IDOCK:   -6.93 KCAL/MOL
REMARK 923 INTER-LIGAND FREE ENERGY PREDICTED BY IDOCK:   -5.51 KCAL/MOL
REMARK 924 INTRA-LIGAND FREE ENERGY PREDICTED BY IDOCK:   -1.42 KCAL/MOL
REMARK 927      BINDING AFFINITY PREDICTED BY RF-SCORE:    0.00 PKD
ROOT
HETATM    1  C   UNL     1     -10.607  15.997  69.805  1.00  0.00    -0.323 C  
HETATM    2  C   UNL     1     -11.211  15.361  68.566  1.00  0.00    -0.321 C  
ENDROOT
BRANCH   2   3
HETATM    3  C   UNL     1     -10.588  15.930  67.293  1.00  0.00    -0.314 C  
BRANCH   3   4
HETATM    4  C   UNL     1      -9.550  14.974  66.708  1.00  0.00    -0.260 C  
BRANCH   4   5
HETATM    5  C   UNL     1      -9.824  13.537  67.144  1.00  0.00    -0.245 C  
BRANCH   5   6
HETATM    6  C   UNL     1      -8.604  12.928  67.825  1.00  0.00    -0.185 C  
BRANCH   6   7
HETATM    7  C   UNL     1      -7.856  11.999  66.872  1.00  0.00    -0.095 C  
BRANCH   7   8
HETATM    8  C   UNL     1      -8.821  11.308  65.913  1.00  0.00    -0.174 C  
BRANCH   8   9
HETATM    9  C   UNL     1      -8.914   9.816  66.217  1.00  0.00    -0.180 C  
BRANCH   9  10
HETATM   10  C   UNL     1     -10.344   9.421  66.574  1.00  0.00    -0.268 C  
BRANCH  10  11
HETATM   11  C   UNL     1     -10.549   9.419  68.086  1.00  0.00    -0.261 C  
BRANCH  11  12
HETATM   12  C   UNL     1     -11.370  10.628  68.527  1.00  0.00    -0.348 C  
BRANCH  12  13
HETATM   13  C   UNL     1     -11.169  10.914  70.013  1.00  0.00    -0.340 C  
BRANCH  13  14
HETATM   14  C   UNL     1     -11.813   9.827  70.870  1.00  0.00    -0.420 C  
BRANCH  14  15
HETATM   15  C   UNL     1     -13.221  10.227  71.300  1.00  0.00    -0.447 C  
BRANCH  15  16
HETATM   16  C   UNL     1     -13.950   9.067  71.963  1.00  0.00    -0.410 C  
HETATM   17  O   UNL     1     -13.322   8.747  73.195  1.00  0.00    -0.918 OA 
HETATM   18  H   UNL     1     -13.777   8.023  73.609  1.00  0.00     0.000 HD 
ENDBRANCH  15  16
ENDBRANCH  14  15
ENDBRANCH  13  14
ENDBRANCH  12  13
ENDBRANCH  11  12
ENDBRANCH  10  11
ENDBRANCH   9  10
ENDBRANCH   8   9
ENDBRANCH   7   8
ENDBRANCH   6   7
ENDBRANCH   5   6
ENDBRANCH   4   5
ENDBRANCH   3   4
ENDBRANCH   2   3
TORSDOF 14
ENDMDL
MODEL      211
REMARK 921   NORMALIZED FREE ENERGY PREDICTED BY IDOCK:   -3.05 KCAL/MOL
REMARK 922        TOTAL FREE ENERGY PREDICTED BY IDOCK:   -6.92 KCAL/MOL
REMARK 923 INTER-LIGAND FREE ENERGY PREDICTED BY IDOCK:   -6.14 KCAL/MOL
REMARK 924 INTRA-LIGAND FREE ENERGY PREDICTED BY IDOCK:   -0.78 KCAL/MOL
REMARK 927      BINDING AFFINITY PREDICTED BY RF-SCORE:    0.00 PKD
ROOT
HETATM    1  C   UNL     1     -10.025  20.015  66.415  1.00  0.00    -0.601 C  
HETATM    2  C   UNL     1     -10.902  19.450  67.519  1.00  0.00    -0.521 C  
ENDROOT
BRANCH   2   3
HETATM    3  C   UNL     1     -10.113  18.503  68.420  1.00  0.00    -0.423 C  
BRANCH   3   4
HETATM    4  C   UNL     1     -10.351  17.044  68.036  1.00  0.00    -0.341 C  
BRANCH   4   5
HETATM    5  C   UNL     1     -10.697  16.205  69.264  1.00  0.00    -0.295 C  
BRANCH   5   6
HETATM    6  C   UNL     1     -11.867  15.270  68.978  1.00  0.00    -0.342 C  
BRANCH   6   7
HETATM    7  C   UNL     1     -11.819  14.763  67.538  1.00  0.00    -0.326 C  
BRANCH   7   8
HETATM    8  C   UNL     1     -11.817  13.237  67.496  1.00  0.00    -0.403 C  
BRANCH   8   9
HETATM    9  C   UNL     1     -11.725  12.656  68.904  1.00  0.00    -0.370 C  
BRANCH   9  10
HETATM   10  C   UNL     1     -11.904  11.141  68.879  1.00  0.00    -0.406 C  
BRANCH  10  11
HETATM   11  C   UNL     1     -10.838  10.478  68.011  1.00  0.00    -0.312 C  
BRANCH  11  12
HETATM   12  C   UNL     1      -9.968   9.537  68.839  1.00  0.00    -0.187 C  
BRANCH  12  13
HETATM   13  C   UNL     1     -10.797   8.814  69.898  1.00  0.00    -0.211 C  
BRANCH  13  14
HETATM   14  C   UNL     1      -9.925   7.873  70.726  1.00  0.00    -0.192 C  
BRANCH  14  15
HETATM   15  C   UNL     1     -10.136   8.099  72.220  1.00  0.00    -0.338 C  
BRANCH  15  16
HETATM   16  C   UNL     1     -11.605   7.984  72.597  1.00  0.00    -0.387 C  
HETATM   17  O   UNL     1     -11.962   6.617  72.728  1.00  0.00    -0.483 OA 
HETATM   18  H   UNL     1     -12.880   6.545  72.964  1.00  0.00     0.000 HD 
ENDBRANCH  15  16
ENDBRANCH  14  15
ENDBRANCH  13  14
ENDBRANCH  12  13
ENDBRANCH  11  12
ENDBRANCH  10  11
ENDBRANCH   9  10
ENDBRANCH   8   9
ENDBRANCH   7   8
ENDBRANCH   6   7
ENDBRANCH   5   6
ENDBRANCH   4   5
ENDBRANCH   3   4
ENDBRANCH   2   3
TORSDOF 14
ENDMDL
MODEL      212
REMARK 921   NORMALIZED FREE ENERGY PREDICTED BY IDOCK:   -3.04 KCAL/MOL
REMARK 922        TOTAL FREE ENERGY PREDICTED BY IDOCK:   -6.91 KCAL/MOL
REMARK 923 INTER-LIGAND FREE ENERGY PREDICTED BY IDOCK:   -5.82 KCAL/MOL
REMARK 924 INTRA-LIGAND FREE ENERGY PREDICTED BY IDOCK:   -1.09 KCAL/MOL
REMARK 927      BINDING AFFINITY PREDICTED BY RF-SCORE:    0.00 PKD
ROOT
HETATM    1  C   UNL     1     -12.160  15.493  72.819  1.00  0.00    -0.551 C  
HETATM    2  C   UNL     1     -13.120  14.341  72.576  1.00  0.00    -0.550 C  
ENDROOT
BRANCH   2   3
HETATM    3  C   UNL     1     -12.856  13.677  71.226  1.00  0.00    -0.424 C  
BRANCH   3   4
HETATM    4  C   UNL     1     -12.206  14.651  70.246  1.00  0.00    -0.389 C  
BRANCH   4   5
HETATM    5  C   UNL     1     -11.582  13.906  69.069  1.00  0.00    -0.351 C  
BRANCH   5   6
HETATM    6  C   UNL     1     -12.102  14.445  67.740  1.00  0.00    -0.304 C  
BRANCH   6   7
HETATM    7  C   UNL     1     -12.244  13.322  66.715  1.00  0.00    -0.340 C  
BRANCH   7   8
HETATM    8  C   UNL     1     -11.299  13.537  65.536  1.00  0.00    -0.310 C  
BRANCH   8   9
HETATM    9  C   UNL     1     -10.215  12.464  65.505  1.00  0.00    -0.297 C  
BRANCH   9  10
HETATM   10  C   UNL     1     -10.616  11.262  66.355  1.00  0.00    -0.316 C  
BRANCH  10  11
HETATM   11  C   UNL     1      -9.693  10.075  66.094  1.00  0.00    -0.286 C  
BRANCH  11  12
HETATM   12  C   UNL     1     -10.070   8.888  66.975  1.00  0.00    -0.331 C  
BRANCH  12  13
HETATM   13  C   UNL     1     -10.905   9.337  68.172  1.00  0.00    -0.145 C  
BRANCH  13  14
HETATM   14  C   UNL     1     -10.142   9.131  69.478  1.00  0.00    -0.202 C  
BRANCH  14  15
HETATM   15  C   UNL     1     -10.760   9.947  70.611  1.00  0.00    -0.372 C  
BRANCH  15  16
HETATM   16  C   UNL     1     -11.272   9.048  71.726  1.00  0.00    -0.378 C  
HETATM   17  O   UNL     1     -11.757   7.832  71.179  1.00  0.00    -0.279 OA 
HETATM   18  H   UNL     1     -12.078   7.271  71.876  1.00  0.00     0.000 HD 
ENDBRANCH  15  16
ENDBRANCH  14  15
ENDBRANCH  13  14
ENDBRANCH  12  13
ENDBRANCH  11  12
ENDBRANCH  10  11
ENDBRANCH   9  10
ENDBRANCH   8   9
ENDBRANCH   7   8
ENDBRANCH   6   7
ENDBRANCH   5   6
ENDBRANCH   4   5
ENDBRANCH   3   4
ENDBRANCH   2   3
TORSDOF 14
ENDMDL
MODEL      213
REMARK 921   NORMALIZED FREE ENERGY PREDICTED BY IDOCK:   -3.04 KCAL/MOL
REMARK 922        TOTAL FREE ENERGY PREDICTED BY IDOCK:   -6.91 KCAL/MOL
REMARK 923 INTER-LIGAND FREE ENERGY PREDICTED BY IDOCK:   -5.75 KCAL/MOL
REMARK 924 INTRA-LIGAND FREE ENERGY PREDICTED BY IDOCK:   -1.16 KCAL/MOL
REMARK 927      BINDING AFFINITY PREDICTED BY RF-SCORE:    0.00 PKD
ROOT
HETATM    1  C   UNL     1     -13.210  15.810  72.898  1.00  0.00    -0.640 C  
HETATM    2  C   UNL     1     -11.987  15.298  72.158  1.00  0.00    -0.503 C  
ENDROOT
BRANCH   2   3
HETATM    3  C   UNL     1     -12.380  14.595  70.860  1.00  0.00    -0.406 C  
BRANCH   3   4
HETATM    4  C   UNL     1     -12.210  13.082  70.974  1.00  0.00    -0.232 C  
BRANCH   4   5
HETATM    5  C   UNL     1     -11.721  12.487  69.656  1.00  0.00    -0.372 C  
BRANCH   5   6
HETATM    6  C   UNL     1     -11.608  10.969  69.748  1.00  0.00    -0.401 C  
BRANCH   6   7
HETATM    7  C   UNL     1     -10.278  10.487  69.174  1.00  0.00    -0.241 C  
BRANCH   7   8
HETATM    8  C   UNL     1     -10.319  10.460  67.648  1.00  0.00    -0.260 C  
BRANCH   8   9
HETATM    9  C   UNL     1      -9.033  11.033  67.060  1.00  0.00    -0.151 C  
BRANCH   9  10
HETATM   10  C   UNL     1      -8.268  11.838  68.106  1.00  0.00    -0.153 C  
BRANCH  10  11
HETATM   11  C   UNL     1      -7.876  13.209  67.562  1.00  0.00    -0.173 C  
BRANCH  11  12
HETATM   12  C   UNL     1      -8.916  14.261  67.936  1.00  0.00    -0.186 C  
BRANCH  12  13
HETATM   13  C   UNL     1      -8.867  15.445  66.973  1.00  0.00    -0.252 C  
BRANCH  13  14
HETATM   14  C   UNL     1     -10.264  16.019  66.743  1.00  0.00    -0.275 C  
BRANCH  14  15
HETATM   15  C   UNL     1     -10.997  15.259  65.642  1.00  0.00    -0.348 C  
BRANCH  15  16
HETATM   16  C   UNL     1     -11.364  16.175  64.485  1.00  0.00    -0.267 C  
HETATM   17  O   UNL     1     -12.317  15.536  63.650  1.00  0.00    -0.883 OA 
HETATM   18  H   UNL     1     -12.547  16.108  62.926  1.00  0.00     0.000 HD 
ENDBRANCH  15  16
ENDBRANCH  14  15
ENDBRANCH  13  14
ENDBRANCH  12  13
ENDBRANCH  11  12
ENDBRANCH  10  11
ENDBRANCH   9  10
ENDBRANCH   8   9
ENDBRANCH   7   8
ENDBRANCH   6   7
ENDBRANCH   5   6
ENDBRANCH   4   5
ENDBRANCH   3   4
ENDBRANCH   2   3
TORSDOF 14
ENDMDL
MODEL      214
REMARK 921   NORMALIZED FREE ENERGY PREDICTED BY IDOCK:   -3.04 KCAL/MOL
REMARK 922        TOTAL FREE ENERGY PREDICTED BY IDOCK:   -6.91 KCAL/MOL
REMARK 923 INTER-LIGAND FREE ENERGY PREDICTED BY IDOCK:   -4.60 KCAL/MOL
REMARK 924 INTRA-LIGAND FREE ENERGY PREDICTED BY IDOCK:   -2.30 KCAL/MOL
REMARK 927      BINDING AFFINITY PREDICTED BY RF-SCORE:    0.00 PKD
ROOT
HETATM    1  C   UNL     1      -9.757   6.157  67.826  1.00  0.00    -0.118 C  
HETATM    2  C   UNL     1     -10.714   7.241  67.363  1.00  0.00    -0.358 C  
ENDROOT
BRANCH   2   3
HETATM    3  C   UNL     1      -9.982   8.319  66.565  1.00  0.00    -0.320 C  
BRANCH   3   4
HETATM    4  C   UNL     1      -8.478   8.278  66.826  1.00  0.00    -0.122 C  
BRANCH   4   5
HETATM    5  C   UNL     1      -7.963   9.644  67.269  1.00  0.00    -0.106 C  
BRANCH   5   6
HETATM    6  C   UNL     1      -7.055   9.520  68.488  1.00  0.00    -0.070 C  
BRANCH   6   7
HETATM    7  C   UNL     1      -7.726   8.694  69.584  1.00  0.00    -0.089 C  
BRANCH   7   8
HETATM    8  C   UNL     1      -8.560   9.581  70.503  1.00  0.00    -0.231 C  
BRANCH   8   9
HETATM    9  C   UNL     1      -9.982   9.042  70.635  1.00  0.00    -0.287 C  
BRANCH   9  10
HETATM   10  C   UNL     1     -11.005  10.162  70.480  1.00  0.00    -0.380 C  
BRANCH  10  11
HETATM   11  C   UNL     1     -10.645  11.073  69.310  1.00  0.00    -0.236 C  
BRANCH  11  12
HETATM   12  C   UNL     1     -11.777  11.121  68.288  1.00  0.00    -0.323 C  
BRANCH  12  13
HETATM   13  C   UNL     1     -11.299  11.723  66.968  1.00  0.00    -0.387 C  
BRANCH  13  14
HETATM   14  C   UNL     1     -11.881  13.119  66.762  1.00  0.00    -0.444 C  
BRANCH  14  15
HETATM   15  C   UNL     1     -10.879  14.198  67.161  1.00  0.00    -0.291 C  
BRANCH  15  16
HETATM   16  C   UNL     1     -11.221  14.802  68.514  1.00  0.00    -0.276 C  
HETATM   17  O   UNL     1     -12.486  14.326  68.947  1.00  0.00    -0.563 OA 
HETATM   18  H   UNL     1     -12.700  14.703  69.792  1.00  0.00     0.000 HD 
ENDBRANCH  15  16
ENDBRANCH  14  15
ENDBRANCH  13  14
ENDBRANCH  12  13
ENDBRANCH  11  12
ENDBRANCH  10  11
ENDBRANCH   9  10
ENDBRANCH   8   9
ENDBRANCH   7   8
ENDBRANCH   6   7
ENDBRANCH   5   6
ENDBRANCH   4   5
ENDBRANCH   3   4
ENDBRANCH   2   3
TORSDOF 14
ENDMDL
MODEL      215
REMARK 921   NORMALIZED FREE ENERGY PREDICTED BY IDOCK:   -3.03 KCAL/MOL
REMARK 922        TOTAL FREE ENERGY PREDICTED BY IDOCK:   -6.89 KCAL/MOL
REMARK 923 INTER-LIGAND FREE ENERGY PREDICTED BY IDOCK:   -5.74 KCAL/MOL
REMARK 924 INTRA-LIGAND FREE ENERGY PREDICTED BY IDOCK:   -1.16 KCAL/MOL
REMARK 927      BINDING AFFINITY PREDICTED BY RF-SCORE:    0.00 PKD
ROOT
HETATM    1  C   UNL     1      -9.958  20.332  67.060  1.00  0.00    -0.601 C  
HETATM    2  C   UNL     1     -10.318  19.207  66.106  1.00  0.00    -0.561 C  
ENDROOT
BRANCH   2   3
HETATM    3  C   UNL     1     -10.613  17.914  66.863  1.00  0.00    -0.271 C  
BRANCH   3   4
HETATM    4  C   UNL     1     -10.053  16.699  66.126  1.00  0.00    -0.361 C  
BRANCH   4   5
HETATM    5  C   UNL     1     -11.033  16.205  65.064  1.00  0.00    -0.357 C  
BRANCH   5   6
HETATM    6  C   UNL     1     -10.948  14.691  64.902  1.00  0.00    -0.419 C  
BRANCH   6   7
HETATM    7  C   UNL     1     -12.290  14.116  64.454  1.00  0.00    -0.410 C  
BRANCH   7   8
HETATM    8  C   UNL     1     -12.253  12.590  64.441  1.00  0.00    -0.528 C  
BRANCH   8   9
HETATM    9  C   UNL     1     -11.101  12.082  63.580  1.00  0.00    -0.519 C  
BRANCH   9  10
HETATM   10  C   UNL     1     -10.204  11.138  64.374  1.00  0.00    -0.390 C  
BRANCH  10  11
HETATM   11  C   UNL     1     -10.600  11.117  65.847  1.00  0.00    -0.294 C  
BRANCH  11  12
HETATM   12  C   UNL     1      -9.368  11.009  66.741  1.00  0.00    -0.199 C  
BRANCH  12  13
HETATM   13  C   UNL     1      -9.248  12.224  67.658  1.00  0.00    -0.183 C  
BRANCH  13  14
HETATM   14  C   UNL     1      -7.847  12.827  67.585  1.00  0.00    -0.165 C  
BRANCH  14  15
HETATM   15  C   UNL     1      -7.906  14.333  67.348  1.00  0.00    -0.207 C  
BRANCH  15  16
HETATM   16  C   UNL     1      -6.699  15.037  67.947  1.00  0.00    -0.156 C  
HETATM   17  O   UNL     1      -6.754  16.424  67.648  1.00  0.00    -0.116 OA 
HETATM   18  H   UNL     1      -5.999  16.864  68.021  1.00  0.00     0.000 HD 
ENDBRANCH  15  16
ENDBRANCH  14  15
ENDBRANCH  13  14
ENDBRANCH  12  13
ENDBRANCH  11  12
ENDBRANCH  10  11
ENDBRANCH   9  10
ENDBRANCH   8   9
ENDBRANCH   7   8
ENDBRANCH   6   7
ENDBRANCH   5   6
ENDBRANCH   4   5
ENDBRANCH   3   4
ENDBRANCH   2   3
TORSDOF 14
ENDMDL
MODEL      216
REMARK 921   NORMALIZED FREE ENERGY PREDICTED BY IDOCK:   -3.02 KCAL/MOL
REMARK 922        TOTAL FREE ENERGY PREDICTED BY IDOCK:   -6.88 KCAL/MOL
REMARK 923 INTER-LIGAND FREE ENERGY PREDICTED BY IDOCK:   -5.29 KCAL/MOL
REMARK 924 INTRA-LIGAND FREE ENERGY PREDICTED BY IDOCK:   -1.59 KCAL/MOL
REMARK 927      BINDING AFFINITY PREDICTED BY RF-SCORE:    0.00 PKD
ROOT
HETATM    1  C   UNL     1     -10.520   7.386  67.374  1.00  0.00    -0.366 C  
HETATM    2  C   UNL     1     -10.703   8.810  66.877  1.00  0.00    -0.151 C  
ENDROOT
BRANCH   2   3
HETATM    3  C   UNL     1      -9.490   9.673  67.216  1.00  0.00    -0.175 C  
BRANCH   3   4
HETATM    4  C   UNL     1      -9.116  10.587  66.051  1.00  0.00    -0.191 C  
BRANCH   4   5
HETATM    5  C   UNL     1      -9.837  10.165  64.773  1.00  0.00    -0.382 C  
BRANCH   5   6
HETATM    6  C   UNL     1      -9.420  11.038  63.594  1.00  0.00    -0.298 C  
BRANCH   6   7
HETATM    7  C   UNL     1     -10.262  12.311  63.536  1.00  0.00    -0.410 C  
BRANCH   7   8
HETATM    8  C   UNL     1     -11.750  11.978  63.470  1.00  0.00    -0.566 C  
BRANCH   8   9
HETATM    9  C   UNL     1     -12.502  12.617  64.634  1.00  0.00    -0.538 C  
BRANCH   9  10
HETATM   10  C   UNL     1     -12.185  14.106  64.733  1.00  0.00    -0.457 C  
BRANCH  10  11
HETATM   11  C   UNL     1     -12.205  14.573  66.186  1.00  0.00    -0.268 C  
BRANCH  11  12
HETATM   12  C   UNL     1     -11.442  13.602  67.082  1.00  0.00    -0.367 C  
BRANCH  12  13
HETATM   13  C   UNL     1      -9.981  14.022  67.225  1.00  0.00    -0.242 C  
BRANCH  13  14
HETATM   14  C   UNL     1      -9.823  15.527  67.024  1.00  0.00    -0.236 C  
BRANCH  14  15
HETATM   15  C   UNL     1      -8.420  15.990  67.404  1.00  0.00    -0.187 C  
BRANCH  15  16
HETATM   16  C   UNL     1      -8.340  16.369  68.875  1.00  0.00    -0.234 C  
HETATM   17  O   UNL     1      -6.989  16.616  69.235  1.00  0.00    -0.223 OA 
HETATM   18  H   UNL     1      -6.939  16.852  70.154  1.00  0.00     0.000 HD 
ENDBRANCH  15  16
ENDBRANCH  14  15
ENDBRANCH  13  14
ENDBRANCH  12  13
ENDBRANCH  11  12
ENDBRANCH  10  11
ENDBRANCH   9  10
ENDBRANCH   8   9
ENDBRANCH   7   8
ENDBRANCH   6   7
ENDBRANCH   5   6
ENDBRANCH   4   5
ENDBRANCH   3   4
ENDBRANCH   2   3
TORSDOF 14
ENDMDL
MODEL      217
REMARK 921   NORMALIZED FREE ENERGY PREDICTED BY IDOCK:   -3.02 KCAL/MOL
REMARK 922        TOTAL FREE ENERGY PREDICTED BY IDOCK:   -6.86 KCAL/MOL
REMARK 923 INTER-LIGAND FREE ENERGY PREDICTED BY IDOCK:   -6.13 KCAL/MOL
REMARK 924 INTRA-LIGAND FREE ENERGY PREDICTED BY IDOCK:   -0.74 KCAL/MOL
REMARK 927      BINDING AFFINITY PREDICTED BY RF-SCORE:    0.00 PKD
ROOT
HETATM    1  C   UNL     1     -10.020  19.689  66.016  1.00  0.00    -0.508 C  
HETATM    2  C   UNL     1     -10.936  19.611  67.225  1.00  0.00    -0.412 C  
ENDROOT
BRANCH   2   3
HETATM    3  C   UNL     1     -10.234  18.945  68.407  1.00  0.00    -0.433 C  
BRANCH   3   4
HETATM    4  C   UNL     1      -9.739  17.547  68.043  1.00  0.00    -0.287 C  
BRANCH   4   5
HETATM    5  C   UNL     1     -10.880  16.533  68.093  1.00  0.00    -0.345 C  
BRANCH   5   6
HETATM    6  C   UNL     1     -10.930  15.700  66.817  1.00  0.00    -0.230 C  
BRANCH   6   7
HETATM    7  C   UNL     1     -11.539  14.326  67.088  1.00  0.00    -0.402 C  
BRANCH   7   8
HETATM    8  C   UNL     1     -12.550  13.955  66.006  1.00  0.00    -0.467 C  
BRANCH   8   9
HETATM    9  C   UNL     1     -12.221  12.595  65.398  1.00  0.00    -0.517 C  
BRANCH   9  10
HETATM   10  C   UNL     1     -11.206  11.847  66.257  1.00  0.00    -0.392 C  
BRANCH  10  11
HETATM   11  C   UNL     1     -10.549  10.717  65.469  1.00  0.00    -0.205 C  
BRANCH  11  12
HETATM   12  C   UNL     1     -10.006   9.643  66.406  1.00  0.00    -0.323 C  
BRANCH  12  13
HETATM   13  C   UNL     1      -9.090   8.676  65.660  1.00  0.00    -0.221 C  
BRANCH  13  14
HETATM   14  C   UNL     1      -9.169   7.275  66.262  1.00  0.00    -0.175 C  
BRANCH  14  15
HETATM   15  C   UNL     1     -10.041   7.261  67.513  1.00  0.00    -0.250 C  
BRANCH  15  16
HETATM   16  C   UNL     1     -10.972   6.057  67.528  1.00  0.00    -0.234 C  
HETATM   17  O   UNL     1     -11.070   5.510  66.222  1.00  0.00    -0.727 OA 
HETATM   18  H   UNL     1     -11.652   4.759  66.230  1.00  0.00     0.000 HD 
ENDBRANCH  15  16
ENDBRANCH  14  15
ENDBRANCH  13  14
ENDBRANCH  12  13
ENDBRANCH  11  12
ENDBRANCH  10  11
ENDBRANCH   9  10
ENDBRANCH   8   9
ENDBRANCH   7   8
ENDBRANCH   6   7
ENDBRANCH   5   6
ENDBRANCH   4   5
ENDBRANCH   3   4
ENDBRANCH   2   3
TORSDOF 14
ENDMDL
MODEL      218
REMARK 921   NORMALIZED FREE ENERGY PREDICTED BY IDOCK:   -3.01 KCAL/MOL
REMARK 922        TOTAL FREE ENERGY PREDICTED BY IDOCK:   -6.86 KCAL/MOL
REMARK 923 INTER-LIGAND FREE ENERGY PREDICTED BY IDOCK:   -5.46 KCAL/MOL
REMARK 924 INTRA-LIGAND FREE ENERGY PREDICTED BY IDOCK:   -1.40 KCAL/MOL
REMARK 927      BINDING AFFINITY PREDICTED BY RF-SCORE:    0.00 PKD
ROOT
HETATM    1  C   UNL     1     -11.391  13.243  64.250  1.00  0.00    -0.428 C  
HETATM    2  C   UNL     1     -12.545  13.370  65.230  1.00  0.00    -0.518 C  
ENDROOT
BRANCH   2   3
HETATM    3  C   UNL     1     -12.127  14.144  66.478  1.00  0.00    -0.481 C  
BRANCH   3   4
HETATM    4  C   UNL     1     -10.985  15.111  66.175  1.00  0.00    -0.331 C  
BRANCH   4   5
HETATM    5  C   UNL     1      -9.881  14.999  67.223  1.00  0.00    -0.228 C  
BRANCH   5   6
HETATM    6  C   UNL     1      -8.762  14.079  66.746  1.00  0.00    -0.134 C  
BRANCH   6   7
HETATM    7  C   UNL     1      -7.909  13.605  67.920  1.00  0.00    -0.159 C  
BRANCH   7   8
HETATM    8  C   UNL     1      -6.475  14.110  67.793  1.00  0.00    -0.181 C  
BRANCH   8   9
HETATM    9  C   UNL     1      -5.925  14.533  69.152  1.00  0.00    -0.094 C  
BRANCH   9  10
HETATM   10  C   UNL     1      -6.397  15.937  69.516  1.00  0.00    -0.173 C  
BRANCH  10  11
HETATM   11  C   UNL     1      -6.560  16.800  68.269  1.00  0.00    -0.152 C  
BRANCH  11  12
HETATM   12  C   UNL     1      -7.314  18.087  68.591  1.00  0.00    -0.286 C  
BRANCH  12  13
HETATM   13  C   UNL     1      -8.557  18.227  67.716  1.00  0.00    -0.263 C  
BRANCH  13  14
HETATM   14  C   UNL     1      -9.593  19.133  68.379  1.00  0.00    -0.437 C  
BRANCH  14  15
HETATM   15  C   UNL     1     -10.825  19.301  67.495  1.00  0.00    -0.524 C  
BRANCH  15  16
HETATM   16  C   UNL     1     -10.439  19.661  66.068  1.00  0.00    -0.523 C  
HETATM   17  O   UNL     1     -10.968  18.698  65.170  1.00  0.00    -0.543 OA 
HETATM   18  H   UNL     1     -10.727  18.923  64.279  1.00  0.00     0.000 HD 
ENDBRANCH  15  16
ENDBRANCH  14  15
ENDBRANCH  13  14
ENDBRANCH  12  13
ENDBRANCH  11  12
ENDBRANCH  10  11
ENDBRANCH   9  10
ENDBRANCH   8   9
ENDBRANCH   7   8
ENDBRANCH   6   7
ENDBRANCH   5   6
ENDBRANCH   4   5
ENDBRANCH   3   4
ENDBRANCH   2   3
TORSDOF 14
ENDMDL
MODEL      219
REMARK 921   NORMALIZED FREE ENERGY PREDICTED BY IDOCK:   -3.01 KCAL/MOL
REMARK 922        TOTAL FREE ENERGY PREDICTED BY IDOCK:   -6.85 KCAL/MOL
REMARK 923 INTER-LIGAND FREE ENERGY PREDICTED BY IDOCK:   -5.69 KCAL/MOL
REMARK 924 INTRA-LIGAND FREE ENERGY PREDICTED BY IDOCK:   -1.17 KCAL/MOL
REMARK 927      BINDING AFFINITY PREDICTED BY RF-SCORE:    0.00 PKD
ROOT
HETATM    1  C   UNL     1     -12.870  15.366  70.786  1.00  0.00    -0.524 C  
HETATM    2  C   UNL     1     -13.810  15.176  71.965  1.00  0.00    -0.608 C  
ENDROOT
BRANCH   2   3
HETATM    3  C   UNL     1     -13.779  13.734  72.468  1.00  0.00    -0.667 C  
BRANCH   3   4
HETATM    4  C   UNL     1     -13.077  12.813  71.473  1.00  0.00    -0.380 C  
BRANCH   4   5
HETATM    5  C   UNL     1     -13.183  11.355  71.910  1.00  0.00    -0.485 C  
BRANCH   5   6
HETATM    6  C   UNL     1     -13.004  10.412  70.724  1.00  0.00    -0.422 C  
BRANCH   6   7
HETATM    7  C   UNL     1     -12.097  11.036  69.666  1.00  0.00    -0.411 C  
BRANCH   7   8
HETATM    8  C   UNL     1     -10.685  10.464  69.751  1.00  0.00    -0.325 C  
BRANCH   8   9
HETATM    9  C   UNL     1     -10.575   9.454  70.890  1.00  0.00    -0.390 C  
BRANCH   9  10
HETATM   10  C   UNL     1      -9.900   8.172  70.416  1.00  0.00    -0.188 C  
BRANCH  10  11
HETATM   11  C   UNL     1     -10.777   7.430  69.411  1.00  0.00    -0.220 C  
BRANCH  11  12
HETATM   12  C   UNL     1      -9.924   6.646  68.418  1.00  0.00    -0.146 C  
BRANCH  12  13
HETATM   13  C   UNL     1      -8.877   7.546  67.766  1.00  0.00    -0.132 C  
BRANCH  13  14
HETATM   14  C   UNL     1      -9.429   8.199  66.501  1.00  0.00    -0.286 C  
BRANCH  14  15
HETATM   15  C   UNL     1      -9.602   9.703  66.688  1.00  0.00    -0.241 C  
BRANCH  15  16
HETATM   16  C   UNL     1      -8.269  10.387  66.953  1.00  0.00    -0.124 C  
HETATM   17  O   UNL     1      -8.491  11.696  67.454  1.00  0.00    -0.140 OA 
HETATM   18  H   UNL     1      -7.658  12.123  67.619  1.00  0.00     0.000 HD 
ENDBRANCH  15  16
ENDBRANCH  14  15
ENDBRANCH  13  14
ENDBRANCH  12  13
ENDBRANCH  11  12
ENDBRANCH  10  11
ENDBRANCH   9  10
ENDBRANCH   8   9
ENDBRANCH   7   8
ENDBRANCH   6   7
ENDBRANCH   5   6
ENDBRANCH   4   5
ENDBRANCH   3   4
ENDBRANCH   2   3
TORSDOF 14
ENDMDL
MODEL      220
REMARK 921   NORMALIZED FREE ENERGY PREDICTED BY IDOCK:   -3.00 KCAL/MOL
REMARK 922        TOTAL FREE ENERGY PREDICTED BY IDOCK:   -6.83 KCAL/MOL
REMARK 923 INTER-LIGAND FREE ENERGY PREDICTED BY IDOCK:   -5.77 KCAL/MOL
REMARK 924 INTRA-LIGAND FREE ENERGY PREDICTED BY IDOCK:   -1.06 KCAL/MOL
REMARK 927      BINDING AFFINITY PREDICTED BY RF-SCORE:    0.00 PKD
ROOT
HETATM    1  C   UNL     1     -10.043   5.098  68.041  1.00  0.00    -0.189 C  
HETATM    2  C   UNL     1     -10.247   5.813  66.716  1.00  0.00    -0.269 C  
ENDROOT
BRANCH   2   3
HETATM    3  C   UNL     1     -10.862   7.195  66.923  1.00  0.00    -0.307 C  
BRANCH   3   4
HETATM    4  C   UNL     1      -9.790   8.283  66.938  1.00  0.00    -0.316 C  
BRANCH   4   5
HETATM    5  C   UNL     1     -10.275   9.537  66.215  1.00  0.00    -0.290 C  
BRANCH   5   6
HETATM    6  C   UNL     1      -9.192  10.094  65.297  1.00  0.00    -0.257 C  
BRANCH   6   7
HETATM    7  C   UNL     1      -9.807  10.928  64.175  1.00  0.00    -0.369 C  
BRANCH   7   8
HETATM    8  C   UNL     1     -11.220  11.376  64.539  1.00  0.00    -0.251 C  
BRANCH   8   9
HETATM    9  C   UNL     1     -11.247  12.863  64.880  1.00  0.00    -0.331 C  
BRANCH   9  10
HETATM   10  C   UNL     1     -12.119  13.124  66.105  1.00  0.00    -0.479 C  
BRANCH  10  11
HETATM   11  C   UNL     1     -11.288  13.090  67.385  1.00  0.00    -0.347 C  
BRANCH  11  12
HETATM   12  C   UNL     1     -11.817  12.032  68.350  1.00  0.00    -0.360 C  
BRANCH  12  13
HETATM   13  C   UNL     1     -11.757  12.529  69.792  1.00  0.00    -0.355 C  
BRANCH  13  14
HETATM   14  C   UNL     1     -12.599  13.790  69.971  1.00  0.00    -0.207 C  
BRANCH  14  15
HETATM   15  C   UNL     1     -12.353  14.428  71.335  1.00  0.00    -0.433 C  
BRANCH  15  16
HETATM   16  C   UNL     1     -13.519  14.183  72.281  1.00  0.00    -0.482 C  
HETATM   17  O   UNL     1     -13.595  15.233  73.232  1.00  0.00    -0.530 OA 
HETATM   18  H   UNL     1     -14.322  15.080  73.823  1.00  0.00     0.000 HD 
ENDBRANCH  15  16
ENDBRANCH  14  15
ENDBRANCH  13  14
ENDBRANCH  12  13
ENDBRANCH  11  12
ENDBRANCH  10  11
ENDBRANCH   9  10
ENDBRANCH   8   9
ENDBRANCH   7   8
ENDBRANCH   6   7
ENDBRANCH   5   6
ENDBRANCH   4   5
ENDBRANCH   3   4
ENDBRANCH   2   3
TORSDOF 14
ENDMDL
MODEL      221
REMARK 921   NORMALIZED FREE ENERGY PREDICTED BY IDOCK:   -3.00 KCAL/MOL
REMARK 922        TOTAL FREE ENERGY PREDICTED BY IDOCK:   -6.83 KCAL/MOL
REMARK 923 INTER-LIGAND FREE ENERGY PREDICTED BY IDOCK:   -4.90 KCAL/MOL
REMARK 924 INTRA-LIGAND FREE ENERGY PREDICTED BY IDOCK:   -1.93 KCAL/MOL
REMARK 927      BINDING AFFINITY PREDICTED BY RF-SCORE:    0.00 PKD
ROOT
HETATM    1  C   UNL     1     -13.254  10.644  71.717  1.00  0.00    -0.526 C  
HETATM    2  C   UNL     1     -13.580   9.371  72.480  1.00  0.00    -0.441 C  
ENDROOT
BRANCH   2   3
HETATM    3  C   UNL     1     -14.354   8.386  71.606  1.00  0.00    -0.536 C  
BRANCH   3   4
HETATM    4  C   UNL     1     -13.635   7.042  71.515  1.00  0.00    -0.355 C  
BRANCH   4   5
HETATM    5  C   UNL     1     -12.192   7.225  71.050  1.00  0.00    -0.350 C  
BRANCH   5   6
HETATM    6  C   UNL     1     -11.350   5.998  71.380  1.00  0.00    -0.301 C  
BRANCH   6   7
HETATM    7  C   UNL     1     -10.320   6.319  72.461  1.00  0.00    -0.214 C  
BRANCH   7   8
HETATM    8  C   UNL     1     -10.422   7.779  72.895  1.00  0.00    -0.412 C  
BRANCH   8   9
HETATM    9  C   UNL     1      -9.098   8.505  72.672  1.00  0.00    -0.256 C  
BRANCH   9  10
HETATM   10  C   UNL     1      -8.014   7.533  72.218  1.00  0.00    -0.115 C  
BRANCH  10  11
HETATM   11  C   UNL     1      -7.343   8.021  70.937  1.00  0.00    -0.058 C  
BRANCH  11  12
HETATM   12  C   UNL     1      -8.133   7.582  69.707  1.00  0.00    -0.126 C  
BRANCH  12  13
HETATM   13  C   UNL     1      -8.715   8.786  68.971  1.00  0.00    -0.133 C  
BRANCH  13  14
HETATM   14  C   UNL     1     -10.226   8.646  68.802  1.00  0.00    -0.224 C  
BRANCH  14  15
HETATM   15  C   UNL     1     -10.900  10.012  68.720  1.00  0.00    -0.252 C  
BRANCH  15  16
HETATM   16  C   UNL     1      -9.875  11.135  68.662  1.00  0.00    -0.202 C  
HETATM   17  O   UNL     1     -10.376  12.278  69.338  1.00  0.00    -0.403 OA 
HETATM   18  H   UNL     1      -9.736  12.979  69.302  1.00  0.00     0.000 HD 
ENDBRANCH  15  16
ENDBRANCH  14  15
ENDBRANCH  13  14
ENDBRANCH  12  13
ENDBRANCH  11  12
ENDBRANCH  10  11
ENDBRANCH   9  10
ENDBRANCH   8   9
ENDBRANCH   7   8
ENDBRANCH   6   7
ENDBRANCH   5   6
ENDBRANCH   4   5
ENDBRANCH   3   4
ENDBRANCH   2   3
TORSDOF 14
ENDMDL
MODEL      222
REMARK 921   NORMALIZED FREE ENERGY PREDICTED BY IDOCK:   -3.00 KCAL/MOL
REMARK 922        TOTAL FREE ENERGY PREDICTED BY IDOCK:   -6.83 KCAL/MOL
REMARK 923 INTER-LIGAND FREE ENERGY PREDICTED BY IDOCK:   -5.29 KCAL/MOL
REMARK 924 INTRA-LIGAND FREE ENERGY PREDICTED BY IDOCK:   -1.54 KCAL/MOL
REMARK 927      BINDING AFFINITY PREDICTED BY RF-SCORE:    0.00 PKD
ROOT
HETATM    1  C   UNL     1      -7.659  11.211  68.320  1.00  0.00    -0.111 C  
HETATM    2  C   UNL     1      -9.123  11.085  68.706  1.00  0.00    -0.161 C  
ENDROOT
BRANCH   2   3
HETATM    3  C   UNL     1      -9.975  12.133  67.993  1.00  0.00    -0.203 C  
BRANCH   3   4
HETATM    4  C   UNL     1      -9.109  13.088  67.174  1.00  0.00    -0.225 C  
BRANCH   4   5
HETATM    5  C   UNL     1      -9.519  14.538  67.415  1.00  0.00    -0.202 C  
BRANCH   5   6
HETATM    6  C   UNL     1     -10.289  15.096  66.222  1.00  0.00    -0.303 C  
BRANCH   6   7
HETATM    7  C   UNL     1     -10.238  14.129  65.041  1.00  0.00    -0.399 C  
BRANCH   7   8
HETATM    8  C   UNL     1     -11.593  14.048  64.344  1.00  0.00    -0.385 C  
BRANCH   8   9
HETATM    9  C   UNL     1     -11.765  12.703  63.644  1.00  0.00    -0.597 C  
BRANCH   9  10
HETATM   10  C   UNL     1     -10.896  11.635  64.299  1.00  0.00    -0.418 C  
BRANCH  10  11
HETATM   11  C   UNL     1      -9.784  11.180  63.358  1.00  0.00    -0.382 C  
BRANCH  11  12
HETATM   12  C   UNL     1      -9.110   9.915  63.881  1.00  0.00    -0.298 C  
BRANCH  12  13
HETATM   13  C   UNL     1      -8.971   9.956  65.400  1.00  0.00    -0.220 C  
BRANCH  13  14
HETATM   14  C   UNL     1      -8.875   8.546  65.979  1.00  0.00    -0.208 C  
BRANCH  14  15
HETATM   15  C   UNL     1     -10.143   8.177  66.741  1.00  0.00    -0.365 C  
BRANCH  15  16
HETATM   16  C   UNL     1     -10.442   6.689  66.635  1.00  0.00    -0.152 C  
HETATM   17  O   UNL     1     -11.543   6.359  67.468  1.00  0.00    -0.663 OA 
HETATM   18  H   UNL     1     -11.729   5.429  67.401  1.00  0.00     0.000 HD 
ENDBRANCH  15  16
ENDBRANCH  14  15
ENDBRANCH  13  14
ENDBRANCH  12  13
ENDBRANCH  11  12
ENDBRANCH  10  11
ENDBRANCH   9  10
ENDBRANCH   8   9
ENDBRANCH   7   8
ENDBRANCH   6   7
ENDBRANCH   5   6
ENDBRANCH   4   5
ENDBRANCH   3   4
ENDBRANCH   2   3
TORSDOF 14
ENDMDL
MODEL      223
REMARK 921   NORMALIZED FREE ENERGY PREDICTED BY IDOCK:   -2.99 KCAL/MOL
REMARK 922        TOTAL FREE ENERGY PREDICTED BY IDOCK:   -6.82 KCAL/MOL
REMARK 923 INTER-LIGAND FREE ENERGY PREDICTED BY IDOCK:   -6.11 KCAL/MOL
REMARK 924 INTRA-LIGAND FREE ENERGY PREDICTED BY IDOCK:   -0.70 KCAL/MOL
REMARK 927      BINDING AFFINITY PREDICTED BY RF-SCORE:    0.00 PKD
ROOT
HETATM    1  C   UNL     1     -12.203  16.166  72.654  1.00  0.00    -0.625 C  
HETATM    2  C   UNL     1     -12.920  14.929  73.168  1.00  0.00    -0.627 C  
ENDROOT
BRANCH   2   3
HETATM    3  C   UNL     1     -13.944  14.424  72.154  1.00  0.00    -0.607 C  
BRANCH   3   4
HETATM    4  C   UNL     1     -13.378  14.443  70.736  1.00  0.00    -0.208 C  
BRANCH   4   5
HETATM    5  C   UNL     1     -12.197  13.485  70.607  1.00  0.00    -0.434 C  
BRANCH   5   6
HETATM    6  C   UNL     1     -11.309  13.864  69.426  1.00  0.00    -0.311 C  
BRANCH   6   7
HETATM    7  C   UNL     1     -12.118  14.573  68.343  1.00  0.00    -0.249 C  
BRANCH   7   8
HETATM    8  C   UNL     1     -11.477  14.382  66.971  1.00  0.00    -0.376 C  
BRANCH   8   9
HETATM    9  C   UNL     1     -11.964  13.091  66.319  1.00  0.00    -0.477 C  
BRANCH   9  10
HETATM   10  C   UNL     1     -10.800  12.142  66.056  1.00  0.00    -0.318 C  
BRANCH  10  11
HETATM   11  C   UNL     1     -10.502  11.288  67.286  1.00  0.00    -0.249 C  
BRANCH  11  12
HETATM   12  C   UNL     1      -9.964   9.919  66.880  1.00  0.00    -0.268 C  
BRANCH  12  13
HETATM   13  C   UNL     1      -9.746   9.032  68.104  1.00  0.00    -0.172 C  
BRANCH  13  14
HETATM   14  C   UNL     1     -10.065   7.573  67.785  1.00  0.00    -0.235 C  
BRANCH  14  15
HETATM   15  C   UNL     1      -9.515   6.640  68.860  1.00  0.00    -0.130 C  
BRANCH  15  16
HETATM   16  C   UNL     1     -10.606   6.202  69.825  1.00  0.00    -0.280 C  
HETATM   17  O   UNL     1     -11.881   6.464  69.261  1.00  0.00    -0.548 OA 
HETATM   18  H   UNL     1     -12.562   6.191  69.864  1.00  0.00     0.000 HD 
ENDBRANCH  15  16
ENDBRANCH  14  15
ENDBRANCH  13  14
ENDBRANCH  12  13
ENDBRANCH  11  12
ENDBRANCH  10  11
ENDBRANCH   9  10
ENDBRANCH   8   9
ENDBRANCH   7   8
ENDBRANCH   6   7
ENDBRANCH   5   6
ENDBRANCH   4   5
ENDBRANCH   3   4
ENDBRANCH   2   3
TORSDOF 14
ENDMDL
MODEL      224
REMARK 921   NORMALIZED FREE ENERGY PREDICTED BY IDOCK:   -2.98 KCAL/MOL
REMARK 922        TOTAL FREE ENERGY PREDICTED BY IDOCK:   -6.81 KCAL/MOL
REMARK 923 INTER-LIGAND FREE ENERGY PREDICTED BY IDOCK:   -5.91 KCAL/MOL
REMARK 924 INTRA-LIGAND FREE ENERGY PREDICTED BY IDOCK:   -0.90 KCAL/MOL
REMARK 927      BINDING AFFINITY PREDICTED BY RF-SCORE:    0.00 PKD
ROOT
HETATM    1  C   UNL     1     -12.264   8.070  72.253  1.00  0.00    -0.366 C  
HETATM    2  C   UNL     1     -13.217   9.252  72.301  1.00  0.00    -0.535 C  
ENDROOT
BRANCH   2   3
HETATM    3  C   UNL     1     -13.171  10.052  71.001  1.00  0.00    -0.399 C  
BRANCH   3   4
HETATM    4  C   UNL     1     -11.927  10.935  70.937  1.00  0.00    -0.416 C  
BRANCH   4   5
HETATM    5  C   UNL     1     -10.711  10.132  70.480  1.00  0.00    -0.295 C  
BRANCH   5   6
HETATM    6  C   UNL     1     -10.589  10.138  68.960  1.00  0.00    -0.245 C  
BRANCH   6   7
HETATM    7  C   UNL     1     -10.486   8.715  68.416  1.00  0.00    -0.220 C  
BRANCH   7   8
HETATM    8  C   UNL     1     -10.659   8.696  66.900  1.00  0.00    -0.270 C  
BRANCH   8   9
HETATM    9  C   UNL     1      -9.536   9.470  66.216  1.00  0.00    -0.287 C  
BRANCH   9  10
HETATM   10  C   UNL     1     -10.102  10.534  65.280  1.00  0.00    -0.369 C  
BRANCH  10  11
HETATM   11  C   UNL     1     -10.096  11.907  65.946  1.00  0.00    -0.265 C  
BRANCH  11  12
HETATM   12  C   UNL     1     -11.441  12.605  65.765  1.00  0.00    -0.399 C  
BRANCH  12  13
HETATM   13  C   UNL     1     -11.361  14.067  66.197  1.00  0.00    -0.322 C  
BRANCH  13  14
HETATM   14  C   UNL     1     -12.239  14.324  67.420  1.00  0.00    -0.267 C  
BRANCH  14  15
HETATM   15  C   UNL     1     -11.556  13.845  68.698  1.00  0.00    -0.363 C  
BRANCH  15  16
HETATM   16  C   UNL     1     -11.437  14.968  69.717  1.00  0.00    -0.295 C  
HETATM   17  O   UNL     1     -12.718  15.521  69.977  1.00  0.00    -0.598 OA 
HETATM   18  H   UNL     1     -12.643  16.222  70.613  1.00  0.00     0.000 HD 
ENDBRANCH  15  16
ENDBRANCH  14  15
ENDBRANCH  13  14
ENDBRANCH  12  13
ENDBRANCH  11  12
ENDBRANCH  10  11
ENDBRANCH   9  10
ENDBRANCH   8   9
ENDBRANCH   7   8
ENDBRANCH   6   7
ENDBRANCH   5   6
ENDBRANCH   4   5
ENDBRANCH   3   4
ENDBRANCH   2   3
TORSDOF 14
ENDMDL
MODEL      225
REMARK 921   NORMALIZED FREE ENERGY PREDICTED BY IDOCK:   -2.98 KCAL/MOL
REMARK 922        TOTAL FREE ENERGY PREDICTED BY IDOCK:   -6.80 KCAL/MOL
REMARK 923 INTER-LIGAND FREE ENERGY PREDICTED BY IDOCK:   -5.38 KCAL/MOL
REMARK 924 INTRA-LIGAND FREE ENERGY PREDICTED BY IDOCK:   -1.42 KCAL/MOL
REMARK 927      BINDING AFFINITY PREDICTED BY RF-SCORE:    0.00 PKD
ROOT
HETATM    1  C   UNL     1     -12.088  15.503  72.868  1.00  0.00    -0.557 C  
HETATM    2  C   UNL     1     -13.078  14.400  72.535  1.00  0.00    -0.536 C  
ENDROOT
BRANCH   2   3
HETATM    3  C   UNL     1     -12.770  13.772  71.178  1.00  0.00    -0.438 C  
BRANCH   3   4
HETATM    4  C   UNL     1     -11.874  14.679  70.337  1.00  0.00    -0.365 C  
BRANCH   4   5
HETATM    5  C   UNL     1     -11.466  13.991  69.037  1.00  0.00    -0.337 C  
BRANCH   5   6
HETATM    6  C   UNL     1     -11.747  14.883  67.832  1.00  0.00    -0.344 C  
BRANCH   6   7
HETATM    7  C   UNL     1     -12.302  14.066  66.668  1.00  0.00    -0.408 C  
BRANCH   7   8
HETATM    8  C   UNL     1     -11.616  14.446  65.358  1.00  0.00    -0.347 C  
BRANCH   8   9
HETATM    9  C   UNL     1     -10.622  13.369  64.933  1.00  0.00    -0.398 C  
BRANCH   9  10
HETATM   10  C   UNL     1     -10.765  12.124  65.802  1.00  0.00    -0.303 C  
BRANCH  10  11
HETATM   11  C   UNL     1      -9.777  11.042  65.374  1.00  0.00    -0.279 C  
BRANCH  11  12
HETATM   12  C   UNL     1      -8.763  10.762  66.480  1.00  0.00    -0.154 C  
BRANCH  12  13
HETATM   13  C   UNL     1      -8.831  11.831  67.569  1.00  0.00    -0.162 C  
BRANCH  13  14
HETATM   14  C   UNL     1      -7.730  12.872  67.381  1.00  0.00    -0.160 C  
BRANCH  14  15
HETATM   15  C   UNL     1      -8.156  14.229  67.932  1.00  0.00    -0.152 C  
BRANCH  15  16
HETATM   16  C   UNL     1      -7.164  14.746  68.963  1.00  0.00    -0.135 C  
HETATM   17  O   UNL     1      -6.668  13.665  69.737  1.00  0.00    -0.300 OA 
HETATM   18  H   UNL     1      -6.048  13.987  70.381  1.00  0.00     0.000 HD 
ENDBRANCH  15  16
ENDBRANCH  14  15
ENDBRANCH  13  14
ENDBRANCH  12  13
ENDBRANCH  11  12
ENDBRANCH  10  11
ENDBRANCH   9  10
ENDBRANCH   8   9
ENDBRANCH   7   8
ENDBRANCH   6   7
ENDBRANCH   5   6
ENDBRANCH   4   5
ENDBRANCH   3   4
ENDBRANCH   2   3
TORSDOF 14
ENDMDL
MODEL      226
REMARK 921   NORMALIZED FREE ENERGY PREDICTED BY IDOCK:   -2.97 KCAL/MOL
REMARK 922        TOTAL FREE ENERGY PREDICTED BY IDOCK:   -6.79 KCAL/MOL
REMARK 923 INTER-LIGAND FREE ENERGY PREDICTED BY IDOCK:   -5.22 KCAL/MOL
REMARK 924 INTRA-LIGAND FREE ENERGY PREDICTED BY IDOCK:   -1.57 KCAL/MOL
REMARK 927      BINDING AFFINITY PREDICTED BY RF-SCORE:    0.00 PKD
ROOT
HETATM    1  C   UNL     1     -11.988  16.134  72.666  1.00  0.00    -0.653 C  
HETATM    2  C   UNL     1     -12.179  14.630  72.749  1.00  0.00    -0.264 C  
ENDROOT
BRANCH   2   3
HETATM    3  C   UNL     1     -12.857  14.089  71.491  1.00  0.00    -0.440 C  
BRANCH   3   4
HETATM    4  C   UNL     1     -12.466  14.900  70.258  1.00  0.00    -0.386 C  
BRANCH   4   5
HETATM    5  C   UNL     1     -11.137  14.415  69.684  1.00  0.00    -0.241 C  
BRANCH   5   6
HETATM    6  C   UNL     1     -10.317  15.579  69.140  1.00  0.00    -0.237 C  
BRANCH   6   7
HETATM    7  C   UNL     1     -11.207  16.787  68.858  1.00  0.00    -0.113 C  
BRANCH   7   8
HETATM    8  C   UNL     1     -10.380  18.067  68.773  1.00  0.00    -0.294 C  
BRANCH   8   9
HETATM    9  C   UNL     1     -10.516  18.712  67.397  1.00  0.00    -0.467 C  
BRANCH   9  10
HETATM   10  C   UNL     1      -9.233  18.544  66.589  1.00  0.00    -0.306 C  
BRANCH  10  11
HETATM   11  C   UNL     1      -9.316  17.320  65.680  1.00  0.00     0.312 C  
BRANCH  11  12
HETATM   12  C   UNL     1      -8.507  16.160  66.253  1.00  0.00    -0.357 C  
BRANCH  12  13
HETATM   13  C   UNL     1      -9.105  14.818  65.838  1.00  0.00     0.073 C  
BRANCH  13  14
HETATM   14  C   UNL     1     -10.566  14.976  65.422  1.00  0.00    -0.398 C  
BRANCH  14  15
HETATM   15  C   UNL     1     -11.005  13.836  64.509  1.00  0.00    -0.399 C  
BRANCH  15  16
HETATM   16  C   UNL     1     -11.701  12.733  65.293  1.00  0.00    -0.368 C  
HETATM   17  O   UNL     1     -13.107  12.906  65.221  1.00  0.00    -0.682 OA 
HETATM   18  H   UNL     1     -13.542  12.217  65.711  1.00  0.00     0.000 HD 
ENDBRANCH  15  16
ENDBRANCH  14  15
ENDBRANCH  13  14
ENDBRANCH  12  13
ENDBRANCH  11  12
ENDBRANCH  10  11
ENDBRANCH   9  10
ENDBRANCH   8   9
ENDBRANCH   7   8
ENDBRANCH   6   7
ENDBRANCH   5   6
ENDBRANCH   4   5
ENDBRANCH   3   4
ENDBRANCH   2   3
TORSDOF 14
ENDMDL
MODEL      227
REMARK 921   NORMALIZED FREE ENERGY PREDICTED BY IDOCK:   -2.97 KCAL/MOL
REMARK 922        TOTAL FREE ENERGY PREDICTED BY IDOCK:   -6.78 KCAL/MOL
REMARK 923 INTER-LIGAND FREE ENERGY PREDICTED BY IDOCK:   -4.92 KCAL/MOL
REMARK 924 INTRA-LIGAND FREE ENERGY PREDICTED BY IDOCK:   -1.86 KCAL/MOL
REMARK 927      BINDING AFFINITY PREDICTED BY RF-SCORE:    0.00 PKD
ROOT
HETATM    1  C   UNL     1      -6.973   9.764  67.766  1.00  0.00    -0.086 C  
HETATM    2  C   UNL     1      -7.020   8.483  68.581  1.00  0.00    -0.064 C  
ENDROOT
BRANCH   2   3
HETATM    3  C   UNL     1      -8.194   8.491  69.557  1.00  0.00    -0.116 C  
BRANCH   3   4
HETATM    4  C   UNL     1      -8.664   7.073  69.871  1.00  0.00    -0.142 C  
BRANCH   4   5
HETATM    5  C   UNL     1      -9.917   6.723  69.072  1.00  0.00    -0.161 C  
BRANCH   5   6
HETATM    6  C   UNL     1     -10.742   5.657  69.784  1.00  0.00    -0.401 C  
BRANCH   6   7
HETATM    7  C   UNL     1     -11.187   6.143  71.162  1.00  0.00    -0.355 C  
BRANCH   7   8
HETATM    8  C   UNL     1     -12.164   7.309  71.040  1.00  0.00    -0.350 C  
BRANCH   8   9
HETATM    9  C   UNL     1     -11.834   8.402  72.053  1.00  0.00    -0.417 C  
BRANCH   9  10
HETATM   10  C   UNL     1     -12.221   9.776  71.515  1.00  0.00    -0.493 C  
BRANCH  10  11
HETATM   11  C   UNL     1     -11.369  10.150  70.305  1.00  0.00    -0.387 C  
BRANCH  11  12
HETATM   12  C   UNL     1     -12.155  11.026  69.334  1.00  0.00    -0.389 C  
BRANCH  12  13
HETATM   13  C   UNL     1     -11.356  11.284  68.059  1.00  0.00    -0.372 C  
BRANCH  13  14
HETATM   14  C   UNL     1     -10.686  10.004  67.566  1.00  0.00    -0.339 C  
BRANCH  14  15
HETATM   15  C   UNL     1     -10.317  10.109  66.089  1.00  0.00    -0.237 C  
BRANCH  15  16
HETATM   16  C   UNL     1      -9.809  11.501  65.742  1.00  0.00    -0.234 C  
HETATM   17  O   UNL     1      -8.561  11.404  65.073  1.00  0.00    -0.381 OA 
HETATM   18  H   UNL     1      -8.244  12.273  64.857  1.00  0.00     0.000 HD 
ENDBRANCH  15  16
ENDBRANCH  14  15
ENDBRANCH  13  14
ENDBRANCH  12  13
ENDBRANCH  11  12
ENDBRANCH  10  11
ENDBRANCH   9  10
ENDBRANCH   8   9
ENDBRANCH   7   8
ENDBRANCH   6   7
ENDBRANCH   5   6
ENDBRANCH   4   5
ENDBRANCH   3   4
ENDBRANCH   2   3
TORSDOF 14
ENDMDL
MODEL      228
REMARK 921   NORMALIZED FREE ENERGY PREDICTED BY IDOCK:   -2.97 KCAL/MOL
REMARK 922        TOTAL FREE ENERGY PREDICTED BY IDOCK:   -6.77 KCAL/MOL
REMARK 923 INTER-LIGAND FREE ENERGY PREDICTED BY IDOCK:   -6.01 KCAL/MOL
REMARK 924 INTRA-LIGAND FREE ENERGY PREDICTED BY IDOCK:   -0.76 KCAL/MOL
REMARK 927      BINDING AFFINITY PREDICTED BY RF-SCORE:    0.00 PKD
ROOT
HETATM    1  C   UNL     1     -12.512  16.097  73.328  1.00  0.00    -0.642 C  
HETATM    2  C   UNL     1     -13.124  14.708  73.261  1.00  0.00    -0.505 C  
ENDROOT
BRANCH   2   3
HETATM    3  C   UNL     1     -13.138  14.179  71.828  1.00  0.00    -0.434 C  
BRANCH   3   4
HETATM    4  C   UNL     1     -13.007  15.315  70.816  1.00  0.00    -0.492 C  
BRANCH   4   5
HETATM    5  C   UNL     1     -11.800  15.099  69.906  1.00  0.00    -0.363 C  
BRANCH   5   6
HETATM    6  C   UNL     1     -12.095  14.045  68.844  1.00  0.00    -0.351 C  
BRANCH   6   7
HETATM    7  C   UNL     1     -11.218  12.811  69.044  1.00  0.00    -0.317 C  
BRANCH   7   8
HETATM    8  C   UNL     1     -11.878  11.570  68.451  1.00  0.00    -0.353 C  
BRANCH   8   9
HETATM    9  C   UNL     1     -11.033  10.327  68.713  1.00  0.00    -0.285 C  
BRANCH   9  10
HETATM   10  C   UNL     1     -10.624  10.247  70.180  1.00  0.00    -0.303 C  
BRANCH  10  11
HETATM   11  C   UNL     1     -11.785   9.767  71.046  1.00  0.00    -0.453 C  
BRANCH  11  12
HETATM   12  C   UNL     1     -11.321   8.705  72.040  1.00  0.00    -0.432 C  
BRANCH  12  13
HETATM   13  C   UNL     1     -11.192   7.342  71.364  1.00  0.00    -0.272 C  
BRANCH  13  14
HETATM   14  C   UNL     1     -11.290   6.214  72.389  1.00  0.00    -0.340 C  
BRANCH  14  15
HETATM   15  C   UNL     1     -10.051   5.324  72.349  1.00  0.00    -0.227 C  
BRANCH  15  16
HETATM   16  C   UNL     1      -8.955   5.858  73.258  1.00  0.00    -0.130 C  
HETATM   17  O   UNL     1      -8.543   4.842  74.161  1.00  0.00    -0.111 OA 
HETATM   18  H   UNL     1      -7.858   5.176  74.729  1.00  0.00     0.000 HD 
ENDBRANCH  15  16
ENDBRANCH  14  15
ENDBRANCH  13  14
ENDBRANCH  12  13
ENDBRANCH  11  12
ENDBRANCH  10  11
ENDBRANCH   9  10
ENDBRANCH   8   9
ENDBRANCH   7   8
ENDBRANCH   6   7
ENDBRANCH   5   6
ENDBRANCH   4   5
ENDBRANCH   3   4
ENDBRANCH   2   3
TORSDOF 14
ENDMDL
MODEL      229
REMARK 921   NORMALIZED FREE ENERGY PREDICTED BY IDOCK:   -2.96 KCAL/MOL
REMARK 922        TOTAL FREE ENERGY PREDICTED BY IDOCK:   -6.77 KCAL/MOL
REMARK 923 INTER-LIGAND FREE ENERGY PREDICTED BY IDOCK:   -5.05 KCAL/MOL
REMARK 924 INTRA-LIGAND FREE ENERGY PREDICTED BY IDOCK:   -1.71 KCAL/MOL
REMARK 927      BINDING AFFINITY PREDICTED BY RF-SCORE:    0.00 PKD
ROOT
HETATM    1  C   UNL     1      -6.751  12.828  67.355  1.00  0.00    -0.138 C  
HETATM    2  C   UNL     1      -7.695  12.847  68.545  1.00  0.00    -0.109 C  
ENDROOT
BRANCH   2   3
HETATM    3  C   UNL     1      -8.577  14.093  68.531  1.00  0.00    -0.163 C  
BRANCH   3   4
HETATM    4  C   UNL     1      -8.264  14.981  67.328  1.00  0.00    -0.236 C  
BRANCH   4   5
HETATM    5  C   UNL     1      -8.812  16.391  67.533  1.00  0.00    -0.187 C  
BRANCH   5   6
HETATM    6  C   UNL     1      -9.900  16.710  66.513  1.00  0.00    -0.295 C  
BRANCH   6   7
HETATM    7  C   UNL     1      -9.995  15.612  65.457  1.00  0.00    -0.364 C  
BRANCH   7   8
HETATM    8  C   UNL     1     -11.408  15.522  64.889  1.00  0.00    -0.339 C  
BRANCH   8   9
HETATM    9  C   UNL     1     -11.877  14.071  64.826  1.00  0.00    -0.415 C  
BRANCH   9  10
HETATM   10  C   UNL     1     -11.553  13.339  66.124  1.00  0.00    -0.385 C  
BRANCH  10  11
HETATM   11  C   UNL     1     -11.009  11.941  65.843  1.00  0.00    -0.354 C  
BRANCH  11  12
HETATM   12  C   UNL     1     -11.048  11.077  67.100  1.00  0.00    -0.333 C  
BRANCH  12  13
HETATM   13  C   UNL     1     -11.438  11.905  68.322  1.00  0.00    -0.372 C  
BRANCH  13  14
HETATM   14  C   UNL     1     -12.073  11.027  69.397  1.00  0.00    -0.389 C  
BRANCH  14  15
HETATM   15  C   UNL     1     -11.112   9.932  69.852  1.00  0.00    -0.318 C  
BRANCH  15  16
HETATM   16  C   UNL     1     -11.525   9.354  71.197  1.00  0.00    -0.352 C  
HETATM   17  O   UNL     1     -10.375   9.132  71.998  1.00  0.00    -0.307 OA 
HETATM   18  H   UNL     1     -10.633   8.771  72.838  1.00  0.00     0.000 HD 
ENDBRANCH  15  16
ENDBRANCH  14  15
ENDBRANCH  13  14
ENDBRANCH  12  13
ENDBRANCH  11  12
ENDBRANCH  10  11
ENDBRANCH   9  10
ENDBRANCH   8   9
ENDBRANCH   7   8
ENDBRANCH   6   7
ENDBRANCH   5   6
ENDBRANCH   4   5
ENDBRANCH   3   4
ENDBRANCH   2   3
TORSDOF 14
ENDMDL
MODEL      230
REMARK 921   NORMALIZED FREE ENERGY PREDICTED BY IDOCK:   -2.96 KCAL/MOL
REMARK 922        TOTAL FREE ENERGY PREDICTED BY IDOCK:   -6.77 KCAL/MOL
REMARK 923 INTER-LIGAND FREE ENERGY PREDICTED BY IDOCK:   -5.19 KCAL/MOL
REMARK 924 INTRA-LIGAND FREE ENERGY PREDICTED BY IDOCK:   -1.57 KCAL/MOL
REMARK 927      BINDING AFFINITY PREDICTED BY RF-SCORE:    0.00 PKD
ROOT
HETATM    1  C   UNL     1     -11.934  11.578  69.283  1.00  0.00    -0.397 C  
HETATM    2  C   UNL     1     -12.265  11.095  70.685  1.00  0.00    -0.492 C  
ENDROOT
BRANCH   2   3
HETATM    3  C   UNL     1     -11.433   9.871  71.059  1.00  0.00    -0.466 C  
BRANCH   3   4
HETATM    4  C   UNL     1     -12.322   8.669  71.369  1.00  0.00    -0.344 C  
BRANCH   4   5
HETATM    5  C   UNL     1     -11.669   7.760  72.407  1.00  0.00    -0.394 C  
BRANCH   5   6
HETATM    6  C   UNL     1     -11.891   6.290  72.067  1.00  0.00    -0.370 C  
BRANCH   6   7
HETATM    7  C   UNL     1     -10.573   5.610  71.703  1.00  0.00    -0.301 C  
BRANCH   7   8
HETATM    8  C   UNL     1     -10.517   5.290  70.212  1.00  0.00    -0.332 C  
BRANCH   8   9
HETATM    9  C   UNL     1      -9.758   6.373  69.452  1.00  0.00    -0.160 C  
BRANCH   9  10
HETATM   10  C   UNL     1     -10.596   6.918  68.300  1.00  0.00    -0.258 C  
BRANCH  10  11
HETATM   11  C   UNL     1     -10.331   8.406  68.087  1.00  0.00    -0.255 C  
BRANCH  11  12
HETATM   12  C   UNL     1     -10.154   8.721  66.604  1.00  0.00    -0.358 C  
BRANCH  12  13
HETATM   13  C   UNL     1      -9.834  10.199  66.392  1.00  0.00    -0.279 C  
BRANCH  13  14
HETATM   14  C   UNL     1      -8.876  10.710  67.466  1.00  0.00    -0.132 C  
BRANCH  14  15
HETATM   15  C   UNL     1      -7.824  11.639  66.868  1.00  0.00    -0.156 C  
BRANCH  15  16
HETATM   16  C   UNL     1      -6.603  10.864  66.395  1.00  0.00    -0.134 C  
HETATM   17  O   UNL     1      -6.505  10.938  64.981  1.00  0.00    -0.366 OA 
HETATM   18  H   UNL     1      -5.743  10.454  64.685  1.00  0.00     0.000 HD 
ENDBRANCH  15  16
ENDBRANCH  14  15
ENDBRANCH  13  14
ENDBRANCH  12  13
ENDBRANCH  11  12
ENDBRANCH  10  11
ENDBRANCH   9  10
ENDBRANCH   8   9
ENDBRANCH   7   8
ENDBRANCH   6   7
ENDBRANCH   5   6
ENDBRANCH   4   5
ENDBRANCH   3   4
ENDBRANCH   2   3
TORSDOF 14
ENDMDL
MODEL      231
REMARK 921   NORMALIZED FREE ENERGY PREDICTED BY IDOCK:   -2.96 KCAL/MOL
REMARK 922        TOTAL FREE ENERGY PREDICTED BY IDOCK:   -6.75 KCAL/MOL
REMARK 923 INTER-LIGAND FREE ENERGY PREDICTED BY IDOCK:   -5.76 KCAL/MOL
REMARK 924 INTRA-LIGAND FREE ENERGY PREDICTED BY IDOCK:   -0.99 KCAL/MOL
REMARK 927      BINDING AFFINITY PREDICTED BY RF-SCORE:    0.00 PKD
ROOT
HETATM    1  C   UNL     1      -9.542   8.148  72.691  1.00  0.00    -0.352 C  
HETATM    2  C   UNL     1     -11.053   8.038  72.585  1.00  0.00    -0.453 C  
ENDROOT
BRANCH   2   3
HETATM    3  C   UNL     1     -11.586   8.868  71.419  1.00  0.00    -0.382 C  
BRANCH   3   4
HETATM    4  C   UNL     1     -10.814   8.580  70.134  1.00  0.00    -0.238 C  
BRANCH   4   5
HETATM    5  C   UNL     1     -10.591   9.860  69.332  1.00  0.00    -0.250 C  
BRANCH   5   6
HETATM    6  C   UNL     1     -11.420  11.011  69.894  1.00  0.00    -0.400 C  
BRANCH   6   7
HETATM    7  C   UNL     1     -11.857  11.961  68.782  1.00  0.00    -0.371 C  
BRANCH   7   8
HETATM    8  C   UNL     1     -10.686  12.306  67.866  1.00  0.00    -0.243 C  
BRANCH   8   9
HETATM    9  C   UNL     1     -10.940  13.618  67.130  1.00  0.00    -0.299 C  
BRANCH   9  10
HETATM   10  C   UNL     1     -12.102  14.378  67.760  1.00  0.00    -0.304 C  
BRANCH  10  11
HETATM   11  C   UNL     1     -11.620  15.670  68.413  1.00  0.00    -0.358 C  
BRANCH  11  12
HETATM   12  C   UNL     1     -10.340  16.171  67.751  1.00  0.00    -0.283 C  
BRANCH  12  13
HETATM   13  C   UNL     1      -9.286  16.530  68.796  1.00  0.00    -0.247 C  
BRANCH  13  14
HETATM   14  C   UNL     1      -8.694  17.911  68.522  1.00  0.00    -0.297 C  
BRANCH  14  15
HETATM   15  C   UNL     1      -9.258  18.507  67.236  1.00  0.00    -0.281 C  
BRANCH  15  16
HETATM   16  C   UNL     1      -9.657  19.963  67.427  1.00  0.00    -0.374 C  
HETATM   17  O   UNL     1      -9.597  20.645  66.184  1.00  0.00    -0.633 OA 
HETATM   18  H   UNL     1      -9.846  21.554  66.304  1.00  0.00     0.000 HD 
ENDBRANCH  15  16
ENDBRANCH  14  15
ENDBRANCH  13  14
ENDBRANCH  12  13
ENDBRANCH  11  12
ENDBRANCH  10  11
ENDBRANCH   9  10
ENDBRANCH   8   9
ENDBRANCH   7   8
ENDBRANCH   6   7
ENDBRANCH   5   6
ENDBRANCH   4   5
ENDBRANCH   3   4
ENDBRANCH   2   3
TORSDOF 14
ENDMDL
MODEL      232
REMARK 921   NORMALIZED FREE ENERGY PREDICTED BY IDOCK:   -2.95 KCAL/MOL
REMARK 922        TOTAL FREE ENERGY PREDICTED BY IDOCK:   -6.74 KCAL/MOL
REMARK 923 INTER-LIGAND FREE ENERGY PREDICTED BY IDOCK:   -5.78 KCAL/MOL
REMARK 924 INTRA-LIGAND FREE ENERGY PREDICTED BY IDOCK:   -0.96 KCAL/MOL
REMARK 927      BINDING AFFINITY PREDICTED BY RF-SCORE:    0.00 PKD
ROOT
HETATM    1  C   UNL     1     -12.869  15.366  70.787  1.00  0.00    -0.524 C  
HETATM    2  C   UNL     1     -13.810  15.172  71.964  1.00  0.00    -0.608 C  
ENDROOT
BRANCH   2   3
HETATM    3  C   UNL     1     -13.770  13.732  72.471  1.00  0.00    -0.667 C  
BRANCH   3   4
HETATM    4  C   UNL     1     -13.051  12.816  71.483  1.00  0.00    -0.380 C  
BRANCH   4   5
HETATM    5  C   UNL     1     -13.147  11.357  71.923  1.00  0.00    -0.505 C  
BRANCH   5   6
HETATM    6  C   UNL     1     -12.942  10.414  70.743  1.00  0.00    -0.422 C  
BRANCH   6   7
HETATM    7  C   UNL     1     -12.027  11.044  69.694  1.00  0.00    -0.424 C  
BRANCH   7   8
HETATM    8  C   UNL     1     -10.609  10.491  69.804  1.00  0.00    -0.274 C  
BRANCH   8   9
HETATM    9  C   UNL     1     -10.503   9.489  70.949  1.00  0.00    -0.382 C  
BRANCH   9  10
HETATM   10  C   UNL     1      -9.801   8.215  70.493  1.00  0.00    -0.194 C  
BRANCH  10  11
HETATM   11  C   UNL     1     -10.649   7.456  69.476  1.00  0.00    -0.244 C  
BRANCH  11  12
HETATM   12  C   UNL     1     -11.243   6.194  70.095  1.00  0.00    -0.452 C  
BRANCH  12  13
HETATM   13  C   UNL     1     -10.157   5.340  70.745  1.00  0.00    -0.294 C  
BRANCH  13  14
HETATM   14  C   UNL     1      -9.562   4.355  69.740  1.00  0.00    -0.276 C  
BRANCH  14  15
HETATM   15  C   UNL     1      -8.117   4.713  69.407  1.00  0.00    -0.069 C  
BRANCH  15  16
HETATM   16  C   UNL     1      -7.227   4.632  70.637  1.00  0.00    -0.048 C  
HETATM   17  O   UNL     1      -5.994   5.287  70.383  1.00  0.00    -0.016 OA 
HETATM   18  H   UNL     1      -5.438   5.236  71.151  1.00  0.00     0.000 HD 
ENDBRANCH  15  16
ENDBRANCH  14  15
ENDBRANCH  13  14
ENDBRANCH  12  13
ENDBRANCH  11  12
ENDBRANCH  10  11
ENDBRANCH   9  10
ENDBRANCH   8   9
ENDBRANCH   7   8
ENDBRANCH   6   7
ENDBRANCH   5   6
ENDBRANCH   4   5
ENDBRANCH   3   4
ENDBRANCH   2   3
TORSDOF 14
ENDMDL
MODEL      233
REMARK 921   NORMALIZED FREE ENERGY PREDICTED BY IDOCK:   -2.94 KCAL/MOL
REMARK 922        TOTAL FREE ENERGY PREDICTED BY IDOCK:   -6.73 KCAL/MOL
REMARK 923 INTER-LIGAND FREE ENERGY PREDICTED BY IDOCK:   -5.88 KCAL/MOL
REMARK 924 INTRA-LIGAND FREE ENERGY PREDICTED BY IDOCK:   -0.85 KCAL/MOL
REMARK 927      BINDING AFFINITY PREDICTED BY RF-SCORE:    0.00 PKD
ROOT
HETATM    1  C   UNL     1      -9.427   9.158  70.462  1.00  0.00    -0.291 C  
HETATM    2  C   UNL     1     -10.442   8.145  69.961  1.00  0.00    -0.231 C  
ENDROOT
BRANCH   2   3
HETATM    3  C   UNL     1     -11.651   8.068  70.891  1.00  0.00    -0.284 C  
BRANCH   3   4
HETATM    4  C   UNL     1     -11.752   9.310  71.774  1.00  0.00    -0.456 C  
BRANCH   4   5
HETATM    5  C   UNL     1     -13.036  10.083  71.484  1.00  0.00    -0.531 C  
BRANCH   5   6
HETATM    6  C   UNL     1     -12.747  11.563  71.259  1.00  0.00    -0.469 C  
BRANCH   6   7
HETATM    7  C   UNL     1     -12.195  11.803  69.855  1.00  0.00    -0.293 C  
BRANCH   7   8
HETATM    8  C   UNL     1     -11.833  13.272  69.655  1.00  0.00    -0.391 C  
BRANCH   8   9
HETATM    9  C   UNL     1     -11.021  13.462  68.377  1.00  0.00    -0.291 C  
BRANCH   9  10
HETATM   10  C   UNL     1     -11.633  14.548  67.500  1.00  0.00    -0.403 C  
BRANCH  10  11
HETATM   11  C   UNL     1     -10.706  15.757  67.399  1.00  0.00    -0.317 C  
BRANCH  11  12
HETATM   12  C   UNL     1     -11.058  16.803  68.452  1.00  0.00    -0.266 C  
BRANCH  12  13
HETATM   13  C   UNL     1     -10.216  18.064  68.274  1.00  0.00    -0.402 C  
BRANCH  13  14
HETATM   14  C   UNL     1      -9.769  18.222  66.823  1.00  0.00    -0.322 C  
BRANCH  14  15
HETATM   15  C   UNL     1      -8.702  19.305  66.690  1.00  0.00    -0.343 C  
BRANCH  15  16
HETATM   16  C   UNL     1      -7.431  18.757  66.060  1.00  0.00    -0.239 C  
HETATM   17  O   UNL     1      -6.888  19.713  65.163  1.00  0.00    -0.349 OA 
HETATM   18  H   UNL     1      -6.094  19.371  64.769  1.00  0.00     0.000 HD 
ENDBRANCH  15  16
ENDBRANCH  14  15
ENDBRANCH  13  14
ENDBRANCH  12  13
ENDBRANCH  11  12
ENDBRANCH  10  11
ENDBRANCH   9  10
ENDBRANCH   8   9
ENDBRANCH   7   8
ENDBRANCH   6   7
ENDBRANCH   5   6
ENDBRANCH   4   5
ENDBRANCH   3   4
ENDBRANCH   2   3
TORSDOF 14
ENDMDL
MODEL      234
REMARK 921   NORMALIZED FREE ENERGY PREDICTED BY IDOCK:   -2.94 KCAL/MOL
REMARK 922        TOTAL FREE ENERGY PREDICTED BY IDOCK:   -6.73 KCAL/MOL
REMARK 923 INTER-LIGAND FREE ENERGY PREDICTED BY IDOCK:   -4.72 KCAL/MOL
REMARK 924 INTRA-LIGAND FREE ENERGY PREDICTED BY IDOCK:   -2.01 KCAL/MOL
REMARK 927      BINDING AFFINITY PREDICTED BY RF-SCORE:    0.00 PKD
ROOT
HETATM    1  C   UNL     1      -7.332  13.387  68.663  1.00  0.00    -0.106 C  
HETATM    2  C   UNL     1      -8.124  12.119  68.399  1.00  0.00    -0.149 C  
ENDROOT
BRANCH   2   3
HETATM    3  C   UNL     1      -8.188  11.808  66.905  1.00  0.00    -0.166 C  
BRANCH   3   4
HETATM    4  C   UNL     1      -7.353  10.577  66.559  1.00  0.00    -0.125 C  
BRANCH   4   5
HETATM    5  C   UNL     1      -7.993   9.308  67.118  1.00  0.00    -0.106 C  
BRANCH   5   6
HETATM    6  C   UNL     1      -8.960   8.692  66.113  1.00  0.00    -0.221 C  
BRANCH   6   7
HETATM    7  C   UNL     1     -10.262   8.277  66.795  1.00  0.00    -0.375 C  
BRANCH   7   8
HETATM    8  C   UNL     1     -10.475   9.060  68.087  1.00  0.00    -0.257 C  
BRANCH   8   9
HETATM    9  C   UNL     1     -11.395  10.254  67.853  1.00  0.00    -0.181 C  
BRANCH   9  10
HETATM   10  C   UNL     1     -11.606  11.039  69.144  1.00  0.00    -0.389 C  
BRANCH  10  11
HETATM   11  C   UNL     1     -11.905  12.507  68.849  1.00  0.00    -0.346 C  
BRANCH  11  12
HETATM   12  C   UNL     1     -11.870  12.779  67.347  1.00  0.00    -0.404 C  
BRANCH  12  13
HETATM   13  C   UNL     1     -11.346  14.183  67.057  1.00  0.00    -0.346 C  
BRANCH  13  14
HETATM   14  C   UNL     1     -10.716  14.799  68.305  1.00  0.00    -0.242 C  
BRANCH  14  15
HETATM   15  C   UNL     1     -11.570  15.942  68.845  1.00  0.00    -0.392 C  
BRANCH  15  16
HETATM   16  C   UNL     1     -11.501  16.017  70.363  1.00  0.00    -0.377 C  
HETATM   17  O   UNL     1     -10.603  15.033  70.852  1.00  0.00    -0.533 OA 
HETATM   18  H   UNL     1     -10.560  15.079  71.800  1.00  0.00     0.000 HD 
ENDBRANCH  15  16
ENDBRANCH  14  15
ENDBRANCH  13  14
ENDBRANCH  12  13
ENDBRANCH  11  12
ENDBRANCH  10  11
ENDBRANCH   9  10
ENDBRANCH   8   9
ENDBRANCH   7   8
ENDBRANCH   6   7
ENDBRANCH   5   6
ENDBRANCH   4   5
ENDBRANCH   3   4
ENDBRANCH   2   3
TORSDOF 14
ENDMDL
MODEL      235
REMARK 921   NORMALIZED FREE ENERGY PREDICTED BY IDOCK:   -2.94 KCAL/MOL
REMARK 922        TOTAL FREE ENERGY PREDICTED BY IDOCK:   -6.72 KCAL/MOL
REMARK 923 INTER-LIGAND FREE ENERGY PREDICTED BY IDOCK:   -5.89 KCAL/MOL
REMARK 924 INTRA-LIGAND FREE ENERGY PREDICTED BY IDOCK:   -0.83 KCAL/MOL
REMARK 927      BINDING AFFINITY PREDICTED BY RF-SCORE:    0.00 PKD
ROOT
HETATM    1  C   UNL     1      -6.705   9.938  63.414  1.00  0.00    -0.126 C  
HETATM    2  C   UNL     1      -8.192   9.628  63.422  1.00  0.00    -0.160 C  
ENDROOT
BRANCH   2   3
HETATM    3  C   UNL     1      -8.922  10.450  64.482  1.00  0.00    -0.241 C  
BRANCH   3   4
HETATM    4  C   UNL     1     -10.321  10.845  64.012  1.00  0.00    -0.417 C  
BRANCH   4   5
HETATM    5  C   UNL     1     -10.445  12.360  63.878  1.00  0.00    -0.469 C  
BRANCH   5   6
HETATM    6  C   UNL     1     -11.873  12.766  63.531  1.00  0.00    -0.618 C  
BRANCH   6   7
HETATM    7  C   UNL     1     -12.632  13.210  64.780  1.00  0.00    -0.426 C  
BRANCH   7   8
HETATM    8  C   UNL     1     -11.703  13.922  65.759  1.00  0.00    -0.369 C  
BRANCH   8   9
HETATM    9  C   UNL     1     -12.226  13.806  67.187  1.00  0.00    -0.352 C  
BRANCH   9  10
HETATM   10  C   UNL     1     -11.197  14.325  68.187  1.00  0.00    -0.295 C  
BRANCH  10  11
HETATM   11  C   UNL     1     -11.436  15.798  68.503  1.00  0.00    -0.381 C  
BRANCH  11  12
HETATM   12  C   UNL     1     -10.249  16.650  68.061  1.00  0.00    -0.280 C  
BRANCH  12  13
HETATM   13  C   UNL     1     -10.718  17.972  67.458  1.00  0.00    -0.352 C  
BRANCH  13  14
HETATM   14  C   UNL     1      -9.817  18.393  66.299  1.00  0.00    -0.338 C  
BRANCH  14  15
HETATM   15  C   UNL     1      -8.379  17.939  66.526  1.00  0.00    -0.290 C  
BRANCH  15  16
HETATM   16  C   UNL     1      -7.387  19.035  66.166  1.00  0.00    -0.270 C  
HETATM   17  O   UNL     1      -6.767  18.734  64.925  1.00  0.00    -0.508 OA 
HETATM   18  H   UNL     1      -6.148  19.418  64.700  1.00  0.00     0.000 HD 
ENDBRANCH  15  16
ENDBRANCH  14  15
ENDBRANCH  13  14
ENDBRANCH  12  13
ENDBRANCH  11  12
ENDBRANCH  10  11
ENDBRANCH   9  10
ENDBRANCH   8   9
ENDBRANCH   7   8
ENDBRANCH   6   7
ENDBRANCH   5   6
ENDBRANCH   4   5
ENDBRANCH   3   4
ENDBRANCH   2   3
TORSDOF 14
ENDMDL
MODEL      236
REMARK 921   NORMALIZED FREE ENERGY PREDICTED BY IDOCK:   -2.93 KCAL/MOL
REMARK 922        TOTAL FREE ENERGY PREDICTED BY IDOCK:   -6.71 KCAL/MOL
REMARK 923 INTER-LIGAND FREE ENERGY PREDICTED BY IDOCK:   -5.29 KCAL/MOL
REMARK 924 INTRA-LIGAND FREE ENERGY PREDICTED BY IDOCK:   -1.42 KCAL/MOL
REMARK 927      BINDING AFFINITY PREDICTED BY RF-SCORE:    0.00 PKD
ROOT
HETATM    1  C   UNL     1      -6.860  19.524  65.651  1.00  0.00    -0.313 C  
HETATM    2  C   UNL     1      -7.390  19.220  67.042  1.00  0.00    -0.221 C  
ENDROOT
BRANCH   2   3
HETATM    3  C   UNL     1      -8.587  20.106  67.383  1.00  0.00    -0.413 C  
BRANCH   3   4
HETATM    4  C   UNL     1      -9.586  19.369  68.272  1.00  0.00    -0.454 C  
BRANCH   4   5
HETATM    5  C   UNL     1     -10.681  18.712  67.435  1.00  0.00    -0.456 C  
BRANCH   5   6
HETATM    6  C   UNL     1     -10.527  17.195  67.424  1.00  0.00    -0.334 C  
BRANCH   6   7
HETATM    7  C   UNL     1      -9.820  16.729  66.153  1.00  0.00    -0.330 C  
BRANCH   7   8
HETATM    8  C   UNL     1      -9.969  15.222  65.966  1.00  0.00    -0.344 C  
BRANCH   8   9
HETATM    9  C   UNL     1     -11.066  14.669  66.870  1.00  0.00    -0.333 C  
BRANCH   9  10
HETATM   10  C   UNL     1     -10.625  13.364  67.525  1.00  0.00    -0.255 C  
BRANCH  10  11
HETATM   11  C   UNL     1      -9.163  13.060  67.209  1.00  0.00    -0.213 C  
BRANCH  11  12
HETATM   12  C   UNL     1      -9.018  11.680  66.574  1.00  0.00    -0.191 C  
BRANCH  12  13
HETATM   13  C   UNL     1     -10.185  11.383  65.636  1.00  0.00    -0.298 C  
BRANCH  13  14
HETATM   14  C   UNL     1      -9.903  11.910  64.230  1.00  0.00    -0.217 C  
BRANCH  14  15
HETATM   15  C   UNL     1     -11.168  11.907  63.377  1.00  0.00    -0.463 C  
BRANCH  15  16
HETATM   16  C   UNL     1     -12.407  11.658  64.223  1.00  0.00     0.048 C  
HETATM   17  O   UNL     1     -13.280  12.774  64.136  1.00  0.00    -0.506 OA 
HETATM   18  H   UNL     1     -14.055  12.619  64.664  1.00  0.00     0.000 HD 
ENDBRANCH  15  16
ENDBRANCH  14  15
ENDBRANCH  13  14
ENDBRANCH  12  13
ENDBRANCH  11  12
ENDBRANCH  10  11
ENDBRANCH   9  10
ENDBRANCH   8   9
ENDBRANCH   7   8
ENDBRANCH   6   7
ENDBRANCH   5   6
ENDBRANCH   4   5
ENDBRANCH   3   4
ENDBRANCH   2   3
TORSDOF 14
ENDMDL
MODEL      237
REMARK 921   NORMALIZED FREE ENERGY PREDICTED BY IDOCK:   -2.93 KCAL/MOL
REMARK 922        TOTAL FREE ENERGY PREDICTED BY IDOCK:   -6.71 KCAL/MOL
REMARK 923 INTER-LIGAND FREE ENERGY PREDICTED BY IDOCK:   -4.66 KCAL/MOL
REMARK 924 INTRA-LIGAND FREE ENERGY PREDICTED BY IDOCK:   -2.05 KCAL/MOL
REMARK 927      BINDING AFFINITY PREDICTED BY RF-SCORE:    0.00 PKD
ROOT
HETATM    1  C   UNL     1      -7.766   6.884  68.924  1.00  0.00    -0.110 C  
HETATM    2  C   UNL     1      -8.528   6.990  67.615  1.00  0.00    -0.123 C  
ENDROOT
BRANCH   2   3
HETATM    3  C   UNL     1     -10.037   6.938  67.848  1.00  0.00    -0.195 C  
BRANCH   3   4
HETATM    4  C   UNL     1     -10.768   7.962  66.982  1.00  0.00    -0.289 C  
BRANCH   4   5
HETATM    5  C   UNL     1      -9.790   8.976  66.392  1.00  0.00    -0.356 C  
BRANCH   5   6
HETATM    6  C   UNL     1     -10.347  10.393  66.483  1.00  0.00    -0.287 C  
BRANCH   6   7
HETATM    7  C   UNL     1     -10.832  10.697  67.899  1.00  0.00    -0.328 C  
BRANCH   7   8
HETATM    8  C   UNL     1      -9.655  10.942  68.838  1.00  0.00    -0.192 C  
BRANCH   8   9
HETATM    9  C   UNL     1      -9.629   9.906  69.959  1.00  0.00    -0.260 C  
BRANCH   9  10
HETATM   10  C   UNL     1     -11.043   9.470  70.329  1.00  0.00    -0.317 C  
BRANCH  10  11
HETATM   11  C   UNL     1     -11.157   9.199  71.826  1.00  0.00    -0.437 C  
BRANCH  11  12
HETATM   12  C   UNL     1     -12.440   8.436  72.146  1.00  0.00    -0.422 C  
BRANCH  12  13
HETATM   13  C   UNL     1     -12.424   7.047  71.512  1.00  0.00    -0.426 C  
BRANCH  13  14
HETATM   14  C   UNL     1     -11.395   6.148  72.194  1.00  0.00    -0.347 C  
BRANCH  14  15
HETATM   15  C   UNL     1     -10.446   5.525  71.174  1.00  0.00    -0.304 C  
BRANCH  15  16
HETATM   16  C   UNL     1      -9.906   4.190  71.661  1.00  0.00    -0.184 C  
HETATM   17  O   UNL     1      -8.527   4.083  71.342  1.00  0.00    -0.082 OA 
HETATM   18  H   UNL     1      -8.189   3.249  71.646  1.00  0.00     0.000 HD 
ENDBRANCH  15  16
ENDBRANCH  14  15
ENDBRANCH  13  14
ENDBRANCH  12  13
ENDBRANCH  11  12
ENDBRANCH  10  11
ENDBRANCH   9  10
ENDBRANCH   8   9
ENDBRANCH   7   8
ENDBRANCH   6   7
ENDBRANCH   5   6
ENDBRANCH   4   5
ENDBRANCH   3   4
ENDBRANCH   2   3
TORSDOF 14
ENDMDL
MODEL      238
REMARK 921   NORMALIZED FREE ENERGY PREDICTED BY IDOCK:   -2.92 KCAL/MOL
REMARK 922        TOTAL FREE ENERGY PREDICTED BY IDOCK:   -6.69 KCAL/MOL
REMARK 923 INTER-LIGAND FREE ENERGY PREDICTED BY IDOCK:   -4.53 KCAL/MOL
REMARK 924 INTRA-LIGAND FREE ENERGY PREDICTED BY IDOCK:   -2.16 KCAL/MOL
REMARK 927      BINDING AFFINITY PREDICTED BY RF-SCORE:    0.00 PKD
ROOT
HETATM    1  C   UNL     1      -6.119   8.746  68.560  1.00  0.00    -0.046 C  
HETATM    2  C   UNL     1      -6.271   9.658  69.766  1.00  0.00    -0.045 C  
ENDROOT
BRANCH   2   3
HETATM    3  C   UNL     1      -7.719  10.114  69.934  1.00  0.00    -0.171 C  
BRANCH   3   4
HETATM    4  C   UNL     1      -8.606   8.974  70.430  1.00  0.00    -0.215 C  
BRANCH   4   5
HETATM    5  C   UNL     1     -10.065   9.416  70.517  1.00  0.00    -0.335 C  
BRANCH   5   6
HETATM    6  C   UNL     1     -10.972   8.467  69.741  1.00  0.00    -0.131 C  
BRANCH   6   7
HETATM    7  C   UNL     1     -10.162   7.609  68.772  1.00  0.00    -0.210 C  
BRANCH   7   8
HETATM    8  C   UNL     1     -10.526   7.928  67.325  1.00  0.00    -0.390 C  
BRANCH   8   9
HETATM    9  C   UNL     1      -9.311   8.446  66.560  1.00  0.00    -0.259 C  
BRANCH   9  10
HETATM   10  C   UNL     1      -9.236   9.968  66.625  1.00  0.00    -0.178 C  
BRANCH  10  11
HETATM   11  C   UNL     1     -10.221  10.606  65.649  1.00  0.00    -0.319 C  
BRANCH  11  12
HETATM   12  C   UNL     1     -10.920  11.804  66.285  1.00  0.00    -0.346 C  
BRANCH  12  13
HETATM   13  C   UNL     1     -11.483  11.444  67.658  1.00  0.00    -0.348 C  
BRANCH  13  14
HETATM   14  C   UNL     1     -11.089  12.487  68.701  1.00  0.00    -0.305 C  
BRANCH  14  15
HETATM   15  C   UNL     1     -11.909  13.764  68.542  1.00  0.00    -0.406 C  
BRANCH  15  16
HETATM   16  C   UNL     1     -12.220  14.395  69.890  1.00  0.00    -0.340 C  
HETATM   17  O   UNL     1     -12.029  13.441  70.923  1.00  0.00    -0.484 OA 
HETATM   18  H   UNL     1     -12.223  13.836  71.766  1.00  0.00     0.000 HD 
ENDBRANCH  15  16
ENDBRANCH  14  15
ENDBRANCH  13  14
ENDBRANCH  12  13
ENDBRANCH  11  12
ENDBRANCH  10  11
ENDBRANCH   9  10
ENDBRANCH   8   9
ENDBRANCH   7   8
ENDBRANCH   6   7
ENDBRANCH   5   6
ENDBRANCH   4   5
ENDBRANCH   3   4
ENDBRANCH   2   3
TORSDOF 14
ENDMDL
MODEL      239
REMARK 921   NORMALIZED FREE ENERGY PREDICTED BY IDOCK:   -2.92 KCAL/MOL
REMARK 922        TOTAL FREE ENERGY PREDICTED BY IDOCK:   -6.69 KCAL/MOL
REMARK 923 INTER-LIGAND FREE ENERGY PREDICTED BY IDOCK:   -5.22 KCAL/MOL
REMARK 924 INTRA-LIGAND FREE ENERGY PREDICTED BY IDOCK:   -1.46 KCAL/MOL
REMARK 927      BINDING AFFINITY PREDICTED BY RF-SCORE:    0.00 PKD
ROOT
HETATM    1  C   UNL     1     -12.599  12.008  63.210  1.00  0.00    -0.512 C  
HETATM    2  C   UNL     1     -11.551  12.765  64.009  1.00  0.00    -0.488 C  
ENDROOT
BRANCH   2   3
HETATM    3  C   UNL     1     -11.172  12.006  65.279  1.00  0.00    -0.374 C  
BRANCH   3   4
HETATM    4  C   UNL     1     -11.934  12.537  66.491  1.00  0.00    -0.367 C  
BRANCH   4   5
HETATM    5  C   UNL     1     -12.238  14.025  66.336  1.00  0.00    -0.492 C  
BRANCH   5   6
HETATM    6  C   UNL     1     -11.286  14.870  67.176  1.00  0.00    -0.348 C  
BRANCH   6   7
HETATM    7  C   UNL     1     -10.168  15.449  66.312  1.00  0.00    -0.303 C  
BRANCH   7   8
HETATM    8  C   UNL     1      -8.800  14.987  66.808  1.00  0.00    -0.299 C  
BRANCH   8   9
HETATM    9  C   UNL     1      -8.936  14.158  68.082  1.00  0.00    -0.188 C  
BRANCH   9  10
HETATM   10  C   UNL     1      -8.717  12.677  67.792  1.00  0.00    -0.179 C  
BRANCH  10  11
HETATM   11  C   UNL     1      -7.517  12.140  68.568  1.00  0.00    -0.117 C  
BRANCH  11  12
HETATM   12  C   UNL     1      -7.481  10.615  68.527  1.00  0.00    -0.093 C  
BRANCH  12  13
HETATM   13  C   UNL     1      -7.868  10.021  69.879  1.00  0.00    -0.185 C  
BRANCH  13  14
HETATM   14  C   UNL     1      -9.093   9.118  69.748  1.00  0.00    -0.173 C  
BRANCH  14  15
HETATM   15  C   UNL     1     -10.275   9.675  70.536  1.00  0.00    -0.351 C  
BRANCH  15  16
HETATM   16  C   UNL     1     -11.183  10.517  69.652  1.00  0.00    -0.282 C  
HETATM   17  O   UNL     1     -11.148  11.870  70.078  1.00  0.00    -0.469 OA 
HETATM   18  H   UNL     1     -11.716  12.396  69.526  1.00  0.00     0.000 HD 
ENDBRANCH  15  16
ENDBRANCH  14  15
ENDBRANCH  13  14
ENDBRANCH  12  13
ENDBRANCH  11  12
ENDBRANCH  10  11
ENDBRANCH   9  10
ENDBRANCH   8   9
ENDBRANCH   7   8
ENDBRANCH   6   7
ENDBRANCH   5   6
ENDBRANCH   4   5
ENDBRANCH   3   4
ENDBRANCH   2   3
TORSDOF 14
ENDMDL
MODEL      240
REMARK 921   NORMALIZED FREE ENERGY PREDICTED BY IDOCK:   -2.91 KCAL/MOL
REMARK 922        TOTAL FREE ENERGY PREDICTED BY IDOCK:   -6.68 KCAL/MOL
REMARK 923 INTER-LIGAND FREE ENERGY PREDICTED BY IDOCK:   -5.56 KCAL/MOL
REMARK 924 INTRA-LIGAND FREE ENERGY PREDICTED BY IDOCK:   -1.12 KCAL/MOL
REMARK 927      BINDING AFFINITY PREDICTED BY RF-SCORE:    0.00 PKD
ROOT
HETATM    1  C   UNL     1     -12.126  14.049  64.583  1.00  0.00    -0.462 C  
HETATM    2  C   UNL     1     -12.382  12.821  65.440  1.00  0.00    -0.528 C  
ENDROOT
BRANCH   2   3
HETATM    3  C   UNL     1     -11.497  12.820  66.684  1.00  0.00    -0.404 C  
BRANCH   3   4
HETATM    4  C   UNL     1     -12.017  13.797  67.736  1.00  0.00    -0.391 C  
BRANCH   4   5
HETATM    5  C   UNL     1     -11.683  13.311  69.144  1.00  0.00    -0.379 C  
BRANCH   5   6
HETATM    6  C   UNL     1     -11.691  11.788  69.215  1.00  0.00    -0.398 C  
BRANCH   6   7
HETATM    7  C   UNL     1     -12.568  11.301  70.367  1.00  0.00    -0.292 C  
BRANCH   7   8
HETATM    8  C   UNL     1     -11.757  10.474  71.360  1.00  0.00    -0.126 C  
BRANCH   8   9
HETATM    9  C   UNL     1     -11.483   9.078  70.808  1.00  0.00    -0.331 C  
BRANCH   9  10
HETATM   10  C   UNL     1     -10.001   8.896  70.500  1.00  0.00    -0.243 C  
BRANCH  10  11
HETATM   11  C   UNL     1      -9.789   7.805  69.453  1.00  0.00    -0.176 C  
BRANCH  11  12
HETATM   12  C   UNL     1     -11.023   6.913  69.339  1.00  0.00    -0.274 C  
BRANCH  12  13
HETATM   13  C   UNL     1     -10.650   5.441  69.493  1.00  0.00    -0.316 C  
BRANCH  13  14
HETATM   14  C   UNL     1      -9.842   5.212  70.768  1.00  0.00    -0.270 C  
BRANCH  14  15
HETATM   15  C   UNL     1     -10.713   5.381  72.010  1.00  0.00    -0.281 C  
BRANCH  15  16
HETATM   16  C   UNL     1      -9.935   6.017  73.152  1.00  0.00    -0.178 C  
HETATM   17  O   UNL     1     -10.786   6.876  73.894  1.00  0.00    -0.510 OA 
HETATM   18  H   UNL     1     -10.300   7.274  74.607  1.00  0.00     0.000 HD 
ENDBRANCH  15  16
ENDBRANCH  14  15
ENDBRANCH  13  14
ENDBRANCH  12  13
ENDBRANCH  11  12
ENDBRANCH  10  11
ENDBRANCH   9  10
ENDBRANCH   8   9
ENDBRANCH   7   8
ENDBRANCH   6   7
ENDBRANCH   5   6
ENDBRANCH   4   5
ENDBRANCH   3   4
ENDBRANCH   2   3
TORSDOF 14
ENDMDL
MODEL      241
REMARK 921   NORMALIZED FREE ENERGY PREDICTED BY IDOCK:   -2.91 KCAL/MOL
REMARK 922        TOTAL FREE ENERGY PREDICTED BY IDOCK:   -6.67 KCAL/MOL
REMARK 923 INTER-LIGAND FREE ENERGY PREDICTED BY IDOCK:   -5.80 KCAL/MOL
REMARK 924 INTRA-LIGAND FREE ENERGY PREDICTED BY IDOCK:   -0.87 KCAL/MOL
REMARK 927      BINDING AFFINITY PREDICTED BY RF-SCORE:    0.00 PKD
ROOT
HETATM    1  C   UNL     1     -10.289  19.674  65.946  1.00  0.00    -0.584 C  
HETATM    2  C   UNL     1     -10.870  19.754  67.347  1.00  0.00    -0.440 C  
ENDROOT
BRANCH   2   3
HETATM    3  C   UNL     1      -9.929  19.125  68.372  1.00  0.00    -0.493 C  
BRANCH   3   4
HETATM    4  C   UNL     1      -9.488  17.729  67.937  1.00  0.00    -0.270 C  
BRANCH   4   5
HETATM    5  C   UNL     1     -10.564  16.693  68.254  1.00  0.00    -0.338 C  
BRANCH   5   6
HETATM    6  C   UNL     1     -10.977  15.931  66.999  1.00  0.00    -0.189 C  
BRANCH   6   7
HETATM    7  C   UNL     1     -11.640  14.604  67.363  1.00  0.00    -0.408 C  
BRANCH   7   8
HETATM    8  C   UNL     1     -12.126  13.876  66.112  1.00  0.00    -0.478 C  
BRANCH   8   9
HETATM    9  C   UNL     1     -11.818  12.384  66.198  1.00  0.00    -0.442 C  
BRANCH   9  10
HETATM   10  C   UNL     1     -11.634  11.950  67.649  1.00  0.00    -0.382 C  
BRANCH  10  11
HETATM   11  C   UNL     1     -11.142  10.507  67.730  1.00  0.00    -0.382 C  
BRANCH  11  12
HETATM   12  C   UNL     1     -10.204  10.186  66.570  1.00  0.00    -0.288 C  
BRANCH  12  13
HETATM   13  C   UNL     1      -9.874   8.696  66.529  1.00  0.00    -0.348 C  
BRANCH  13  14
HETATM   14  C   UNL     1      -8.706   8.421  65.584  1.00  0.00    -0.204 C  
BRANCH  14  15
HETATM   15  C   UNL     1      -7.465   9.204  66.000  1.00  0.00    -0.095 C  
BRANCH  15  16
HETATM   16  C   UNL     1      -6.707   9.727  64.789  1.00  0.00    -0.114 C  
HETATM   17  O   UNL     1      -7.514  10.655  64.082  1.00  0.00    -0.347 OA 
HETATM   18  H   UNL     1      -7.041  10.982  63.325  1.00  0.00     0.000 HD 
ENDBRANCH  15  16
ENDBRANCH  14  15
ENDBRANCH  13  14
ENDBRANCH  12  13
ENDBRANCH  11  12
ENDBRANCH  10  11
ENDBRANCH   9  10
ENDBRANCH   8   9
ENDBRANCH   7   8
ENDBRANCH   6   7
ENDBRANCH   5   6
ENDBRANCH   4   5
ENDBRANCH   3   4
ENDBRANCH   2   3
TORSDOF 14
ENDMDL
MODEL      242
REMARK 921   NORMALIZED FREE ENERGY PREDICTED BY IDOCK:   -2.91 KCAL/MOL
REMARK 922        TOTAL FREE ENERGY PREDICTED BY IDOCK:   -6.67 KCAL/MOL
REMARK 923 INTER-LIGAND FREE ENERGY PREDICTED BY IDOCK:   -4.37 KCAL/MOL
REMARK 924 INTRA-LIGAND FREE ENERGY PREDICTED BY IDOCK:   -2.31 KCAL/MOL
REMARK 927      BINDING AFFINITY PREDICTED BY RF-SCORE:    0.00 PKD
ROOT
HETATM    1  C   UNL     1      -8.874   9.609  68.245  1.00  0.00    -0.120 C  
HETATM    2  C   UNL     1      -9.420   9.927  69.626  1.00  0.00    -0.252 C  
ENDROOT
BRANCH   2   3
HETATM    3  C   UNL     1     -10.937   9.761  69.672  1.00  0.00    -0.269 C  
BRANCH   3   4
HETATM    4  C   UNL     1     -11.461   9.842  71.104  1.00  0.00    -0.459 C  
BRANCH   4   5
HETATM    5  C   UNL     1     -12.753   9.043  71.259  1.00  0.00    -0.316 C  
BRANCH   5   6
HETATM    6  C   UNL     1     -12.497   7.721  71.975  1.00  0.00    -0.318 C  
BRANCH   6   7
HETATM    7  C   UNL     1     -11.196   7.777  72.774  1.00  0.00    -0.456 C  
BRANCH   7   8
HETATM    8  C   UNL     1     -10.764   6.380  73.211  1.00  0.00    -0.288 C  
BRANCH   8   9
HETATM    9  C   UNL     1      -9.419   6.009  72.592  1.00  0.00    -0.150 C  
BRANCH   9  10
HETATM   10  C   UNL     1      -9.074   6.946  71.440  1.00  0.00    -0.148 C  
BRANCH  10  11
HETATM   11  C   UNL     1      -8.170   6.254  70.423  1.00  0.00    -0.121 C  
BRANCH  11  12
HETATM   12  C   UNL     1      -8.913   6.005  69.114  1.00  0.00    -0.124 C  
BRANCH  12  13
HETATM   13  C   UNL     1     -10.423   6.114  69.311  1.00  0.00    -0.314 C  
BRANCH  13  14
HETATM   14  C   UNL     1     -11.135   6.321  67.976  1.00  0.00    -0.365 C  
BRANCH  14  15
HETATM   15  C   UNL     1     -10.199   6.043  66.804  1.00  0.00    -0.268 C  
BRANCH  15  16
HETATM   16  C   UNL     1     -10.553   4.737  66.109  1.00  0.00    -0.234 C  
HETATM   17  O   UNL     1      -9.426   3.874  66.105  1.00  0.00    -0.165 OA 
HETATM   18  H   UNL     1      -9.646   3.058  65.670  1.00  0.00     0.000 HD 
ENDBRANCH  15  16
ENDBRANCH  14  15
ENDBRANCH  13  14
ENDBRANCH  12  13
ENDBRANCH  11  12
ENDBRANCH  10  11
ENDBRANCH   9  10
ENDBRANCH   8   9
ENDBRANCH   7   8
ENDBRANCH   6   7
ENDBRANCH   5   6
ENDBRANCH   4   5
ENDBRANCH   3   4
ENDBRANCH   2   3
TORSDOF 14
ENDMDL
MODEL      243
REMARK 921   NORMALIZED FREE ENERGY PREDICTED BY IDOCK:   -2.91 KCAL/MOL
REMARK 922        TOTAL FREE ENERGY PREDICTED BY IDOCK:   -6.67 KCAL/MOL
REMARK 923 INTER-LIGAND FREE ENERGY PREDICTED BY IDOCK:   -5.34 KCAL/MOL
REMARK 924 INTRA-LIGAND FREE ENERGY PREDICTED BY IDOCK:   -1.33 KCAL/MOL
REMARK 927      BINDING AFFINITY PREDICTED BY RF-SCORE:    0.00 PKD
ROOT
HETATM    1  C   UNL     1     -13.219  10.584  71.642  1.00  0.00    -0.493 C  
HETATM    2  C   UNL     1     -13.613   9.333  72.408  1.00  0.00    -0.527 C  
ENDROOT
BRANCH   2   3
HETATM    3  C   UNL     1     -14.269   8.305  71.489  1.00  0.00    -0.489 C  
BRANCH   3   4
HETATM    4  C   UNL     1     -13.529   6.970  71.530  1.00  0.00    -0.363 C  
BRANCH   4   5
HETATM    5  C   UNL     1     -12.186   7.069  70.810  1.00  0.00    -0.343 C  
BRANCH   5   6
HETATM    6  C   UNL     1     -11.149   6.157  71.457  1.00  0.00    -0.342 C  
BRANCH   6   7
HETATM    7  C   UNL     1      -9.928   6.955  71.908  1.00  0.00    -0.183 C  
BRANCH   7   8
HETATM    8  C   UNL     1     -10.161   8.453  71.737  1.00  0.00    -0.323 C  
BRANCH   8   9
HETATM    9  C   UNL     1      -9.271   9.019  70.634  1.00  0.00    -0.279 C  
BRANCH   9  10
HETATM   10  C   UNL     1      -8.444   7.916  69.983  1.00  0.00    -0.134 C  
BRANCH  10  11
HETATM   11  C   UNL     1      -8.843   7.722  68.523  1.00  0.00    -0.130 C  
BRANCH  11  12
HETATM   12  C   UNL     1      -8.507   8.961  67.697  1.00  0.00    -0.121 C  
BRANCH  12  13
HETATM   13  C   UNL     1      -9.665   9.335  66.775  1.00  0.00    -0.260 C  
BRANCH  13  14
HETATM   14  C   UNL     1     -10.360  10.605  67.259  1.00  0.00    -0.265 C  
BRANCH  14  15
HETATM   15  C   UNL     1     -10.888  11.426  66.086  1.00  0.00    -0.310 C  
BRANCH  15  16
HETATM   16  C   UNL     1      -9.765  11.833  65.144  1.00  0.00    -0.203 C  
HETATM   17  O   UNL     1      -9.986  13.154  64.676  1.00  0.00    -0.571 OA 
HETATM   18  H   UNL     1      -9.285  13.409  64.087  1.00  0.00     0.000 HD 
ENDBRANCH  15  16
ENDBRANCH  14  15
ENDBRANCH  13  14
ENDBRANCH  12  13
ENDBRANCH  11  12
ENDBRANCH  10  11
ENDBRANCH   9  10
ENDBRANCH   8   9
ENDBRANCH   7   8
ENDBRANCH   6   7
ENDBRANCH   5   6
ENDBRANCH   4   5
ENDBRANCH   3   4
ENDBRANCH   2   3
TORSDOF 14
ENDMDL
MODEL      244
REMARK 921   NORMALIZED FREE ENERGY PREDICTED BY IDOCK:   -2.90 KCAL/MOL
REMARK 922        TOTAL FREE ENERGY PREDICTED BY IDOCK:   -6.66 KCAL/MOL
REMARK 923 INTER-LIGAND FREE ENERGY PREDICTED BY IDOCK:   -5.18 KCAL/MOL
REMARK 924 INTRA-LIGAND FREE ENERGY PREDICTED BY IDOCK:   -1.48 KCAL/MOL
REMARK 927      BINDING AFFINITY PREDICTED BY RF-SCORE:    0.00 PKD
ROOT
HETATM    1  C   UNL     1      -9.652  11.896  68.061  1.00  0.00    -0.193 C  
HETATM    2  C   UNL     1      -9.754  10.726  67.097  1.00  0.00    -0.198 C  
ENDROOT
BRANCH   2   3
HETATM    3  C   UNL     1      -9.403  11.152  65.673  1.00  0.00    -0.243 C  
BRANCH   3   4
HETATM    4  C   UNL     1     -10.482  10.719  64.682  1.00  0.00    -0.346 C  
BRANCH   4   5
HETATM    5  C   UNL     1     -10.534  11.664  63.484  1.00  0.00    -0.498 C  
BRANCH   5   6
HETATM    6  C   UNL     1     -11.762  12.566  63.550  1.00  0.00    -0.595 C  
BRANCH   6   7
HETATM    7  C   UNL     1     -12.403  12.512  64.935  1.00  0.00    -0.539 C  
BRANCH   7   8
HETATM    8  C   UNL     1     -12.344  13.876  65.617  1.00  0.00    -0.511 C  
BRANCH   8   9
HETATM    9  C   UNL     1     -11.770  14.930  64.676  1.00  0.00    -0.406 C  
BRANCH   9  10
HETATM   10  C   UNL     1     -10.478  15.515  65.237  1.00  0.00    -0.437 C  
BRANCH  10  11
HETATM   11  C   UNL     1     -10.766  16.707  66.145  1.00  0.00    -0.132 C  
BRANCH  11  12
HETATM   12  C   UNL     1     -10.245  16.456  67.557  1.00  0.00    -0.273 C  
BRANCH  12  13
HETATM   13  C   UNL     1      -9.059  15.495  67.541  1.00  0.00    -0.198 C  
BRANCH  13  14
HETATM   14  C   UNL     1      -7.793  16.181  68.049  1.00  0.00    -0.150 C  
BRANCH  14  15
HETATM   15  C   UNL     1      -7.187  15.418  69.223  1.00  0.00    -0.186 C  
BRANCH  15  16
HETATM   16  C   UNL     1      -6.429  14.186  68.752  1.00  0.00    -0.091 C  
HETATM   17  O   UNL     1      -6.376  13.226  69.796  1.00  0.00    -0.185 OA 
HETATM   18  H   UNL     1      -5.902  12.456  69.502  1.00  0.00     0.000 HD 
ENDBRANCH  15  16
ENDBRANCH  14  15
ENDBRANCH  13  14
ENDBRANCH  12  13
ENDBRANCH  11  12
ENDBRANCH  10  11
ENDBRANCH   9  10
ENDBRANCH   8   9
ENDBRANCH   7   8
ENDBRANCH   6   7
ENDBRANCH   5   6
ENDBRANCH   4   5
ENDBRANCH   3   4
ENDBRANCH   2   3
TORSDOF 14
ENDMDL
MODEL      245
REMARK 921   NORMALIZED FREE ENERGY PREDICTED BY IDOCK:   -2.90 KCAL/MOL
REMARK 922        TOTAL FREE ENERGY PREDICTED BY IDOCK:   -6.65 KCAL/MOL
REMARK 923 INTER-LIGAND FREE ENERGY PREDICTED BY IDOCK:   -5.21 KCAL/MOL
REMARK 924 INTRA-LIGAND FREE ENERGY PREDICTED BY IDOCK:   -1.45 KCAL/MOL
REMARK 927      BINDING AFFINITY PREDICTED BY RF-SCORE:    0.00 PKD
ROOT
HETATM    1  C   UNL     1      -7.205  14.894  67.795  1.00  0.00    -0.190 C  
HETATM    2  C   UNL     1      -6.717  13.487  67.494  1.00  0.00    -0.144 C  
ENDROOT
BRANCH   2   3
HETATM    3  C   UNL     1      -7.877  12.493  67.477  1.00  0.00    -0.168 C  
BRANCH   3   4
HETATM    4  C   UNL     1      -7.439  11.139  66.921  1.00  0.00    -0.138 C  
BRANCH   4   5
HETATM    5  C   UNL     1      -8.485  10.066  67.211  1.00  0.00    -0.122 C  
BRANCH   5   6
HETATM    6  C   UNL     1      -9.523   9.997  66.095  1.00  0.00    -0.242 C  
BRANCH   6   7
HETATM    7  C   UNL     1      -8.859   9.707  64.751  1.00  0.00    -0.242 C  
BRANCH   7   8
HETATM    8  C   UNL     1      -9.416  10.617  63.660  1.00  0.00    -0.337 C  
BRANCH   8   9
HETATM    9  C   UNL     1     -10.716  11.276  64.112  1.00  0.00    -0.436 C  
BRANCH   9  10
HETATM   10  C   UNL     1     -10.692  12.774  63.830  1.00  0.00    -0.443 C  
BRANCH  10  11
HETATM   11  C   UNL     1     -12.010  13.428  64.237  1.00  0.00    -0.481 C  
BRANCH  11  12
HETATM   12  C   UNL     1     -11.805  14.390  65.403  1.00  0.00    -0.366 C  
BRANCH  12  13
HETATM   13  C   UNL     1     -10.857  13.796  66.442  1.00  0.00    -0.287 C  
BRANCH  13  14
HETATM   14  C   UNL     1     -11.635  13.172  67.599  1.00  0.00    -0.392 C  
BRANCH  14  15
HETATM   15  C   UNL     1     -11.747  14.140  68.773  1.00  0.00    -0.380 C  
BRANCH  15  16
HETATM   16  C   UNL     1     -12.037  13.405  70.072  1.00  0.00    -0.334 C  
HETATM   17  O   UNL     1     -11.566  14.169  71.172  1.00  0.00    -0.504 OA 
HETATM   18  H   UNL     1     -11.747  13.710  71.984  1.00  0.00     0.000 HD 
ENDBRANCH  15  16
ENDBRANCH  14  15
ENDBRANCH  13  14
ENDBRANCH  12  13
ENDBRANCH  11  12
ENDBRANCH  10  11
ENDBRANCH   9  10
ENDBRANCH   8   9
ENDBRANCH   7   8
ENDBRANCH   6   7
ENDBRANCH   5   6
ENDBRANCH   4   5
ENDBRANCH   3   4
ENDBRANCH   2   3
TORSDOF 14
ENDMDL
MODEL      246
REMARK 921   NORMALIZED FREE ENERGY PREDICTED BY IDOCK:   -2.88 KCAL/MOL
REMARK 922        TOTAL FREE ENERGY PREDICTED BY IDOCK:   -6.62 KCAL/MOL
REMARK 923 INTER-LIGAND FREE ENERGY PREDICTED BY IDOCK:   -4.92 KCAL/MOL
REMARK 924 INTRA-LIGAND FREE ENERGY PREDICTED BY IDOCK:   -1.70 KCAL/MOL
REMARK 927      BINDING AFFINITY PREDICTED BY RF-SCORE:    0.00 PKD
ROOT
HETATM    1  C   UNL     1      -9.478   3.520  69.490  1.00  0.00    -0.236 C  
HETATM    2  C   UNL     1      -9.326   4.918  68.914  1.00  0.00    -0.180 C  
ENDROOT
BRANCH   2   3
HETATM    3  C   UNL     1      -9.747   5.981  69.926  1.00  0.00    -0.200 C  
BRANCH   3   4
HETATM    4  C   UNL     1     -11.267   6.122  69.982  1.00  0.00    -0.471 C  
BRANCH   4   5
HETATM    5  C   UNL     1     -11.742   6.346  71.416  1.00  0.00    -0.364 C  
BRANCH   5   6
HETATM    6  C   UNL     1     -12.864   7.377  71.467  1.00  0.00    -0.416 C  
BRANCH   6   7
HETATM    7  C   UNL     1     -12.386   8.670  72.125  1.00  0.00    -0.452 C  
BRANCH   7   8
HETATM    8  C   UNL     1     -11.912   9.673  71.078  1.00  0.00    -0.427 C  
BRANCH   8   9
HETATM    9  C   UNL     1     -10.392   9.645  70.947  1.00  0.00    -0.334 C  
BRANCH   9  10
HETATM   10  C   UNL     1      -9.953  10.195  69.594  1.00  0.00    -0.262 C  
BRANCH  10  11
HETATM   11  C   UNL     1     -10.928   9.785  68.494  1.00  0.00    -0.195 C  
BRANCH  11  12
HETATM   12  C   UNL     1     -10.593  10.484  67.180  1.00  0.00    -0.319 C  
BRANCH  12  13
HETATM   13  C   UNL     1      -9.911   9.525  66.207  1.00  0.00    -0.344 C  
BRANCH  13  14
HETATM   14  C   UNL     1      -9.989   8.087  66.713  1.00  0.00    -0.344 C  
BRANCH  14  15
HETATM   15  C   UNL     1      -8.880   7.230  66.111  1.00  0.00    -0.181 C  
BRANCH  15  16
HETATM   16  C   UNL     1      -8.092   7.999  65.061  1.00  0.00    -0.145 C  
HETATM   17  O   UNL     1      -6.718   8.024  65.414  1.00  0.00    -0.053 OA 
HETATM   18  H   UNL     1      -6.226   8.505  64.759  1.00  0.00     0.000 HD 
ENDBRANCH  15  16
ENDBRANCH  14  15
ENDBRANCH  13  14
ENDBRANCH  12  13
ENDBRANCH  11  12
ENDBRANCH  10  11
ENDBRANCH   9  10
ENDBRANCH   8   9
ENDBRANCH   7   8
ENDBRANCH   6   7
ENDBRANCH   5   6
ENDBRANCH   4   5
ENDBRANCH   3   4
ENDBRANCH   2   3
TORSDOF 14
ENDMDL
MODEL      247
REMARK 921   NORMALIZED FREE ENERGY PREDICTED BY IDOCK:   -2.88 KCAL/MOL
REMARK 922        TOTAL FREE ENERGY PREDICTED BY IDOCK:   -6.62 KCAL/MOL
REMARK 923 INTER-LIGAND FREE ENERGY PREDICTED BY IDOCK:   -5.24 KCAL/MOL
REMARK 924 INTRA-LIGAND FREE ENERGY PREDICTED BY IDOCK:   -1.38 KCAL/MOL
REMARK 927      BINDING AFFINITY PREDICTED BY RF-SCORE:    0.00 PKD
ROOT
HETATM    1  C   UNL     1      -5.838   7.589  67.750  1.00  0.00    -0.035 C  
HETATM    2  C   UNL     1      -7.218   7.905  67.199  1.00  0.00    -0.090 C  
ENDROOT
BRANCH   2   3
HETATM    3  C   UNL     1      -8.271   7.886  68.305  1.00  0.00    -0.124 C  
BRANCH   3   4
HETATM    4  C   UNL     1      -9.587   7.292  67.808  1.00  0.00    -0.158 C  
BRANCH   4   5
HETATM    5  C   UNL     1     -10.315   8.270  66.889  1.00  0.00    -0.391 C  
BRANCH   5   6
HETATM    6  C   UNL     1     -10.390   9.658  67.515  1.00  0.00    -0.297 C  
BRANCH   6   7
HETATM    7  C   UNL     1     -10.740  10.710  66.464  1.00  0.00    -0.218 C  
BRANCH   7   8
HETATM    8  C   UNL     1      -9.702  10.731  65.346  1.00  0.00    -0.297 C  
BRANCH   8   9
HETATM    9  C   UNL     1     -10.377  10.819  63.980  1.00  0.00    -0.357 C  
BRANCH   9  10
HETATM   10  C   UNL     1     -10.491  12.269  63.522  1.00  0.00    -0.459 C  
BRANCH  10  11
HETATM   11  C   UNL     1     -11.917  12.786  63.696  1.00  0.00    -0.616 C  
BRANCH  11  12
HETATM   12  C   UNL     1     -11.926  14.112  64.453  1.00  0.00    -0.478 C  
BRANCH  12  13
HETATM   13  C   UNL     1     -12.596  13.960  65.816  1.00  0.00    -0.533 C  
BRANCH  13  14
HETATM   14  C   UNL     1     -11.618  14.283  66.944  1.00  0.00    -0.405 C  
BRANCH  14  15
HETATM   15  C   UNL     1     -12.273  14.103  68.310  1.00  0.00    -0.196 C  
BRANCH  15  16
HETATM   16  C   UNL     1     -11.281  13.577  69.336  1.00  0.00    -0.187 C  
HETATM   17  O   UNL     1     -11.766  12.366  69.897  1.00  0.00    -0.402 OA 
HETATM   18  H   UNL     1     -11.147  12.037  70.538  1.00  0.00     0.000 HD 
ENDBRANCH  15  16
ENDBRANCH  14  15
ENDBRANCH  13  14
ENDBRANCH  12  13
ENDBRANCH  11  12
ENDBRANCH  10  11
ENDBRANCH   9  10
ENDBRANCH   8   9
ENDBRANCH   7   8
ENDBRANCH   6   7
ENDBRANCH   5   6
ENDBRANCH   4   5
ENDBRANCH   3   4
ENDBRANCH   2   3
TORSDOF 14
ENDMDL
MODEL      248
REMARK 921   NORMALIZED FREE ENERGY PREDICTED BY IDOCK:   -2.88 KCAL/MOL
REMARK 922        TOTAL FREE ENERGY PREDICTED BY IDOCK:   -6.62 KCAL/MOL
REMARK 923 INTER-LIGAND FREE ENERGY PREDICTED BY IDOCK:   -4.77 KCAL/MOL
REMARK 924 INTRA-LIGAND FREE ENERGY PREDICTED BY IDOCK:   -1.85 KCAL/MOL
REMARK 927      BINDING AFFINITY PREDICTED BY RF-SCORE:    0.00 PKD
ROOT
HETATM    1  C   UNL     1      -9.348   6.347  67.429  1.00  0.00    -0.119 C  
HETATM    2  C   UNL     1     -10.648   7.047  67.071  1.00  0.00    -0.412 C  
ENDROOT
BRANCH   2   3
HETATM    3  C   UNL     1     -10.395   8.480  66.607  1.00  0.00    -0.303 C  
BRANCH   3   4
HETATM    4  C   UNL     1      -9.003   8.957  67.016  1.00  0.00    -0.145 C  
BRANCH   4   5
HETATM    5  C   UNL     1      -8.269   9.578  65.829  1.00  0.00    -0.116 C  
BRANCH   5   6
HETATM    6  C   UNL     1      -7.615  10.899  66.219  1.00  0.00    -0.136 C  
BRANCH   6   7
HETATM    7  C   UNL     1      -8.257  11.473  67.480  1.00  0.00    -0.140 C  
BRANCH   7   8
HETATM    8  C   UNL     1      -9.243  12.585  67.133  1.00  0.00    -0.205 C  
BRANCH   8   9
HETATM    9  C   UNL     1     -10.021  13.026  68.370  1.00  0.00    -0.216 C  
BRANCH   9  10
HETATM   10  C   UNL     1     -11.509  12.732  68.209  1.00  0.00    -0.354 C  
BRANCH  10  11
HETATM   11  C   UNL     1     -11.804  11.255  68.458  1.00  0.00    -0.355 C  
BRANCH  11  12
HETATM   12  C   UNL     1     -12.495  11.057  69.805  1.00  0.00    -0.251 C  
BRANCH  12  13
HETATM   13  C   UNL     1     -11.541  10.441  70.824  1.00  0.00    -0.450 C  
BRANCH  13  14
HETATM   14  C   UNL     1     -10.778   9.265  70.217  1.00  0.00    -0.284 C  
BRANCH  14  15
HETATM   15  C   UNL     1     -11.191   7.947  70.865  1.00  0.00    -0.284 C  
BRANCH  15  16
HETATM   16  C   UNL     1     -12.207   8.168  71.975  1.00  0.00    -0.339 C  
HETATM   17  O   UNL     1     -11.674   7.718  73.211  1.00  0.00    -0.659 OA 
HETATM   18  H   UNL     1     -12.308   7.856  73.905  1.00  0.00     0.000 HD 
ENDBRANCH  15  16
ENDBRANCH  14  15
ENDBRANCH  13  14
ENDBRANCH  12  13
ENDBRANCH  11  12
ENDBRANCH  10  11
ENDBRANCH   9  10
ENDBRANCH   8   9
ENDBRANCH   7   8
ENDBRANCH   6   7
ENDBRANCH   5   6
ENDBRANCH   4   5
ENDBRANCH   3   4
ENDBRANCH   2   3
TORSDOF 14
ENDMDL
MODEL      249
REMARK 921   NORMALIZED FREE ENERGY PREDICTED BY IDOCK:   -2.88 KCAL/MOL
REMARK 922        TOTAL FREE ENERGY PREDICTED BY IDOCK:   -6.62 KCAL/MOL
REMARK 923 INTER-LIGAND FREE ENERGY PREDICTED BY IDOCK:   -5.45 KCAL/MOL
REMARK 924 INTRA-LIGAND FREE ENERGY PREDICTED BY IDOCK:   -1.18 KCAL/MOL
REMARK 927      BINDING AFFINITY PREDICTED BY RF-SCORE:    0.00 PKD
ROOT
HETATM    1  C   UNL     1      -8.333   9.855  63.081  1.00  0.00    -0.166 C  
HETATM    2  C   UNL     1      -9.589  10.682  62.868  1.00  0.00    -0.358 C  
ENDROOT
BRANCH   2   3
HETATM    3  C   UNL     1     -10.336  10.901  64.182  1.00  0.00    -0.432 C  
BRANCH   3   4
HETATM    4  C   UNL     1      -9.788  10.001  65.288  1.00  0.00    -0.388 C  
BRANCH   4   5
HETATM    5  C   UNL     1     -10.728   9.981  66.491  1.00  0.00    -0.094 C  
BRANCH   5   6
HETATM    6  C   UNL     1      -9.952  10.139  67.795  1.00  0.00    -0.198 C  
BRANCH   6   7
HETATM    7  C   UNL     1     -10.590  11.207  68.681  1.00  0.00    -0.222 C  
BRANCH   7   8
HETATM    8  C   UNL     1     -11.776  10.638  69.455  1.00  0.00    -0.344 C  
BRANCH   8   9
HETATM    9  C   UNL     1     -11.345  10.166  70.840  1.00  0.00    -0.420 C  
BRANCH   9  10
HETATM   10  C   UNL     1     -12.557   9.808  71.694  1.00  0.00    -0.509 C  
BRANCH  10  11
HETATM   11  C   UNL     1     -12.356   8.468  72.396  1.00  0.00    -0.424 C  
BRANCH  11  12
HETATM   12  C   UNL     1     -12.451   7.313  71.402  1.00  0.00    -0.418 C  
BRANCH  12  13
HETATM   13  C   UNL     1     -11.415   6.236  71.713  1.00  0.00    -0.355 C  
BRANCH  13  14
HETATM   14  C   UNL     1     -10.717   5.766  70.438  1.00  0.00    -0.372 C  
BRANCH  14  15
HETATM   15  C   UNL     1     -10.703   6.865  69.380  1.00  0.00    -0.275 C  
BRANCH  15  16
HETATM   16  C   UNL     1     -11.021   6.311  68.000  1.00  0.00    -0.327 C  
HETATM   17  O   UNL     1      -9.980   5.443  67.579  1.00  0.00    -0.144 OA 
HETATM   18  H   UNL     1     -10.179   5.097  66.717  1.00  0.00     0.000 HD 
ENDBRANCH  15  16
ENDBRANCH  14  15
ENDBRANCH  13  14
ENDBRANCH  12  13
ENDBRANCH  11  12
ENDBRANCH  10  11
ENDBRANCH   9  10
ENDBRANCH   8   9
ENDBRANCH   7   8
ENDBRANCH   6   7
ENDBRANCH   5   6
ENDBRANCH   4   5
ENDBRANCH   3   4
ENDBRANCH   2   3
TORSDOF 14
ENDMDL
MODEL      250
REMARK 921   NORMALIZED FREE ENERGY PREDICTED BY IDOCK:   -2.87 KCAL/MOL
REMARK 922        TOTAL FREE ENERGY PREDICTED BY IDOCK:   -6.60 KCAL/MOL
REMARK 923 INTER-LIGAND FREE ENERGY PREDICTED BY IDOCK:   -5.45 KCAL/MOL
REMARK 924 INTRA-LIGAND FREE ENERGY PREDICTED BY IDOCK:   -1.14 KCAL/MOL
REMARK 927      BINDING AFFINITY PREDICTED BY RF-SCORE:    0.00 PKD
ROOT
HETATM    1  C   UNL     1      -6.971  18.944  65.870  1.00  0.00    -0.304 C  
HETATM    2  C   UNL     1      -7.333  19.558  67.211  1.00  0.00    -0.249 C  
ENDROOT
BRANCH   2   3
HETATM    3  C   UNL     1      -8.522  20.508  67.081  1.00  0.00    -0.357 C  
BRANCH   3   4
HETATM    4  C   UNL     1      -9.655  20.112  68.026  1.00  0.00    -0.427 C  
BRANCH   4   5
HETATM    5  C   UNL     1     -10.803  19.462  67.258  1.00  0.00    -0.561 C  
BRANCH   5   6
HETATM    6  C   UNL     1     -10.889  17.970  67.560  1.00  0.00    -0.252 C  
BRANCH   6   7
HETATM    7  C   UNL     1     -10.102  17.161  66.531  1.00  0.00    -0.313 C  
BRANCH   7   8
HETATM    8  C   UNL     1      -9.214  16.125  67.215  1.00  0.00    -0.218 C  
BRANCH   8   9
HETATM    9  C   UNL     1      -8.915  14.961  66.275  1.00  0.00    -0.193 C  
BRANCH   9  10
HETATM   10  C   UNL     1      -9.612  13.689  66.746  1.00  0.00    -0.277 C  
BRANCH  10  11
HETATM   11  C   UNL     1     -10.809  13.360  65.858  1.00  0.00    -0.282 C  
BRANCH  11  12
HETATM   12  C   UNL     1     -11.464  12.051  66.290  1.00  0.00    -0.408 C  
BRANCH  12  13
HETATM   13  C   UNL     1     -11.633  11.996  67.806  1.00  0.00    -0.400 C  
BRANCH  13  14
HETATM   14  C   UNL     1     -11.321  10.600  68.340  1.00  0.00    -0.348 C  
BRANCH  14  15
HETATM   15  C   UNL     1     -11.156  10.614  69.857  1.00  0.00    -0.364 C  
BRANCH  15  16
HETATM   16  C   UNL     1     -11.208   9.208  70.434  1.00  0.00    -0.240 C  
HETATM   17  O   UNL     1     -10.062   8.976  71.239  1.00  0.00    -0.259 OA 
HETATM   18  H   UNL     1     -10.095   8.097  71.599  1.00  0.00     0.000 HD 
ENDBRANCH  15  16
ENDBRANCH  14  15
ENDBRANCH  13  14
ENDBRANCH  12  13
ENDBRANCH  11  12
ENDBRANCH  10  11
ENDBRANCH   9  10
ENDBRANCH   8   9
ENDBRANCH   7   8
ENDBRANCH   6   7
ENDBRANCH   5   6
ENDBRANCH   4   5
ENDBRANCH   3   4
ENDBRANCH   2   3
TORSDOF 14
ENDMDL
MODEL      251
REMARK 921   NORMALIZED FREE ENERGY PREDICTED BY IDOCK:   -2.86 KCAL/MOL
REMARK 922        TOTAL FREE ENERGY PREDICTED BY IDOCK:   -6.58 KCAL/MOL
REMARK 923 INTER-LIGAND FREE ENERGY PREDICTED BY IDOCK:   -5.63 KCAL/MOL
REMARK 924 INTRA-LIGAND FREE ENERGY PREDICTED BY IDOCK:   -0.96 KCAL/MOL
REMARK 927      BINDING AFFINITY PREDICTED BY RF-SCORE:    0.00 PKD
ROOT
HETATM    1  C   UNL     1     -12.849  15.611  70.952  1.00  0.00    -0.498 C  
HETATM    2  C   UNL     1     -14.021  15.286  71.863  1.00  0.00    -0.644 C  
ENDROOT
BRANCH   2   3
HETATM    3  C   UNL     1     -14.097  13.789  72.152  1.00  0.00    -0.604 C  
BRANCH   3   4
HETATM    4  C   UNL     1     -13.152  13.000  71.247  1.00  0.00    -0.263 C  
BRANCH   4   5
HETATM    5  C   UNL     1     -12.796  11.654  71.872  1.00  0.00    -0.354 C  
BRANCH   5   6
HETATM    6  C   UNL     1     -12.669  10.571  70.805  1.00  0.00    -0.471 C  
BRANCH   6   7
HETATM    7  C   UNL     1     -11.228  10.079  70.697  1.00  0.00    -0.425 C  
BRANCH   7   8
HETATM    8  C   UNL     1     -10.795   9.976  69.237  1.00  0.00    -0.261 C  
BRANCH   8   9
HETATM    9  C   UNL     1     -11.521  11.009  68.380  1.00  0.00    -0.378 C  
BRANCH   9  10
HETATM   10  C   UNL     1     -10.708  11.353  67.137  1.00  0.00    -0.292 C  
BRANCH  10  11
HETATM   11  C   UNL     1      -9.217  11.417  67.459  1.00  0.00    -0.160 C  
BRANCH  11  12
HETATM   12  C   UNL     1      -8.399  10.687  66.397  1.00  0.00    -0.151 C  
BRANCH  12  13
HETATM   13  C   UNL     1      -9.128   9.439  65.905  1.00  0.00    -0.242 C  
BRANCH  13  14
HETATM   14  C   UNL     1      -8.883   8.258  66.842  1.00  0.00    -0.155 C  
BRANCH  14  15
HETATM   15  C   UNL     1     -10.184   7.530  67.163  1.00  0.00    -0.350 C  
BRANCH  15  16
HETATM   16  C   UNL     1     -10.052   6.685  68.421  1.00  0.00    -0.156 C  
HETATM   17  O   UNL     1     -11.202   5.867  68.573  1.00  0.00    -0.221 OA 
HETATM   18  H   UNL     1     -11.119   5.339  69.359  1.00  0.00     0.000 HD 
ENDBRANCH  15  16
ENDBRANCH  14  15
ENDBRANCH  13  14
ENDBRANCH  12  13
ENDBRANCH  11  12
ENDBRANCH  10  11
ENDBRANCH   9  10
ENDBRANCH   8   9
ENDBRANCH   7   8
ENDBRANCH   6   7
ENDBRANCH   5   6
ENDBRANCH   4   5
ENDBRANCH   3   4
ENDBRANCH   2   3
TORSDOF 14
ENDMDL
MODEL      252
REMARK 921   NORMALIZED FREE ENERGY PREDICTED BY IDOCK:   -2.85 KCAL/MOL
REMARK 922        TOTAL FREE ENERGY PREDICTED BY IDOCK:   -6.56 KCAL/MOL
REMARK 923 INTER-LIGAND FREE ENERGY PREDICTED BY IDOCK:   -5.96 KCAL/MOL
REMARK 924 INTRA-LIGAND FREE ENERGY PREDICTED BY IDOCK:   -0.60 KCAL/MOL
REMARK 927      BINDING AFFINITY PREDICTED BY RF-SCORE:    0.00 PKD
ROOT
HETATM    1  C   UNL     1      -9.352  17.954  67.979  1.00  0.00    -0.274 C  
HETATM    2  C   UNL     1     -10.558  17.150  67.525  1.00  0.00    -0.323 C  
ENDROOT
BRANCH   2   3
HETATM    3  C   UNL     1     -11.142  16.332  68.676  1.00  0.00    -0.356 C  
BRANCH   3   4
HETATM    4  C   UNL     1     -10.834  14.845  68.511  1.00  0.00    -0.249 C  
BRANCH   4   5
HETATM    5  C   UNL     1     -11.975  13.989  69.054  1.00  0.00    -0.392 C  
BRANCH   5   6
HETATM    6  C   UNL     1     -12.492  14.539  70.379  1.00  0.00    -0.407 C  
BRANCH   6   7
HETATM    7  C   UNL     1     -12.823  13.405  71.347  1.00  0.00    -0.420 C  
BRANCH   7   8
HETATM    8  C   UNL     1     -12.334  12.065  70.805  1.00  0.00    -0.403 C  
BRANCH   8   9
HETATM    9  C   UNL     1     -13.023  10.906  71.521  1.00  0.00    -0.556 C  
BRANCH   9  10
HETATM   10  C   UNL     1     -12.172   9.642  71.452  1.00  0.00    -0.471 C  
BRANCH  10  11
HETATM   11  C   UNL     1     -12.772   8.532  72.310  1.00  0.00    -0.420 C  
BRANCH  11  12
HETATM   12  C   UNL     1     -12.850   7.222  71.530  1.00  0.00    -0.430 C  
BRANCH  12  13
HETATM   13  C   UNL     1     -11.732   6.270  71.947  1.00  0.00    -0.370 C  
BRANCH  13  14
HETATM   14  C   UNL     1     -10.548   6.366  70.988  1.00  0.00    -0.282 C  
BRANCH  14  15
HETATM   15  C   UNL     1     -10.459   5.132  70.096  1.00  0.00    -0.305 C  
BRANCH  15  16
HETATM   16  C   UNL     1      -9.440   4.135  70.626  1.00  0.00    -0.172 C  
HETATM   17  O   UNL     1     -10.080   3.204  71.485  1.00  0.00    -0.128 OA 
HETATM   18  H   UNL     1      -9.444   2.581  71.816  1.00  0.00     0.000 HD 
ENDBRANCH  15  16
ENDBRANCH  14  15
ENDBRANCH  13  14
ENDBRANCH  12  13
ENDBRANCH  11  12
ENDBRANCH  10  11
ENDBRANCH   9  10
ENDBRANCH   8   9
ENDBRANCH   7   8
ENDBRANCH   6   7
ENDBRANCH   5   6
ENDBRANCH   4   5
ENDBRANCH   3   4
ENDBRANCH   2   3
TORSDOF 14
ENDMDL
MODEL      253
REMARK 921   NORMALIZED FREE ENERGY PREDICTED BY IDOCK:   -2.84 KCAL/MOL
REMARK 922        TOTAL FREE ENERGY PREDICTED BY IDOCK:   -6.54 KCAL/MOL
REMARK 923 INTER-LIGAND FREE ENERGY PREDICTED BY IDOCK:   -5.15 KCAL/MOL
REMARK 924 INTRA-LIGAND FREE ENERGY PREDICTED BY IDOCK:   -1.39 KCAL/MOL
REMARK 927      BINDING AFFINITY PREDICTED BY RF-SCORE:    0.00 PKD
ROOT
HETATM    1  C   UNL     1      -8.806   7.428  67.713  1.00  0.00    -0.128 C  
HETATM    2  C   UNL     1      -9.652   7.604  66.464  1.00  0.00    -0.254 C  
ENDROOT
BRANCH   2   3
HETATM    3  C   UNL     1     -10.078   9.060  66.286  1.00  0.00    -0.311 C  
BRANCH   3   4
HETATM    4  C   UNL     1     -10.746   9.601  67.548  1.00  0.00    -0.321 C  
BRANCH   4   5
HETATM    5  C   UNL     1     -10.690  11.126  67.584  1.00  0.00    -0.273 C  
BRANCH   5   6
HETATM    6  C   UNL     1      -9.714  11.614  68.649  1.00  0.00    -0.151 C  
BRANCH   6   7
HETATM    7  C   UNL     1      -9.051  12.922  68.221  1.00  0.00    -0.180 C  
BRANCH   7   8
HETATM    8  C   UNL     1      -9.820  14.125  68.758  1.00  0.00    -0.168 C  
BRANCH   8   9
HETATM    9  C   UNL     1      -8.916  15.351  68.849  1.00  0.00    -0.208 C  
BRANCH   9  10
HETATM   10  C   UNL     1      -9.683  16.620  68.488  1.00  0.00    -0.244 C  
BRANCH  10  11
HETATM   11  C   UNL     1     -10.796  16.320  67.488  1.00  0.00    -0.268 C  
BRANCH  11  12
HETATM   12  C   UNL     1     -10.432  16.834  66.098  1.00  0.00    -0.282 C  
BRANCH  12  13
HETATM   13  C   UNL     1     -10.810  15.820  65.022  1.00  0.00    -0.461 C  
BRANCH  13  14
HETATM   14  C   UNL     1     -10.093  14.491  65.248  1.00  0.00    -0.389 C  
BRANCH  14  15
HETATM   15  C   UNL     1     -10.891  13.328  64.667  1.00  0.00    -0.396 C  
BRANCH  15  16
HETATM   16  C   UNL     1     -12.340  13.718  64.420  1.00  0.00    -0.344 C  
HETATM   17  O   UNL     1     -13.204  12.775  65.037  1.00  0.00    -0.768 OA 
HETATM   18  H   UNL     1     -14.109  13.018  64.882  1.00  0.00     0.000 HD 
ENDBRANCH  15  16
ENDBRANCH  14  15
ENDBRANCH  13  14
ENDBRANCH  12  13
ENDBRANCH  11  12
ENDBRANCH  10  11
ENDBRANCH   9  10
ENDBRANCH   8   9
ENDBRANCH   7   8
ENDBRANCH   6   7
ENDBRANCH   5   6
ENDBRANCH   4   5
ENDBRANCH   3   4
ENDBRANCH   2   3
TORSDOF 14
ENDMDL
MODEL      254
REMARK 921   NORMALIZED FREE ENERGY PREDICTED BY IDOCK:   -2.83 KCAL/MOL
REMARK 922        TOTAL FREE ENERGY PREDICTED BY IDOCK:   -6.53 KCAL/MOL
REMARK 923 INTER-LIGAND FREE ENERGY PREDICTED BY IDOCK:   -5.76 KCAL/MOL
REMARK 924 INTRA-LIGAND FREE ENERGY PREDICTED BY IDOCK:   -0.77 KCAL/MOL
REMARK 927      BINDING AFFINITY PREDICTED BY RF-SCORE:    0.00 PKD
ROOT
HETATM    1  C   UNL     1     -12.075   8.563  72.338  1.00  0.00    -0.436 C  
HETATM    2  C   UNL     1     -11.371   9.576  71.452  1.00  0.00    -0.462 C  
ENDROOT
BRANCH   2   3
HETATM    3  C   UNL     1     -12.377  10.453  70.709  1.00  0.00    -0.463 C  
BRANCH   3   4
HETATM    4  C   UNL     1     -12.824  11.634  71.567  1.00  0.00    -0.469 C  
BRANCH   4   5
HETATM    5  C   UNL     1     -12.647  12.952  70.817  1.00  0.00    -0.314 C  
BRANCH   5   6
HETATM    6  C   UNL     1     -12.505  14.121  71.786  1.00  0.00    -0.360 C  
BRANCH   6   7
HETATM    7  C   UNL     1     -11.986  15.364  71.068  1.00  0.00    -0.409 C  
BRANCH   7   8
HETATM    8  C   UNL     1     -12.154  15.232  69.557  1.00  0.00    -0.320 C  
BRANCH   8   9
HETATM    9  C   UNL     1     -11.032  15.957  68.820  1.00  0.00    -0.301 C  
BRANCH   9  10
HETATM   10  C   UNL     1      -9.708  15.806  69.562  1.00  0.00    -0.276 C  
BRANCH  10  11
HETATM   11  C   UNL     1      -8.526  15.958  68.609  1.00  0.00    -0.200 C  
BRANCH  11  12
HETATM   12  C   UNL     1      -7.936  17.363  68.691  1.00  0.00    -0.271 C  
BRANCH  12  13
HETATM   13  C   UNL     1      -8.290  18.179  67.450  1.00  0.00    -0.239 C  
BRANCH  13  14
HETATM   14  C   UNL     1      -7.622  17.599  66.206  1.00  0.00    -0.334 C  
BRANCH  14  15
HETATM   15  C   UNL     1      -6.202  18.133  66.044  1.00  0.00    -0.264 C  
BRANCH  15  16
HETATM   16  C   UNL     1      -6.170  19.367  65.154  1.00  0.00    -0.272 C  
HETATM   17  O   UNL     1      -6.057  18.976  63.795  1.00  0.00    -0.370 OA 
HETATM   18  H   UNL     1      -6.037  19.746  63.239  1.00  0.00     0.000 HD 
ENDBRANCH  15  16
ENDBRANCH  14  15
ENDBRANCH  13  14
ENDBRANCH  12  13
ENDBRANCH  11  12
ENDBRANCH  10  11
ENDBRANCH   9  10
ENDBRANCH   8   9
ENDBRANCH   7   8
ENDBRANCH   6   7
ENDBRANCH   5   6
ENDBRANCH   4   5
ENDBRANCH   3   4
ENDBRANCH   2   3
TORSDOF 14
ENDMDL
MODEL      255
REMARK 921   NORMALIZED FREE ENERGY PREDICTED BY IDOCK:   -2.83 KCAL/MOL
REMARK 922        TOTAL FREE ENERGY PREDICTED BY IDOCK:   -6.52 KCAL/MOL
REMARK 923 INTER-LIGAND FREE ENERGY PREDICTED BY IDOCK:   -5.03 KCAL/MOL
REMARK 924 INTRA-LIGAND FREE ENERGY PREDICTED BY IDOCK:   -1.49 KCAL/MOL
REMARK 927      BINDING AFFINITY PREDICTED BY RF-SCORE:    0.00 PKD
ROOT
HETATM    1  C   UNL     1     -11.815  12.037  63.373  1.00  0.00    -0.542 C  
HETATM    2  C   UNL     1     -10.307  11.882  63.269  1.00  0.00    -0.432 C  
ENDROOT
BRANCH   2   3
HETATM    3  C   UNL     1      -9.872  10.463  63.627  1.00  0.00    -0.288 C  
BRANCH   3   4
HETATM    4  C   UNL     1      -8.481  10.154  63.078  1.00  0.00    -0.180 C  
BRANCH   4   5
HETATM    5  C   UNL     1      -7.549   9.677  64.189  1.00  0.00    -0.128 C  
BRANCH   5   6
HETATM    6  C   UNL     1      -8.279   8.756  65.161  1.00  0.00    -0.149 C  
BRANCH   6   7
HETATM    7  C   UNL     1      -7.912   9.088  66.605  1.00  0.00    -0.100 C  
BRANCH   7   8
HETATM    8  C   UNL     1      -7.131  10.396  66.683  1.00  0.00    -0.112 C  
BRANCH   8   9
HETATM    9  C   UNL     1      -7.418  11.123  67.994  1.00  0.00    -0.094 C  
BRANCH   9  10
HETATM   10  C   UNL     1      -8.856  11.630  68.031  1.00  0.00    -0.162 C  
BRANCH  10  11
HETATM   11  C   UNL     1      -9.154  12.516  66.824  1.00  0.00    -0.214 C  
BRANCH  11  12
HETATM   12  C   UNL     1      -9.270  13.980  67.238  1.00  0.00    -0.231 C  
BRANCH  12  13
HETATM   13  C   UNL     1     -10.676  14.514  66.977  1.00  0.00    -0.291 C  
BRANCH  13  14
HETATM   14  C   UNL     1     -10.688  16.041  66.974  1.00  0.00    -0.277 C  
BRANCH  14  15
HETATM   15  C   UNL     1     -10.606  16.590  65.553  1.00  0.00    -0.310 C  
BRANCH  15  16
HETATM   16  C   UNL     1     -11.005  15.539  64.528  1.00  0.00    -0.206 C  
HETATM   17  O   UNL     1     -12.050  16.040  63.708  1.00  0.00    -1.318 OA 
HETATM   18  H   UNL     1     -12.299  15.384  63.068  1.00  0.00     0.000 HD 
ENDBRANCH  15  16
ENDBRANCH  14  15
ENDBRANCH  13  14
ENDBRANCH  12  13
ENDBRANCH  11  12
ENDBRANCH  10  11
ENDBRANCH   9  10
ENDBRANCH   8   9
ENDBRANCH   7   8
ENDBRANCH   6   7
ENDBRANCH   5   6
ENDBRANCH   4   5
ENDBRANCH   3   4
ENDBRANCH   2   3
TORSDOF 14
ENDMDL
MODEL      256
REMARK 921   NORMALIZED FREE ENERGY PREDICTED BY IDOCK:   -2.83 KCAL/MOL
REMARK 922        TOTAL FREE ENERGY PREDICTED BY IDOCK:   -6.52 KCAL/MOL
REMARK 923 INTER-LIGAND FREE ENERGY PREDICTED BY IDOCK:   -5.72 KCAL/MOL
REMARK 924 INTRA-LIGAND FREE ENERGY PREDICTED BY IDOCK:   -0.80 KCAL/MOL
REMARK 927      BINDING AFFINITY PREDICTED BY RF-SCORE:    0.00 PKD
ROOT
HETATM    1  C   UNL     1      -8.538   3.314  71.631  1.00  0.00    -0.106 C  
HETATM    2  C   UNL     1      -9.750   3.364  70.717  1.00  0.00    -0.190 C  
ENDROOT
BRANCH   2   3
HETATM    3  C   UNL     1      -9.691   4.574  69.787  1.00  0.00    -0.285 C  
BRANCH   3   4
HETATM    4  C   UNL     1     -10.899   5.486  69.986  1.00  0.00    -0.301 C  
BRANCH   4   5
HETATM    5  C   UNL     1     -10.559   6.646  70.919  1.00  0.00    -0.263 C  
BRANCH   5   6
HETATM    6  C   UNL     1     -11.423   6.611  72.176  1.00  0.00    -0.323 C  
BRANCH   6   7
HETATM    7  C   UNL     1     -11.552   8.004  72.787  1.00  0.00    -0.390 C  
BRANCH   7   8
HETATM    8  C   UNL     1     -11.429   9.084  71.715  1.00  0.00    -0.442 C  
BRANCH   8   9
HETATM    9  C   UNL     1     -12.736   9.858  71.572  1.00  0.00    -0.515 C  
BRANCH   9  10
HETATM   10  C   UNL     1     -12.478  11.266  71.044  1.00  0.00    -0.503 C  
BRANCH  10  11
HETATM   11  C   UNL     1     -11.503  11.240  69.871  1.00  0.00    -0.373 C  
BRANCH  11  12
HETATM   12  C   UNL     1     -11.660  12.486  69.004  1.00  0.00    -0.365 C  
BRANCH  12  13
HETATM   13  C   UNL     1     -12.092  13.686  69.843  1.00  0.00    -0.406 C  
BRANCH  13  14
HETATM   14  C   UNL     1     -11.082  14.826  69.726  1.00  0.00    -0.288 C  
BRANCH  14  15
HETATM   15  C   UNL     1     -11.625  15.956  68.857  1.00  0.00    -0.392 C  
BRANCH  15  16
HETATM   16  C   UNL     1     -10.499  16.745  68.205  1.00  0.00    -0.341 C  
HETATM   17  O   UNL     1      -9.267  16.439  68.841  1.00  0.00    -0.241 OA 
HETATM   18  H   UNL     1      -8.564  16.932  68.434  1.00  0.00     0.000 HD 
ENDBRANCH  15  16
ENDBRANCH  14  15
ENDBRANCH  13  14
ENDBRANCH  12  13
ENDBRANCH  11  12
ENDBRANCH  10  11
ENDBRANCH   9  10
ENDBRANCH   8   9
ENDBRANCH   7   8
ENDBRANCH   6   7
ENDBRANCH   5   6
ENDBRANCH   4   5
ENDBRANCH   3   4
ENDBRANCH   2   3
TORSDOF 14
ENDMDL
MODEL      257
REMARK 921   NORMALIZED FREE ENERGY PREDICTED BY IDOCK:   -2.83 KCAL/MOL
REMARK 922        TOTAL FREE ENERGY PREDICTED BY IDOCK:   -6.52 KCAL/MOL
REMARK 923 INTER-LIGAND FREE ENERGY PREDICTED BY IDOCK:   -5.20 KCAL/MOL
REMARK 924 INTRA-LIGAND FREE ENERGY PREDICTED BY IDOCK:   -1.32 KCAL/MOL
REMARK 927      BINDING AFFINITY PREDICTED BY RF-SCORE:    0.00 PKD
ROOT
HETATM    1  C   UNL     1     -13.100  15.583  71.036  1.00  0.00    -0.551 C  
HETATM    2  C   UNL     1     -12.850  14.094  70.868  1.00  0.00    -0.404 C  
ENDROOT
BRANCH   2   3
HETATM    3  C   UNL     1     -11.605  13.836  70.022  1.00  0.00    -0.265 C  
BRANCH   3   4
HETATM    4  C   UNL     1     -10.621  15.000  70.113  1.00  0.00    -0.155 C  
BRANCH   4   5
HETATM    5  C   UNL     1     -10.264  15.523  68.724  1.00  0.00    -0.212 C  
BRANCH   5   6
HETATM    6  C   UNL     1      -8.764  15.414  68.465  1.00  0.00    -0.178 C  
BRANCH   6   7
HETATM    7  C   UNL     1      -8.490  15.010  67.019  1.00  0.00    -0.258 C  
BRANCH   7   8
HETATM    8  C   UNL     1      -9.445  15.718  66.063  1.00  0.00    -0.392 C  
BRANCH   8   9
HETATM    9  C   UNL     1      -9.170  17.219  66.032  1.00  0.00    -0.121 C  
BRANCH   9  10
HETATM   10  C   UNL     1     -10.471  18.008  65.941  1.00  0.00    -0.268 C  
BRANCH  10  11
HETATM   11  C   UNL     1     -10.366  19.326  66.704  1.00  0.00    -0.529 C  
BRANCH  11  12
HETATM   12  C   UNL     1     -10.146  19.076  68.194  1.00  0.00    -0.467 C  
BRANCH  12  13
HETATM   13  C   UNL     1      -8.914  19.823  68.699  1.00  0.00    -0.255 C  
BRANCH  13  14
HETATM   14  C   UNL     1      -7.748  18.863  68.924  1.00  0.00    -0.321 C  
BRANCH  14  15
HETATM   15  C   UNL     1      -6.439  19.622  69.116  1.00  0.00    -0.361 C  
BRANCH  15  16
HETATM   16  C   UNL     1      -5.541  18.933  70.133  1.00  0.00    -0.242 C  
HETATM   17  O   UNL     1      -5.625  17.526  69.972  1.00  0.00    -0.225 OA 
HETATM   18  H   UNL     1      -5.065  17.095  70.607  1.00  0.00     0.000 HD 
ENDBRANCH  15  16
ENDBRANCH  14  15
ENDBRANCH  13  14
ENDBRANCH  12  13
ENDBRANCH  11  12
ENDBRANCH  10  11
ENDBRANCH   9  10
ENDBRANCH   8   9
ENDBRANCH   7   8
ENDBRANCH   6   7
ENDBRANCH   5   6
ENDBRANCH   4   5
ENDBRANCH   3   4
ENDBRANCH   2   3
TORSDOF 14
ENDMDL
MODEL      258
REMARK 921   NORMALIZED FREE ENERGY PREDICTED BY IDOCK:   -2.82 KCAL/MOL
REMARK 922        TOTAL FREE ENERGY PREDICTED BY IDOCK:   -6.51 KCAL/MOL
REMARK 923 INTER-LIGAND FREE ENERGY PREDICTED BY IDOCK:   -5.58 KCAL/MOL
REMARK 924 INTRA-LIGAND FREE ENERGY PREDICTED BY IDOCK:   -0.93 KCAL/MOL
REMARK 927      BINDING AFFINITY PREDICTED BY RF-SCORE:    0.00 PKD
ROOT
HETATM    1  C   UNL     1      -9.597   3.982  67.685  1.00  0.00    -0.210 C  
HETATM    2  C   UNL     1      -9.752   4.268  66.201  1.00  0.00    -0.220 C  
ENDROOT
BRANCH   2   3
HETATM    3  C   UNL     1      -9.137   5.616  65.830  1.00  0.00    -0.158 C  
BRANCH   3   4
HETATM    4  C   UNL     1      -9.724   6.744  66.675  1.00  0.00    -0.213 C  
BRANCH   4   5
HETATM    5  C   UNL     1      -8.637   7.728  67.102  1.00  0.00    -0.128 C  
BRANCH   5   6
HETATM    6  C   UNL     1      -9.105   9.170  66.931  1.00  0.00    -0.163 C  
BRANCH   6   7
HETATM    7  C   UNL     1      -9.300   9.507  65.454  1.00  0.00    -0.324 C  
BRANCH   7   8
HETATM    8  C   UNL     1      -9.715  10.965  65.278  1.00  0.00    -0.296 C  
BRANCH   8   9
HETATM    9  C   UNL     1     -10.615  11.130  64.056  1.00  0.00    -0.436 C  
BRANCH   9  10
HETATM   10  C   UNL     1     -10.617  12.576  63.574  1.00  0.00    -0.394 C  
BRANCH  10  11
HETATM   11  C   UNL     1     -11.948  13.255  63.888  1.00  0.00    -0.541 C  
BRANCH  11  12
HETATM   12  C   UNL     1     -11.724  14.604  64.565  1.00  0.00    -0.410 C  
BRANCH  12  13
HETATM   13  C   UNL     1     -11.121  14.425  65.956  1.00  0.00    -0.324 C  
BRANCH  13  14
HETATM   14  C   UNL     1     -12.156  13.874  66.934  1.00  0.00    -0.467 C  
BRANCH  14  15
HETATM   15  C   UNL     1     -11.516  12.915  67.933  1.00  0.00    -0.362 C  
BRANCH  15  16
HETATM   16  C   UNL     1     -11.863  11.469  67.615  1.00  0.00    -0.118 C  
HETATM   17  O   UNL     1     -12.400  10.839  68.768  1.00  0.00    -0.812 OA 
HETATM   18  H   UNL     1     -12.617   9.935  68.569  1.00  0.00     0.000 HD 
ENDBRANCH  15  16
ENDBRANCH  14  15
ENDBRANCH  13  14
ENDBRANCH  12  13
ENDBRANCH  11  12
ENDBRANCH  10  11
ENDBRANCH   9  10
ENDBRANCH   8   9
ENDBRANCH   7   8
ENDBRANCH   6   7
ENDBRANCH   5   6
ENDBRANCH   4   5
ENDBRANCH   3   4
ENDBRANCH   2   3
TORSDOF 14
ENDMDL
MODEL      259
REMARK 921   NORMALIZED FREE ENERGY PREDICTED BY IDOCK:   -2.82 KCAL/MOL
REMARK 922        TOTAL FREE ENERGY PREDICTED BY IDOCK:   -6.50 KCAL/MOL
REMARK 923 INTER-LIGAND FREE ENERGY PREDICTED BY IDOCK:   -5.08 KCAL/MOL
REMARK 924 INTRA-LIGAND FREE ENERGY PREDICTED BY IDOCK:   -1.42 KCAL/MOL
REMARK 927      BINDING AFFINITY PREDICTED BY RF-SCORE:    0.00 PKD
ROOT
HETATM    1  C   UNL     1     -12.288  10.462  70.497  1.00  0.00    -0.410 C  
HETATM    2  C   UNL     1     -11.895  11.806  69.910  1.00  0.00    -0.423 C  
ENDROOT
BRANCH   2   3
HETATM    3  C   UNL     1     -11.772  11.730  68.390  1.00  0.00    -0.389 C  
BRANCH   3   4
HETATM    4  C   UNL     1     -11.145  10.410  67.949  1.00  0.00    -0.363 C  
BRANCH   4   5
HETATM    5  C   UNL     1      -9.818  10.648  67.232  1.00  0.00    -0.206 C  
BRANCH   5   6
HETATM    6  C   UNL     1      -9.561  12.139  67.035  1.00  0.00    -0.207 C  
BRANCH   6   7
HETATM    7  C   UNL     1      -8.113  12.490  67.369  1.00  0.00    -0.180 C  
BRANCH   7   8
HETATM    8  C   UNL     1      -8.037  13.785  68.174  1.00  0.00    -0.155 C  
BRANCH   8   9
HETATM    9  C   UNL     1      -7.819  14.983  67.255  1.00  0.00    -0.241 C  
BRANCH   9  10
HETATM   10  C   UNL     1      -6.562  15.751  67.652  1.00  0.00    -0.196 C  
BRANCH  10  11
HETATM   11  C   UNL     1      -6.917  17.107  68.256  1.00  0.00    -0.187 C  
BRANCH  11  12
HETATM   12  C   UNL     1      -8.101  17.735  67.526  1.00  0.00    -0.228 C  
BRANCH  12  13
HETATM   13  C   UNL     1      -9.040  18.434  68.506  1.00  0.00    -0.345 C  
BRANCH  13  14
HETATM   14  C   UNL     1     -10.167  17.500  68.944  1.00  0.00    -0.353 C  
BRANCH  14  15
HETATM   15  C   UNL     1     -10.871  16.884  67.738  1.00  0.00    -0.281 C  
BRANCH  15  16
HETATM   16  C   UNL     1     -11.366  15.479  68.043  1.00  0.00    -0.330 C  
HETATM   17  O   UNL     1     -12.478  15.540  68.922  1.00  0.00    -0.590 OA 
HETATM   18  H   UNL     1     -12.787  14.662  69.113  1.00  0.00     0.000 HD 
ENDBRANCH  15  16
ENDBRANCH  14  15
ENDBRANCH  13  14
ENDBRANCH  12  13
ENDBRANCH  11  12
ENDBRANCH  10  11
ENDBRANCH   9  10
ENDBRANCH   8   9
ENDBRANCH   7   8
ENDBRANCH   6   7
ENDBRANCH   5   6
ENDBRANCH   4   5
ENDBRANCH   3   4
ENDBRANCH   2   3
TORSDOF 14
ENDMDL
MODEL      260
REMARK 921   NORMALIZED FREE ENERGY PREDICTED BY IDOCK:   -2.81 KCAL/MOL
REMARK 922        TOTAL FREE ENERGY PREDICTED BY IDOCK:   -6.50 KCAL/MOL
REMARK 923 INTER-LIGAND FREE ENERGY PREDICTED BY IDOCK:   -5.55 KCAL/MOL
REMARK 924 INTRA-LIGAND FREE ENERGY PREDICTED BY IDOCK:   -0.94 KCAL/MOL
REMARK 927      BINDING AFFINITY PREDICTED BY RF-SCORE:    0.00 PKD
ROOT
HETATM    1  C   UNL     1      -7.733  12.038  67.354  1.00  0.00    -0.162 C  
HETATM    2  C   UNL     1      -8.186  13.451  67.028  1.00  0.00    -0.051 C  
ENDROOT
BRANCH   2   3
HETATM    3  C   UNL     1      -7.198  14.486  67.561  1.00  0.00    -0.210 C  
BRANCH   3   4
HETATM    4  C   UNL     1      -7.468  15.868  66.971  1.00  0.00    -0.254 C  
BRANCH   4   5
HETATM    5  C   UNL     1      -8.828  15.909  66.277  1.00  0.00    -0.386 C  
BRANCH   5   6
HETATM    6  C   UNL     1      -9.552  17.219  66.567  1.00  0.00    -0.286 C  
BRANCH   6   7
HETATM    7  C   UNL     1     -10.132  17.220  67.979  1.00  0.00    -0.324 C  
BRANCH   7   8
HETATM    8  C   UNL     1     -11.340  16.292  68.074  1.00  0.00    -0.205 C  
BRANCH   8   9
HETATM    9  C   UNL     1     -11.272  15.439  69.337  1.00  0.00    -0.300 C  
BRANCH   9  10
HETATM   10  C   UNL     1     -12.587  15.503  70.107  1.00  0.00    -0.304 C  
BRANCH  10  11
HETATM   11  C   UNL     1     -12.563  14.564  71.310  1.00  0.00    -0.415 C  
BRANCH  11  12
HETATM   12  C   UNL     1     -12.162  13.153  70.892  1.00  0.00    -0.330 C  
BRANCH  12  13
HETATM   13  C   UNL     1     -12.958  12.105  71.665  1.00  0.00    -0.427 C  
BRANCH  13  14
HETATM   14  C   UNL     1     -13.028  10.790  70.890  1.00  0.00    -0.385 C  
BRANCH  14  15
HETATM   15  C   UNL     1     -12.424   9.644  71.695  1.00  0.00    -0.494 C  
BRANCH  15  16
HETATM   16  C   UNL     1     -13.415   8.503  71.868  1.00  0.00    -0.383 C  
HETATM   17  O   UNL     1     -14.407   8.572  70.855  1.00  0.00    -0.637 OA 
HETATM   18  H   UNL     1     -15.027   7.860  70.962  1.00  0.00     0.000 HD 
ENDBRANCH  15  16
ENDBRANCH  14  15
ENDBRANCH  13  14
ENDBRANCH  12  13
ENDBRANCH  11  12
ENDBRANCH  10  11
ENDBRANCH   9  10
ENDBRANCH   8   9
ENDBRANCH   7   8
ENDBRANCH   6   7
ENDBRANCH   5   6
ENDBRANCH   4   5
ENDBRANCH   3   4
ENDBRANCH   2   3
TORSDOF 14
ENDMDL
MODEL      261
REMARK 921   NORMALIZED FREE ENERGY PREDICTED BY IDOCK:   -2.81 KCAL/MOL
REMARK 922        TOTAL FREE ENERGY PREDICTED BY IDOCK:   -6.49 KCAL/MOL
REMARK 923 INTER-LIGAND FREE ENERGY PREDICTED BY IDOCK:   -4.86 KCAL/MOL
REMARK 924 INTRA-LIGAND FREE ENERGY PREDICTED BY IDOCK:   -1.63 KCAL/MOL
REMARK 927      BINDING AFFINITY PREDICTED BY RF-SCORE:    0.00 PKD
ROOT
HETATM    1  C   UNL     1     -12.474   8.902  71.717  1.00  0.00    -0.425 C  
HETATM    2  C   UNL     1     -11.253   9.613  71.158  1.00  0.00    -0.454 C  
ENDROOT
BRANCH   2   3
HETATM    3  C   UNL     1     -11.641  10.584  70.045  1.00  0.00    -0.392 C  
BRANCH   3   4
HETATM    4  C   UNL     1     -10.485  10.801  69.070  1.00  0.00    -0.239 C  
BRANCH   4   5
HETATM    5  C   UNL     1      -9.204  10.152  69.590  1.00  0.00    -0.206 C  
BRANCH   5   6
HETATM    6  C   UNL     1      -8.589   9.234  68.538  1.00  0.00    -0.128 C  
BRANCH   6   7
HETATM    7  C   UNL     1      -8.664   9.869  67.151  1.00  0.00    -0.136 C  
BRANCH   7   8
HETATM    8  C   UNL     1      -9.235   8.887  66.132  1.00  0.00    -0.273 C  
BRANCH   8   9
HETATM    9  C   UNL     1     -10.376   8.076  66.739  1.00  0.00    -0.360 C  
BRANCH   9  10
HETATM   10  C   UNL     1      -9.967   6.619  66.929  1.00  0.00    -0.238 C  
BRANCH  10  11
HETATM   11  C   UNL     1     -10.889   5.916  67.921  1.00  0.00    -0.323 C  
BRANCH  11  12
HETATM   12  C   UNL     1     -10.108   5.421  69.135  1.00  0.00    -0.293 C  
BRANCH  12  13
HETATM   13  C   UNL     1     -10.211   6.410  70.293  1.00  0.00    -0.236 C  
BRANCH  13  14
HETATM   14  C   UNL     1      -9.430   5.913  71.507  1.00  0.00    -0.171 C  
BRANCH  14  15
HETATM   15  C   UNL     1     -10.188   6.189  72.802  1.00  0.00    -0.203 C  
BRANCH  15  16
HETATM   16  C   UNL     1     -11.042   4.998  73.210  1.00  0.00    -0.337 C  
HETATM   17  O   UNL     1     -12.404   5.255  72.902  1.00  0.00    -0.449 OA 
HETATM   18  H   UNL     1     -12.938   4.512  73.157  1.00  0.00     0.000 HD 
ENDBRANCH  15  16
ENDBRANCH  14  15
ENDBRANCH  13  14
ENDBRANCH  12  13
ENDBRANCH  11  12
ENDBRANCH  10  11
ENDBRANCH   9  10
ENDBRANCH   8   9
ENDBRANCH   7   8
ENDBRANCH   6   7
ENDBRANCH   5   6
ENDBRANCH   4   5
ENDBRANCH   3   4
ENDBRANCH   2   3
TORSDOF 14
ENDMDL
MODEL      262
REMARK 921   NORMALIZED FREE ENERGY PREDICTED BY IDOCK:   -2.81 KCAL/MOL
REMARK 922        TOTAL FREE ENERGY PREDICTED BY IDOCK:   -6.49 KCAL/MOL
REMARK 923 INTER-LIGAND FREE ENERGY PREDICTED BY IDOCK:   -5.12 KCAL/MOL
REMARK 924 INTRA-LIGAND FREE ENERGY PREDICTED BY IDOCK:   -1.37 KCAL/MOL
REMARK 927      BINDING AFFINITY PREDICTED BY RF-SCORE:    0.00 PKD
ROOT
HETATM    1  C   UNL     1     -12.200   8.008  72.171  1.00  0.00    -0.377 C  
HETATM    2  C   UNL     1     -12.727   9.408  72.433  1.00  0.00    -0.350 C  
ENDROOT
BRANCH   2   3
HETATM    3  C   UNL     1     -12.977  10.158  71.127  1.00  0.00    -0.488 C  
BRANCH   3   4
HETATM    4  C   UNL     1     -11.685  10.756  70.574  1.00  0.00    -0.449 C  
BRANCH   4   5
HETATM    5  C   UNL     1     -11.831  11.096  69.093  1.00  0.00    -0.419 C  
BRANCH   5   6
HETATM    6  C   UNL     1     -11.455  12.550  68.824  1.00  0.00    -0.353 C  
BRANCH   6   7
HETATM    7  C   UNL     1     -12.147  13.067  67.565  1.00  0.00    -0.279 C  
BRANCH   7   8
HETATM    8  C   UNL     1     -11.165  13.823  66.674  1.00  0.00    -0.327 C  
BRANCH   8   9
HETATM    9  C   UNL     1     -11.540  13.674  65.203  1.00  0.00    -0.333 C  
BRANCH   9  10
HETATM   10  C   UNL     1     -10.441  12.950  64.432  1.00  0.00    -0.419 C  
BRANCH  10  11
HETATM   11  C   UNL     1     -10.668  11.441  64.443  1.00  0.00    -0.405 C  
BRANCH  11  12
HETATM   12  C   UNL     1      -9.339  10.690  64.467  1.00  0.00    -0.284 C  
BRANCH  12  13
HETATM   13  C   UNL     1      -9.133   9.984  65.804  1.00  0.00    -0.201 C  
BRANCH  13  14
HETATM   14  C   UNL     1      -7.836  10.440  66.469  1.00  0.00    -0.124 C  
BRANCH  14  15
HETATM   15  C   UNL     1      -8.119  11.305  67.694  1.00  0.00    -0.119 C  
BRANCH  15  16
HETATM   16  C   UNL     1      -8.211  10.464  68.958  1.00  0.00    -0.141 C  
HETATM   17  O   UNL     1      -6.959   9.847  69.216  1.00  0.00    -0.053 OA 
HETATM   18  H   UNL     1      -7.016   9.321  70.005  1.00  0.00     0.000 HD 
ENDBRANCH  15  16
ENDBRANCH  14  15
ENDBRANCH  13  14
ENDBRANCH  12  13
ENDBRANCH  11  12
ENDBRANCH  10  11
ENDBRANCH   9  10
ENDBRANCH   8   9
ENDBRANCH   7   8
ENDBRANCH   6   7
ENDBRANCH   5   6
ENDBRANCH   4   5
ENDBRANCH   3   4
ENDBRANCH   2   3
TORSDOF 14
ENDMDL
MODEL      263
REMARK 921   NORMALIZED FREE ENERGY PREDICTED BY IDOCK:   -2.81 KCAL/MOL
REMARK 922        TOTAL FREE ENERGY PREDICTED BY IDOCK:   -6.48 KCAL/MOL
REMARK 923 INTER-LIGAND FREE ENERGY PREDICTED BY IDOCK:   -4.12 KCAL/MOL
REMARK 924 INTRA-LIGAND FREE ENERGY PREDICTED BY IDOCK:   -2.36 KCAL/MOL
REMARK 927      BINDING AFFINITY PREDICTED BY RF-SCORE:    0.00 PKD
ROOT
HETATM    1  C   UNL     1      -5.794   6.888  67.800  1.00  0.00    -0.021 C  
HETATM    2  C   UNL     1      -6.420   7.922  68.718  1.00  0.00    -0.048 C  
ENDROOT
BRANCH   2   3
HETATM    3  C   UNL     1      -7.767   8.399  68.177  1.00  0.00    -0.103 C  
BRANCH   3   4
HETATM    4  C   UNL     1      -8.740   8.715  69.311  1.00  0.00    -0.133 C  
BRANCH   4   5
HETATM    5  C   UNL     1      -8.100   8.446  70.671  1.00  0.00    -0.114 C  
BRANCH   5   6
HETATM    6  C   UNL     1      -9.069   8.763  71.805  1.00  0.00    -0.305 C  
BRANCH   6   7
HETATM    7  C   UNL     1     -10.502   8.855  71.287  1.00  0.00    -0.357 C  
BRANCH   7   8
HETATM    8  C   UNL     1     -11.474   8.174  72.246  1.00  0.00    -0.435 C  
BRANCH   8   9
HETATM    9  C   UNL     1     -12.047   6.902  71.627  1.00  0.00    -0.394 C  
BRANCH   9  10
HETATM   10  C   UNL     1     -11.712   5.683  72.480  1.00  0.00    -0.255 C  
BRANCH  10  11
HETATM   11  C   UNL     1     -10.233   5.324  72.364  1.00  0.00    -0.243 C  
BRANCH  11  12
HETATM   12  C   UNL     1      -9.989   4.403  71.172  1.00  0.00    -0.243 C  
BRANCH  12  13
HETATM   13  C   UNL     1      -8.961   5.004  70.216  1.00  0.00    -0.151 C  
BRANCH  13  14
HETATM   14  C   UNL     1      -9.426   4.882  68.767  1.00  0.00    -0.202 C  
BRANCH  14  15
HETATM   15  C   UNL     1     -10.561   5.857  68.469  1.00  0.00    -0.317 C  
BRANCH  15  16
HETATM   16  C   UNL     1     -10.841   5.945  66.977  1.00  0.00    -0.295 C  
HETATM   17  O   UNL     1     -10.614   7.270  66.522  1.00  0.00    -0.505 OA 
HETATM   18  H   UNL     1     -10.789   7.325  65.590  1.00  0.00     0.000 HD 
ENDBRANCH  15  16
ENDBRANCH  14  15
ENDBRANCH  13  14
ENDBRANCH  12  13
ENDBRANCH  11  12
ENDBRANCH  10  11
ENDBRANCH   9  10
ENDBRANCH   8   9
ENDBRANCH   7   8
ENDBRANCH   6   7
ENDBRANCH   5   6
ENDBRANCH   4   5
ENDBRANCH   3   4
ENDBRANCH   2   3
TORSDOF 14
ENDMDL
MODEL      264
REMARK 921   NORMALIZED FREE ENERGY PREDICTED BY IDOCK:   -2.81 KCAL/MOL
REMARK 922        TOTAL FREE ENERGY PREDICTED BY IDOCK:   -6.48 KCAL/MOL
REMARK 923 INTER-LIGAND FREE ENERGY PREDICTED BY IDOCK:   -4.85 KCAL/MOL
REMARK 924 INTRA-LIGAND FREE ENERGY PREDICTED BY IDOCK:   -1.64 KCAL/MOL
REMARK 927      BINDING AFFINITY PREDICTED BY RF-SCORE:    0.00 PKD
ROOT
HETATM    1  C   UNL     1     -12.414  11.861  63.331  1.00  0.00    -0.582 C  
HETATM    2  C   UNL     1     -11.421  12.674  64.143  1.00  0.00    -0.447 C  
ENDROOT
BRANCH   2   3
HETATM    3  C   UNL     1     -11.077  11.975  65.456  1.00  0.00    -0.361 C  
BRANCH   3   4
HETATM    4  C   UNL     1     -11.842  12.586  66.628  1.00  0.00    -0.422 C  
BRANCH   4   5
HETATM    5  C   UNL     1     -12.214  14.038  66.339  1.00  0.00    -0.492 C  
BRANCH   5   6
HETATM    6  C   UNL     1     -11.269  14.999  67.052  1.00  0.00    -0.328 C  
BRANCH   6   7
HETATM    7  C   UNL     1     -10.387  15.739  66.049  1.00  0.00    -0.356 C  
BRANCH   7   8
HETATM    8  C   UNL     1      -8.909  15.492  66.336  1.00  0.00    -0.359 C  
BRANCH   8   9
HETATM    9  C   UNL     1      -8.735  14.436  67.424  1.00  0.00    -0.214 C  
BRANCH   9  10
HETATM   10  C   UNL     1      -8.242  13.121  66.831  1.00  0.00     0.020 C  
BRANCH  10  11
HETATM   11  C   UNL     1      -7.190  12.476  67.729  1.00  0.00    -0.125 C  
BRANCH  11  12
HETATM   12  C   UNL     1      -6.177  11.688  66.903  1.00  0.00    -0.149 C  
BRANCH  12  13
HETATM   13  C   UNL     1      -6.634  10.244  66.709  1.00  0.00    -0.075 C  
BRANCH  13  14
HETATM   14  C   UNL     1      -6.791   9.916  65.226  1.00  0.00    -0.114 C  
BRANCH  14  15
HETATM   15  C   UNL     1      -8.262   9.788  64.843  1.00  0.00    -0.142 C  
BRANCH  15  16
HETATM   16  C   UNL     1      -8.495  10.191  63.395  1.00  0.00    -0.185 C  
HETATM   17  O   UNL     1      -9.728   9.654  62.939  1.00  0.00    -0.517 OA 
HETATM   18  H   UNL     1      -9.873   9.906  62.035  1.00  0.00     0.000 HD 
ENDBRANCH  15  16
ENDBRANCH  14  15
ENDBRANCH  13  14
ENDBRANCH  12  13
ENDBRANCH  11  12
ENDBRANCH  10  11
ENDBRANCH   9  10
ENDBRANCH   8   9
ENDBRANCH   7   8
ENDBRANCH   6   7
ENDBRANCH   5   6
ENDBRANCH   4   5
ENDBRANCH   3   4
ENDBRANCH   2   3
TORSDOF 14
ENDMDL
MODEL      265
REMARK 921   NORMALIZED FREE ENERGY PREDICTED BY IDOCK:   -2.80 KCAL/MOL
REMARK 922        TOTAL FREE ENERGY PREDICTED BY IDOCK:   -6.47 KCAL/MOL
REMARK 923 INTER-LIGAND FREE ENERGY PREDICTED BY IDOCK:   -5.38 KCAL/MOL
REMARK 924 INTRA-LIGAND FREE ENERGY PREDICTED BY IDOCK:   -1.09 KCAL/MOL
REMARK 927      BINDING AFFINITY PREDICTED BY RF-SCORE:    0.00 PKD
ROOT
HETATM    1  C   UNL     1      -9.970  19.652  66.186  1.00  0.00    -0.554 C  
HETATM    2  C   UNL     1     -10.720  19.171  67.416  1.00  0.00    -0.578 C  
ENDROOT
BRANCH   2   3
HETATM    3  C   UNL     1     -10.123  17.872  67.954  1.00  0.00    -0.350 C  
BRANCH   3   4
HETATM    4  C   UNL     1     -10.591  16.667  67.141  1.00  0.00    -0.264 C  
BRANCH   4   5
HETATM    5  C   UNL     1     -10.666  15.416  68.012  1.00  0.00    -0.279 C  
BRANCH   5   6
HETATM    6  C   UNL     1     -11.847  14.538  67.611  1.00  0.00    -0.395 C  
BRANCH   6   7
HETATM    7  C   UNL     1     -11.887  14.338  66.098  1.00  0.00    -0.413 C  
BRANCH   7   8
HETATM    8  C   UNL     1     -11.946  12.855  65.744  1.00  0.00    -0.496 C  
BRANCH   8   9
HETATM    9  C   UNL     1     -11.469  11.998  66.914  1.00  0.00    -0.402 C  
BRANCH   9  10
HETATM   10  C   UNL     1     -10.167  11.283  66.569  1.00  0.00    -0.269 C  
BRANCH  10  11
HETATM   11  C   UNL     1      -9.060  11.661  67.549  1.00  0.00    -0.172 C  
BRANCH  11  12
HETATM   12  C   UNL     1      -8.181  10.454  67.869  1.00  0.00    -0.106 C  
BRANCH  12  13
HETATM   13  C   UNL     1      -8.306  10.061  69.339  1.00  0.00    -0.169 C  
BRANCH  13  14
HETATM   14  C   UNL     1      -8.507   8.555  69.486  1.00  0.00    -0.127 C  
BRANCH  14  15
HETATM   15  C   UNL     1      -9.982   8.181  69.371  1.00  0.00    -0.188 C  
BRANCH  15  16
HETATM   16  C   UNL     1     -10.245   7.335  68.134  1.00  0.00    -0.187 C  
HETATM   17  O   UNL     1     -11.262   7.937  67.348  1.00  0.00    -0.435 OA 
HETATM   18  H   UNL     1     -11.426   7.409  66.576  1.00  0.00     0.000 HD 
ENDBRANCH  15  16
ENDBRANCH  14  15
ENDBRANCH  13  14
ENDBRANCH  12  13
ENDBRANCH  11  12
ENDBRANCH  10  11
ENDBRANCH   9  10
ENDBRANCH   8   9
ENDBRANCH   7   8
ENDBRANCH   6   7
ENDBRANCH   5   6
ENDBRANCH   4   5
ENDBRANCH   3   4
ENDBRANCH   2   3
TORSDOF 14
ENDMDL
MODEL      266
REMARK 921   NORMALIZED FREE ENERGY PREDICTED BY IDOCK:   -2.80 KCAL/MOL
REMARK 922        TOTAL FREE ENERGY PREDICTED BY IDOCK:   -6.47 KCAL/MOL
REMARK 923 INTER-LIGAND FREE ENERGY PREDICTED BY IDOCK:   -5.38 KCAL/MOL
REMARK 924 INTRA-LIGAND FREE ENERGY PREDICTED BY IDOCK:   -1.09 KCAL/MOL
REMARK 927      BINDING AFFINITY PREDICTED BY RF-SCORE:    0.00 PKD
ROOT
HETATM    1  C   UNL     1      -7.079   8.495  69.870  1.00  0.00    -0.051 C  
HETATM    2  C   UNL     1      -7.302   6.995  69.954  1.00  0.00    -0.085 C  
ENDROOT
BRANCH   2   3
HETATM    3  C   UNL     1      -7.587   6.558  71.389  1.00  0.00    -0.094 C  
BRANCH   3   4
HETATM    4  C   UNL     1      -7.319   7.691  72.377  1.00  0.00    -0.086 C  
BRANCH   4   5
HETATM    5  C   UNL     1      -8.600   8.100  73.099  1.00  0.00    -0.299 C  
BRANCH   5   6
HETATM    6  C   UNL     1      -9.781   7.246  72.648  1.00  0.00    -0.196 C  
BRANCH   6   7
HETATM    7  C   UNL     1     -11.026   8.106  72.440  1.00  0.00    -0.414 C  
BRANCH   7   8
HETATM    8  C   UNL     1     -10.685   9.388  71.688  1.00  0.00    -0.298 C  
BRANCH   8   9
HETATM    9  C   UNL     1     -11.294   9.376  70.289  1.00  0.00    -0.261 C  
BRANCH   9  10
HETATM   10  C   UNL     1     -12.375  10.444  70.157  1.00  0.00    -0.281 C  
BRANCH  10  11
HETATM   11  C   UNL     1     -11.757  11.821  69.930  1.00  0.00    -0.399 C  
BRANCH  11  12
HETATM   12  C   UNL     1     -10.932  11.843  68.647  1.00  0.00    -0.271 C  
BRANCH  12  13
HETATM   13  C   UNL     1     -11.828  11.729  67.416  1.00  0.00    -0.210 C  
BRANCH  13  14
HETATM   14  C   UNL     1     -11.199  12.432  66.215  1.00  0.00    -0.361 C  
BRANCH  14  15
HETATM   15  C   UNL     1     -12.221  12.639  65.101  1.00  0.00    -0.539 C  
BRANCH  15  16
HETATM   16  C   UNL     1     -11.924  13.899  64.303  1.00  0.00    -0.444 C  
HETATM   17  O   UNL     1     -12.336  13.723  62.956  1.00  0.00    -1.089 OA 
HETATM   18  H   UNL     1     -12.150  14.510  62.457  1.00  0.00     0.000 HD 
ENDBRANCH  15  16
ENDBRANCH  14  15
ENDBRANCH  13  14
ENDBRANCH  12  13
ENDBRANCH  11  12
ENDBRANCH  10  11
ENDBRANCH   9  10
ENDBRANCH   8   9
ENDBRANCH   7   8
ENDBRANCH   6   7
ENDBRANCH   5   6
ENDBRANCH   4   5
ENDBRANCH   3   4
ENDBRANCH   2   3
TORSDOF 14
ENDMDL
MODEL      267
REMARK 921   NORMALIZED FREE ENERGY PREDICTED BY IDOCK:   -2.78 KCAL/MOL
REMARK 922        TOTAL FREE ENERGY PREDICTED BY IDOCK:   -6.43 KCAL/MOL
REMARK 923 INTER-LIGAND FREE ENERGY PREDICTED BY IDOCK:   -4.85 KCAL/MOL
REMARK 924 INTRA-LIGAND FREE ENERGY PREDICTED BY IDOCK:   -1.58 KCAL/MOL
REMARK 927      BINDING AFFINITY PREDICTED BY RF-SCORE:    0.00 PKD
ROOT
HETATM    1  C   UNL     1      -6.396   8.277  67.994  1.00  0.00    -0.056 C  
HETATM    2  C   UNL     1      -7.854   7.863  67.897  1.00  0.00    -0.127 C  
ENDROOT
BRANCH   2   3
HETATM    3  C   UNL     1      -8.577   8.640  66.799  1.00  0.00    -0.126 C  
BRANCH   3   4
HETATM    4  C   UNL     1      -7.662   9.685  66.165  1.00  0.00    -0.102 C  
BRANCH   4   5
HETATM    5  C   UNL     1      -8.304  11.069  66.204  1.00  0.00    -0.163 C  
BRANCH   5   6
HETATM    6  C   UNL     1      -9.048  11.292  67.516  1.00  0.00    -0.151 C  
BRANCH   6   7
HETATM    7  C   UNL     1      -8.562  12.563  68.209  1.00  0.00    -0.173 C  
BRANCH   7   8
HETATM    8  C   UNL     1      -7.875  13.497  67.216  1.00  0.00    -0.106 C  
BRANCH   8   9
HETATM    9  C   UNL     1      -8.309  14.942  67.441  1.00  0.00    -0.213 C  
BRANCH   9  10
HETATM   10  C   UNL     1      -8.976  15.510  66.192  1.00  0.00    -0.329 C  
BRANCH  10  11
HETATM   11  C   UNL     1     -10.475  15.701  66.411  1.00  0.00    -0.309 C  
BRANCH  11  12
HETATM   12  C   UNL     1     -10.956  14.896  67.615  1.00  0.00    -0.300 C  
BRANCH  12  13
HETATM   13  C   UNL     1     -12.004  13.866  67.202  1.00  0.00    -0.455 C  
BRANCH  13  14
HETATM   14  C   UNL     1     -12.107  13.771  65.681  1.00  0.00    -0.444 C  
BRANCH  14  15
HETATM   15  C   UNL     1     -11.864  12.344  65.201  1.00  0.00    -0.437 C  
BRANCH  15  16
HETATM   16  C   UNL     1     -12.053  12.225  63.696  1.00  0.00    -0.554 C  
HETATM   17  O   UNL     1     -11.280  11.143  63.199  1.00  0.00    -0.807 OA 
HETATM   18  H   UNL     1     -11.398  11.069  62.259  1.00  0.00     0.000 HD 
ENDBRANCH  15  16
ENDBRANCH  14  15
ENDBRANCH  13  14
ENDBRANCH  12  13
ENDBRANCH  11  12
ENDBRANCH  10  11
ENDBRANCH   9  10
ENDBRANCH   8   9
ENDBRANCH   7   8
ENDBRANCH   6   7
ENDBRANCH   5   6
ENDBRANCH   4   5
ENDBRANCH   3   4
ENDBRANCH   2   3
TORSDOF 14
ENDMDL
MODEL      268
REMARK 921   NORMALIZED FREE ENERGY PREDICTED BY IDOCK:   -2.76 KCAL/MOL
REMARK 922        TOTAL FREE ENERGY PREDICTED BY IDOCK:   -6.40 KCAL/MOL
REMARK 923 INTER-LIGAND FREE ENERGY PREDICTED BY IDOCK:   -5.75 KCAL/MOL
REMARK 924 INTRA-LIGAND FREE ENERGY PREDICTED BY IDOCK:   -0.65 KCAL/MOL
REMARK 927      BINDING AFFINITY PREDICTED BY RF-SCORE:    0.00 PKD
ROOT
HETATM    1  C   UNL     1     -12.261  16.087  72.697  1.00  0.00    -0.619 C  
HETATM    2  C   UNL     1     -13.254  14.939  72.628  1.00  0.00    -0.535 C  
ENDROOT
BRANCH   2   3
HETATM    3  C   UNL     1     -13.053  14.111  71.361  1.00  0.00    -0.428 C  
BRANCH   3   4
HETATM    4  C   UNL     1     -12.398  14.936  70.256  1.00  0.00    -0.393 C  
BRANCH   4   5
HETATM    5  C   UNL     1     -11.334  14.122  69.524  1.00  0.00    -0.308 C  
BRANCH   5   6
HETATM    6  C   UNL     1     -11.903  13.485  68.261  1.00  0.00    -0.401 C  
BRANCH   6   7
HETATM    7  C   UNL     1     -11.839  11.962  68.343  1.00  0.00    -0.352 C  
BRANCH   7   8
HETATM    8  C   UNL     1     -10.747  11.411  67.431  1.00  0.00    -0.274 C  
BRANCH   8   9
HETATM    9  C   UNL     1     -10.318  10.017  67.878  1.00  0.00    -0.249 C  
BRANCH   9  10
HETATM   10  C   UNL     1     -10.853   8.952  66.926  1.00  0.00     0.010 C  
BRANCH  10  11
HETATM   11  C   UNL     1      -9.831   7.837  66.722  1.00  0.00    -0.312 C  
BRANCH  11  12
HETATM   12  C   UNL     1     -10.416   6.483  67.114  1.00  0.00    -0.354 C  
BRANCH  12  13
HETATM   13  C   UNL     1     -11.177   6.576  68.434  1.00  0.00    -0.274 C  
BRANCH  13  14
HETATM   14  C   UNL     1     -10.217   6.544  69.621  1.00  0.00    -0.220 C  
BRANCH  14  15
HETATM   15  C   UNL     1     -10.630   5.480  70.634  1.00  0.00    -0.329 C  
BRANCH  15  16
HETATM   16  C   UNL     1     -10.605   6.027  72.054  1.00  0.00    -0.223 C  
HETATM   17  O   UNL     1     -11.929   6.118  72.556  1.00  0.00    -0.490 OA 
HETATM   18  H   UNL     1     -11.914   6.460  73.443  1.00  0.00     0.000 HD 
ENDBRANCH  15  16
ENDBRANCH  14  15
ENDBRANCH  13  14
ENDBRANCH  12  13
ENDBRANCH  11  12
ENDBRANCH  10  11
ENDBRANCH   9  10
ENDBRANCH   8   9
ENDBRANCH   7   8
ENDBRANCH   6   7
ENDBRANCH   5   6
ENDBRANCH   4   5
ENDBRANCH   3   4
ENDBRANCH   2   3
TORSDOF 14
ENDMDL
MODEL      269
REMARK 921   NORMALIZED FREE ENERGY PREDICTED BY IDOCK:   -2.76 KCAL/MOL
REMARK 922        TOTAL FREE ENERGY PREDICTED BY IDOCK:   -6.40 KCAL/MOL
REMARK 923 INTER-LIGAND FREE ENERGY PREDICTED BY IDOCK:   -5.32 KCAL/MOL
REMARK 924 INTRA-LIGAND FREE ENERGY PREDICTED BY IDOCK:   -1.08 KCAL/MOL
REMARK 927      BINDING AFFINITY PREDICTED BY RF-SCORE:    0.00 PKD
ROOT
HETATM    1  C   UNL     1      -9.869   8.384  70.412  1.00  0.00    -0.194 C  
HETATM    2  C   UNL     1     -10.082   8.785  68.963  1.00  0.00    -0.206 C  
ENDROOT
BRANCH   2   3
HETATM    3  C   UNL     1     -10.894  10.075  68.860  1.00  0.00    -0.250 C  
BRANCH   3   4
HETATM    4  C   UNL     1     -10.586  10.823  67.565  1.00  0.00    -0.280 C  
BRANCH   4   5
HETATM    5  C   UNL     1     -11.547  11.993  67.369  1.00  0.00    -0.388 C  
BRANCH   5   6
HETATM    6  C   UNL     1     -11.438  12.991  68.518  1.00  0.00    -0.340 C  
BRANCH   6   7
HETATM    7  C   UNL     1     -10.098  13.722  68.478  1.00  0.00    -0.225 C  
BRANCH   7   8
HETATM    8  C   UNL     1      -9.726  14.104  67.049  1.00  0.00    -0.258 C  
BRANCH   8   9
HETATM    9  C   UNL     1      -8.398  14.854  67.014  1.00  0.00    -0.246 C  
BRANCH   9  10
HETATM   10  C   UNL     1      -8.598  16.296  66.559  1.00  0.00    -0.332 C  
BRANCH  10  11
HETATM   11  C   UNL     1      -9.871  16.435  65.728  1.00  0.00    -0.303 C  
BRANCH  11  12
HETATM   12  C   UNL     1     -10.563  17.766  66.010  1.00  0.00    -0.229 C  
BRANCH  12  13
HETATM   13  C   UNL     1     -10.780  17.965  67.508  1.00  0.00    -0.333 C  
BRANCH  13  14
HETATM   14  C   UNL     1     -10.332  19.358  67.944  1.00  0.00    -0.542 C  
BRANCH  14  15
HETATM   15  C   UNL     1      -9.497  20.033  66.860  1.00  0.00    -0.529 C  
BRANCH  15  16
HETATM   16  C   UNL     1      -8.067  20.265  67.324  1.00  0.00    -0.338 C  
HETATM   17  O   UNL     1      -7.897  19.748  68.634  1.00  0.00    -0.321 OA 
HETATM   18  H   UNL     1      -7.004  19.893  68.925  1.00  0.00     0.000 HD 
ENDBRANCH  15  16
ENDBRANCH  14  15
ENDBRANCH  13  14
ENDBRANCH  12  13
ENDBRANCH  11  12
ENDBRANCH  10  11
ENDBRANCH   9  10
ENDBRANCH   8   9
ENDBRANCH   7   8
ENDBRANCH   6   7
ENDBRANCH   5   6
ENDBRANCH   4   5
ENDBRANCH   3   4
ENDBRANCH   2   3
TORSDOF 14
ENDMDL
MODEL      270
REMARK 921   NORMALIZED FREE ENERGY PREDICTED BY IDOCK:   -2.76 KCAL/MOL
REMARK 922        TOTAL FREE ENERGY PREDICTED BY IDOCK:   -6.39 KCAL/MOL
REMARK 923 INTER-LIGAND FREE ENERGY PREDICTED BY IDOCK:   -5.66 KCAL/MOL
REMARK 924 INTRA-LIGAND FREE ENERGY PREDICTED BY IDOCK:   -0.74 KCAL/MOL
REMARK 927      BINDING AFFINITY PREDICTED BY RF-SCORE:    0.00 PKD
ROOT
HETATM    1  C   UNL     1     -12.822  15.711  70.861  1.00  0.00    -0.498 C  
HETATM    2  C   UNL     1     -13.735  15.615  72.071  1.00  0.00    -0.534 C  
ENDROOT
BRANCH   2   3
HETATM    3  C   UNL     1     -13.885  14.168  72.536  1.00  0.00    -0.590 C  
BRANCH   3   4
HETATM    4  C   UNL     1     -13.409  13.189  71.466  1.00  0.00    -0.305 C  
BRANCH   4   5
HETATM    5  C   UNL     1     -13.280  11.778  72.035  1.00  0.00    -0.460 C  
BRANCH   5   6
HETATM    6  C   UNL     1     -12.899  10.780  70.946  1.00  0.00    -0.443 C  
BRANCH   6   7
HETATM    7  C   UNL     1     -11.414  10.433  71.021  1.00  0.00    -0.304 C  
BRANCH   7   8
HETATM    8  C   UNL     1     -11.197   9.121  71.771  1.00  0.00    -0.451 C  
BRANCH   8   9
HETATM    9  C   UNL     1     -12.503   8.339  71.885  1.00  0.00    -0.376 C  
BRANCH   9  10
HETATM   10  C   UNL     1     -12.247   6.838  71.786  1.00  0.00    -0.402 C  
BRANCH  10  11
HETATM   11  C   UNL     1     -11.324   6.517  70.614  1.00  0.00    -0.409 C  
BRANCH  11  12
HETATM   12  C   UNL     1     -10.015   5.905  71.104  1.00  0.00    -0.236 C  
BRANCH  12  13
HETATM   13  C   UNL     1      -8.947   6.978  71.299  1.00  0.00    -0.137 C  
BRANCH  13  14
HETATM   14  C   UNL     1      -8.045   7.081  70.071  1.00  0.00    -0.128 C  
BRANCH  14  15
HETATM   15  C   UNL     1      -8.533   8.169  69.119  1.00  0.00    -0.135 C  
BRANCH  15  16
HETATM   16  C   UNL     1      -8.079   9.548  69.574  1.00  0.00    -0.117 C  
HETATM   17  O   UNL     1      -8.645  10.541  68.733  1.00  0.00    -0.130 OA 
HETATM   18  H   UNL     1      -8.362  11.403  69.016  1.00  0.00     0.000 HD 
ENDBRANCH  15  16
ENDBRANCH  14  15
ENDBRANCH  13  14
ENDBRANCH  12  13
ENDBRANCH  11  12
ENDBRANCH  10  11
ENDBRANCH   9  10
ENDBRANCH   8   9
ENDBRANCH   7   8
ENDBRANCH   6   7
ENDBRANCH   5   6
ENDBRANCH   4   5
ENDBRANCH   3   4
ENDBRANCH   2   3
TORSDOF 14
ENDMDL
MODEL      271
REMARK 921   NORMALIZED FREE ENERGY PREDICTED BY IDOCK:   -2.75 KCAL/MOL
REMARK 922        TOTAL FREE ENERGY PREDICTED BY IDOCK:   -6.38 KCAL/MOL
REMARK 923 INTER-LIGAND FREE ENERGY PREDICTED BY IDOCK:   -5.15 KCAL/MOL
REMARK 924 INTRA-LIGAND FREE ENERGY PREDICTED BY IDOCK:   -1.23 KCAL/MOL
REMARK 927      BINDING AFFINITY PREDICTED BY RF-SCORE:    0.00 PKD
ROOT
HETATM    1  C   UNL     1     -12.019   7.968  72.280  1.00  0.00    -0.412 C  
HETATM    2  C   UNL     1     -13.070   9.060  72.371  1.00  0.00    -0.487 C  
ENDROOT
BRANCH   2   3
HETATM    3  C   UNL     1     -13.271   9.747  71.022  1.00  0.00    -0.341 C  
BRANCH   3   4
HETATM    4  C   UNL     1     -12.373  10.974  70.884  1.00  0.00    -0.503 C  
BRANCH   4   5
HETATM    5  C   UNL     1     -11.173  10.674  69.989  1.00  0.00    -0.382 C  
BRANCH   5   6
HETATM    6  C   UNL     1     -11.263  11.443  68.675  1.00  0.00    -0.303 C  
BRANCH   6   7
HETATM    7  C   UNL     1     -11.207  10.490  67.483  1.00  0.00    -0.299 C  
BRANCH   7   8
HETATM    8  C   UNL     1     -10.151  10.937  66.476  1.00  0.00    -0.269 C  
BRANCH   8   9
HETATM    9  C   UNL     1      -8.781  10.369  66.837  1.00  0.00    -0.130 C  
BRANCH   9  10
HETATM   10  C   UNL     1      -7.683  11.399  66.592  1.00  0.00    -0.129 C  
BRANCH  10  11
HETATM   11  C   UNL     1      -7.516  12.318  67.799  1.00  0.00    -0.126 C  
BRANCH  11  12
HETATM   12  C   UNL     1      -7.658  13.783  67.393  1.00  0.00    -0.153 C  
BRANCH  12  13
HETATM   13  C   UNL     1      -8.918  14.399  67.996  1.00  0.00    -0.183 C  
BRANCH  13  14
HETATM   14  C   UNL     1      -9.519  15.441  67.056  1.00  0.00    -0.232 C  
BRANCH  14  15
HETATM   15  C   UNL     1     -10.828  14.945  66.449  1.00  0.00    -0.325 C  
BRANCH  15  16
HETATM   16  C   UNL     1     -11.812  14.514  67.526  1.00  0.00    -0.374 C  
HETATM   17  O   UNL     1     -12.087  15.605  68.390  1.00  0.00    -0.497 OA 
HETATM   18  H   UNL     1     -12.701  15.336  69.063  1.00  0.00     0.000 HD 
ENDBRANCH  15  16
ENDBRANCH  14  15
ENDBRANCH  13  14
ENDBRANCH  12  13
ENDBRANCH  11  12
ENDBRANCH  10  11
ENDBRANCH   9  10
ENDBRANCH   8   9
ENDBRANCH   7   8
ENDBRANCH   6   7
ENDBRANCH   5   6
ENDBRANCH   4   5
ENDBRANCH   3   4
ENDBRANCH   2   3
TORSDOF 14
ENDMDL
MODEL      272
REMARK 921   NORMALIZED FREE ENERGY PREDICTED BY IDOCK:   -2.75 KCAL/MOL
REMARK 922        TOTAL FREE ENERGY PREDICTED BY IDOCK:   -6.38 KCAL/MOL
REMARK 923 INTER-LIGAND FREE ENERGY PREDICTED BY IDOCK:   -5.08 KCAL/MOL
REMARK 924 INTRA-LIGAND FREE ENERGY PREDICTED BY IDOCK:   -1.30 KCAL/MOL
REMARK 927      BINDING AFFINITY PREDICTED BY RF-SCORE:    0.00 PKD
ROOT
HETATM    1  C   UNL     1     -10.148  17.630  68.701  1.00  0.00    -0.377 C  
HETATM    2  C   UNL     1     -10.448  16.238  68.174  1.00  0.00    -0.289 C  
ENDROOT
BRANCH   2   3
HETATM    3  C   UNL     1     -10.504  15.217  69.308  1.00  0.00    -0.258 C  
BRANCH   3   4
HETATM    4  C   UNL     1     -10.821  13.819  68.782  1.00  0.00    -0.281 C  
BRANCH   4   5
HETATM    5  C   UNL     1     -12.155  13.318  69.330  1.00  0.00    -0.291 C  
BRANCH   5   6
HETATM    6  C   UNL     1     -12.214  13.462  70.847  1.00  0.00    -0.367 C  
BRANCH   6   7
HETATM    7  C   UNL     1     -12.986  12.303  71.474  1.00  0.00    -0.390 C  
BRANCH   7   8
HETATM    8  C   UNL     1     -12.484  10.963  70.945  1.00  0.00    -0.507 C  
BRANCH   8   9
HETATM    9  C   UNL     1     -12.927   9.820  71.854  1.00  0.00    -0.535 C  
BRANCH   9  10
HETATM   10  C   UNL     1     -11.807   8.799  72.029  1.00  0.00    -0.442 C  
BRANCH  10  11
HETATM   11  C   UNL     1     -12.011   7.600  71.107  1.00  0.00    -0.319 C  
BRANCH  11  12
HETATM   12  C   UNL     1     -10.713   7.236  70.392  1.00  0.00    -0.253 C  
BRANCH  12  13
HETATM   13  C   UNL     1     -10.518   8.091  69.142  1.00  0.00    -0.217 C  
BRANCH  13  14
HETATM   14  C   UNL     1      -9.311   9.014  69.296  1.00  0.00    -0.150 C  
BRANCH  14  15
HETATM   15  C   UNL     1      -9.594  10.393  68.706  1.00  0.00    -0.178 C  
BRANCH  15  16
HETATM   16  C   UNL     1      -8.948  10.555  67.339  1.00  0.00    -0.135 C  
HETATM   17  O   UNL     1      -7.890   9.620  67.193  1.00  0.00    -0.092 OA 
HETATM   18  H   UNL     1      -7.486   9.721  66.339  1.00  0.00     0.000 HD 
ENDBRANCH  15  16
ENDBRANCH  14  15
ENDBRANCH  13  14
ENDBRANCH  12  13
ENDBRANCH  11  12
ENDBRANCH  10  11
ENDBRANCH   9  10
ENDBRANCH   8   9
ENDBRANCH   7   8
ENDBRANCH   6   7
ENDBRANCH   5   6
ENDBRANCH   4   5
ENDBRANCH   3   4
ENDBRANCH   2   3
TORSDOF 14
ENDMDL
MODEL      273
REMARK 921   NORMALIZED FREE ENERGY PREDICTED BY IDOCK:   -2.75 KCAL/MOL
REMARK 922        TOTAL FREE ENERGY PREDICTED BY IDOCK:   -6.38 KCAL/MOL
REMARK 923 INTER-LIGAND FREE ENERGY PREDICTED BY IDOCK:   -5.24 KCAL/MOL
REMARK 924 INTRA-LIGAND FREE ENERGY PREDICTED BY IDOCK:   -1.14 KCAL/MOL
REMARK 927      BINDING AFFINITY PREDICTED BY RF-SCORE:    0.00 PKD
ROOT
HETATM    1  C   UNL     1      -7.476   9.689  70.378  1.00  0.00    -0.168 C  
HETATM    2  C   UNL     1      -8.015   9.275  69.019  1.00  0.00    -0.097 C  
ENDROOT
BRANCH   2   3
HETATM    3  C   UNL     1      -9.519   9.014  69.078  1.00  0.00    -0.155 C  
BRANCH   3   4
HETATM    4  C   UNL     1     -10.161   9.733  70.262  1.00  0.00    -0.346 C  
BRANCH   4   5
HETATM    5  C   UNL     1     -11.195  10.752  69.786  1.00  0.00    -0.365 C  
BRANCH   5   6
HETATM    6  C   UNL     1     -11.520  10.555  68.310  1.00  0.00    -0.272 C  
BRANCH   6   7
HETATM    7  C   UNL     1     -11.260  11.836  67.520  1.00  0.00    -0.354 C  
BRANCH   7   8
HETATM    8  C   UNL     1      -9.977  12.516  67.989  1.00  0.00    -0.219 C  
BRANCH   8   9
HETATM    9  C   UNL     1      -9.255  13.179  66.819  1.00  0.00    -0.232 C  
BRANCH   9  10
HETATM   10  C   UNL     1     -10.245  13.598  65.737  1.00  0.00    -0.317 C  
BRANCH  10  11
HETATM   11  C   UNL     1     -10.374  15.117  65.672  1.00  0.00    -0.379 C  
BRANCH  11  12
HETATM   12  C   UNL     1      -9.424  15.788  66.660  1.00  0.00    -0.279 C  
BRANCH  12  13
HETATM   13  C   UNL     1     -10.193  16.411  67.822  1.00  0.00    -0.274 C  
BRANCH  13  14
HETATM   14  C   UNL     1      -9.718  17.838  68.088  1.00  0.00    -0.313 C  
BRANCH  14  15
HETATM   15  C   UNL     1     -10.655  18.858  67.448  1.00  0.00    -0.534 C  
BRANCH  15  16
HETATM   16  C   UNL     1     -10.196  19.230  66.046  1.00  0.00    -0.435 C  
HETATM   17  O   UNL     1     -10.123  20.642  65.923  1.00  0.00    -0.496 OA 
HETATM   18  H   UNL     1      -9.837  20.874  65.048  1.00  0.00     0.000 HD 
ENDBRANCH  15  16
ENDBRANCH  14  15
ENDBRANCH  13  14
ENDBRANCH  12  13
ENDBRANCH  11  12
ENDBRANCH  10  11
ENDBRANCH   9  10
ENDBRANCH   8   9
ENDBRANCH   7   8
ENDBRANCH   6   7
ENDBRANCH   5   6
ENDBRANCH   4   5
ENDBRANCH   3   4
ENDBRANCH   2   3
TORSDOF 14
ENDMDL
MODEL      274
REMARK 921   NORMALIZED FREE ENERGY PREDICTED BY IDOCK:   -2.75 KCAL/MOL
REMARK 922        TOTAL FREE ENERGY PREDICTED BY IDOCK:   -6.37 KCAL/MOL
REMARK 923 INTER-LIGAND FREE ENERGY PREDICTED BY IDOCK:   -4.68 KCAL/MOL
REMARK 924 INTRA-LIGAND FREE ENERGY PREDICTED BY IDOCK:   -1.69 KCAL/MOL
REMARK 927      BINDING AFFINITY PREDICTED BY RF-SCORE:    0.00 PKD
ROOT
HETATM    1  C   UNL     1      -9.655   9.993  64.687  1.00  0.00    -0.363 C  
HETATM    2  C   UNL     1      -8.689   9.002  65.313  1.00  0.00    -0.226 C  
ENDROOT
BRANCH   2   3
HETATM    3  C   UNL     1      -7.361   9.671  65.663  1.00  0.00    -0.101 C  
BRANCH   3   4
HETATM    4  C   UNL     1      -6.983   9.424  67.122  1.00  0.00    -0.085 C  
BRANCH   4   5
HETATM    5  C   UNL     1      -7.969   8.467  67.787  1.00  0.00    -0.107 C  
BRANCH   5   6
HETATM    6  C   UNL     1      -7.238   7.415  68.615  1.00  0.00    -0.090 C  
BRANCH   6   7
HETATM    7  C   UNL     1      -7.652   7.494  70.083  1.00  0.00    -0.088 C  
BRANCH   7   8
HETATM    8  C   UNL     1      -8.745   8.540  70.286  1.00  0.00    -0.144 C  
BRANCH   8   9
HETATM    9  C   UNL     1      -8.977   8.801  71.772  1.00  0.00    -0.283 C  
BRANCH   9  10
HETATM   10  C   UNL     1     -10.425   8.510  72.155  1.00  0.00    -0.412 C  
BRANCH  10  11
HETATM   11  C   UNL     1     -10.550   7.145  72.825  1.00  0.00    -0.303 C  
BRANCH  11  12
HETATM   12  C   UNL     1     -11.501   6.241  72.047  1.00  0.00    -0.359 C  
BRANCH  12  13
HETATM   13  C   UNL     1     -10.803   5.621  70.839  1.00  0.00    -0.294 C  
BRANCH  13  14
HETATM   14  C   UNL     1     -11.387   6.160  69.535  1.00  0.00    -0.426 C  
BRANCH  14  15
HETATM   15  C   UNL     1     -10.589   5.671  68.330  1.00  0.00    -0.253 C  
BRANCH  15  16
HETATM   16  C   UNL     1     -11.022   6.377  67.054  1.00  0.00    -0.389 C  
HETATM   17  O   UNL     1     -11.066   5.447  65.982  1.00  0.00    -0.761 OA 
HETATM   18  H   UNL     1     -11.336   5.888  65.185  1.00  0.00     0.000 HD 
ENDBRANCH  15  16
ENDBRANCH  14  15
ENDBRANCH  13  14
ENDBRANCH  12  13
ENDBRANCH  11  12
ENDBRANCH  10  11
ENDBRANCH   9  10
ENDBRANCH   8   9
ENDBRANCH   7   8
ENDBRANCH   6   7
ENDBRANCH   5   6
ENDBRANCH   4   5
ENDBRANCH   3   4
ENDBRANCH   2   3
TORSDOF 14
ENDMDL
MODEL      275
REMARK 921   NORMALIZED FREE ENERGY PREDICTED BY IDOCK:   -2.74 KCAL/MOL
REMARK 922        TOTAL FREE ENERGY PREDICTED BY IDOCK:   -6.36 KCAL/MOL
REMARK 923 INTER-LIGAND FREE ENERGY PREDICTED BY IDOCK:   -5.76 KCAL/MOL
REMARK 924 INTRA-LIGAND FREE ENERGY PREDICTED BY IDOCK:   -0.61 KCAL/MOL
REMARK 927      BINDING AFFINITY PREDICTED BY RF-SCORE:    0.00 PKD
ROOT
HETATM    1  C   UNL     1     -10.015  19.923  66.160  1.00  0.00    -0.593 C  
HETATM    2  C   UNL     1     -10.743  19.425  67.397  1.00  0.00    -0.594 C  
ENDROOT
BRANCH   2   3
HETATM    3  C   UNL     1      -9.773  18.792  68.392  1.00  0.00    -0.421 C  
BRANCH   3   4
HETATM    4  C   UNL     1      -9.398  17.372  67.976  1.00  0.00    -0.276 C  
BRANCH   4   5
HETATM    5  C   UNL     1     -10.646  16.531  67.719  1.00  0.00    -0.332 C  
BRANCH   5   6
HETATM    6  C   UNL     1     -10.444  15.599  66.529  1.00  0.00    -0.303 C  
BRANCH   6   7
HETATM    7  C   UNL     1     -10.404  14.140  66.980  1.00  0.00    -0.267 C  
BRANCH   7   8
HETATM    8  C   UNL     1     -10.073  13.217  65.811  1.00  0.00    -0.290 C  
BRANCH   8   9
HETATM    9  C   UNL     1      -9.372  11.952  66.300  1.00  0.00    -0.234 C  
BRANCH   9  10
HETATM   10  C   UNL     1     -10.179  10.710  65.941  1.00  0.00    -0.314 C  
BRANCH  10  11
HETATM   11  C   UNL     1      -9.275   9.610  65.390  1.00  0.00    -0.295 C  
BRANCH  11  12
HETATM   12  C   UNL     1      -9.153   8.457  66.383  1.00  0.00    -0.231 C  
BRANCH  12  13
HETATM   13  C   UNL     1     -10.529   7.987  66.848  1.00  0.00    -0.387 C  
BRANCH  13  14
HETATM   14  C   UNL     1     -10.553   7.784  68.362  1.00  0.00    -0.157 C  
BRANCH  14  15
HETATM   15  C   UNL     1     -10.917   6.346  68.719  1.00  0.00    -0.404 C  
BRANCH  15  16
HETATM   16  C   UNL     1     -11.115   6.180  70.218  1.00  0.00    -0.366 C  
HETATM   17  O   UNL     1     -11.710   7.349  70.757  1.00  0.00    -0.294 OA 
HETATM   18  H   UNL     1     -11.834   7.245  71.694  1.00  0.00     0.000 HD 
ENDBRANCH  15  16
ENDBRANCH  14  15
ENDBRANCH  13  14
ENDBRANCH  12  13
ENDBRANCH  11  12
ENDBRANCH  10  11
ENDBRANCH   9  10
ENDBRANCH   8   9
ENDBRANCH   7   8
ENDBRANCH   6   7
ENDBRANCH   5   6
ENDBRANCH   4   5
ENDBRANCH   3   4
ENDBRANCH   2   3
TORSDOF 14
ENDMDL
MODEL      276
REMARK 921   NORMALIZED FREE ENERGY PREDICTED BY IDOCK:   -2.74 KCAL/MOL
REMARK 922        TOTAL FREE ENERGY PREDICTED BY IDOCK:   -6.36 KCAL/MOL
REMARK 923 INTER-LIGAND FREE ENERGY PREDICTED BY IDOCK:   -5.58 KCAL/MOL
REMARK 924 INTRA-LIGAND FREE ENERGY PREDICTED BY IDOCK:   -0.79 KCAL/MOL
REMARK 927      BINDING AFFINITY PREDICTED BY RF-SCORE:    0.00 PKD
ROOT
HETATM    1  C   UNL     1      -8.695   6.795  73.535  1.00  0.00    -0.146 C  
HETATM    2  C   UNL     1     -10.178   6.467  73.558  1.00  0.00    -0.262 C  
ENDROOT
BRANCH   2   3
HETATM    3  C   UNL     1     -11.006   7.610  72.975  1.00  0.00    -0.457 C  
BRANCH   3   4
HETATM    4  C   UNL     1     -10.351   8.187  71.722  1.00  0.00    -0.293 C  
BRANCH   4   5
HETATM    5  C   UNL     1     -10.925   9.561  71.390  1.00  0.00    -0.415 C  
BRANCH   5   6
HETATM    6  C   UNL     1     -12.419   9.620  71.693  1.00  0.00    -0.494 C  
BRANCH   6   7
HETATM    7  C   UNL     1     -13.035  10.905  71.145  1.00  0.00    -0.449 C  
BRANCH   7   8
HETATM    8  C   UNL     1     -12.157  11.509  70.052  1.00  0.00    -0.408 C  
BRANCH   8   9
HETATM    9  C   UNL     1     -12.090  13.027  70.186  1.00  0.00    -0.377 C  
BRANCH   9  10
HETATM   10  C   UNL     1     -11.449  13.654  68.953  1.00  0.00    -0.344 C  
BRANCH  10  11
HETATM   11  C   UNL     1     -12.050  15.027  68.662  1.00  0.00    -0.198 C  
BRANCH  11  12
HETATM   12  C   UNL     1     -10.966  16.101  68.635  1.00  0.00    -0.336 C  
BRANCH  12  13
HETATM   13  C   UNL     1     -10.704  16.579  67.208  1.00  0.00    -0.243 C  
BRANCH  13  14
HETATM   14  C   UNL     1      -9.210  16.569  66.894  1.00  0.00    -0.244 C  
BRANCH  14  15
HETATM   15  C   UNL     1      -8.697  15.145  66.701  1.00  0.00    -0.308 C  
BRANCH  15  16
HETATM   16  C   UNL     1      -7.387  14.921  67.441  1.00  0.00    -0.193 C  
HETATM   17  O   UNL     1      -6.806  13.694  67.029  1.00  0.00    -0.411 OA 
HETATM   18  H   UNL     1      -5.988  13.554  67.491  1.00  0.00     0.000 HD 
ENDBRANCH  15  16
ENDBRANCH  14  15
ENDBRANCH  13  14
ENDBRANCH  12  13
ENDBRANCH  11  12
ENDBRANCH  10  11
ENDBRANCH   9  10
ENDBRANCH   8   9
ENDBRANCH   7   8
ENDBRANCH   6   7
ENDBRANCH   5   6
ENDBRANCH   4   5
ENDBRANCH   3   4
ENDBRANCH   2   3
TORSDOF 14
ENDMDL
MODEL      277
REMARK 921   NORMALIZED FREE ENERGY PREDICTED BY IDOCK:   -2.74 KCAL/MOL
REMARK 922        TOTAL FREE ENERGY PREDICTED BY IDOCK:   -6.36 KCAL/MOL
REMARK 923 INTER-LIGAND FREE ENERGY PREDICTED BY IDOCK:   -5.91 KCAL/MOL
REMARK 924 INTRA-LIGAND FREE ENERGY PREDICTED BY IDOCK:   -0.46 KCAL/MOL
REMARK 927      BINDING AFFINITY PREDICTED BY RF-SCORE:    0.00 PKD
ROOT
HETATM    1  C   UNL     1     -12.149   7.788  72.444  1.00  0.00    -0.297 C  
HETATM    2  C   UNL     1     -13.307   8.771  72.448  1.00  0.00    -0.442 C  
ENDROOT
BRANCH   2   3
HETATM    3  C   UNL     1     -13.355   9.575  71.151  1.00  0.00    -0.314 C  
BRANCH   3   4
HETATM    4  C   UNL     1     -11.967  10.076  70.757  1.00  0.00    -0.426 C  
BRANCH   4   5
HETATM    5  C   UNL     1     -12.039  10.967  69.519  1.00  0.00    -0.380 C  
BRANCH   5   6
HETATM    6  C   UNL     1     -11.289  12.276  69.742  1.00  0.00    -0.149 C  
BRANCH   6   7
HETATM    7  C   UNL     1     -11.697  13.320  68.705  1.00  0.00    -0.366 C  
BRANCH   7   8
HETATM    8  C   UNL     1     -10.867  13.180  67.432  1.00  0.00    -0.269 C  
BRANCH   8   9
HETATM    9  C   UNL     1     -11.536  12.223  66.450  1.00  0.00    -0.445 C  
BRANCH   9  10
HETATM   10  C   UNL     1     -11.830  12.921  65.126  1.00  0.00    -0.415 C  
BRANCH  10  11
HETATM   11  C   UNL     1     -10.618  13.715  64.646  1.00  0.00    -0.446 C  
BRANCH  11  12
HETATM   12  C   UNL     1     -10.881  15.216  64.736  1.00  0.00    -0.378 C  
BRANCH  12  13
HETATM   13  C   UNL     1      -9.910  15.885  65.706  1.00  0.00    -0.380 C  
BRANCH  13  14
HETATM   14  C   UNL     1     -10.600  17.003  66.484  1.00  0.00    -0.172 C  
BRANCH  14  15
HETATM   15  C   UNL     1      -9.749  17.457  67.666  1.00  0.00    -0.270 C  
BRANCH  15  16
HETATM   16  C   UNL     1     -10.151  18.846  68.139  1.00  0.00    -0.388 C  
HETATM   17  O   UNL     1      -9.103  19.413  68.911  1.00  0.00    -0.370 OA 
HETATM   18  H   UNL     1      -9.355  20.280  69.206  1.00  0.00     0.000 HD 
ENDBRANCH  15  16
ENDBRANCH  14  15
ENDBRANCH  13  14
ENDBRANCH  12  13
ENDBRANCH  11  12
ENDBRANCH  10  11
ENDBRANCH   9  10
ENDBRANCH   8   9
ENDBRANCH   7   8
ENDBRANCH   6   7
ENDBRANCH   5   6
ENDBRANCH   4   5
ENDBRANCH   3   4
ENDBRANCH   2   3
TORSDOF 14
ENDMDL
MODEL      278
REMARK 921   NORMALIZED FREE ENERGY PREDICTED BY IDOCK:   -2.74 KCAL/MOL
REMARK 922        TOTAL FREE ENERGY PREDICTED BY IDOCK:   -6.36 KCAL/MOL
REMARK 923 INTER-LIGAND FREE ENERGY PREDICTED BY IDOCK:   -5.46 KCAL/MOL
REMARK 924 INTRA-LIGAND FREE ENERGY PREDICTED BY IDOCK:   -0.90 KCAL/MOL
REMARK 927      BINDING AFFINITY PREDICTED BY RF-SCORE:    0.00 PKD
ROOT
HETATM    1  C   UNL     1     -10.382  17.217  68.695  1.00  0.00    -0.359 C  
HETATM    2  C   UNL     1     -11.227  16.016  68.307  1.00  0.00    -0.350 C  
ENDROOT
BRANCH   2   3
HETATM    3  C   UNL     1     -11.227  14.960  69.411  1.00  0.00    -0.302 C  
BRANCH   3   4
HETATM    4  C   UNL     1     -11.113  13.552  68.832  1.00  0.00    -0.305 C  
BRANCH   4   5
HETATM    5  C   UNL     1     -12.009  12.575  69.590  1.00  0.00    -0.339 C  
BRANCH   5   6
HETATM    6  C   UNL     1     -12.520  13.194  70.887  1.00  0.00    -0.407 C  
BRANCH   6   7
HETATM    7  C   UNL     1     -13.103  12.125  71.807  1.00  0.00    -0.457 C  
BRANCH   7   8
HETATM    8  C   UNL     1     -13.032  10.746  71.157  1.00  0.00    -0.467 C  
BRANCH   8   9
HETATM    9  C   UNL     1     -12.611   9.687  72.172  1.00  0.00    -0.388 C  
BRANCH   9  10
HETATM   10  C   UNL     1     -11.434   8.870  71.649  1.00  0.00    -0.409 C  
BRANCH  10  11
HETATM   11  C   UNL     1     -10.934   7.892  72.708  1.00  0.00    -0.456 C  
BRANCH  11  12
HETATM   12  C   UNL     1     -11.345   6.463  72.368  1.00  0.00    -0.324 C  
BRANCH  12  13
HETATM   13  C   UNL     1     -10.757   6.027  71.029  1.00  0.00    -0.325 C  
BRANCH  13  14
HETATM   14  C   UNL     1      -9.243   6.227  71.007  1.00  0.00    -0.160 C  
BRANCH  14  15
HETATM   15  C   UNL     1      -8.708   6.224  69.578  1.00  0.00    -0.132 C  
BRANCH  15  16
HETATM   16  C   UNL     1      -9.590   7.049  68.653  1.00  0.00    -0.138 C  
HETATM   17  O   UNL     1      -9.123   8.389  68.614  1.00  0.00    -0.140 OA 
HETATM   18  H   UNL     1      -9.674   8.905  68.036  1.00  0.00     0.000 HD 
ENDBRANCH  15  16
ENDBRANCH  14  15
ENDBRANCH  13  14
ENDBRANCH  12  13
ENDBRANCH  11  12
ENDBRANCH  10  11
ENDBRANCH   9  10
ENDBRANCH   8   9
ENDBRANCH   7   8
ENDBRANCH   6   7
ENDBRANCH   5   6
ENDBRANCH   4   5
ENDBRANCH   3   4
ENDBRANCH   2   3
TORSDOF 14
ENDMDL
MODEL      279
REMARK 921   NORMALIZED FREE ENERGY PREDICTED BY IDOCK:   -2.73 KCAL/MOL
REMARK 922        TOTAL FREE ENERGY PREDICTED BY IDOCK:   -6.35 KCAL/MOL
REMARK 923 INTER-LIGAND FREE ENERGY PREDICTED BY IDOCK:   -5.62 KCAL/MOL
REMARK 924 INTRA-LIGAND FREE ENERGY PREDICTED BY IDOCK:   -0.73 KCAL/MOL
REMARK 927      BINDING AFFINITY PREDICTED BY RF-SCORE:    0.00 PKD
ROOT
HETATM    1  C   UNL     1     -12.071   8.559  72.331  1.00  0.00    -0.436 C  
HETATM    2  C   UNL     1     -11.323   9.525  71.428  1.00  0.00    -0.462 C  
ENDROOT
BRANCH   2   3
HETATM    3  C   UNL     1     -12.291  10.392  70.625  1.00  0.00    -0.438 C  
BRANCH   3   4
HETATM    4  C   UNL     1     -12.688  11.646  71.402  1.00  0.00    -0.445 C  
BRANCH   4   5
HETATM    5  C   UNL     1     -12.479  12.900  70.557  1.00  0.00    -0.294 C  
BRANCH   5   6
HETATM    6  C   UNL     1     -12.268  14.126  71.439  1.00  0.00    -0.383 C  
BRANCH   6   7
HETATM    7  C   UNL     1     -11.768  15.310  70.615  1.00  0.00    -0.371 C  
BRANCH   7   8
HETATM    8  C   UNL     1     -12.065  15.107  69.132  1.00  0.00    -0.258 C  
BRANCH   8   9
HETATM    9  C   UNL     1     -10.979  15.742  68.268  1.00  0.00    -0.325 C  
BRANCH   9  10
HETATM   10  C   UNL     1      -9.946  14.703  67.843  1.00  0.00    -0.221 C  
BRANCH  10  11
HETATM   11  C   UNL     1      -9.230  15.134  66.566  1.00  0.00    -0.318 C  
BRANCH  11  12
HETATM   12  C   UNL     1      -7.874  15.755  66.885  1.00  0.00    -0.271 C  
BRANCH  12  13
HETATM   13  C   UNL     1      -7.880  17.257  66.610  1.00  0.00    -0.295 C  
BRANCH  13  14
HETATM   14  C   UNL     1      -6.626  17.921  67.173  1.00  0.00    -0.196 C  
BRANCH  14  15
HETATM   15  C   UNL     1      -6.792  18.245  68.655  1.00  0.00    -0.261 C  
BRANCH  15  16
HETATM   16  C   UNL     1      -7.319  19.658  68.858  1.00  0.00    -0.338 C  
HETATM   17  O   UNL     1      -6.314  20.465  69.452  1.00  0.00    -0.311 OA 
HETATM   18  H   UNL     1      -6.644  21.347  69.579  1.00  0.00     0.000 HD 
ENDBRANCH  15  16
ENDBRANCH  14  15
ENDBRANCH  13  14
ENDBRANCH  12  13
ENDBRANCH  11  12
ENDBRANCH  10  11
ENDBRANCH   9  10
ENDBRANCH   8   9
ENDBRANCH   7   8
ENDBRANCH   6   7
ENDBRANCH   5   6
ENDBRANCH   4   5
ENDBRANCH   3   4
ENDBRANCH   2   3
TORSDOF 14
ENDMDL
MODEL      280
REMARK 921   NORMALIZED FREE ENERGY PREDICTED BY IDOCK:   -2.73 KCAL/MOL
REMARK 922        TOTAL FREE ENERGY PREDICTED BY IDOCK:   -6.34 KCAL/MOL
REMARK 923 INTER-LIGAND FREE ENERGY PREDICTED BY IDOCK:   -4.80 KCAL/MOL
REMARK 924 INTRA-LIGAND FREE ENERGY PREDICTED BY IDOCK:   -1.55 KCAL/MOL
REMARK 927      BINDING AFFINITY PREDICTED BY RF-SCORE:    0.00 PKD
ROOT
HETATM    1  C   UNL     1      -9.922  10.329  64.339  1.00  0.00    -0.331 C  
HETATM    2  C   UNL     1      -9.019   9.383  65.111  1.00  0.00    -0.258 C  
ENDROOT
BRANCH   2   3
HETATM    3  C   UNL     1      -7.639   9.998  65.338  1.00  0.00    -0.138 C  
BRANCH   3   4
HETATM    4  C   UNL     1      -7.444  10.402  66.797  1.00  0.00    -0.110 C  
BRANCH   4   5
HETATM    5  C   UNL     1      -7.504  11.919  66.956  1.00  0.00    -0.126 C  
BRANCH   5   6
HETATM    6  C   UNL     1      -8.368  12.313  68.149  1.00  0.00    -0.174 C  
BRANCH   6   7
HETATM    7  C   UNL     1      -8.134  13.772  68.534  1.00  0.00    -0.128 C  
BRANCH   7   8
HETATM    8  C   UNL     1      -7.646  14.581  67.335  1.00  0.00    -0.209 C  
BRANCH   8   9
HETATM    9  C   UNL     1      -7.205  15.977  67.765  1.00  0.00    -0.161 C  
BRANCH   9  10
HETATM   10  C   UNL     1      -8.306  16.999  67.502  1.00  0.00    -0.199 C  
BRANCH  10  11
HETATM   11  C   UNL     1      -9.293  17.052  68.664  1.00  0.00    -0.270 C  
BRANCH  11  12
HETATM   12  C   UNL     1     -10.732  17.011  68.159  1.00  0.00    -0.374 C  
BRANCH  12  13
HETATM   13  C   UNL     1     -11.286  15.589  68.197  1.00  0.00    -0.343 C  
BRANCH  13  14
HETATM   14  C   UNL     1     -11.226  14.942  66.815  1.00  0.00    -0.338 C  
BRANCH  14  15
HETATM   15  C   UNL     1     -11.665  13.482  66.870  1.00  0.00    -0.424 C  
BRANCH  15  16
HETATM   16  C   UNL     1     -12.333  13.054  65.572  1.00  0.00    -0.472 C  
HETATM   17  O   UNL     1     -13.365  13.970  65.239  1.00  0.00    -0.741 OA 
HETATM   18  H   UNL     1     -13.783  13.702  64.428  1.00  0.00     0.000 HD 
ENDBRANCH  15  16
ENDBRANCH  14  15
ENDBRANCH  13  14
ENDBRANCH  12  13
ENDBRANCH  11  12
ENDBRANCH  10  11
ENDBRANCH   9  10
ENDBRANCH   8   9
ENDBRANCH   7   8
ENDBRANCH   6   7
ENDBRANCH   5   6
ENDBRANCH   4   5
ENDBRANCH   3   4
ENDBRANCH   2   3
TORSDOF 14
ENDMDL
MODEL      281
REMARK 921   NORMALIZED FREE ENERGY PREDICTED BY IDOCK:   -2.73 KCAL/MOL
REMARK 922        TOTAL FREE ENERGY PREDICTED BY IDOCK:   -6.34 KCAL/MOL
REMARK 923 INTER-LIGAND FREE ENERGY PREDICTED BY IDOCK:   -5.01 KCAL/MOL
REMARK 924 INTRA-LIGAND FREE ENERGY PREDICTED BY IDOCK:   -1.34 KCAL/MOL
REMARK 927      BINDING AFFINITY PREDICTED BY RF-SCORE:    0.00 PKD
ROOT
HETATM    1  C   UNL     1      -6.394  11.809  69.600  1.00  0.00    -0.129 C  
HETATM    2  C   UNL     1      -5.347  12.718  70.221  1.00  0.00    -0.124 C  
ENDROOT
BRANCH   2   3
HETATM    3  C   UNL     1      -5.393  14.114  69.604  1.00  0.00    -0.092 C  
BRANCH   3   4
HETATM    4  C   UNL     1      -5.664  14.049  68.103  1.00  0.00    -0.128 C  
BRANCH   4   5
HETATM    5  C   UNL     1      -6.457  15.268  67.638  1.00  0.00    -0.188 C  
BRANCH   5   6
HETATM    6  C   UNL     1      -7.212  15.907  68.799  1.00  0.00    -0.148 C  
BRANCH   6   7
HETATM    7  C   UNL     1      -7.458  17.391  68.538  1.00  0.00    -0.251 C  
BRANCH   7   8
HETATM    8  C   UNL     1      -7.627  17.662  67.046  1.00  0.00    -0.230 C  
BRANCH   8   9
HETATM    9  C   UNL     1      -9.049  18.118  66.734  1.00  0.00    -0.287 C  
BRANCH   9  10
HETATM   10  C   UNL     1     -10.059  17.035  67.096  1.00  0.00    -0.292 C  
BRANCH  10  11
HETATM   11  C   UNL     1     -10.392  16.170  65.884  1.00  0.00    -0.384 C  
BRANCH  11  12
HETATM   12  C   UNL     1      -9.682  14.822  65.964  1.00  0.00    -0.350 C  
BRANCH  12  13
HETATM   13  C   UNL     1     -10.684  13.686  66.160  1.00  0.00    -0.286 C  
BRANCH  13  14
HETATM   14  C   UNL     1     -11.992  13.979  65.428  1.00  0.00    -0.386 C  
BRANCH  14  15
HETATM   15  C   UNL     1     -12.438  12.781  64.596  1.00  0.00    -0.525 C  
BRANCH  15  16
HETATM   16  C   UNL     1     -11.466  12.501  63.460  1.00  0.00    -0.496 C  
HETATM   17  O   UNL     1     -11.213  11.107  63.377  1.00  0.00    -0.711 OA 
HETATM   18  H   UNL     1     -10.606  10.932  62.667  1.00  0.00     0.000 HD 
ENDBRANCH  15  16
ENDBRANCH  14  15
ENDBRANCH  13  14
ENDBRANCH  12  13
ENDBRANCH  11  12
ENDBRANCH  10  11
ENDBRANCH   9  10
ENDBRANCH   8   9
ENDBRANCH   7   8
ENDBRANCH   6   7
ENDBRANCH   5   6
ENDBRANCH   4   5
ENDBRANCH   3   4
ENDBRANCH   2   3
TORSDOF 14
ENDMDL
MODEL      282
REMARK 921   NORMALIZED FREE ENERGY PREDICTED BY IDOCK:   -2.72 KCAL/MOL
REMARK 922        TOTAL FREE ENERGY PREDICTED BY IDOCK:   -6.33 KCAL/MOL
REMARK 923 INTER-LIGAND FREE ENERGY PREDICTED BY IDOCK:   -4.54 KCAL/MOL
REMARK 924 INTRA-LIGAND FREE ENERGY PREDICTED BY IDOCK:   -1.79 KCAL/MOL
REMARK 927      BINDING AFFINITY PREDICTED BY RF-SCORE:    0.00 PKD
ROOT
HETATM    1  C   UNL     1      -9.886   4.551  66.744  1.00  0.00    -0.242 C  
HETATM    2  C   UNL     1      -9.388   4.829  68.152  1.00  0.00    -0.172 C  
ENDROOT
BRANCH   2   3
HETATM    3  C   UNL     1      -8.624   6.150  68.218  1.00  0.00    -0.116 C  
BRANCH   3   4
HETATM    4  C   UNL     1      -9.075   6.993  69.409  1.00  0.00    -0.145 C  
BRANCH   4   5
HETATM    5  C   UNL     1     -10.326   7.798  69.066  1.00  0.00    -0.219 C  
BRANCH   5   6
HETATM    6  C   UNL     1     -10.194   8.461  67.699  1.00  0.00    -0.298 C  
BRANCH   6   7
HETATM    7  C   UNL     1     -10.475   9.959  67.792  1.00  0.00    -0.292 C  
BRANCH   7   8
HETATM    8  C   UNL     1      -9.238  10.771  67.416  1.00  0.00    -0.156 C  
BRANCH   8   9
HETATM    9  C   UNL     1      -8.324   9.971  66.493  1.00  0.00    -0.126 C  
BRANCH   9  10
HETATM   10  C   UNL     1      -8.297  10.577  65.094  1.00  0.00    -0.150 C  
BRANCH  10  11
HETATM   11  C   UNL     1      -9.518  10.143  64.287  1.00  0.00    -0.366 C  
BRANCH  11  12
HETATM   12  C   UNL     1      -9.985  11.263  63.362  1.00  0.00    -0.433 C  
BRANCH  12  13
HETATM   13  C   UNL     1     -10.475  12.467  64.163  1.00  0.00    -0.415 C  
BRANCH  13  14
HETATM   14  C   UNL     1     -11.805  12.161  64.849  1.00  0.00    -0.366 C  
BRANCH  14  15
HETATM   15  C   UNL     1     -11.960  12.970  66.134  1.00  0.00    -0.488 C  
BRANCH  15  16
HETATM   16  C   UNL     1     -10.973  14.126  66.185  1.00  0.00    -0.309 C  
HETATM   17  O   UNL     1     -10.444  14.249  67.496  1.00  0.00    -0.250 OA 
HETATM   18  H   UNL     1      -9.828  14.971  67.528  1.00  0.00     0.000 HD 
ENDBRANCH  15  16
ENDBRANCH  14  15
ENDBRANCH  13  14
ENDBRANCH  12  13
ENDBRANCH  11  12
ENDBRANCH  10  11
ENDBRANCH   9  10
ENDBRANCH   8   9
ENDBRANCH   7   8
ENDBRANCH   6   7
ENDBRANCH   5   6
ENDBRANCH   4   5
ENDBRANCH   3   4
ENDBRANCH   2   3
TORSDOF 14
ENDMDL
MODEL      283
REMARK 921   NORMALIZED FREE ENERGY PREDICTED BY IDOCK:   -2.72 KCAL/MOL
REMARK 922        TOTAL FREE ENERGY PREDICTED BY IDOCK:   -6.32 KCAL/MOL
REMARK 923 INTER-LIGAND FREE ENERGY PREDICTED BY IDOCK:   -4.60 KCAL/MOL
REMARK 924 INTRA-LIGAND FREE ENERGY PREDICTED BY IDOCK:   -1.72 KCAL/MOL
REMARK 927      BINDING AFFINITY PREDICTED BY RF-SCORE:    0.00 PKD
ROOT
HETATM    1  C   UNL     1      -9.503   3.284  70.888  1.00  0.00    -0.234 C  
HETATM    2  C   UNL     1      -8.960   4.668  70.573  1.00  0.00    -0.155 C  
ENDROOT
BRANCH   2   3
HETATM    3  C   UNL     1      -9.694   5.744  71.371  1.00  0.00    -0.203 C  
BRANCH   3   4
HETATM    4  C   UNL     1     -11.076   6.023  70.785  1.00  0.00    -0.355 C  
BRANCH   4   5
HETATM    5  C   UNL     1     -12.014   6.591  71.847  1.00  0.00    -0.389 C  
BRANCH   5   6
HETATM    6  C   UNL     1     -12.670   7.881  71.366  1.00  0.00    -0.312 C  
BRANCH   6   7
HETATM    7  C   UNL     1     -11.933   9.102  71.912  1.00  0.00    -0.443 C  
BRANCH   7   8
HETATM    8  C   UNL     1     -11.226   9.859  70.791  1.00  0.00    -0.427 C  
BRANCH   8   9
HETATM    9  C   UNL     1      -9.803   9.343  70.601  1.00  0.00    -0.340 C  
BRANCH   9  10
HETATM   10  C   UNL     1      -9.472   9.195  69.119  1.00  0.00    -0.156 C  
BRANCH  10  11
HETATM   11  C   UNL     1     -10.739   9.231  68.270  1.00  0.00    -0.195 C  
BRANCH  11  12
HETATM   12  C   UNL     1     -10.537   8.481  66.956  1.00  0.00    -0.305 C  
BRANCH  12  13
HETATM   13  C   UNL     1     -10.556   6.971  67.180  1.00  0.00    -0.412 C  
BRANCH  13  14
HETATM   14  C   UNL     1      -9.383   6.298  66.470  1.00  0.00    -0.173 C  
BRANCH  14  15
HETATM   15  C   UNL     1      -9.796   4.957  65.872  1.00  0.00    -0.208 C  
BRANCH  15  16
HETATM   16  C   UNL     1      -9.472   3.806  66.812  1.00  0.00    -0.194 C  
HETATM   17  O   UNL     1      -8.298   3.141  66.371  1.00  0.00    -0.095 OA 
HETATM   18  H   UNL     1      -8.096   2.422  66.958  1.00  0.00     0.000 HD 
ENDBRANCH  15  16
ENDBRANCH  14  15
ENDBRANCH  13  14
ENDBRANCH  12  13
ENDBRANCH  11  12
ENDBRANCH  10  11
ENDBRANCH   9  10
ENDBRANCH   8   9
ENDBRANCH   7   8
ENDBRANCH   6   7
ENDBRANCH   5   6
ENDBRANCH   4   5
ENDBRANCH   3   4
ENDBRANCH   2   3
TORSDOF 14
ENDMDL
MODEL      284
REMARK 921   NORMALIZED FREE ENERGY PREDICTED BY IDOCK:   -2.72 KCAL/MOL
REMARK 922        TOTAL FREE ENERGY PREDICTED BY IDOCK:   -6.32 KCAL/MOL
REMARK 923 INTER-LIGAND FREE ENERGY PREDICTED BY IDOCK:   -4.35 KCAL/MOL
REMARK 924 INTRA-LIGAND FREE ENERGY PREDICTED BY IDOCK:   -1.97 KCAL/MOL
REMARK 927      BINDING AFFINITY PREDICTED BY RF-SCORE:    0.00 PKD
ROOT
HETATM    1  C   UNL     1      -7.401  11.223  68.949  1.00  0.00    -0.115 C  
HETATM    2  C   UNL     1      -6.088  11.840  69.398  1.00  0.00    -0.090 C  
ENDROOT
BRANCH   2   3
HETATM    3  C   UNL     1      -5.935  13.263  68.866  1.00  0.00    -0.079 C  
BRANCH   3   4
HETATM    4  C   UNL     1      -6.888  13.525  67.702  1.00  0.00    -0.178 C  
BRANCH   4   5
HETATM    5  C   UNL     1      -7.178  15.017  67.558  1.00  0.00    -0.228 C  
BRANCH   5   6
HETATM    6  C   UNL     1      -7.732  15.596  68.855  1.00  0.00    -0.181 C  
BRANCH   6   7
HETATM    7  C   UNL     1      -7.127  16.968  69.142  1.00  0.00    -0.221 C  
BRANCH   7   8
HETATM    8  C   UNL     1      -6.802  17.703  67.845  1.00  0.00    -0.192 C  
BRANCH   8   9
HETATM    9  C   UNL     1      -7.251  19.160  67.919  1.00  0.00    -0.269 C  
BRANCH   9  10
HETATM   10  C   UNL     1      -8.762  19.255  68.099  1.00  0.00    -0.370 C  
BRANCH  10  11
HETATM   11  C   UNL     1      -9.491  18.891  66.808  1.00  0.00    -0.352 C  
BRANCH  11  12
HETATM   12  C   UNL     1     -10.434  17.711  67.029  1.00  0.00    -0.305 C  
BRANCH  12  13
HETATM   13  C   UNL     1     -10.066  16.538  66.124  1.00  0.00    -0.365 C  
BRANCH  13  14
HETATM   14  C   UNL     1     -10.847  15.284  66.511  1.00  0.00    -0.311 C  
BRANCH  14  15
HETATM   15  C   UNL     1     -11.318  15.354  67.960  1.00  0.00    -0.345 C  
BRANCH  15  16
HETATM   16  C   UNL     1     -11.756  13.989  68.469  1.00  0.00    -0.352 C  
HETATM   17  O   UNL     1     -10.670  13.349  69.122  1.00  0.00    -0.396 OA 
HETATM   18  H   UNL     1     -10.943  12.496  69.439  1.00  0.00     0.000 HD 
ENDBRANCH  15  16
ENDBRANCH  14  15
ENDBRANCH  13  14
ENDBRANCH  12  13
ENDBRANCH  11  12
ENDBRANCH  10  11
ENDBRANCH   9  10
ENDBRANCH   8   9
ENDBRANCH   7   8
ENDBRANCH   6   7
ENDBRANCH   5   6
ENDBRANCH   4   5
ENDBRANCH   3   4
ENDBRANCH   2   3
TORSDOF 14
ENDMDL
MODEL      285
REMARK 921   NORMALIZED FREE ENERGY PREDICTED BY IDOCK:   -2.71 KCAL/MOL
REMARK 922        TOTAL FREE ENERGY PREDICTED BY IDOCK:   -6.31 KCAL/MOL
REMARK 923 INTER-LIGAND FREE ENERGY PREDICTED BY IDOCK:   -4.78 KCAL/MOL
REMARK 924 INTRA-LIGAND FREE ENERGY PREDICTED BY IDOCK:   -1.53 KCAL/MOL
REMARK 927      BINDING AFFINITY PREDICTED BY RF-SCORE:    0.00 PKD
ROOT
HETATM    1  C   UNL     1      -7.358  10.806  69.132  1.00  0.00    -0.115 C  
HETATM    2  C   UNL     1      -6.364  11.920  69.412  1.00  0.00    -0.115 C  
ENDROOT
BRANCH   2   3
HETATM    3  C   UNL     1      -6.715  13.183  68.630  1.00  0.00    -0.096 C  
BRANCH   3   4
HETATM    4  C   UNL     1      -7.802  12.910  67.592  1.00  0.00    -0.168 C  
BRANCH   4   5
HETATM    5  C   UNL     1      -8.574  14.184  67.261  1.00  0.00    -0.231 C  
BRANCH   5   6
HETATM    6  C   UNL     1      -9.694  14.424  68.268  1.00  0.00    -0.222 C  
BRANCH   6   7
HETATM    7  C   UNL     1     -11.007  14.742  67.556  1.00  0.00    -0.304 C  
BRANCH   7   8
HETATM    8  C   UNL     1     -10.835  14.681  66.041  1.00  0.00    -0.318 C  
BRANCH   8   9
HETATM    9  C   UNL     1     -12.018  13.971  65.389  1.00  0.00    -0.386 C  
BRANCH   9  10
HETATM   10  C   UNL     1     -12.088  12.513  65.831  1.00  0.00    -0.420 C  
BRANCH  10  11
HETATM   11  C   UNL     1     -10.763  11.800  65.575  1.00  0.00    -0.329 C  
BRANCH  11  12
HETATM   12  C   UNL     1     -10.495  10.747  66.647  1.00  0.00    -0.302 C  
BRANCH  12  13
HETATM   13  C   UNL     1      -9.973   9.453  66.026  1.00  0.00    -0.352 C  
BRANCH  13  14
HETATM   14  C   UNL     1      -9.794   8.371  67.088  1.00  0.00    -0.279 C  
BRANCH  14  15
HETATM   15  C   UNL     1     -11.019   7.464  67.163  1.00  0.00    -0.225 C  
BRANCH  15  16
HETATM   16  C   UNL     1     -10.835   6.367  68.200  1.00  0.00    -0.308 C  
HETATM   17  O   UNL     1     -11.565   6.688  69.374  1.00  0.00    -0.613 OA 
HETATM   18  H   UNL     1     -11.450   6.003  70.022  1.00  0.00     0.000 HD 
ENDBRANCH  15  16
ENDBRANCH  14  15
ENDBRANCH  13  14
ENDBRANCH  12  13
ENDBRANCH  11  12
ENDBRANCH  10  11
ENDBRANCH   9  10
ENDBRANCH   8   9
ENDBRANCH   7   8
ENDBRANCH   6   7
ENDBRANCH   5   6
ENDBRANCH   4   5
ENDBRANCH   3   4
ENDBRANCH   2   3
TORSDOF 14
ENDMDL
MODEL      286
REMARK 921   NORMALIZED FREE ENERGY PREDICTED BY IDOCK:   -2.71 KCAL/MOL
REMARK 922        TOTAL FREE ENERGY PREDICTED BY IDOCK:   -6.31 KCAL/MOL
REMARK 923 INTER-LIGAND FREE ENERGY PREDICTED BY IDOCK:   -4.44 KCAL/MOL
REMARK 924 INTRA-LIGAND FREE ENERGY PREDICTED BY IDOCK:   -1.87 KCAL/MOL
REMARK 927      BINDING AFFINITY PREDICTED BY RF-SCORE:    0.00 PKD
ROOT
HETATM    1  C   UNL     1     -10.388  19.681  66.788  1.00  0.00    -0.591 C  
HETATM    2  C   UNL     1      -9.195  18.855  67.239  1.00  0.00    -0.308 C  
ENDROOT
BRANCH   2   3
HETATM    3  C   UNL     1      -9.576  17.911  68.377  1.00  0.00    -0.320 C  
BRANCH   3   4
HETATM    4  C   UNL     1     -10.618  16.890  67.926  1.00  0.00    -0.361 C  
BRANCH   4   5
HETATM    5  C   UNL     1     -11.214  16.153  69.123  1.00  0.00    -0.336 C  
BRANCH   5   6
HETATM    6  C   UNL     1     -11.978  14.910  68.677  1.00  0.00    -0.276 C  
BRANCH   6   7
HETATM    7  C   UNL     1     -11.857  14.709  67.168  1.00  0.00    -0.367 C  
BRANCH   7   8
HETATM    8  C   UNL     1     -11.466  13.272  66.838  1.00  0.00    -0.376 C  
BRANCH   8   9
HETATM    9  C   UNL     1     -11.430  12.415  68.101  1.00  0.00    -0.370 C  
BRANCH   9  10
HETATM   10  C   UNL     1      -9.993  12.086  68.494  1.00  0.00    -0.188 C  
BRANCH  10  11
HETATM   11  C   UNL     1      -9.056  12.211  67.295  1.00  0.00    -0.181 C  
BRANCH  11  12
HETATM   12  C   UNL     1      -7.829  13.047  67.648  1.00  0.00    -0.166 C  
BRANCH  12  13
HETATM   13  C   UNL     1      -8.224  14.293  68.438  1.00  0.00    -0.144 C  
BRANCH  13  14
HETATM   14  C   UNL     1      -7.267  14.524  69.605  1.00  0.00    -0.050 C  
BRANCH  14  15
HETATM   15  C   UNL     1      -6.782  15.970  69.641  1.00  0.00    -0.171 C  
BRANCH  15  16
HETATM   16  C   UNL     1      -5.664  16.205  68.637  1.00  0.00    -0.105 C  
HETATM   17  O   UNL     1      -5.994  17.301  67.798  1.00  0.00    -0.127 OA 
HETATM   18  H   UNL     1      -5.296  17.448  67.170  1.00  0.00     0.000 HD 
ENDBRANCH  15  16
ENDBRANCH  14  15
ENDBRANCH  13  14
ENDBRANCH  12  13
ENDBRANCH  11  12
ENDBRANCH  10  11
ENDBRANCH   9  10
ENDBRANCH   8   9
ENDBRANCH   7   8
ENDBRANCH   6   7
ENDBRANCH   5   6
ENDBRANCH   4   5
ENDBRANCH   3   4
ENDBRANCH   2   3
TORSDOF 14
ENDMDL
MODEL      287
REMARK 921   NORMALIZED FREE ENERGY PREDICTED BY IDOCK:   -2.71 KCAL/MOL
REMARK 922        TOTAL FREE ENERGY PREDICTED BY IDOCK:   -6.31 KCAL/MOL
REMARK 923 INTER-LIGAND FREE ENERGY PREDICTED BY IDOCK:   -5.28 KCAL/MOL
REMARK 924 INTRA-LIGAND FREE ENERGY PREDICTED BY IDOCK:   -1.03 KCAL/MOL
REMARK 927      BINDING AFFINITY PREDICTED BY RF-SCORE:    0.00 PKD
ROOT
HETATM    1  C   UNL     1      -8.958   5.370  69.930  1.00  0.00    -0.147 C  
HETATM    2  C   UNL     1      -8.414   5.711  71.306  1.00  0.00    -0.128 C  
ENDROOT
BRANCH   2   3
HETATM    3  C   UNL     1      -9.382   5.279  72.406  1.00  0.00    -0.157 C  
BRANCH   3   4
HETATM    4  C   UNL     1     -10.241   6.449  72.879  1.00  0.00    -0.209 C  
BRANCH   4   5
HETATM    5  C   UNL     1     -11.633   6.392  72.254  1.00  0.00    -0.341 C  
BRANCH   5   6
HETATM    6  C   UNL     1     -12.090   7.777  71.807  1.00  0.00    -0.332 C  
BRANCH   6   7
HETATM    7  C   UNL     1     -11.131   8.358  70.771  1.00  0.00    -0.286 C  
BRANCH   7   8
HETATM    8  C   UNL     1     -10.996   9.869  70.940  1.00  0.00    -0.392 C  
BRANCH   8   9
HETATM    9  C   UNL     1     -12.306  10.480  71.430  1.00  0.00    -0.477 C  
BRANCH   9  10
HETATM   10  C   UNL     1     -12.490  11.888  70.875  1.00  0.00    -0.397 C  
BRANCH  10  11
HETATM   11  C   UNL     1     -11.678  12.083  69.597  1.00  0.00    -0.405 C  
BRANCH  11  12
HETATM   12  C   UNL     1     -11.874  13.489  69.036  1.00  0.00    -0.385 C  
BRANCH  12  13
HETATM   13  C   UNL     1     -10.533  14.185  68.821  1.00  0.00    -0.249 C  
BRANCH  13  14
HETATM   14  C   UNL     1     -10.733  15.628  68.362  1.00  0.00    -0.271 C  
BRANCH  14  15
HETATM   15  C   UNL     1     -10.000  15.896  67.051  1.00  0.00    -0.248 C  
BRANCH  15  16
HETATM   16  C   UNL     1     -10.555  15.044  65.920  1.00  0.00    -0.329 C  
HETATM   17  O   UNL     1      -9.520  14.247  65.367  1.00  0.00    -0.527 OA 
HETATM   18  H   UNL     1      -9.866  13.715  64.660  1.00  0.00     0.000 HD 
ENDBRANCH  15  16
ENDBRANCH  14  15
ENDBRANCH  13  14
ENDBRANCH  12  13
ENDBRANCH  11  12
ENDBRANCH  10  11
ENDBRANCH   9  10
ENDBRANCH   8   9
ENDBRANCH   7   8
ENDBRANCH   6   7
ENDBRANCH   5   6
ENDBRANCH   4   5
ENDBRANCH   3   4
ENDBRANCH   2   3
TORSDOF 14
ENDMDL
MODEL      288
REMARK 921   NORMALIZED FREE ENERGY PREDICTED BY IDOCK:   -2.71 KCAL/MOL
REMARK 922        TOTAL FREE ENERGY PREDICTED BY IDOCK:   -6.30 KCAL/MOL
REMARK 923 INTER-LIGAND FREE ENERGY PREDICTED BY IDOCK:   -5.37 KCAL/MOL
REMARK 924 INTRA-LIGAND FREE ENERGY PREDICTED BY IDOCK:   -0.93 KCAL/MOL
REMARK 927      BINDING AFFINITY PREDICTED BY RF-SCORE:    0.00 PKD
ROOT
HETATM    1  C   UNL     1     -12.176  16.190  73.112  1.00  0.00    -0.643 C  
HETATM    2  C   UNL     1     -12.988  14.917  73.271  1.00  0.00    -0.635 C  
ENDROOT
BRANCH   2   3
HETATM    3  C   UNL     1     -13.219  14.237  71.923  1.00  0.00    -0.456 C  
BRANCH   3   4
HETATM    4  C   UNL     1     -13.022  15.216  70.767  1.00  0.00    -0.468 C  
BRANCH   4   5
HETATM    5  C   UNL     1     -11.821  14.817  69.914  1.00  0.00    -0.364 C  
BRANCH   5   6
HETATM    6  C   UNL     1     -12.146  13.612  69.037  1.00  0.00    -0.348 C  
BRANCH   6   7
HETATM    7  C   UNL     1     -11.368  12.381  69.494  1.00  0.00    -0.250 C  
BRANCH   7   8
HETATM    8  C   UNL     1     -11.780  11.147  68.695  1.00  0.00    -0.389 C  
BRANCH   8   9
HETATM    9  C   UNL     1     -10.699  10.073  68.759  1.00  0.00    -0.250 C  
BRANCH   9  10
HETATM   10  C   UNL     1     -10.629   9.293  67.450  1.00  0.00    -0.324 C  
BRANCH  10  11
HETATM   11  C   UNL     1     -10.102  10.171  66.318  1.00  0.00    -0.303 C  
BRANCH  11  12
HETATM   12  C   UNL     1      -8.680   9.770  65.934  1.00  0.00    -0.156 C  
BRANCH  12  13
HETATM   13  C   UNL     1      -7.654  10.507  66.791  1.00  0.00    -0.115 C  
BRANCH  13  14
HETATM   14  C   UNL     1      -6.857   9.529  67.651  1.00  0.00    -0.075 C  
BRANCH  14  15
HETATM   15  C   UNL     1      -7.073   9.799  69.137  1.00  0.00    -0.067 C  
BRANCH  15  16
HETATM   16  C   UNL     1      -6.067  10.809  69.669  1.00  0.00    -0.069 C  
HETATM   17  O   UNL     1      -6.749  11.863  70.331  1.00  0.00    -0.463 OA 
HETATM   18  H   UNL     1      -6.121  12.493  70.664  1.00  0.00     0.000 HD 
ENDBRANCH  15  16
ENDBRANCH  14  15
ENDBRANCH  13  14
ENDBRANCH  12  13
ENDBRANCH  11  12
ENDBRANCH  10  11
ENDBRANCH   9  10
ENDBRANCH   8   9
ENDBRANCH   7   8
ENDBRANCH   6   7
ENDBRANCH   5   6
ENDBRANCH   4   5
ENDBRANCH   3   4
ENDBRANCH   2   3
TORSDOF 14
ENDMDL
MODEL      289
REMARK 921   NORMALIZED FREE ENERGY PREDICTED BY IDOCK:   -2.70 KCAL/MOL
REMARK 922        TOTAL FREE ENERGY PREDICTED BY IDOCK:   -6.29 KCAL/MOL
REMARK 923 INTER-LIGAND FREE ENERGY PREDICTED BY IDOCK:   -4.99 KCAL/MOL
REMARK 924 INTRA-LIGAND FREE ENERGY PREDICTED BY IDOCK:   -1.30 KCAL/MOL
REMARK 927      BINDING AFFINITY PREDICTED BY RF-SCORE:    0.00 PKD
ROOT
HETATM    1  C   UNL     1     -10.487   5.628  66.703  1.00  0.00    -0.340 C  
HETATM    2  C   UNL     1     -10.628   6.793  67.667  1.00  0.00    -0.323 C  
ENDROOT
BRANCH   2   3
HETATM    3  C   UNL     1     -11.248   6.344  68.989  1.00  0.00    -0.402 C  
BRANCH   3   4
HETATM    4  C   UNL     1     -10.264   5.515  69.810  1.00  0.00    -0.336 C  
BRANCH   4   5
HETATM    5  C   UNL     1     -10.467   5.750  71.305  1.00  0.00    -0.295 C  
BRANCH   5   6
HETATM    6  C   UNL     1     -11.764   6.507  71.571  1.00  0.00    -0.376 C  
BRANCH   6   7
HETATM    7  C   UNL     1     -11.476   7.912  72.095  1.00  0.00    -0.377 C  
BRANCH   7   8
HETATM    8  C   UNL     1     -10.105   8.397  71.632  1.00  0.00    -0.308 C  
BRANCH   8   9
HETATM    9  C   UNL     1     -10.240   9.586  70.685  1.00  0.00    -0.364 C  
BRANCH   9  10
HETATM   10  C   UNL     1     -11.554  10.324  70.924  1.00  0.00    -0.454 C  
BRANCH  10  11
HETATM   11  C   UNL     1     -11.997  11.070  69.668  1.00  0.00    -0.424 C  
BRANCH  11  12
HETATM   12  C   UNL     1     -10.841  11.213  68.682  1.00  0.00    -0.251 C  
BRANCH  12  13
HETATM   13  C   UNL     1     -10.596  12.679  68.334  1.00  0.00    -0.258 C  
BRANCH  13  14
HETATM   14  C   UNL     1      -9.223  12.865  67.692  1.00  0.00    -0.193 C  
BRANCH  14  15
HETATM   15  C   UNL     1      -8.229  11.828  68.207  1.00  0.00    -0.157 C  
BRANCH  15  16
HETATM   16  C   UNL     1      -7.027  12.489  68.864  1.00  0.00    -0.088 C  
HETATM   17  O   UNL     1      -5.832  11.865  68.420  1.00  0.00    -0.049 OA 
HETATM   18  H   UNL     1      -5.081  12.277  68.830  1.00  0.00     0.000 HD 
ENDBRANCH  15  16
ENDBRANCH  14  15
ENDBRANCH  13  14
ENDBRANCH  12  13
ENDBRANCH  11  12
ENDBRANCH  10  11
ENDBRANCH   9  10
ENDBRANCH   8   9
ENDBRANCH   7   8
ENDBRANCH   6   7
ENDBRANCH   5   6
ENDBRANCH   4   5
ENDBRANCH   3   4
ENDBRANCH   2   3
TORSDOF 14
ENDMDL
MODEL      290
REMARK 921   NORMALIZED FREE ENERGY PREDICTED BY IDOCK:   -2.69 KCAL/MOL
REMARK 922        TOTAL FREE ENERGY PREDICTED BY IDOCK:   -6.28 KCAL/MOL
REMARK 923 INTER-LIGAND FREE ENERGY PREDICTED BY IDOCK:   -4.94 KCAL/MOL
REMARK 924 INTRA-LIGAND FREE ENERGY PREDICTED BY IDOCK:   -1.34 KCAL/MOL
REMARK 927      BINDING AFFINITY PREDICTED BY RF-SCORE:    0.00 PKD
ROOT
HETATM    1  C   UNL     1      -7.387  11.290  67.500  1.00  0.00    -0.105 C  
HETATM    2  C   UNL     1      -8.598  12.115  67.102  1.00  0.00    -0.185 C  
ENDROOT
BRANCH   2   3
HETATM    3  C   UNL     1      -8.394  13.592  67.433  1.00  0.00    -0.199 C  
BRANCH   3   4
HETATM    4  C   UNL     1      -9.387  14.473  66.678  1.00  0.00    -0.301 C  
BRANCH   4   5
HETATM    5  C   UNL     1     -10.615  13.671  66.255  1.00  0.00    -0.289 C  
BRANCH   5   6
HETATM    6  C   UNL     1     -11.862  14.144  66.995  1.00  0.00    -0.458 C  
BRANCH   6   7
HETATM    7  C   UNL     1     -11.908  13.565  68.408  1.00  0.00    -0.408 C  
BRANCH   7   8
HETATM    8  C   UNL     1     -11.909  12.040  68.373  1.00  0.00    -0.360 C  
BRANCH   8   9
HETATM    9  C   UNL     1     -11.511  11.465  69.729  1.00  0.00    -0.376 C  
BRANCH   9  10
HETATM   10  C   UNL     1     -12.714  10.845  70.431  1.00  0.00    -0.326 C  
BRANCH  10  11
HETATM   11  C   UNL     1     -12.277  10.015  71.635  1.00  0.00    -0.456 C  
BRANCH  11  12
HETATM   12  C   UNL     1     -10.933   9.341  71.373  1.00  0.00    -0.429 C  
BRANCH  12  13
HETATM   13  C   UNL     1     -10.799   8.053  72.182  1.00  0.00    -0.342 C  
BRANCH  13  14
HETATM   14  C   UNL     1     -10.493   6.866  71.271  1.00  0.00    -0.228 C  
BRANCH  14  15
HETATM   15  C   UNL     1     -10.314   7.314  69.824  1.00  0.00    -0.227 C  
BRANCH  15  16
HETATM   16  C   UNL     1      -8.908   7.021  69.321  1.00  0.00    -0.139 C  
HETATM   17  O   UNL     1      -8.248   8.237  69.004  1.00  0.00    -0.116 OA 
HETATM   18  H   UNL     1      -7.370   8.054  68.690  1.00  0.00     0.000 HD 
ENDBRANCH  15  16
ENDBRANCH  14  15
ENDBRANCH  13  14
ENDBRANCH  12  13
ENDBRANCH  11  12
ENDBRANCH  10  11
ENDBRANCH   9  10
ENDBRANCH   8   9
ENDBRANCH   7   8
ENDBRANCH   6   7
ENDBRANCH   5   6
ENDBRANCH   4   5
ENDBRANCH   3   4
ENDBRANCH   2   3
TORSDOF 14
ENDMDL
MODEL      291
REMARK 921   NORMALIZED FREE ENERGY PREDICTED BY IDOCK:   -2.67 KCAL/MOL
REMARK 922        TOTAL FREE ENERGY PREDICTED BY IDOCK:   -6.24 KCAL/MOL
REMARK 923 INTER-LIGAND FREE ENERGY PREDICTED BY IDOCK:   -4.42 KCAL/MOL
REMARK 924 INTRA-LIGAND FREE ENERGY PREDICTED BY IDOCK:   -1.82 KCAL/MOL
REMARK 927      BINDING AFFINITY PREDICTED BY RF-SCORE:    0.00 PKD
ROOT
HETATM    1  C   UNL     1      -7.138  11.248  69.212  1.00  0.00    -0.112 C  
HETATM    2  C   UNL     1      -5.823  11.915  69.577  1.00  0.00    -0.089 C  
ENDROOT
BRANCH   2   3
HETATM    3  C   UNL     1      -5.597  13.179  68.749  1.00  0.00    -0.073 C  
BRANCH   3   4
HETATM    4  C   UNL     1      -6.720  13.387  67.736  1.00  0.00    -0.163 C  
BRANCH   4   5
HETATM    5  C   UNL     1      -7.247  14.819  67.793  1.00  0.00    -0.192 C  
BRANCH   5   6
HETATM    6  C   UNL     1      -7.580  15.225  69.225  1.00  0.00    -0.213 C  
BRANCH   6   7
HETATM    7  C   UNL     1      -8.980  15.829  69.307  1.00  0.00    -0.266 C  
BRANCH   7   8
HETATM    8  C   UNL     1      -9.615  15.927  67.923  1.00  0.00    -0.215 C  
BRANCH   8   9
HETATM    9  C   UNL     1     -11.138  15.913  68.022  1.00  0.00    -0.334 C  
BRANCH   9  10
HETATM   10  C   UNL     1     -11.694  14.543  67.646  1.00  0.00    -0.410 C  
BRANCH  10  11
HETATM   11  C   UNL     1     -10.730  13.794  66.730  1.00  0.00    -0.276 C  
BRANCH  11  12
HETATM   12  C   UNL     1     -10.261  12.495  67.379  1.00  0.00    -0.217 C  
BRANCH  12  13
HETATM   13  C   UNL     1     -11.249  11.362  67.114  1.00  0.00    -0.363 C  
BRANCH  13  14
HETATM   14  C   UNL     1     -11.108  10.258  68.160  1.00  0.00    -0.324 C  
BRANCH  14  15
HETATM   15  C   UNL     1     -10.824  10.841  69.541  1.00  0.00    -0.288 C  
BRANCH  15  16
HETATM   16  C   UNL     1     -12.104  11.288  70.230  1.00  0.00    -0.373 C  
HETATM   17  O   UNL     1     -11.980  12.639  70.647  1.00  0.00    -0.510 OA 
HETATM   18  H   UNL     1     -12.780  12.918  71.077  1.00  0.00     0.000 HD 
ENDBRANCH  15  16
ENDBRANCH  14  15
ENDBRANCH  13  14
ENDBRANCH  12  13
ENDBRANCH  11  12
ENDBRANCH  10  11
ENDBRANCH   9  10
ENDBRANCH   8   9
ENDBRANCH   7   8
ENDBRANCH   6   7
ENDBRANCH   5   6
ENDBRANCH   4   5
ENDBRANCH   3   4
ENDBRANCH   2   3
TORSDOF 14
ENDMDL
MODEL      292
REMARK 921   NORMALIZED FREE ENERGY PREDICTED BY IDOCK:   -2.66 KCAL/MOL
REMARK 922        TOTAL FREE ENERGY PREDICTED BY IDOCK:   -6.21 KCAL/MOL
REMARK 923 INTER-LIGAND FREE ENERGY PREDICTED BY IDOCK:   -4.75 KCAL/MOL
REMARK 924 INTRA-LIGAND FREE ENERGY PREDICTED BY IDOCK:   -1.46 KCAL/MOL
REMARK 927      BINDING AFFINITY PREDICTED BY RF-SCORE:    0.00 PKD
ROOT
HETATM    1  C   UNL     1      -9.733  16.975  68.055  1.00  0.00    -0.260 C  
HETATM    2  C   UNL     1      -9.934  15.486  67.833  1.00  0.00    -0.218 C  
ENDROOT
BRANCH   2   3
HETATM    3  C   UNL     1     -10.968  14.918  68.803  1.00  0.00    -0.259 C  
BRANCH   3   4
HETATM    4  C   UNL     1     -12.015  14.081  68.071  1.00  0.00    -0.386 C  
BRANCH   4   5
HETATM    5  C   UNL     1     -11.877  14.235  66.558  1.00  0.00    -0.433 C  
BRANCH   5   6
HETATM    6  C   UNL     1     -12.096  12.903  65.849  1.00  0.00    -0.503 C  
BRANCH   6   7
HETATM    7  C   UNL     1     -11.407  11.766  66.601  1.00  0.00    -0.381 C  
BRANCH   7   8
HETATM    8  C   UNL     1     -10.016  11.499  66.032  1.00  0.00    -0.258 C  
BRANCH   8   9
HETATM    9  C   UNL     1      -9.923  10.086  65.465  1.00  0.00    -0.367 C  
BRANCH   9  10
HETATM   10  C   UNL     1      -9.355   9.121  66.501  1.00  0.00    -0.244 C  
BRANCH  10  11
HETATM   11  C   UNL     1     -10.425   8.146  66.985  1.00  0.00    -0.396 C  
BRANCH  11  12
HETATM   12  C   UNL     1     -10.392   8.011  68.505  1.00  0.00    -0.229 C  
BRANCH  12  13
HETATM   13  C   UNL     1     -10.569   9.369  69.179  1.00  0.00    -0.234 C  
BRANCH  13  14
HETATM   14  C   UNL     1      -9.561   9.552  70.311  1.00  0.00    -0.314 C  
BRANCH  14  15
HETATM   15  C   UNL     1      -8.859   8.239  70.641  1.00  0.00    -0.151 C  
BRANCH  15  16
HETATM   16  C   UNL     1      -7.347   8.378  70.546  1.00  0.00    -0.057 C  
HETATM   17  O   UNL     1      -6.962   8.514  69.186  1.00  0.00    -0.060 OA 
HETATM   18  H   UNL     1      -6.018   8.600  69.126  1.00  0.00     0.000 HD 
ENDBRANCH  15  16
ENDBRANCH  14  15
ENDBRANCH  13  14
ENDBRANCH  12  13
ENDBRANCH  11  12
ENDBRANCH  10  11
ENDBRANCH   9  10
ENDBRANCH   8   9
ENDBRANCH   7   8
ENDBRANCH   6   7
ENDBRANCH   5   6
ENDBRANCH   4   5
ENDBRANCH   3   4
ENDBRANCH   2   3
TORSDOF 14
ENDMDL
MODEL      293
REMARK 921   NORMALIZED FREE ENERGY PREDICTED BY IDOCK:   -2.65 KCAL/MOL
REMARK 922        TOTAL FREE ENERGY PREDICTED BY IDOCK:   -6.21 KCAL/MOL
REMARK 923 INTER-LIGAND FREE ENERGY PREDICTED BY IDOCK:   -4.58 KCAL/MOL
REMARK 924 INTRA-LIGAND FREE ENERGY PREDICTED BY IDOCK:   -1.63 KCAL/MOL
REMARK 927      BINDING AFFINITY PREDICTED BY RF-SCORE:    0.00 PKD
ROOT
HETATM    1  C   UNL     1      -5.959   7.861  67.452  1.00  0.00    -0.049 C  
HETATM    2  C   UNL     1      -7.366   7.517  66.995  1.00  0.00    -0.094 C  
ENDROOT
BRANCH   2   3
HETATM    3  C   UNL     1      -7.878   8.531  65.974  1.00  0.00    -0.098 C  
BRANCH   3   4
HETATM    4  C   UNL     1      -8.111   9.896  66.617  1.00  0.00    -0.117 C  
BRANCH   4   5
HETATM    5  C   UNL     1      -9.214  10.661  65.890  1.00  0.00    -0.209 C  
BRANCH   5   6
HETATM    6  C   UNL     1      -8.866  10.860  64.418  1.00  0.00    -0.070 C  
BRANCH   6   7
HETATM    7  C   UNL     1     -10.129  10.905  63.561  1.00  0.00    -0.406 C  
BRANCH   7   8
HETATM    8  C   UNL     1     -10.630  12.337  63.402  1.00  0.00    -0.427 C  
BRANCH   8   9
HETATM    9  C   UNL     1     -12.149  12.399  63.529  1.00  0.00    -0.651 C  
BRANCH   9  10
HETATM   10  C   UNL     1     -12.559  12.902  64.909  1.00  0.00    -0.525 C  
BRANCH  10  11
HETATM   11  C   UNL     1     -11.501  13.839  65.487  1.00  0.00    -0.319 C  
BRANCH  11  12
HETATM   12  C   UNL     1     -11.612  13.914  67.007  1.00  0.00    -0.394 C  
BRANCH  12  13
HETATM   13  C   UNL     1     -10.243  13.754  67.664  1.00  0.00    -0.242 C  
BRANCH  13  14
HETATM   14  C   UNL     1      -9.133  14.262  66.746  1.00  0.00    -0.269 C  
BRANCH  14  15
HETATM   15  C   UNL     1      -7.816  14.404  67.501  1.00  0.00    -0.207 C  
BRANCH  15  16
HETATM   16  C   UNL     1      -8.046  14.818  68.947  1.00  0.00    -0.160 C  
HETATM   17  O   UNL     1      -7.193  14.072  69.802  1.00  0.00    -0.345 OA 
HETATM   18  H   UNL     1      -7.337  14.330  70.705  1.00  0.00     0.000 HD 
ENDBRANCH  15  16
ENDBRANCH  14  15
ENDBRANCH  13  14
ENDBRANCH  12  13
ENDBRANCH  11  12
ENDBRANCH  10  11
ENDBRANCH   9  10
ENDBRANCH   8   9
ENDBRANCH   7   8
ENDBRANCH   6   7
ENDBRANCH   5   6
ENDBRANCH   4   5
ENDBRANCH   3   4
ENDBRANCH   2   3
TORSDOF 14
ENDMDL
MODEL      294
REMARK 921   NORMALIZED FREE ENERGY PREDICTED BY IDOCK:   -2.64 KCAL/MOL
REMARK 922        TOTAL FREE ENERGY PREDICTED BY IDOCK:   -6.19 KCAL/MOL
REMARK 923 INTER-LIGAND FREE ENERGY PREDICTED BY IDOCK:   -5.02 KCAL/MOL
REMARK 924 INTRA-LIGAND FREE ENERGY PREDICTED BY IDOCK:   -1.17 KCAL/MOL
REMARK 927      BINDING AFFINITY PREDICTED BY RF-SCORE:    0.00 PKD
ROOT
HETATM    1  C   UNL     1      -8.572   5.475  65.142  1.00  0.00    -0.141 C  
HETATM    2  C   UNL     1      -7.837   6.441  66.055  1.00  0.00    -0.103 C  
ENDROOT
BRANCH   2   3
HETATM    3  C   UNL     1      -8.287   6.283  67.505  1.00  0.00    -0.113 C  
BRANCH   3   4
HETATM    4  C   UNL     1      -9.701   6.822  67.709  1.00  0.00    -0.140 C  
BRANCH   4   5
HETATM    5  C   UNL     1      -9.983   7.070  69.189  1.00  0.00    -0.165 C  
BRANCH   5   6
HETATM    6  C   UNL     1     -11.301   6.429  69.611  1.00  0.00    -0.479 C  
BRANCH   6   7
HETATM    7  C   UNL     1     -11.483   6.506  71.125  1.00  0.00    -0.380 C  
BRANCH   7   8
HETATM    8  C   UNL     1     -12.736   7.300  71.485  1.00  0.00    -0.422 C  
BRANCH   8   9
HETATM    9  C   UNL     1     -12.368   8.657  72.078  1.00  0.00    -0.435 C  
BRANCH   9  10
HETATM   10  C   UNL     1     -13.093   9.783  71.349  1.00  0.00    -0.489 C  
BRANCH  10  11
HETATM   11  C   UNL     1     -12.103  10.813  70.810  1.00  0.00    -0.473 C  
BRANCH  11  12
HETATM   12  C   UNL     1     -11.619  10.425  69.415  1.00  0.00    -0.272 C  
BRANCH  12  13
HETATM   13  C   UNL     1     -10.095  10.355  69.364  1.00  0.00    -0.251 C  
BRANCH  13  14
HETATM   14  C   UNL     1      -9.531  11.413  68.418  1.00  0.00    -0.194 C  
BRANCH  14  15
HETATM   15  C   UNL     1     -10.471  11.657  67.241  1.00  0.00    -0.247 C  
BRANCH  15  16
HETATM   16  C   UNL     1     -10.047  12.875  66.435  1.00  0.00    -0.269 C  
HETATM   17  O   UNL     1      -9.721  12.485  65.110  1.00  0.00    -0.444 OA 
HETATM   18  H   UNL     1      -9.456  13.245  64.606  1.00  0.00     0.000 HD 
ENDBRANCH  15  16
ENDBRANCH  14  15
ENDBRANCH  13  14
ENDBRANCH  12  13
ENDBRANCH  11  12
ENDBRANCH  10  11
ENDBRANCH   9  10
ENDBRANCH   8   9
ENDBRANCH   7   8
ENDBRANCH   6   7
ENDBRANCH   5   6
ENDBRANCH   4   5
ENDBRANCH   3   4
ENDBRANCH   2   3
TORSDOF 14
ENDMDL
MODEL      295
REMARK 921   NORMALIZED FREE ENERGY PREDICTED BY IDOCK:   -2.63 KCAL/MOL
REMARK 922        TOTAL FREE ENERGY PREDICTED BY IDOCK:   -6.16 KCAL/MOL
REMARK 923 INTER-LIGAND FREE ENERGY PREDICTED BY IDOCK:   -5.32 KCAL/MOL
REMARK 924 INTRA-LIGAND FREE ENERGY PREDICTED BY IDOCK:   -0.84 KCAL/MOL
REMARK 927      BINDING AFFINITY PREDICTED BY RF-SCORE:    0.00 PKD
ROOT
HETATM    1  C   UNL     1     -10.371   8.851  71.610  1.00  0.00    -0.416 C  
HETATM    2  C   UNL     1     -11.334   9.194  70.487  1.00  0.00    -0.300 C  
ENDROOT
BRANCH   2   3
HETATM    3  C   UNL     1     -11.411  10.703  70.267  1.00  0.00    -0.422 C  
BRANCH   3   4
HETATM    4  C   UNL     1     -11.017  11.077  68.840  1.00  0.00    -0.277 C  
BRANCH   4   5
HETATM    5  C   UNL     1     -11.712  12.364  68.402  1.00  0.00    -0.386 C  
BRANCH   5   6
HETATM    6  C   UNL     1     -10.993  13.591  68.952  1.00  0.00    -0.286 C  
BRANCH   6   7
HETATM    7  C   UNL     1      -9.745  13.904  68.130  1.00  0.00    -0.222 C  
BRANCH   7   8
HETATM    8  C   UNL     1      -9.800  15.324  67.572  1.00  0.00    -0.213 C  
BRANCH   8   9
HETATM    9  C   UNL     1      -8.612  15.594  66.654  1.00  0.00    -0.330 C  
BRANCH   9  10
HETATM   10  C   UNL     1      -7.416  16.107  67.449  1.00  0.00    -0.199 C  
BRANCH  10  11
HETATM   11  C   UNL     1      -6.649  17.166  66.662  1.00  0.00    -0.272 C  
BRANCH  11  12
HETATM   12  C   UNL     1      -6.724  18.522  67.358  1.00  0.00    -0.205 C  
BRANCH  12  13
HETATM   13  C   UNL     1      -7.156  19.615  66.384  1.00  0.00    -0.244 C  
BRANCH  13  14
HETATM   14  C   UNL     1      -8.322  20.422  66.951  1.00  0.00    -0.313 C  
BRANCH  14  15
HETATM   15  C   UNL     1      -9.207  19.559  67.845  1.00  0.00    -0.398 C  
BRANCH  15  16
HETATM   16  C   UNL     1     -10.603  19.404  67.261  1.00  0.00    -0.486 C  
HETATM   17  O   UNL     1     -10.698  20.130  66.044  1.00  0.00    -0.351 OA 
HETATM   18  H   UNL     1     -11.570  20.034  65.679  1.00  0.00     0.000 HD 
ENDBRANCH  15  16
ENDBRANCH  14  15
ENDBRANCH  13  14
ENDBRANCH  12  13
ENDBRANCH  11  12
ENDBRANCH  10  11
ENDBRANCH   9  10
ENDBRANCH   8   9
ENDBRANCH   7   8
ENDBRANCH   6   7
ENDBRANCH   5   6
ENDBRANCH   4   5
ENDBRANCH   3   4
ENDBRANCH   2   3
TORSDOF 14
ENDMDL
MODEL      296
REMARK 921   NORMALIZED FREE ENERGY PREDICTED BY IDOCK:   -2.63 KCAL/MOL
REMARK 922        TOTAL FREE ENERGY PREDICTED BY IDOCK:   -6.16 KCAL/MOL
REMARK 923 INTER-LIGAND FREE ENERGY PREDICTED BY IDOCK:   -5.15 KCAL/MOL
REMARK 924 INTRA-LIGAND FREE ENERGY PREDICTED BY IDOCK:   -1.01 KCAL/MOL
REMARK 927      BINDING AFFINITY PREDICTED BY RF-SCORE:    0.00 PKD
ROOT
HETATM    1  C   UNL     1      -9.773  15.515  67.452  1.00  0.00    -0.218 C  
HETATM    2  C   UNL     1     -10.235  14.185  68.023  1.00  0.00    -0.232 C  
ENDROOT
BRANCH   2   3
HETATM    3  C   UNL     1     -10.737  13.254  66.921  1.00  0.00    -0.274 C  
BRANCH   3   4
HETATM    4  C   UNL     1     -11.292  11.956  67.501  1.00  0.00    -0.381 C  
BRANCH   4   5
HETATM    5  C   UNL     1     -11.251  11.978  69.027  1.00  0.00    -0.313 C  
BRANCH   5   6
HETATM    6  C   UNL     1     -12.256  10.994  69.617  1.00  0.00    -0.370 C  
BRANCH   6   7
HETATM    7  C   UNL     1     -12.630  11.390  71.044  1.00  0.00    -0.487 C  
BRANCH   7   8
HETATM    8  C   UNL     1     -12.906  10.155  71.898  1.00  0.00    -0.526 C  
BRANCH   8   9
HETATM    9  C   UNL     1     -11.989   9.003  71.499  1.00  0.00    -0.414 C  
BRANCH   9  10
HETATM   10  C   UNL     1     -12.763   7.691  71.427  1.00  0.00    -0.357 C  
BRANCH  10  11
HETATM   11  C   UNL     1     -11.950   6.543  72.018  1.00  0.00    -0.372 C  
BRANCH  11  12
HETATM   12  C   UNL     1     -10.906   7.064  73.002  1.00  0.00    -0.342 C  
BRANCH  12  13
HETATM   13  C   UNL     1      -9.524   6.498  72.685  1.00  0.00    -0.153 C  
BRANCH  13  14
HETATM   14  C   UNL     1      -9.317   6.376  71.177  1.00  0.00    -0.166 C  
BRANCH  14  15
HETATM   15  C   UNL     1      -8.217   7.316  70.694  1.00  0.00    -0.116 C  
BRANCH  15  16
HETATM   16  C   UNL     1      -8.275   8.655  71.415  1.00  0.00    -0.160 C  
HETATM   17  O   UNL     1      -6.960   9.107  71.695  1.00  0.00    -0.268 OA 
HETATM   18  H   UNL     1      -6.996   9.943  72.145  1.00  0.00     0.000 HD 
ENDBRANCH  15  16
ENDBRANCH  14  15
ENDBRANCH  13  14
ENDBRANCH  12  13
ENDBRANCH  11  12
ENDBRANCH  10  11
ENDBRANCH   9  10
ENDBRANCH   8   9
ENDBRANCH   7   8
ENDBRANCH   6   7
ENDBRANCH   5   6
ENDBRANCH   4   5
ENDBRANCH   3   4
ENDBRANCH   2   3
TORSDOF 14
ENDMDL
MODEL      297
REMARK 921   NORMALIZED FREE ENERGY PREDICTED BY IDOCK:   -2.62 KCAL/MOL
REMARK 922        TOTAL FREE ENERGY PREDICTED BY IDOCK:   -6.14 KCAL/MOL
REMARK 923 INTER-LIGAND FREE ENERGY PREDICTED BY IDOCK:   -5.40 KCAL/MOL
REMARK 924 INTRA-LIGAND FREE ENERGY PREDICTED BY IDOCK:   -0.74 KCAL/MOL
REMARK 927      BINDING AFFINITY PREDICTED BY RF-SCORE:    0.00 PKD
ROOT
HETATM    1  C   UNL     1      -6.387  14.743  67.937  1.00  0.00    -0.175 C  
HETATM    2  C   UNL     1      -7.529  13.923  67.361  1.00  0.00    -0.147 C  
ENDROOT
BRANCH   2   3
HETATM    3  C   UNL     1      -8.615  13.679  68.407  1.00  0.00    -0.151 C  
BRANCH   3   4
HETATM    4  C   UNL     1      -9.966  13.404  67.750  1.00  0.00    -0.233 C  
BRANCH   4   5
HETATM    5  C   UNL     1     -10.250  11.905  67.695  1.00  0.00    -0.215 C  
BRANCH   5   6
HETATM    6  C   UNL     1     -11.566  11.570  68.390  1.00  0.00    -0.375 C  
BRANCH   6   7
HETATM    7  C   UNL     1     -12.032  12.735  69.261  1.00  0.00    -0.300 C  
BRANCH   7   8
HETATM    8  C   UNL     1     -12.433  12.250  70.652  1.00  0.00    -0.323 C  
BRANCH   8   9
HETATM    9  C   UNL     1     -12.659  10.741  70.657  1.00  0.00    -0.446 C  
BRANCH   9  10
HETATM   10  C   UNL     1     -13.113  10.263  72.032  1.00  0.00    -0.529 C  
BRANCH  10  11
HETATM   11  C   UNL     1     -13.794   8.901  71.941  1.00  0.00    -0.492 C  
BRANCH  11  12
HETATM   12  C   UNL     1     -12.778   7.802  71.646  1.00  0.00    -0.358 C  
BRANCH  12  13
HETATM   13  C   UNL     1     -11.519   7.978  72.492  1.00  0.00    -0.471 C  
BRANCH  13  14
HETATM   14  C   UNL     1     -10.887   6.627  72.820  1.00  0.00    -0.283 C  
BRANCH  14  15
HETATM   15  C   UNL     1     -10.085   6.694  74.116  1.00  0.00    -0.390 C  
BRANCH  15  16
HETATM   16  C   UNL     1      -8.661   7.164  73.864  1.00  0.00    -0.163 C  
HETATM   17  O   UNL     1      -8.470   8.449  74.437  1.00  0.00    -0.346 OA 
HETATM   18  H   UNL     1      -7.581   8.743  74.280  1.00  0.00     0.000 HD 
ENDBRANCH  15  16
ENDBRANCH  14  15
ENDBRANCH  13  14
ENDBRANCH  12  13
ENDBRANCH  11  12
ENDBRANCH  10  11
ENDBRANCH   9  10
ENDBRANCH   8   9
ENDBRANCH   7   8
ENDBRANCH   6   7
ENDBRANCH   5   6
ENDBRANCH   4   5
ENDBRANCH   3   4
ENDBRANCH   2   3
TORSDOF 14
ENDMDL
MODEL      298
REMARK 921   NORMALIZED FREE ENERGY PREDICTED BY IDOCK:   -2.61 KCAL/MOL
REMARK 922        TOTAL FREE ENERGY PREDICTED BY IDOCK:   -6.13 KCAL/MOL
REMARK 923 INTER-LIGAND FREE ENERGY PREDICTED BY IDOCK:   -5.39 KCAL/MOL
REMARK 924 INTRA-LIGAND FREE ENERGY PREDICTED BY IDOCK:   -0.74 KCAL/MOL
REMARK 927      BINDING AFFINITY PREDICTED BY RF-SCORE:    0.00 PKD
ROOT
HETATM    1  C   UNL     1      -5.743  17.989  68.415  1.00  0.00    -0.173 C  
HETATM    2  C   UNL     1      -6.389  18.484  67.132  1.00  0.00    -0.190 C  
ENDROOT
BRANCH   2   3
HETATM    3  C   UNL     1      -6.871  19.926  67.277  1.00  0.00    -0.244 C  
BRANCH   3   4
HETATM    4  C   UNL     1      -8.332  19.980  67.718  1.00  0.00    -0.329 C  
BRANCH   4   5
HETATM    5  C   UNL     1      -9.033  18.650  67.452  1.00  0.00    -0.284 C  
BRANCH   5   6
HETATM    6  C   UNL     1      -9.930  18.259  68.622  1.00  0.00    -0.410 C  
BRANCH   6   7
HETATM    7  C   UNL     1     -10.615  16.920  68.358  1.00  0.00    -0.365 C  
BRANCH   7   8
HETATM    8  C   UNL     1     -11.500  16.519  69.535  1.00  0.00     0.012 C  
BRANCH   8   9
HETATM    9  C   UNL     1     -10.796  15.494  70.420  1.00  0.00    -0.356 C  
BRANCH   9  10
HETATM   10  C   UNL     1     -11.801  14.525  71.034  1.00  0.00    -0.350 C  
BRANCH  10  11
HETATM   11  C   UNL     1     -12.402  13.612  69.969  1.00  0.00    -0.342 C  
BRANCH  11  12
HETATM   12  C   UNL     1     -11.330  12.722  69.346  1.00  0.00    -0.267 C  
BRANCH  12  13
HETATM   13  C   UNL     1     -11.741  11.253  69.398  1.00  0.00    -0.409 C  
BRANCH  13  14
HETATM   14  C   UNL     1     -12.457  10.931  70.707  1.00  0.00    -0.489 C  
BRANCH  14  15
HETATM   15  C   UNL     1     -11.806   9.747  71.415  1.00  0.00    -0.488 C  
BRANCH  15  16
HETATM   16  C   UNL     1     -12.833   8.925  72.179  1.00  0.00    -0.409 C  
HETATM   17  O   UNL     1     -14.089   9.586  72.161  1.00  0.00    -0.291 OA 
HETATM   18  H   UNL     1     -14.730   9.072  72.639  1.00  0.00     0.000 HD 
ENDBRANCH  15  16
ENDBRANCH  14  15
ENDBRANCH  13  14
ENDBRANCH  12  13
ENDBRANCH  11  12
ENDBRANCH  10  11
ENDBRANCH   9  10
ENDBRANCH   8   9
ENDBRANCH   7   8
ENDBRANCH   6   7
ENDBRANCH   5   6
ENDBRANCH   4   5
ENDBRANCH   3   4
ENDBRANCH   2   3
TORSDOF 14
ENDMDL
MODEL      299
REMARK 921   NORMALIZED FREE ENERGY PREDICTED BY IDOCK:   -2.61 KCAL/MOL
REMARK 922        TOTAL FREE ENERGY PREDICTED BY IDOCK:   -6.13 KCAL/MOL
REMARK 923 INTER-LIGAND FREE ENERGY PREDICTED BY IDOCK:   -4.62 KCAL/MOL
REMARK 924 INTRA-LIGAND FREE ENERGY PREDICTED BY IDOCK:   -1.50 KCAL/MOL
REMARK 927      BINDING AFFINITY PREDICTED BY RF-SCORE:    0.00 PKD
ROOT
HETATM    1  C   UNL     1     -12.149   8.252  72.144  1.00  0.00    -0.425 C  
HETATM    2  C   UNL     1     -13.234   9.302  72.318  1.00  0.00    -0.535 C  
ENDROOT
BRANCH   2   3
HETATM    3  C   UNL     1     -13.403  10.137  71.051  1.00  0.00    -0.333 C  
BRANCH   3   4
HETATM    4  C   UNL     1     -12.320  11.208  70.942  1.00  0.00    -0.500 C  
BRANCH   4   5
HETATM    5  C   UNL     1     -11.383  10.920  69.772  1.00  0.00    -0.374 C  
BRANCH   5   6
HETATM    6  C   UNL     1     -11.213  12.153  68.890  1.00  0.00    -0.320 C  
BRANCH   6   7
HETATM    7  C   UNL     1     -11.572  11.838  67.439  1.00  0.00    -0.352 C  
BRANCH   7   8
HETATM    8  C   UNL     1     -10.316  11.701  66.584  1.00  0.00    -0.257 C  
BRANCH   8   9
HETATM    9  C   UNL     1     -10.351  10.411  65.769  1.00  0.00    -0.257 C  
BRANCH   9  10
HETATM   10  C   UNL     1      -9.224   9.472  66.189  1.00  0.00    -0.226 C  
BRANCH  10  11
HETATM   11  C   UNL     1      -9.481   8.896  67.578  1.00  0.00    -0.172 C  
BRANCH  11  12
HETATM   12  C   UNL     1      -8.210   8.920  68.422  1.00  0.00    -0.117 C  
BRANCH  12  13
HETATM   13  C   UNL     1      -8.159  10.168  69.300  1.00  0.00    -0.149 C  
BRANCH  13  14
HETATM   14  C   UNL     1      -6.827  10.897  69.136  1.00  0.00    -0.086 C  
BRANCH  14  15
HETATM   15  C   UNL     1      -6.915  11.970  68.056  1.00  0.00    -0.084 C  
BRANCH  15  16
HETATM   16  C   UNL     1      -7.766  13.146  68.509  1.00  0.00    -0.117 C  
HETATM   17  O   UNL     1      -7.266  13.655  69.736  1.00  0.00    -0.317 OA 
HETATM   18  H   UNL     1      -7.798  14.390  70.020  1.00  0.00     0.000 HD 
ENDBRANCH  15  16
ENDBRANCH  14  15
ENDBRANCH  13  14
ENDBRANCH  12  13
ENDBRANCH  11  12
ENDBRANCH  10  11
ENDBRANCH   9  10
ENDBRANCH   8   9
ENDBRANCH   7   8
ENDBRANCH   6   7
ENDBRANCH   5   6
ENDBRANCH   4   5
ENDBRANCH   3   4
ENDBRANCH   2   3
TORSDOF 14
ENDMDL
MODEL      300
REMARK 921   NORMALIZED FREE ENERGY PREDICTED BY IDOCK:   -2.60 KCAL/MOL
REMARK 922        TOTAL FREE ENERGY PREDICTED BY IDOCK:   -6.11 KCAL/MOL
REMARK 923 INTER-LIGAND FREE ENERGY PREDICTED BY IDOCK:   -3.97 KCAL/MOL
REMARK 924 INTRA-LIGAND FREE ENERGY PREDICTED BY IDOCK:   -2.14 KCAL/MOL
REMARK 927      BINDING AFFINITY PREDICTED BY RF-SCORE:    0.00 PKD
ROOT
HETATM    1  C   UNL     1      -9.925   7.162  69.794  1.00  0.00    -0.180 C  
HETATM    2  C   UNL     1      -9.666   6.626  68.396  1.00  0.00    -0.126 C  
ENDROOT
BRANCH   2   3
HETATM    3  C   UNL     1     -10.954   6.572  67.578  1.00  0.00    -0.444 C  
BRANCH   3   4
HETATM    4  C   UNL     1     -10.860   5.533  66.463  1.00  0.00    -0.237 C  
BRANCH   4   5
HETATM    5  C   UNL     1      -9.802   4.481  66.785  1.00  0.00    -0.242 C  
BRANCH   5   6
HETATM    6  C   UNL     1      -9.034   4.073  65.531  1.00  0.00    -0.131 C  
BRANCH   6   7
HETATM    7  C   UNL     1      -8.358   5.283  64.890  1.00  0.00    -0.144 C  
BRANCH   7   8
HETATM    8  C   UNL     1      -7.077   5.650  65.634  1.00  0.00    -0.067 C  
BRANCH   8   9
HETATM    9  C   UNL     1      -6.955   7.163  65.791  1.00  0.00    -0.061 C  
BRANCH   9  10
HETATM   10  C   UNL     1      -8.136   7.874  65.139  1.00  0.00    -0.144 C  
BRANCH  10  11
HETATM   11  C   UNL     1      -8.275   9.300  65.666  1.00  0.00    -0.119 C  
BRANCH  11  12
HETATM   12  C   UNL     1      -9.743   9.678  65.834  1.00  0.00    -0.343 C  
BRANCH  12  13
HETATM   13  C   UNL     1     -10.004  10.259  67.221  1.00  0.00    -0.233 C  
BRANCH  13  14
HETATM   14  C   UNL     1     -11.256  11.135  67.220  1.00  0.00    -0.347 C  
BRANCH  14  15
HETATM   15  C   UNL     1     -11.278  12.062  66.009  1.00  0.00    -0.385 C  
BRANCH  15  16
HETATM   16  C   UNL     1     -10.824  13.466  66.377  1.00  0.00    -0.289 C  
HETATM   17  O   UNL     1      -9.610  13.770  65.706  1.00  0.00    -0.476 OA 
HETATM   18  H   UNL     1      -9.326  14.647  65.936  1.00  0.00     0.000 HD 
ENDBRANCH  15  16
ENDBRANCH  14  15
ENDBRANCH  13  14
ENDBRANCH  12  13
ENDBRANCH  11  12
ENDBRANCH  10  11
ENDBRANCH   9  10
ENDBRANCH   8   9
ENDBRANCH   7   8
ENDBRANCH   6   7
ENDBRANCH   5   6
ENDBRANCH   4   5
ENDBRANCH   3   4
ENDBRANCH   2   3
TORSDOF 14
ENDMDL
MODEL      301
REMARK 921   NORMALIZED FREE ENERGY PREDICTED BY IDOCK:   -2.59 KCAL/MOL
REMARK 922        TOTAL FREE ENERGY PREDICTED BY IDOCK:   -6.09 KCAL/MOL
REMARK 923 INTER-LIGAND FREE ENERGY PREDICTED BY IDOCK:   -4.94 KCAL/MOL
REMARK 924 INTRA-LIGAND FREE ENERGY PREDICTED BY IDOCK:   -1.15 KCAL/MOL
REMARK 927      BINDING AFFINITY PREDICTED BY RF-SCORE:    0.00 PKD
ROOT
HETATM    1  C   UNL     1     -10.135  11.056  64.114  1.00  0.00    -0.403 C  
HETATM    2  C   UNL     1      -9.980   9.976  65.171  1.00  0.00    -0.350 C  
ENDROOT
BRANCH   2   3
HETATM    3  C   UNL     1      -8.631  10.085  65.879  1.00  0.00    -0.150 C  
BRANCH   3   4
HETATM    4  C   UNL     1      -8.773  10.751  67.245  1.00  0.00    -0.130 C  
BRANCH   4   5
HETATM    5  C   UNL     1      -8.466  12.244  67.160  1.00  0.00    -0.184 C  
BRANCH   5   6
HETATM    6  C   UNL     1      -9.304  13.034  68.159  1.00  0.00    -0.217 C  
BRANCH   6   7
HETATM    7  C   UNL     1      -8.683  14.403  68.428  1.00  0.00    -0.180 C  
BRANCH   7   8
HETATM    8  C   UNL     1      -8.265  15.078  67.124  1.00  0.00    -0.251 C  
BRANCH   8   9
HETATM    9  C   UNL     1      -7.116  16.054  67.362  1.00  0.00    -0.222 C  
BRANCH   9  10
HETATM   10  C   UNL     1      -7.576  17.494  67.161  1.00  0.00    -0.225 C  
BRANCH  10  11
HETATM   11  C   UNL     1      -8.065  18.100  68.474  1.00  0.00    -0.314 C  
BRANCH  11  12
HETATM   12  C   UNL     1      -9.434  18.750  68.298  1.00  0.00    -0.389 C  
BRANCH  12  13
HETATM   13  C   UNL     1     -10.531  17.694  68.188  1.00  0.00    -0.386 C  
BRANCH  13  14
HETATM   14  C   UNL     1     -10.610  16.854  69.461  1.00  0.00    -0.239 C  
BRANCH  14  15
HETATM   15  C   UNL     1     -11.709  15.801  69.359  1.00  0.00    -0.379 C  
BRANCH  15  16
HETATM   16  C   UNL     1     -12.092  15.263  70.729  1.00  0.00    -0.351 C  
HETATM   17  O   UNL     1     -10.921  14.973  71.476  1.00  0.00    -0.571 OA 
HETATM   18  H   UNL     1     -11.159  14.636  72.332  1.00  0.00     0.000 HD 
ENDBRANCH  15  16
ENDBRANCH  14  15
ENDBRANCH  13  14
ENDBRANCH  12  13
ENDBRANCH  11  12
ENDBRANCH  10  11
ENDBRANCH   9  10
ENDBRANCH   8   9
ENDBRANCH   7   8
ENDBRANCH   6   7
ENDBRANCH   5   6
ENDBRANCH   4   5
ENDBRANCH   3   4
ENDBRANCH   2   3
TORSDOF 14
ENDMDL
MODEL      302
REMARK 921   NORMALIZED FREE ENERGY PREDICTED BY IDOCK:   -2.58 KCAL/MOL
REMARK 922        TOTAL FREE ENERGY PREDICTED BY IDOCK:   -6.08 KCAL/MOL
REMARK 923 INTER-LIGAND FREE ENERGY PREDICTED BY IDOCK:   -4.92 KCAL/MOL
REMARK 924 INTRA-LIGAND FREE ENERGY PREDICTED BY IDOCK:   -1.16 KCAL/MOL
REMARK 927      BINDING AFFINITY PREDICTED BY RF-SCORE:    0.00 PKD
ROOT
HETATM    1  C   UNL     1     -12.369  12.085  63.401  1.00  0.00    -0.635 C  
HETATM    2  C   UNL     1     -10.877  12.167  63.673  1.00  0.00    -0.523 C  
ENDROOT
BRANCH   2   3
HETATM    3  C   UNL     1     -10.466  11.211  64.791  1.00  0.00    -0.388 C  
BRANCH   3   4
HETATM    4  C   UNL     1     -11.157  11.564  66.106  1.00  0.00    -0.302 C  
BRANCH   4   5
HETATM    5  C   UNL     1     -10.525  12.801  66.739  1.00  0.00    -0.253 C  
BRANCH   5   6
HETATM    6  C   UNL     1     -10.047  12.508  68.157  1.00  0.00    -0.225 C  
BRANCH   6   7
HETATM    7  C   UNL     1      -8.642  11.910  68.145  1.00  0.00    -0.165 C  
BRANCH   7   8
HETATM    8  C   UNL     1      -8.591  10.619  68.957  1.00  0.00    -0.150 C  
BRANCH   8   9
HETATM    9  C   UNL     1      -9.997  10.142  69.307  1.00  0.00    -0.234 C  
BRANCH   9  10
HETATM   10  C   UNL     1     -10.149   8.650  69.029  1.00  0.00    -0.207 C  
BRANCH  10  11
HETATM   11  C   UNL     1     -10.446   8.396  67.554  1.00  0.00    -0.328 C  
BRANCH  11  12
HETATM   12  C   UNL     1     -10.727   6.917  67.301  1.00  0.00    -0.421 C  
BRANCH  12  13
HETATM   13  C   UNL     1      -9.773   6.350  66.252  1.00  0.00    -0.082 C  
BRANCH  13  14
HETATM   14  C   UNL     1      -9.953   4.840  66.110  1.00  0.00    -0.261 C  
BRANCH  14  15
HETATM   15  C   UNL     1      -8.887   4.242  65.197  1.00  0.00    -0.134 C  
BRANCH  15  16
HETATM   16  C   UNL     1      -9.506   3.627  63.951  1.00  0.00    -0.143 C  
HETATM   17  O   UNL     1     -10.842   3.231  64.223  1.00  0.00    -0.470 OA 
HETATM   18  H   UNL     1     -11.228   2.846  63.445  1.00  0.00     0.000 HD 
ENDBRANCH  15  16
ENDBRANCH  14  15
ENDBRANCH  13  14
ENDBRANCH  12  13
ENDBRANCH  11  12
ENDBRANCH  10  11
ENDBRANCH   9  10
ENDBRANCH   8   9
ENDBRANCH   7   8
ENDBRANCH   6   7
ENDBRANCH   5   6
ENDBRANCH   4   5
ENDBRANCH   3   4
ENDBRANCH   2   3
TORSDOF 14
ENDMDL
MODEL      303
REMARK 921   NORMALIZED FREE ENERGY PREDICTED BY IDOCK:   -2.57 KCAL/MOL
REMARK 922        TOTAL FREE ENERGY PREDICTED BY IDOCK:   -6.05 KCAL/MOL
REMARK 923 INTER-LIGAND FREE ENERGY PREDICTED BY IDOCK:   -5.46 KCAL/MOL
REMARK 924 INTRA-LIGAND FREE ENERGY PREDICTED BY IDOCK:   -0.59 KCAL/MOL
REMARK 927      BINDING AFFINITY PREDICTED BY RF-SCORE:    0.00 PKD
ROOT
HETATM    1  C   UNL     1     -12.431  16.386  74.379  1.00  0.00    -0.525 C  
HETATM    2  C   UNL     1     -12.306  15.091  73.596  1.00  0.00    -0.639 C  
ENDROOT
BRANCH   2   3
HETATM    3  C   UNL     1     -13.429  14.954  72.571  1.00  0.00    -0.548 C  
BRANCH   3   4
HETATM    4  C   UNL     1     -13.164  13.799  71.607  1.00  0.00    -0.450 C  
BRANCH   4   5
HETATM    5  C   UNL     1     -13.644  12.475  72.196  1.00  0.00    -0.458 C  
BRANCH   5   6
HETATM    6  C   UNL     1     -12.729  11.327  71.784  1.00  0.00    -0.379 C  
BRANCH   6   7
HETATM    7  C   UNL     1     -13.356   9.979  72.132  1.00  0.00    -0.469 C  
BRANCH   7   8
HETATM    8  C   UNL     1     -12.307   8.871  72.127  1.00  0.00    -0.449 C  
BRANCH   8   9
HETATM    9  C   UNL     1     -12.681   7.772  71.136  1.00  0.00    -0.205 C  
BRANCH   9  10
HETATM   10  C   UNL     1     -11.500   7.425  70.237  1.00  0.00    -0.206 C  
BRANCH  10  11
HETATM   11  C   UNL     1     -10.994   6.013  70.518  1.00  0.00    -0.388 C  
BRANCH  11  12
HETATM   12  C   UNL     1     -10.351   5.930  71.900  1.00  0.00    -0.255 C  
BRANCH  12  13
HETATM   13  C   UNL     1      -8.866   6.281  71.834  1.00  0.00    -0.139 C  
BRANCH  13  14
HETATM   14  C   UNL     1      -8.330   6.647  73.217  1.00  0.00    -0.126 C  
BRANCH  14  15
HETATM   15  C   UNL     1      -8.300   5.430  74.136  1.00  0.00    -0.108 C  
BRANCH  15  16
HETATM   16  C   UNL     1      -6.952   4.728  74.084  1.00  0.00    -0.076 C  
HETATM   17  O   UNL     1      -7.113   3.354  74.400  1.00  0.00    -0.045 OA 
HETATM   18  H   UNL     1      -6.271   2.915  74.368  1.00  0.00     0.000 HD 
ENDBRANCH  15  16
ENDBRANCH  14  15
ENDBRANCH  13  14
ENDBRANCH  12  13
ENDBRANCH  11  12
ENDBRANCH  10  11
ENDBRANCH   9  10
ENDBRANCH   8   9
ENDBRANCH   7   8
ENDBRANCH   6   7
ENDBRANCH   5   6
ENDBRANCH   4   5
ENDBRANCH   3   4
ENDBRANCH   2   3
TORSDOF 14
ENDMDL
MODEL      304
REMARK 921   NORMALIZED FREE ENERGY PREDICTED BY IDOCK:   -2.57 KCAL/MOL
REMARK 922        TOTAL FREE ENERGY PREDICTED BY IDOCK:   -6.05 KCAL/MOL
REMARK 923 INTER-LIGAND FREE ENERGY PREDICTED BY IDOCK:   -4.99 KCAL/MOL
REMARK 924 INTRA-LIGAND FREE ENERGY PREDICTED BY IDOCK:   -1.06 KCAL/MOL
REMARK 927      BINDING AFFINITY PREDICTED BY RF-SCORE:    0.00 PKD
ROOT
HETATM    1  C   UNL     1     -11.771  12.111  65.429  1.00  0.00    -0.379 C  
HETATM    2  C   UNL     1     -11.855  12.921  66.712  1.00  0.00    -0.452 C  
ENDROOT
BRANCH   2   3
HETATM    3  C   UNL     1     -11.848  14.420  66.421  1.00  0.00    -0.402 C  
BRANCH   3   4
HETATM    4  C   UNL     1     -11.204  15.204  67.563  1.00  0.00    -0.331 C  
BRANCH   4   5
HETATM    5  C   UNL     1      -9.686  15.249  67.405  1.00  0.00    -0.208 C  
BRANCH   5   6
HETATM    6  C   UNL     1      -8.992  14.548  68.568  1.00  0.00    -0.188 C  
BRANCH   6   7
HETATM    7  C   UNL     1      -8.504  13.162  68.155  1.00  0.00    -0.173 C  
BRANCH   7   8
HETATM    8  C   UNL     1      -7.063  12.935  68.603  1.00  0.00    -0.103 C  
BRANCH   8   9
HETATM    9  C   UNL     1      -6.699  11.454  68.535  1.00  0.00    -0.069 C  
BRANCH   9  10
HETATM   10  C   UNL     1      -7.892  10.584  68.918  1.00  0.00    -0.124 C  
BRANCH  10  11
HETATM   11  C   UNL     1      -7.582   9.747  70.157  1.00  0.00    -0.180 C  
BRANCH  11  12
HETATM   12  C   UNL     1      -8.854   9.125  70.725  1.00  0.00    -0.291 C  
BRANCH  12  13
HETATM   13  C   UNL     1     -10.042   9.357  69.795  1.00  0.00    -0.229 C  
BRANCH  13  14
HETATM   14  C   UNL     1     -11.255   9.862  70.573  1.00  0.00    -0.399 C  
BRANCH  14  15
HETATM   15  C   UNL     1     -12.150   8.706  71.008  1.00  0.00    -0.247 C  
BRANCH  15  16
HETATM   16  C   UNL     1     -12.203   8.585  72.523  1.00  0.00    -0.315 C  
HETATM   17  O   UNL     1     -13.494   8.945  72.990  1.00  0.00    -0.897 OA 
HETATM   18  H   UNL     1     -13.526   8.870  73.937  1.00  0.00     0.000 HD 
ENDBRANCH  15  16
ENDBRANCH  14  15
ENDBRANCH  13  14
ENDBRANCH  12  13
ENDBRANCH  11  12
ENDBRANCH  10  11
ENDBRANCH   9  10
ENDBRANCH   8   9
ENDBRANCH   7   8
ENDBRANCH   6   7
ENDBRANCH   5   6
ENDBRANCH   4   5
ENDBRANCH   3   4
ENDBRANCH   2   3
TORSDOF 14
ENDMDL
MODEL      305
REMARK 921   NORMALIZED FREE ENERGY PREDICTED BY IDOCK:   -2.56 KCAL/MOL
REMARK 922        TOTAL FREE ENERGY PREDICTED BY IDOCK:   -6.04 KCAL/MOL
REMARK 923 INTER-LIGAND FREE ENERGY PREDICTED BY IDOCK:   -4.70 KCAL/MOL
REMARK 924 INTRA-LIGAND FREE ENERGY PREDICTED BY IDOCK:   -1.33 KCAL/MOL
REMARK 927      BINDING AFFINITY PREDICTED BY RF-SCORE:    0.00 PKD
ROOT
HETATM    1  C   UNL     1     -12.188  14.572  69.872  1.00  0.00    -0.379 C  
HETATM    2  C   UNL     1     -11.852  13.106  70.090  1.00  0.00    -0.328 C  
ENDROOT
BRANCH   2   3
HETATM    3  C   UNL     1     -11.179  12.504  68.859  1.00  0.00    -0.330 C  
BRANCH   3   4
HETATM    4  C   UNL     1     -11.797  11.157  68.492  1.00  0.00    -0.330 C  
BRANCH   4   5
HETATM    5  C   UNL     1     -10.761  10.039  68.581  1.00  0.00    -0.256 C  
BRANCH   5   6
HETATM    6  C   UNL     1     -10.833   9.126  67.362  1.00  0.00    -0.140 C  
BRANCH   6   7
HETATM    7  C   UNL     1      -9.464   8.999  66.696  1.00  0.00    -0.251 C  
BRANCH   7   8
HETATM    8  C   UNL     1      -8.348   9.001  67.737  1.00  0.00    -0.117 C  
BRANCH   8   9
HETATM    9  C   UNL     1      -8.185   7.618  68.361  1.00  0.00    -0.125 C  
BRANCH   9  10
HETATM   10  C   UNL     1      -7.222   7.665  69.542  1.00  0.00    -0.080 C  
BRANCH  10  11
HETATM   11  C   UNL     1      -7.895   7.165  70.817  1.00  0.00    -0.095 C  
BRANCH  11  12
HETATM   12  C   UNL     1      -8.689   8.283  71.488  1.00  0.00    -0.208 C  
BRANCH  12  13
HETATM   13  C   UNL     1     -10.058   7.784  71.945  1.00  0.00    -0.231 C  
BRANCH  13  14
HETATM   14  C   UNL     1     -11.050   8.940  72.056  1.00  0.00    -0.421 C  
BRANCH  14  15
HETATM   15  C   UNL     1     -12.409   8.556  71.477  1.00  0.00    -0.354 C  
BRANCH  15  16
HETATM   16  C   UNL     1     -13.544   8.977  72.398  1.00  0.00    -0.477 C  
HETATM   17  O   UNL     1     -13.540  10.388  72.552  1.00  0.00    -0.581 OA 
HETATM   18  H   UNL     1     -14.249  10.651  73.128  1.00  0.00     0.000 HD 
ENDBRANCH  15  16
ENDBRANCH  14  15
ENDBRANCH  13  14
ENDBRANCH  12  13
ENDBRANCH  11  12
ENDBRANCH  10  11
ENDBRANCH   9  10
ENDBRANCH   8   9
ENDBRANCH   7   8
ENDBRANCH   6   7
ENDBRANCH   5   6
ENDBRANCH   4   5
ENDBRANCH   3   4
ENDBRANCH   2   3
TORSDOF 14
ENDMDL
MODEL      306
REMARK 921   NORMALIZED FREE ENERGY PREDICTED BY IDOCK:   -2.56 KCAL/MOL
REMARK 922        TOTAL FREE ENERGY PREDICTED BY IDOCK:   -6.03 KCAL/MOL
REMARK 923 INTER-LIGAND FREE ENERGY PREDICTED BY IDOCK:   -5.18 KCAL/MOL
REMARK 924 INTRA-LIGAND FREE ENERGY PREDICTED BY IDOCK:   -0.85 KCAL/MOL
REMARK 927      BINDING AFFINITY PREDICTED BY RF-SCORE:    0.00 PKD
ROOT
HETATM    1  C   UNL     1      -9.751  20.547  67.131  1.00  0.00    -0.581 C  
HETATM    2  C   UNL     1     -10.549  19.263  67.270  1.00  0.00    -0.590 C  
ENDROOT
BRANCH   2   3
HETATM    3  C   UNL     1      -9.854  18.280  68.210  1.00  0.00    -0.366 C  
BRANCH   3   4
HETATM    4  C   UNL     1     -10.484  16.891  68.126  1.00  0.00    -0.350 C  
BRANCH   4   5
HETATM    5  C   UNL     1      -9.826  15.932  69.114  1.00  0.00    -0.247 C  
BRANCH   5   6
HETATM    6  C   UNL     1      -8.367  15.681  68.748  1.00  0.00    -0.189 C  
BRANCH   6   7
HETATM    7  C   UNL     1      -8.249  15.146  67.323  1.00  0.00    -0.234 C  
BRANCH   7   8
HETATM    8  C   UNL     1      -8.578  13.657  67.270  1.00  0.00    -0.220 C  
BRANCH   8   9
HETATM    9  C   UNL     1      -9.808  13.403  66.404  1.00  0.00    -0.299 C  
BRANCH   9  10
HETATM   10  C   UNL     1      -9.988  11.912  66.138  1.00  0.00    -0.254 C  
BRANCH  10  11
HETATM   11  C   UNL     1     -11.333  11.421  66.665  1.00  0.00    -0.230 C  
BRANCH  11  12
HETATM   12  C   UNL     1     -11.277  11.192  68.173  1.00  0.00    -0.356 C  
BRANCH  12  13
HETATM   13  C   UNL     1     -10.294  10.077  68.521  1.00  0.00    -0.217 C  
BRANCH  13  14
HETATM   14  C   UNL     1     -10.957   9.019  69.400  1.00  0.00    -0.082 C  
BRANCH  14  15
HETATM   15  C   UNL     1     -10.850   9.383  70.877  1.00  0.00    -0.392 C  
BRANCH  15  16
HETATM   16  C   UNL     1     -11.108   8.177  71.767  1.00  0.00    -0.270 C  
HETATM   17  O   UNL     1     -11.852   7.202  71.051  1.00  0.00    -0.304 OA 
HETATM   18  H   UNL     1     -12.014   6.449  71.607  1.00  0.00     0.000 HD 
ENDBRANCH  15  16
ENDBRANCH  14  15
ENDBRANCH  13  14
ENDBRANCH  12  13
ENDBRANCH  11  12
ENDBRANCH  10  11
ENDBRANCH   9  10
ENDBRANCH   8   9
ENDBRANCH   7   8
ENDBRANCH   6   7
ENDBRANCH   5   6
ENDBRANCH   4   5
ENDBRANCH   3   4
ENDBRANCH   2   3
TORSDOF 14
ENDMDL
MODEL      307
REMARK 921   NORMALIZED FREE ENERGY PREDICTED BY IDOCK:   -2.55 KCAL/MOL
REMARK 922        TOTAL FREE ENERGY PREDICTED BY IDOCK:   -6.02 KCAL/MOL
REMARK 923 INTER-LIGAND FREE ENERGY PREDICTED BY IDOCK:   -5.02 KCAL/MOL
REMARK 924 INTRA-LIGAND FREE ENERGY PREDICTED BY IDOCK:   -1.01 KCAL/MOL
REMARK 927      BINDING AFFINITY PREDICTED BY RF-SCORE:    0.00 PKD
ROOT
HETATM    1  C   UNL     1      -9.741  20.545  66.999  1.00  0.00    -0.548 C  
HETATM    2  C   UNL     1     -10.648  19.447  67.527  1.00  0.00    -0.591 C  
ENDROOT
BRANCH   2   3
HETATM    3  C   UNL     1     -10.003  18.717  68.704  1.00  0.00    -0.444 C  
BRANCH   3   4
HETATM    4  C   UNL     1     -10.461  17.262  68.772  1.00  0.00    -0.340 C  
BRANCH   4   5
HETATM    5  C   UNL     1      -9.321  16.351  69.219  1.00  0.00    -0.175 C  
BRANCH   5   6
HETATM    6  C   UNL     1      -8.051  16.630  68.422  1.00  0.00    -0.208 C  
BRANCH   6   7
HETATM    7  C   UNL     1      -8.142  16.024  67.023  1.00  0.00    -0.257 C  
BRANCH   7   8
HETATM    8  C   UNL     1      -8.242  14.503  67.092  1.00  0.00    -0.214 C  
BRANCH   8   9
HETATM    9  C   UNL     1      -9.631  14.031  66.673  1.00  0.00    -0.299 C  
BRANCH   9  10
HETATM   10  C   UNL     1      -9.875  12.593  67.121  1.00  0.00    -0.212 C  
BRANCH  10  11
HETATM   11  C   UNL     1      -8.935  11.630  66.402  1.00  0.00    -0.198 C  
BRANCH  11  12
HETATM   12  C   UNL     1      -9.485  11.253  65.030  1.00  0.00    -0.237 C  
BRANCH  12  13
HETATM   13  C   UNL     1      -9.496   9.738  64.840  1.00  0.00    -0.331 C  
BRANCH  13  14
HETATM   14  C   UNL     1      -9.077   9.024  66.124  1.00  0.00    -0.246 C  
BRANCH  14  15
HETATM   15  C   UNL     1     -10.275   8.369  66.805  1.00  0.00    -0.376 C  
BRANCH  15  16
HETATM   16  C   UNL     1     -10.172   8.463  68.319  1.00  0.00    -0.205 C  
HETATM   17  O   UNL     1      -8.870   8.891  68.687  1.00  0.00    -0.136 OA 
HETATM   18  H   UNL     1      -8.805   8.949  69.633  1.00  0.00     0.000 HD 
ENDBRANCH  15  16
ENDBRANCH  14  15
ENDBRANCH  13  14
ENDBRANCH  12  13
ENDBRANCH  11  12
ENDBRANCH  10  11
ENDBRANCH   9  10
ENDBRANCH   8   9
ENDBRANCH   7   8
ENDBRANCH   6   7
ENDBRANCH   5   6
ENDBRANCH   4   5
ENDBRANCH   3   4
ENDBRANCH   2   3
TORSDOF 14
ENDMDL
MODEL      308
REMARK 921   NORMALIZED FREE ENERGY PREDICTED BY IDOCK:   -2.55 KCAL/MOL
REMARK 922        TOTAL FREE ENERGY PREDICTED BY IDOCK:   -6.02 KCAL/MOL
REMARK 923 INTER-LIGAND FREE ENERGY PREDICTED BY IDOCK:   -4.91 KCAL/MOL
REMARK 924 INTRA-LIGAND FREE ENERGY PREDICTED BY IDOCK:   -1.10 KCAL/MOL
REMARK 927      BINDING AFFINITY PREDICTED BY RF-SCORE:    0.00 PKD
ROOT
HETATM    1  C   UNL     1     -12.263  14.101  66.112  1.00  0.00    -0.465 C  
HETATM    2  C   UNL     1     -11.487  12.802  65.973  1.00  0.00    -0.396 C  
ENDROOT
BRANCH   2   3
HETATM    3  C   UNL     1     -11.637  11.934  67.221  1.00  0.00    -0.364 C  
BRANCH   3   4
HETATM    4  C   UNL     1     -11.127  12.659  68.465  1.00  0.00    -0.300 C  
BRANCH   4   5
HETATM    5  C   UNL     1     -11.835  12.152  69.720  1.00  0.00    -0.397 C  
BRANCH   5   6
HETATM    6  C   UNL     1     -11.620  10.654  69.904  1.00  0.00    -0.396 C  
BRANCH   6   7
HETATM    7  C   UNL     1     -10.134  10.330  70.043  1.00  0.00    -0.167 C  
BRANCH   7   8
HETATM    8  C   UNL     1      -9.866   9.527  71.313  1.00  0.00    -0.095 C  
BRANCH   8   9
HETATM    9  C   UNL     1     -11.175   9.114  71.980  1.00  0.00    -0.310 C  
BRANCH   9  10
HETATM   10  C   UNL     1     -10.989   7.841  72.799  1.00  0.00    -0.447 C  
BRANCH  10  11
HETATM   11  C   UNL     1     -11.730   6.668  72.163  1.00  0.00    -0.342 C  
BRANCH  11  12
HETATM   12  C   UNL     1     -11.064   5.343  72.522  1.00  0.00    -0.310 C  
BRANCH  12  13
HETATM   13  C   UNL     1      -9.734   5.183  71.789  1.00  0.00    -0.212 C  
BRANCH  13  14
HETATM   14  C   UNL     1      -9.945   4.597  70.395  1.00  0.00    -0.300 C  
BRANCH  14  15
HETATM   15  C   UNL     1      -8.930   5.156  69.403  1.00  0.00    -0.127 C  
BRANCH  15  16
HETATM   16  C   UNL     1      -8.865   6.675  69.471  1.00  0.00    -0.139 C  
HETATM   17  O   UNL     1      -9.729   7.237  68.496  1.00  0.00    -0.146 OA 
HETATM   18  H   UNL     1      -9.688   8.186  68.539  1.00  0.00     0.000 HD 
ENDBRANCH  15  16
ENDBRANCH  14  15
ENDBRANCH  13  14
ENDBRANCH  12  13
ENDBRANCH  11  12
ENDBRANCH  10  11
ENDBRANCH   9  10
ENDBRANCH   8   9
ENDBRANCH   7   8
ENDBRANCH   6   7
ENDBRANCH   5   6
ENDBRANCH   4   5
ENDBRANCH   3   4
ENDBRANCH   2   3
TORSDOF 14
ENDMDL
MODEL      309
REMARK 921   NORMALIZED FREE ENERGY PREDICTED BY IDOCK:   -2.53 KCAL/MOL
REMARK 922        TOTAL FREE ENERGY PREDICTED BY IDOCK:   -5.98 KCAL/MOL
REMARK 923 INTER-LIGAND FREE ENERGY PREDICTED BY IDOCK:   -4.97 KCAL/MOL
REMARK 924 INTRA-LIGAND FREE ENERGY PREDICTED BY IDOCK:   -1.01 KCAL/MOL
REMARK 927      BINDING AFFINITY PREDICTED BY RF-SCORE:    0.00 PKD
ROOT
HETATM    1  C   UNL     1      -7.958  10.494  62.536  1.00  0.00    -0.193 C  
HETATM    2  C   UNL     1      -9.467  10.526  62.363  1.00  0.00    -0.246 C  
ENDROOT
BRANCH   2   3
HETATM    3  C   UNL     1     -10.164  10.902  63.669  1.00  0.00    -0.395 C  
BRANCH   3   4
HETATM    4  C   UNL     1      -9.368  10.424  64.881  1.00  0.00    -0.294 C  
BRANCH   4   5
HETATM    5  C   UNL     1     -10.282  10.206  66.084  1.00  0.00    -0.285 C  
BRANCH   5   6
HETATM    6  C   UNL     1      -9.775  10.969  67.304  1.00  0.00    -0.188 C  
BRANCH   6   7
HETATM    7  C   UNL     1      -9.887  12.476  67.088  1.00  0.00    -0.210 C  
BRANCH   7   8
HETATM    8  C   UNL     1     -11.347  12.906  66.982  1.00  0.00    -0.355 C  
BRANCH   8   9
HETATM    9  C   UNL     1     -11.898  13.300  68.350  1.00  0.00    -0.395 C  
BRANCH   9  10
HETATM   10  C   UNL     1     -11.054  14.403  68.979  1.00  0.00    -0.282 C  
BRANCH  10  11
HETATM   11  C   UNL     1     -11.303  15.742  68.290  1.00  0.00    -0.354 C  
BRANCH  11  12
HETATM   12  C   UNL     1     -10.051  16.222  67.562  1.00  0.00    -0.258 C  
BRANCH  12  13
HETATM   13  C   UNL     1     -10.133  17.716  67.257  1.00  0.00    -0.331 C  
BRANCH  13  14
HETATM   14  C   UNL     1      -8.808  18.233  66.701  1.00  0.00    -0.294 C  
BRANCH  14  15
HETATM   15  C   UNL     1      -7.880  17.081  66.326  1.00  0.00    -0.346 C  
BRANCH  15  16
HETATM   16  C   UNL     1      -6.444  17.368  66.736  1.00  0.00    -0.204 C  
HETATM   17  O   UNL     1      -5.752  16.148  66.951  1.00  0.00    -0.341 OA 
HETATM   18  H   UNL     1      -4.855  16.327  67.208  1.00  0.00     0.000 HD 
ENDBRANCH  15  16
ENDBRANCH  14  15
ENDBRANCH  13  14
ENDBRANCH  12  13
ENDBRANCH  11  12
ENDBRANCH  10  11
ENDBRANCH   9  10
ENDBRANCH   8   9
ENDBRANCH   7   8
ENDBRANCH   6   7
ENDBRANCH   5   6
ENDBRANCH   4   5
ENDBRANCH   3   4
ENDBRANCH   2   3
TORSDOF 14
ENDMDL
MODEL      310
REMARK 921   NORMALIZED FREE ENERGY PREDICTED BY IDOCK:   -2.52 KCAL/MOL
REMARK 922        TOTAL FREE ENERGY PREDICTED BY IDOCK:   -5.97 KCAL/MOL
REMARK 923 INTER-LIGAND FREE ENERGY PREDICTED BY IDOCK:   -5.28 KCAL/MOL
REMARK 924 INTRA-LIGAND FREE ENERGY PREDICTED BY IDOCK:   -0.69 KCAL/MOL
REMARK 927      BINDING AFFINITY PREDICTED BY RF-SCORE:    0.00 PKD
ROOT
HETATM    1  C   UNL     1     -10.490  17.406  68.706  1.00  0.00    -0.333 C  
HETATM    2  C   UNL     1     -10.766  16.059  68.059  1.00  0.00    -0.309 C  
ENDROOT
BRANCH   2   3
HETATM    3  C   UNL     1     -10.967  14.971  69.113  1.00  0.00    -0.265 C  
BRANCH   3   4
HETATM    4  C   UNL     1     -10.759  13.580  68.520  1.00  0.00    -0.270 C  
BRANCH   4   5
HETATM    5  C   UNL     1     -11.880  12.633  68.941  1.00  0.00    -0.345 C  
BRANCH   5   6
HETATM    6  C   UNL     1     -12.104  12.684  70.449  1.00  0.00    -0.381 C  
BRANCH   6   7
HETATM    7  C   UNL     1     -12.678  11.364  70.958  1.00  0.00    -0.447 C  
BRANCH   7   8
HETATM    8  C   UNL     1     -11.735  10.204  70.652  1.00  0.00    -0.425 C  
BRANCH   8   9
HETATM    9  C   UNL     1     -11.957   9.051  71.626  1.00  0.00    -0.426 C  
BRANCH   9  10
HETATM   10  C   UNL     1     -10.976   7.915  71.358  1.00  0.00    -0.264 C  
BRANCH  10  11
HETATM   11  C   UNL     1     -11.711   6.646  70.934  1.00  0.00    -0.431 C  
BRANCH  11  12
HETATM   12  C   UNL     1     -10.891   5.854  69.920  1.00  0.00    -0.439 C  
BRANCH  12  13
HETATM   13  C   UNL     1     -10.958   6.498  68.538  1.00  0.00    -0.360 C  
BRANCH  13  14
HETATM   14  C   UNL     1      -9.577   6.971  68.088  1.00  0.00    -0.131 C  
BRANCH  14  15
HETATM   15  C   UNL     1      -9.478   7.012  66.566  1.00  0.00    -0.199 C  
BRANCH  15  16
HETATM   16  C   UNL     1      -8.887   5.723  66.014  1.00  0.00    -0.148 C  
HETATM   17  O   UNL     1      -8.441   4.903  67.082  1.00  0.00    -0.107 OA 
HETATM   18  H   UNL     1      -8.071   4.098  66.737  1.00  0.00     0.000 HD 
ENDBRANCH  15  16
ENDBRANCH  14  15
ENDBRANCH  13  14
ENDBRANCH  12  13
ENDBRANCH  11  12
ENDBRANCH  10  11
ENDBRANCH   9  10
ENDBRANCH   8   9
ENDBRANCH   7   8
ENDBRANCH   6   7
ENDBRANCH   5   6
ENDBRANCH   4   5
ENDBRANCH   3   4
ENDBRANCH   2   3
TORSDOF 14
ENDMDL
MODEL      311
REMARK 921   NORMALIZED FREE ENERGY PREDICTED BY IDOCK:   -2.52 KCAL/MOL
REMARK 922        TOTAL FREE ENERGY PREDICTED BY IDOCK:   -5.97 KCAL/MOL
REMARK 923 INTER-LIGAND FREE ENERGY PREDICTED BY IDOCK:   -4.95 KCAL/MOL
REMARK 924 INTRA-LIGAND FREE ENERGY PREDICTED BY IDOCK:   -1.02 KCAL/MOL
REMARK 927      BINDING AFFINITY PREDICTED BY RF-SCORE:    0.00 PKD
ROOT
HETATM    1  C   UNL     1     -10.239  12.115  63.781  1.00  0.00    -0.449 C  
HETATM    2  C   UNL     1     -11.709  12.447  63.588  1.00  0.00    -0.596 C  
ENDROOT
BRANCH   2   3
HETATM    3  C   UNL     1     -12.216  13.372  64.693  1.00  0.00    -0.456 C  
BRANCH   3   4
HETATM    4  C   UNL     1     -11.108  13.703  65.691  1.00  0.00    -0.300 C  
BRANCH   4   5
HETATM    5  C   UNL     1     -11.524  13.331  67.112  1.00  0.00    -0.380 C  
BRANCH   5   6
HETATM    6  C   UNL     1     -10.337  13.397  68.066  1.00  0.00    -0.242 C  
BRANCH   6   7
HETATM    7  C   UNL     1      -9.186  12.527  67.565  1.00  0.00    -0.188 C  
BRANCH   7   8
HETATM    8  C   UNL     1      -9.273  11.119  68.146  1.00  0.00    -0.166 C  
BRANCH   8   9
HETATM    9  C   UNL     1      -9.581  10.099  67.053  1.00  0.00    -0.209 C  
BRANCH   9  10
HETATM   10  C   UNL     1     -10.769   9.226  67.443  1.00  0.00    -0.263 C  
BRANCH  10  11
HETATM   11  C   UNL     1     -10.305   7.946  68.133  1.00  0.00    -0.249 C  
BRANCH  11  12
HETATM   12  C   UNL     1     -10.715   7.940  69.603  1.00  0.00    -0.218 C  
BRANCH  12  13
HETATM   13  C   UNL     1     -11.471   6.661  69.955  1.00  0.00    -0.434 C  
BRANCH  13  14
HETATM   14  C   UNL     1     -10.691   5.826  70.968  1.00  0.00    -0.326 C  
BRANCH  14  15
HETATM   15  C   UNL     1      -9.923   4.702  70.279  1.00  0.00    -0.309 C  
BRANCH  15  16
HETATM   16  C   UNL     1      -8.627   5.210  69.664  1.00  0.00    -0.092 C  
HETATM   17  O   UNL     1      -8.049   4.197  68.856  1.00  0.00    -0.071 OA 
HETATM   18  H   UNL     1      -7.240   4.514  68.472  1.00  0.00     0.000 HD 
ENDBRANCH  15  16
ENDBRANCH  14  15
ENDBRANCH  13  14
ENDBRANCH  12  13
ENDBRANCH  11  12
ENDBRANCH  10  11
ENDBRANCH   9  10
ENDBRANCH   8   9
ENDBRANCH   7   8
ENDBRANCH   6   7
ENDBRANCH   5   6
ENDBRANCH   4   5
ENDBRANCH   3   4
ENDBRANCH   2   3
TORSDOF 14
ENDMDL
MODEL      312
REMARK 921   NORMALIZED FREE ENERGY PREDICTED BY IDOCK:   -2.51 KCAL/MOL
REMARK 922        TOTAL FREE ENERGY PREDICTED BY IDOCK:   -5.94 KCAL/MOL
REMARK 923 INTER-LIGAND FREE ENERGY PREDICTED BY IDOCK:   -4.92 KCAL/MOL
REMARK 924 INTRA-LIGAND FREE ENERGY PREDICTED BY IDOCK:   -1.02 KCAL/MOL
REMARK 927      BINDING AFFINITY PREDICTED BY RF-SCORE:    0.00 PKD
ROOT
HETATM    1  C   UNL     1      -9.817  19.695  66.053  1.00  0.00    -0.462 C  
HETATM    2  C   UNL     1     -10.698  19.243  67.205  1.00  0.00    -0.594 C  
ENDROOT
BRANCH   2   3
HETATM    3  C   UNL     1      -9.995  18.188  68.057  1.00  0.00    -0.353 C  
BRANCH   3   4
HETATM    4  C   UNL     1     -10.300  16.778  67.557  1.00  0.00    -0.301 C  
BRANCH   4   5
HETATM    5  C   UNL     1     -10.430  15.802  68.723  1.00  0.00    -0.228 C  
BRANCH   5   6
HETATM    6  C   UNL     1     -11.620  14.868  68.528  1.00  0.00    -0.347 C  
BRANCH   6   7
HETATM    7  C   UNL     1     -11.984  14.752  67.049  1.00  0.00    -0.225 C  
BRANCH   7   8
HETATM    8  C   UNL     1     -12.126  13.290  66.635  1.00  0.00    -0.421 C  
BRANCH   8   9
HETATM    9  C   UNL     1     -11.651  12.362  67.749  1.00  0.00    -0.413 C  
BRANCH   9  10
HETATM   10  C   UNL     1     -11.047  11.086  67.172  1.00  0.00    -0.333 C  
BRANCH  10  11
HETATM   11  C   UNL     1      -9.864  11.403  66.263  1.00  0.00    -0.250 C  
BRANCH  11  12
HETATM   12  C   UNL     1      -9.014  10.159  66.020  1.00  0.00    -0.174 C  
BRANCH  12  13
HETATM   13  C   UNL     1      -7.540  10.525  65.858  1.00  0.00    -0.148 C  
BRANCH  13  14
HETATM   14  C   UNL     1      -6.844  10.599  67.215  1.00  0.00    -0.079 C  
BRANCH  14  15
HETATM   15  C   UNL     1      -6.312  12.004  67.485  1.00  0.00    -0.118 C  
BRANCH  15  16
HETATM   16  C   UNL     1      -7.358  12.871  68.169  1.00  0.00    -0.119 C  
HETATM   17  O   UNL     1      -8.132  12.081  69.058  1.00  0.00    -0.352 OA 
HETATM   18  H   UNL     1      -8.786  12.623  69.484  1.00  0.00     0.000 HD 
ENDBRANCH  15  16
ENDBRANCH  14  15
ENDBRANCH  13  14
ENDBRANCH  12  13
ENDBRANCH  11  12
ENDBRANCH  10  11
ENDBRANCH   9  10
ENDBRANCH   8   9
ENDBRANCH   7   8
ENDBRANCH   6   7
ENDBRANCH   5   6
ENDBRANCH   4   5
ENDBRANCH   3   4
ENDBRANCH   2   3
TORSDOF 14
ENDMDL
MODEL      313
REMARK 921   NORMALIZED FREE ENERGY PREDICTED BY IDOCK:   -2.50 KCAL/MOL
REMARK 922        TOTAL FREE ENERGY PREDICTED BY IDOCK:   -5.93 KCAL/MOL
REMARK 923 INTER-LIGAND FREE ENERGY PREDICTED BY IDOCK:   -4.23 KCAL/MOL
REMARK 924 INTRA-LIGAND FREE ENERGY PREDICTED BY IDOCK:   -1.70 KCAL/MOL
REMARK 927      BINDING AFFINITY PREDICTED BY RF-SCORE:    0.00 PKD
ROOT
HETATM    1  C   UNL     1      -7.583   8.370  68.526  1.00  0.00    -0.096 C  
HETATM    2  C   UNL     1      -9.096   8.253  68.585  1.00  0.00    -0.140 C  
ENDROOT
BRANCH   2   3
HETATM    3  C   UNL     1      -9.743   9.603  68.886  1.00  0.00    -0.163 C  
BRANCH   3   4
HETATM    4  C   UNL     1     -11.078   9.753  68.161  1.00  0.00    -0.169 C  
BRANCH   4   5
HETATM    5  C   UNL     1     -11.249  11.170  67.619  1.00  0.00    -0.364 C  
BRANCH   5   6
HETATM    6  C   UNL     1      -9.933  11.939  67.669  1.00  0.00    -0.197 C  
BRANCH   6   7
HETATM    7  C   UNL     1      -9.312  12.044  66.278  1.00  0.00    -0.228 C  
BRANCH   7   8
HETATM    8  C   UNL     1     -10.340  11.727  65.195  1.00  0.00    -0.323 C  
BRANCH   8   9
HETATM    9  C   UNL     1      -9.872  10.564  64.326  1.00  0.00    -0.402 C  
BRANCH   9  10
HETATM   10  C   UNL     1      -9.082   9.553  65.150  1.00  0.00    -0.281 C  
BRANCH  10  11
HETATM   11  C   UNL     1      -8.427   8.507  64.252  1.00  0.00    -0.068 C  
BRANCH  11  12
HETATM   12  C   UNL     1      -7.537   7.570  65.064  1.00  0.00    -0.098 C  
BRANCH  12  13
HETATM   13  C   UNL     1      -7.911   6.111  64.820  1.00  0.00    -0.109 C  
BRANCH  13  14
HETATM   14  C   UNL     1      -8.117   5.371  66.140  1.00  0.00    -0.106 C  
BRANCH  14  15
HETATM   15  C   UNL     1      -9.185   4.290  66.004  1.00  0.00    -0.145 C  
BRANCH  15  16
HETATM   16  C   UNL     1     -10.585   4.874  66.129  1.00  0.00    -0.271 C  
HETATM   17  O   UNL     1     -11.414   4.358  65.099  1.00  0.00    -1.069 OA 
HETATM   18  H   UNL     1     -12.288   4.722  65.176  1.00  0.00     0.000 HD 
ENDBRANCH  15  16
ENDBRANCH  14  15
ENDBRANCH  13  14
ENDBRANCH  12  13
ENDBRANCH  11  12
ENDBRANCH  10  11
ENDBRANCH   9  10
ENDBRANCH   8   9
ENDBRANCH   7   8
ENDBRANCH   6   7
ENDBRANCH   5   6
ENDBRANCH   4   5
ENDBRANCH   3   4
ENDBRANCH   2   3
TORSDOF 14
ENDMDL
MODEL      314
REMARK 921   NORMALIZED FREE ENERGY PREDICTED BY IDOCK:   -2.50 KCAL/MOL
REMARK 922        TOTAL FREE ENERGY PREDICTED BY IDOCK:   -5.93 KCAL/MOL
REMARK 923 INTER-LIGAND FREE ENERGY PREDICTED BY IDOCK:   -4.25 KCAL/MOL
REMARK 924 INTRA-LIGAND FREE ENERGY PREDICTED BY IDOCK:   -1.68 KCAL/MOL
REMARK 927      BINDING AFFINITY PREDICTED BY RF-SCORE:    0.00 PKD
ROOT
HETATM    1  C   UNL     1      -7.357   6.818  64.731  1.00  0.00    -0.088 C  
HETATM    2  C   UNL     1      -7.819   6.471  66.136  1.00  0.00    -0.106 C  
ENDROOT
BRANCH   2   3
HETATM    3  C   UNL     1      -9.075   5.602  66.105  1.00  0.00    -0.158 C  
BRANCH   3   4
HETATM    4  C   UNL     1      -9.025   4.516  67.178  1.00  0.00    -0.122 C  
BRANCH   4   5
HETATM    5  C   UNL     1      -9.301   5.101  68.560  1.00  0.00    -0.161 C  
BRANCH   5   6
HETATM    6  C   UNL     1     -10.761   5.520  68.697  1.00  0.00    -0.176 C  
BRANCH   6   7
HETATM    7  C   UNL     1     -10.870   6.953  69.214  1.00  0.00    -0.270 C  
BRANCH   7   8
HETATM    8  C   UNL     1      -9.487   7.561  69.431  1.00  0.00    -0.155 C  
BRANCH   8   9
HETATM    9  C   UNL     1      -9.345   8.875  68.668  1.00  0.00    -0.140 C  
BRANCH   9  10
HETATM   10  C   UNL     1     -10.490   9.053  67.676  1.00  0.00    -0.324 C  
BRANCH  10  11
HETATM   11  C   UNL     1      -9.962   9.431  66.295  1.00  0.00    -0.353 C  
BRANCH  11  12
HETATM   12  C   UNL     1      -9.818  10.945  66.162  1.00  0.00    -0.268 C  
BRANCH  12  13
HETATM   13  C   UNL     1     -11.087  11.658  66.623  1.00  0.00    -0.364 C  
BRANCH  13  14
HETATM   14  C   UNL     1     -11.803  12.314  65.444  1.00  0.00    -0.418 C  
BRANCH  14  15
HETATM   15  C   UNL     1     -12.572  13.555  65.888  1.00  0.00    -0.454 C  
BRANCH  15  16
HETATM   16  C   UNL     1     -11.691  14.493  66.699  1.00  0.00    -0.371 C  
HETATM   17  O   UNL     1     -10.796  15.177  65.836  1.00  0.00    -0.322 OA 
HETATM   18  H   UNL     1     -10.245  15.763  66.342  1.00  0.00     0.000 HD 
ENDBRANCH  15  16
ENDBRANCH  14  15
ENDBRANCH  13  14
ENDBRANCH  12  13
ENDBRANCH  11  12
ENDBRANCH  10  11
ENDBRANCH   9  10
ENDBRANCH   8   9
ENDBRANCH   7   8
ENDBRANCH   6   7
ENDBRANCH   5   6
ENDBRANCH   4   5
ENDBRANCH   3   4
ENDBRANCH   2   3
TORSDOF 14
ENDMDL
MODEL      315
REMARK 921   NORMALIZED FREE ENERGY PREDICTED BY IDOCK:   -2.49 KCAL/MOL
REMARK 922        TOTAL FREE ENERGY PREDICTED BY IDOCK:   -5.91 KCAL/MOL
REMARK 923 INTER-LIGAND FREE ENERGY PREDICTED BY IDOCK:   -4.10 KCAL/MOL
REMARK 924 INTRA-LIGAND FREE ENERGY PREDICTED BY IDOCK:   -1.81 KCAL/MOL
REMARK 927      BINDING AFFINITY PREDICTED BY RF-SCORE:    0.00 PKD
ROOT
HETATM    1  C   UNL     1      -6.392   7.271  67.253  1.00  0.00    -0.054 C  
HETATM    2  C   UNL     1      -7.336   6.087  67.125  1.00  0.00    -0.076 C  
ENDROOT
BRANCH   2   3
HETATM    3  C   UNL     1      -8.467   6.386  66.144  1.00  0.00    -0.140 C  
BRANCH   3   4
HETATM    4  C   UNL     1      -8.488   7.862  65.754  1.00  0.00    -0.152 C  
BRANCH   4   5
HETATM    5  C   UNL     1      -9.782   8.530  66.213  1.00  0.00    -0.300 C  
BRANCH   5   6
HETATM    6  C   UNL     1     -10.520   7.659  67.224  1.00  0.00    -0.396 C  
BRANCH   6   7
HETATM    7  C   UNL     1     -10.620   8.361  68.577  1.00  0.00    -0.149 C  
BRANCH   7   8
HETATM    8  C   UNL     1      -9.251   8.459  69.243  1.00  0.00    -0.154 C  
BRANCH   8   9
HETATM    9  C   UNL     1      -8.948   9.897  69.654  1.00  0.00    -0.232 C  
BRANCH   9  10
HETATM   10  C   UNL     1      -7.872  10.503  68.759  1.00  0.00    -0.116 C  
BRANCH  10  11
HETATM   11  C   UNL     1      -8.244  11.923  68.341  1.00  0.00    -0.160 C  
BRANCH  11  12
HETATM   12  C   UNL     1      -8.972  11.922  67.000  1.00  0.00    -0.190 C  
BRANCH  12  13
HETATM   13  C   UNL     1     -10.401  12.438  67.152  1.00  0.00    -0.232 C  
BRANCH  13  14
HETATM   14  C   UNL     1     -10.669  13.595  66.191  1.00  0.00    -0.286 C  
BRANCH  14  15
HETATM   15  C   UNL     1     -12.166  13.823  66.008  1.00  0.00    -0.495 C  
BRANCH  15  16
HETATM   16  C   UNL     1     -12.461  14.566  64.714  1.00  0.00    -0.319 C  
HETATM   17  O   UNL     1     -11.281  15.200  64.245  1.00  0.00    -0.653 OA 
HETATM   18  H   UNL     1     -11.465  15.664  63.436  1.00  0.00     0.000 HD 
ENDBRANCH  15  16
ENDBRANCH  14  15
ENDBRANCH  13  14
ENDBRANCH  12  13
ENDBRANCH  11  12
ENDBRANCH  10  11
ENDBRANCH   9  10
ENDBRANCH   8   9
ENDBRANCH   7   8
ENDBRANCH   6   7
ENDBRANCH   5   6
ENDBRANCH   4   5
ENDBRANCH   3   4
ENDBRANCH   2   3
TORSDOF 14
ENDMDL
MODEL      316
REMARK 921   NORMALIZED FREE ENERGY PREDICTED BY IDOCK:   -2.49 KCAL/MOL
REMARK 922        TOTAL FREE ENERGY PREDICTED BY IDOCK:   -5.91 KCAL/MOL
REMARK 923 INTER-LIGAND FREE ENERGY PREDICTED BY IDOCK:   -4.42 KCAL/MOL
REMARK 924 INTRA-LIGAND FREE ENERGY PREDICTED BY IDOCK:   -1.49 KCAL/MOL
REMARK 927      BINDING AFFINITY PREDICTED BY RF-SCORE:    0.00 PKD
ROOT
HETATM    1  C   UNL     1      -7.794  10.964  68.932  1.00  0.00    -0.142 C  
HETATM    2  C   UNL     1      -6.344  11.242  69.289  1.00  0.00    -0.081 C  
ENDROOT
BRANCH   2   3
HETATM    3  C   UNL     1      -5.702  12.197  68.285  1.00  0.00    -0.052 C  
BRANCH   3   4
HETATM    4  C   UNL     1      -6.721  13.192  67.734  1.00  0.00    -0.149 C  
BRANCH   4   5
HETATM    5  C   UNL     1      -6.347  14.623  68.113  1.00  0.00    -0.144 C  
BRANCH   5   6
HETATM    6  C   UNL     1      -6.863  14.975  69.504  1.00  0.00    -0.174 C  
BRANCH   6   7
HETATM    7  C   UNL     1      -8.028  15.958  69.421  1.00  0.00    -0.184 C  
BRANCH   7   8
HETATM    8  C   UNL     1      -7.806  16.973  68.302  1.00  0.00    -0.216 C  
BRANCH   8   9
HETATM    9  C   UNL     1      -8.872  18.065  68.341  1.00  0.00    -0.300 C  
BRANCH   9  10
HETATM   10  C   UNL     1     -10.113  17.641  67.562  1.00  0.00    -0.337 C  
BRANCH  10  11
HETATM   11  C   UNL     1      -9.767  16.588  66.513  1.00  0.00    -0.290 C  
BRANCH  11  12
HETATM   12  C   UNL     1     -10.467  15.266  66.817  1.00  0.00    -0.293 C  
BRANCH  12  13
HETATM   13  C   UNL     1     -11.583  15.460  67.841  1.00  0.00    -0.267 C  
BRANCH  13  14
HETATM   14  C   UNL     1     -11.782  14.198  68.677  1.00  0.00    -0.385 C  
BRANCH  14  15
HETATM   15  C   UNL     1     -11.570  14.481  70.161  1.00  0.00    -0.334 C  
BRANCH  15  16
HETATM   16  C   UNL     1     -12.519  15.560  70.662  1.00  0.00    -0.435 C  
HETATM   17  O   UNL     1     -11.788  16.561  71.352  1.00  0.00    -0.640 OA 
HETATM   18  H   UNL     1     -12.380  17.234  71.665  1.00  0.00     0.000 HD 
ENDBRANCH  15  16
ENDBRANCH  14  15
ENDBRANCH  13  14
ENDBRANCH  12  13
ENDBRANCH  11  12
ENDBRANCH  10  11
ENDBRANCH   9  10
ENDBRANCH   8   9
ENDBRANCH   7   8
ENDBRANCH   6   7
ENDBRANCH   5   6
ENDBRANCH   4   5
ENDBRANCH   3   4
ENDBRANCH   2   3
TORSDOF 14
ENDMDL
MODEL      317
REMARK 921   NORMALIZED FREE ENERGY PREDICTED BY IDOCK:   -2.48 KCAL/MOL
REMARK 922        TOTAL FREE ENERGY PREDICTED BY IDOCK:   -5.90 KCAL/MOL
REMARK 923 INTER-LIGAND FREE ENERGY PREDICTED BY IDOCK:   -4.32 KCAL/MOL
REMARK 924 INTRA-LIGAND FREE ENERGY PREDICTED BY IDOCK:   -1.58 KCAL/MOL
REMARK 927      BINDING AFFINITY PREDICTED BY RF-SCORE:    0.00 PKD
ROOT
HETATM    1  C   UNL     1      -7.529  14.676  68.214  1.00  0.00    -0.117 C  
HETATM    2  C   UNL     1      -8.308  13.386  68.403  1.00  0.00    -0.137 C  
ENDROOT
BRANCH   2   3
HETATM    3  C   UNL     1      -8.259  12.521  67.146  1.00  0.00    -0.168 C  
BRANCH   3   4
HETATM    4  C   UNL     1      -7.414  11.268  67.366  1.00  0.00    -0.116 C  
BRANCH   4   5
HETATM    5  C   UNL     1      -7.788  10.580  68.676  1.00  0.00    -0.116 C  
BRANCH   5   6
HETATM    6  C   UNL     1      -8.593   9.311  68.418  1.00  0.00    -0.124 C  
BRANCH   6   7
HETATM    7  C   UNL     1      -9.304   8.849  69.689  1.00  0.00    -0.163 C  
BRANCH   7   8
HETATM    8  C   UNL     1     -10.171   9.965  70.265  1.00  0.00    -0.322 C  
BRANCH   8   9
HETATM    9  C   UNL     1     -11.123  10.515  69.207  1.00  0.00    -0.298 C  
BRANCH   9  10
HETATM   10  C   UNL     1     -12.106  11.505  69.822  1.00  0.00    -0.374 C  
BRANCH  10  11
HETATM   11  C   UNL     1     -11.559  12.928  69.763  1.00  0.00    -0.288 C  
BRANCH  11  12
HETATM   12  C   UNL     1     -12.165  13.791  70.867  1.00  0.00    -0.427 C  
BRANCH  12  13
HETATM   13  C   UNL     1     -11.888  15.272  70.618  1.00  0.00    -0.376 C  
BRANCH  13  14
HETATM   14  C   UNL     1     -12.023  15.612  69.135  1.00  0.00    -0.329 C  
BRANCH  14  15
HETATM   15  C   UNL     1     -10.819  16.408  68.642  1.00  0.00    -0.331 C  
BRANCH  15  16
HETATM   16  C   UNL     1     -10.597  16.211  67.150  1.00  0.00    -0.294 C  
HETATM   17  O   UNL     1     -11.164  14.977  66.738  1.00  0.00    -0.339 OA 
HETATM   18  H   UNL     1     -11.025  14.854  65.806  1.00  0.00     0.000 HD 
ENDBRANCH  15  16
ENDBRANCH  14  15
ENDBRANCH  13  14
ENDBRANCH  12  13
ENDBRANCH  11  12
ENDBRANCH  10  11
ENDBRANCH   9  10
ENDBRANCH   8   9
ENDBRANCH   7   8
ENDBRANCH   6   7
ENDBRANCH   5   6
ENDBRANCH   4   5
ENDBRANCH   3   4
ENDBRANCH   2   3
TORSDOF 14
ENDMDL
MODEL      318
REMARK 921   NORMALIZED FREE ENERGY PREDICTED BY IDOCK:   -2.48 KCAL/MOL
REMARK 922        TOTAL FREE ENERGY PREDICTED BY IDOCK:   -5.90 KCAL/MOL
REMARK 923 INTER-LIGAND FREE ENERGY PREDICTED BY IDOCK:   -4.97 KCAL/MOL
REMARK 924 INTRA-LIGAND FREE ENERGY PREDICTED BY IDOCK:   -0.93 KCAL/MOL
REMARK 927      BINDING AFFINITY PREDICTED BY RF-SCORE:    0.00 PKD
ROOT
HETATM    1  C   UNL     1      -9.930   4.485  66.694  1.00  0.00    -0.253 C  
HETATM    2  C   UNL     1      -9.651   4.253  68.169  1.00  0.00    -0.196 C  
ENDROOT
BRANCH   2   3
HETATM    3  C   UNL     1      -8.954   5.459  68.796  1.00  0.00    -0.127 C  
BRANCH   3   4
HETATM    4  C   UNL     1      -9.455   5.713  70.216  1.00  0.00    -0.202 C  
BRANCH   4   5
HETATM    5  C   UNL     1     -10.791   6.452  70.199  1.00  0.00    -0.355 C  
BRANCH   5   6
HETATM    6  C   UNL     1     -10.809   7.528  69.119  1.00  0.00    -0.105 C  
BRANCH   6   7
HETATM    7  C   UNL     1     -10.979   8.915  69.734  1.00  0.00    -0.164 C  
BRANCH   7   8
HETATM    8  C   UNL     1      -9.806   9.821  69.369  1.00  0.00    -0.217 C  
BRANCH   8   9
HETATM    9  C   UNL     1      -9.991  10.413  67.975  1.00  0.00    -0.178 C  
BRANCH   9  10
HETATM   10  C   UNL     1     -10.018  11.937  68.031  1.00  0.00    -0.192 C  
BRANCH  10  11
HETATM   11  C   UNL     1     -11.297  12.438  68.695  1.00  0.00    -0.332 C  
BRANCH  11  12
HETATM   12  C   UNL     1     -11.553  13.902  68.350  1.00  0.00    -0.368 C  
BRANCH  12  13
HETATM   13  C   UNL     1     -12.132  14.040  66.945  1.00  0.00    -0.465 C  
BRANCH  13  14
HETATM   14  C   UNL     1     -11.079  14.561  65.969  1.00  0.00    -0.329 C  
BRANCH  14  15
HETATM   15  C   UNL     1     -11.008  13.689  64.719  1.00  0.00    -0.384 C  
BRANCH  15  16
HETATM   16  C   UNL     1     -12.298  12.910  64.511  1.00  0.00    -0.417 C  
HETATM   17  O   UNL     1     -12.206  12.137  63.324  1.00  0.00    -0.685 OA 
HETATM   18  H   UNL     1     -13.012  11.651  63.193  1.00  0.00     0.000 HD 
ENDBRANCH  15  16
ENDBRANCH  14  15
ENDBRANCH  13  14
ENDBRANCH  12  13
ENDBRANCH  11  12
ENDBRANCH  10  11
ENDBRANCH   9  10
ENDBRANCH   8   9
ENDBRANCH   7   8
ENDBRANCH   6   7
ENDBRANCH   5   6
ENDBRANCH   4   5
ENDBRANCH   3   4
ENDBRANCH   2   3
TORSDOF 14
ENDMDL
MODEL      319
REMARK 921   NORMALIZED FREE ENERGY PREDICTED BY IDOCK:   -2.48 KCAL/MOL
REMARK 922        TOTAL FREE ENERGY PREDICTED BY IDOCK:   -5.89 KCAL/MOL
REMARK 923 INTER-LIGAND FREE ENERGY PREDICTED BY IDOCK:   -5.10 KCAL/MOL
REMARK 924 INTRA-LIGAND FREE ENERGY PREDICTED BY IDOCK:   -0.78 KCAL/MOL
REMARK 927      BINDING AFFINITY PREDICTED BY RF-SCORE:    0.00 PKD
ROOT
HETATM    1  C   UNL     1      -6.664   8.096  73.914  1.00  0.00    -0.144 C  
HETATM    2  C   UNL     1      -7.079   6.805  73.230  1.00  0.00    -0.075 C  
ENDROOT
BRANCH   2   3
HETATM    3  C   UNL     1      -8.401   6.284  73.788  1.00  0.00    -0.116 C  
BRANCH   3   4
HETATM    4  C   UNL     1      -9.330   5.816  72.670  1.00  0.00    -0.145 C  
BRANCH   4   5
HETATM    5  C   UNL     1     -10.620   5.232  73.240  1.00  0.00    -0.288 C  
BRANCH   5   6
HETATM    6  C   UNL     1     -11.844   5.935  72.661  1.00  0.00    -0.192 C  
BRANCH   6   7
HETATM    7  C   UNL     1     -11.490   6.666  71.368  1.00  0.00    -0.349 C  
BRANCH   7   8
HETATM    8  C   UNL     1     -12.317   7.940  71.217  1.00  0.00    -0.300 C  
BRANCH   8   9
HETATM    9  C   UNL     1     -11.518   9.162  71.661  1.00  0.00    -0.451 C  
BRANCH   9  10
HETATM   10  C   UNL     1     -11.384  10.167  70.521  1.00  0.00    -0.416 C  
BRANCH  10  11
HETATM   11  C   UNL     1     -10.151   9.869  69.672  1.00  0.00    -0.254 C  
BRANCH  11  12
HETATM   12  C   UNL     1      -9.967  10.927  68.588  1.00  0.00    -0.196 C  
BRANCH  12  13
HETATM   13  C   UNL     1     -11.177  10.974  67.658  1.00  0.00    -0.373 C  
BRANCH  13  14
HETATM   14  C   UNL     1     -11.584  12.416  67.364  1.00  0.00    -0.433 C  
BRANCH  14  15
HETATM   15  C   UNL     1     -11.128  12.846  65.973  1.00  0.00    -0.308 C  
BRANCH  15  16
HETATM   16  C   UNL     1     -12.294  12.895  64.997  1.00  0.00    -0.485 C  
HETATM   17  O   UNL     1     -11.965  13.730  63.898  1.00  0.00    -0.579 OA 
HETATM   18  H   UNL     1     -12.693  13.761  63.288  1.00  0.00     0.000 HD 
ENDBRANCH  15  16
ENDBRANCH  14  15
ENDBRANCH  13  14
ENDBRANCH  12  13
ENDBRANCH  11  12
ENDBRANCH  10  11
ENDBRANCH   9  10
ENDBRANCH   8   9
ENDBRANCH   7   8
ENDBRANCH   6   7
ENDBRANCH   5   6
ENDBRANCH   4   5
ENDBRANCH   3   4
ENDBRANCH   2   3
TORSDOF 14
ENDMDL
MODEL      320
REMARK 921   NORMALIZED FREE ENERGY PREDICTED BY IDOCK:   -2.48 KCAL/MOL
REMARK 922        TOTAL FREE ENERGY PREDICTED BY IDOCK:   -5.89 KCAL/MOL
REMARK 923 INTER-LIGAND FREE ENERGY PREDICTED BY IDOCK:   -5.02 KCAL/MOL
REMARK 924 INTRA-LIGAND FREE ENERGY PREDICTED BY IDOCK:   -0.87 KCAL/MOL
REMARK 927      BINDING AFFINITY PREDICTED BY RF-SCORE:    0.00 PKD
ROOT
HETATM    1  C   UNL     1     -11.269  12.935  64.320  1.00  0.00    -0.408 C  
HETATM    2  C   UNL     1     -10.573  11.776  63.625  1.00  0.00    -0.496 C  
ENDROOT
BRANCH   2   3
HETATM    3  C   UNL     1     -10.178  10.690  64.624  1.00  0.00    -0.404 C  
BRANCH   3   4
HETATM    4  C   UNL     1     -10.170  11.227  66.053  1.00  0.00    -0.295 C  
BRANCH   4   5
HETATM    5  C   UNL     1     -10.667  10.170  67.037  1.00  0.00    -0.264 C  
BRANCH   5   6
HETATM    6  C   UNL     1      -9.792  10.128  68.285  1.00  0.00    -0.162 C  
BRANCH   6   7
HETATM    7  C   UNL     1      -8.981   8.835  68.338  1.00  0.00    -0.141 C  
BRANCH   7   8
HETATM    8  C   UNL     1      -9.354   7.909  67.183  1.00  0.00    -0.190 C  
BRANCH   8   9
HETATM    9  C   UNL     1     -10.659   7.175  67.475  1.00  0.00    -0.348 C  
BRANCH   9  10
HETATM   10  C   UNL     1     -10.425   5.671  67.577  1.00  0.00    -0.294 C  
BRANCH  10  11
HETATM   11  C   UNL     1      -9.295   5.358  68.554  1.00  0.00    -0.144 C  
BRANCH  11  12
HETATM   12  C   UNL     1      -9.849   4.969  69.922  1.00  0.00    -0.296 C  
BRANCH  12  13
HETATM   13  C   UNL     1      -9.867   6.169  70.866  1.00  0.00    -0.215 C  
BRANCH  13  14
HETATM   14  C   UNL     1     -11.201   6.261  71.605  1.00  0.00    -0.337 C  
BRANCH  14  15
HETATM   15  C   UNL     1     -12.194   7.132  70.841  1.00  0.00    -0.354 C  
BRANCH  15  16
HETATM   16  C   UNL     1     -12.869   8.139  71.759  1.00  0.00    -0.333 C  
HETATM   17  O   UNL     1     -11.895   8.785  72.564  1.00  0.00    -0.334 OA 
HETATM   18  H   UNL     1     -12.316   9.414  73.138  1.00  0.00     0.000 HD 
ENDBRANCH  15  16
ENDBRANCH  14  15
ENDBRANCH  13  14
ENDBRANCH  12  13
ENDBRANCH  11  12
ENDBRANCH  10  11
ENDBRANCH   9  10
ENDBRANCH   8   9
ENDBRANCH   7   8
ENDBRANCH   6   7
ENDBRANCH   5   6
ENDBRANCH   4   5
ENDBRANCH   3   4
ENDBRANCH   2   3
TORSDOF 14
ENDMDL
MODEL      321
REMARK 921   NORMALIZED FREE ENERGY PREDICTED BY IDOCK:   -2.48 KCAL/MOL
REMARK 922        TOTAL FREE ENERGY PREDICTED BY IDOCK:   -5.89 KCAL/MOL
REMARK 923 INTER-LIGAND FREE ENERGY PREDICTED BY IDOCK:   -4.58 KCAL/MOL
REMARK 924 INTRA-LIGAND FREE ENERGY PREDICTED BY IDOCK:   -1.31 KCAL/MOL
REMARK 927      BINDING AFFINITY PREDICTED BY RF-SCORE:    0.00 PKD
ROOT
HETATM    1  C   UNL     1     -10.228   8.783  71.532  1.00  0.00    -0.371 C  
HETATM    2  C   UNL     1     -11.607   9.080  70.969  1.00  0.00    -0.360 C  
ENDROOT
BRANCH   2   3
HETATM    3  C   UNL     1     -11.704  10.524  70.480  1.00  0.00    -0.443 C  
BRANCH   3   4
HETATM    4  C   UNL     1     -10.833  10.752  69.247  1.00  0.00    -0.287 C  
BRANCH   4   5
HETATM    5  C   UNL     1     -11.551  11.631  68.226  1.00  0.00    -0.378 C  
BRANCH   5   6
HETATM    6  C   UNL     1     -11.280  13.109  68.487  1.00  0.00    -0.307 C  
BRANCH   6   7
HETATM    7  C   UNL     1     -10.243  13.653  67.507  1.00  0.00    -0.241 C  
BRANCH   7   8
HETATM    8  C   UNL     1     -10.700  14.982  66.912  1.00  0.00    -0.308 C  
BRANCH   8   9
HETATM    9  C   UNL     1      -9.789  15.405  65.763  1.00  0.00    -0.399 C  
BRANCH   9  10
HETATM   10  C   UNL     1      -8.934  16.604  66.161  1.00  0.00    -0.321 C  
BRANCH  10  11
HETATM   11  C   UNL     1      -9.118  16.941  67.638  1.00  0.00    -0.223 C  
BRANCH  11  12
HETATM   12  C   UNL     1      -7.795  16.828  68.391  1.00  0.00    -0.214 C  
BRANCH  12  13
HETATM   13  C   UNL     1      -7.782  15.598  69.295  1.00  0.00    -0.223 C  
BRANCH  13  14
HETATM   14  C   UNL     1      -6.540  14.747  69.041  1.00  0.00    -0.100 C  
BRANCH  14  15
HETATM   15  C   UNL     1      -6.545  14.173  67.627  1.00  0.00    -0.173 C  
BRANCH  15  16
HETATM   16  C   UNL     1      -6.047  12.736  67.610  1.00  0.00    -0.152 C  
HETATM   17  O   UNL     1      -7.119  11.852  67.900  1.00  0.00    -0.081 OA 
HETATM   18  H   UNL     1      -6.808  10.954  67.889  1.00  0.00     0.000 HD 
ENDBRANCH  15  16
ENDBRANCH  14  15
ENDBRANCH  13  14
ENDBRANCH  12  13
ENDBRANCH  11  12
ENDBRANCH  10  11
ENDBRANCH   9  10
ENDBRANCH   8   9
ENDBRANCH   7   8
ENDBRANCH   6   7
ENDBRANCH   5   6
ENDBRANCH   4   5
ENDBRANCH   3   4
ENDBRANCH   2   3
TORSDOF 14
ENDMDL
MODEL      322
REMARK 921   NORMALIZED FREE ENERGY PREDICTED BY IDOCK:   -2.46 KCAL/MOL
REMARK 922        TOTAL FREE ENERGY PREDICTED BY IDOCK:   -5.85 KCAL/MOL
REMARK 923 INTER-LIGAND FREE ENERGY PREDICTED BY IDOCK:   -4.63 KCAL/MOL
REMARK 924 INTRA-LIGAND FREE ENERGY PREDICTED BY IDOCK:   -1.22 KCAL/MOL
REMARK 927      BINDING AFFINITY PREDICTED BY RF-SCORE:    0.00 PKD
ROOT
HETATM    1  C   UNL     1     -12.374  12.022  63.438  1.00  0.00    -0.635 C  
HETATM    2  C   UNL     1     -10.877  11.837  63.620  1.00  0.00    -0.508 C  
ENDROOT
BRANCH   2   3
HETATM    3  C   UNL     1     -10.576  10.873  64.766  1.00  0.00    -0.316 C  
BRANCH   3   4
HETATM    4  C   UNL     1     -10.886  11.507  66.120  1.00  0.00    -0.330 C  
BRANCH   4   5
HETATM    5  C   UNL     1      -9.939  12.669  66.409  1.00  0.00    -0.262 C  
BRANCH   5   6
HETATM    6  C   UNL     1      -9.004  12.340  67.569  1.00  0.00    -0.180 C  
BRANCH   6   7
HETATM    7  C   UNL     1      -7.928  11.347  67.135  1.00  0.00    -0.156 C  
BRANCH   7   8
HETATM    8  C   UNL     1      -7.784  10.219  68.153  1.00  0.00    -0.092 C  
BRANCH   8   9
HETATM    9  C   UNL     1      -8.780  10.389  69.297  1.00  0.00    -0.160 C  
BRANCH   9  10
HETATM   10  C   UNL     1      -9.313   9.037  69.758  1.00  0.00    -0.176 C  
BRANCH  10  11
HETATM   11  C   UNL     1     -10.761   9.151  70.228  1.00  0.00    -0.268 C  
BRANCH  11  12
HETATM   12  C   UNL     1     -11.223   7.855  70.888  1.00  0.00    -0.284 C  
BRANCH  12  13
HETATM   13  C   UNL     1     -11.476   6.769  69.846  1.00  0.00    -0.355 C  
BRANCH  13  14
HETATM   14  C   UNL     1     -10.691   5.501  70.176  1.00  0.00    -0.348 C  
BRANCH  14  15
HETATM   15  C   UNL     1      -9.648   5.203  69.104  1.00  0.00    -0.207 C  
BRANCH  15  16
HETATM   16  C   UNL     1     -10.017   5.847  67.776  1.00  0.00    -0.134 C  
HETATM   17  O   UNL     1     -10.182   4.844  66.785  1.00  0.00    -0.220 OA 
HETATM   18  H   UNL     1     -10.413   5.245  65.956  1.00  0.00     0.000 HD 
ENDBRANCH  15  16
ENDBRANCH  14  15
ENDBRANCH  13  14
ENDBRANCH  12  13
ENDBRANCH  11  12
ENDBRANCH  10  11
ENDBRANCH   9  10
ENDBRANCH   8   9
ENDBRANCH   7   8
ENDBRANCH   6   7
ENDBRANCH   5   6
ENDBRANCH   4   5
ENDBRANCH   3   4
ENDBRANCH   2   3
TORSDOF 14
ENDMDL
MODEL      323
REMARK 921   NORMALIZED FREE ENERGY PREDICTED BY IDOCK:   -2.45 KCAL/MOL
REMARK 922        TOTAL FREE ENERGY PREDICTED BY IDOCK:   -5.84 KCAL/MOL
REMARK 923 INTER-LIGAND FREE ENERGY PREDICTED BY IDOCK:   -4.52 KCAL/MOL
REMARK 924 INTRA-LIGAND FREE ENERGY PREDICTED BY IDOCK:   -1.33 KCAL/MOL
REMARK 927      BINDING AFFINITY PREDICTED BY RF-SCORE:    0.00 PKD
ROOT
HETATM    1  C   UNL     1      -6.950  10.940  68.807  1.00  0.00    -0.078 C  
HETATM    2  C   UNL     1      -6.246  11.511  70.026  1.00  0.00    -0.142 C  
ENDROOT
BRANCH   2   3
HETATM    3  C   UNL     1      -5.432  12.751  69.662  1.00  0.00    -0.089 C  
BRANCH   3   4
HETATM    4  C   UNL     1      -6.177  13.630  68.660  1.00  0.00    -0.088 C  
BRANCH   4   5
HETATM    5  C   UNL     1      -6.489  14.998  69.261  1.00  0.00    -0.124 C  
BRANCH   5   6
HETATM    6  C   UNL     1      -7.962  15.352  69.086  1.00  0.00    -0.222 C  
BRANCH   6   7
HETATM    7  C   UNL     1      -8.131  16.833  68.756  1.00  0.00    -0.252 C  
BRANCH   7   8
HETATM    8  C   UNL     1      -6.779  17.540  68.713  1.00  0.00    -0.225 C  
BRANCH   8   9
HETATM    9  C   UNL     1      -6.904  18.981  69.200  1.00  0.00    -0.342 C  
BRANCH   9  10
HETATM   10  C   UNL     1      -6.763  19.961  68.040  1.00  0.00    -0.308 C  
BRANCH  10  11
HETATM   11  C   UNL     1      -6.399  19.232  66.749  1.00  0.00    -0.190 C  
BRANCH  11  12
HETATM   12  C   UNL     1      -7.613  19.104  65.834  1.00  0.00    -0.239 C  
BRANCH  12  13
HETATM   13  C   UNL     1      -8.711  20.084  66.240  1.00  0.00    -0.346 C  
BRANCH  13  14
HETATM   14  C   UNL     1     -10.095  19.482  66.006  1.00  0.00    -0.521 C  
BRANCH  14  15
HETATM   15  C   UNL     1     -10.811  19.219  67.327  1.00  0.00    -0.554 C  
BRANCH  15  16
HETATM   16  C   UNL     1     -10.344  20.176  68.413  1.00  0.00    -0.261 C  
HETATM   17  O   UNL     1     -10.358  19.520  69.671  1.00  0.00    -0.533 OA 
HETATM   18  H   UNL     1     -10.066  20.118  70.349  1.00  0.00     0.000 HD 
ENDBRANCH  15  16
ENDBRANCH  14  15
ENDBRANCH  13  14
ENDBRANCH  12  13
ENDBRANCH  11  12
ENDBRANCH  10  11
ENDBRANCH   9  10
ENDBRANCH   8   9
ENDBRANCH   7   8
ENDBRANCH   6   7
ENDBRANCH   5   6
ENDBRANCH   4   5
ENDBRANCH   3   4
ENDBRANCH   2   3
TORSDOF 14
ENDMDL
MODEL      324
REMARK 921   NORMALIZED FREE ENERGY PREDICTED BY IDOCK:   -2.45 KCAL/MOL
REMARK 922        TOTAL FREE ENERGY PREDICTED BY IDOCK:   -5.84 KCAL/MOL
REMARK 923 INTER-LIGAND FREE ENERGY PREDICTED BY IDOCK:   -4.71 KCAL/MOL
REMARK 924 INTRA-LIGAND FREE ENERGY PREDICTED BY IDOCK:   -1.14 KCAL/MOL
REMARK 927      BINDING AFFINITY PREDICTED BY RF-SCORE:    0.00 PKD
ROOT
HETATM    1  C   UNL     1      -9.106   9.741  63.128  1.00  0.00    -0.270 C  
HETATM    2  C   UNL     1      -8.907  10.848  64.149  1.00  0.00    -0.055 C  
ENDROOT
BRANCH   2   3
HETATM    3  C   UNL     1      -9.877  12.002  63.908  1.00  0.00    -0.266 C  
BRANCH   3   4
HETATM    4  C   UNL     1     -11.221  11.498  63.385  1.00  0.00    -0.342 C  
BRANCH   4   5
HETATM    5  C   UNL     1     -12.295  12.576  63.513  1.00  0.00    -0.623 C  
BRANCH   5   6
HETATM    6  C   UNL     1     -11.775  13.780  64.292  1.00  0.00    -0.426 C  
BRANCH   6   7
HETATM    7  C   UNL     1     -12.677  14.086  65.485  1.00  0.00    -0.517 C  
BRANCH   7   8
HETATM    8  C   UNL     1     -11.870  14.664  66.645  1.00  0.00    -0.325 C  
BRANCH   8   9
HETATM    9  C   UNL     1     -10.650  13.798  66.943  1.00  0.00    -0.276 C  
BRANCH   9  10
HETATM   10  C   UNL     1     -10.974  12.748  68.000  1.00  0.00    -0.266 C  
BRANCH  10  11
HETATM   11  C   UNL     1     -11.092  11.360  67.374  1.00  0.00    -0.349 C  
BRANCH  11  12
HETATM   12  C   UNL     1     -10.067  10.403  67.975  1.00  0.00    -0.189 C  
BRANCH  12  13
HETATM   13  C   UNL     1     -10.713   9.071  68.347  1.00  0.00    -0.145 C  
BRANCH  13  14
HETATM   14  C   UNL     1      -9.740   7.914  68.136  1.00  0.00    -0.177 C  
BRANCH  14  15
HETATM   15  C   UNL     1      -9.436   7.202  69.452  1.00  0.00    -0.153 C  
BRANCH  15  16
HETATM   16  C   UNL     1      -9.482   8.166  70.627  1.00  0.00    -0.162 C  
HETATM   17  O   UNL     1      -8.470   9.150  70.482  1.00  0.00    -0.166 OA 
HETATM   18  H   UNL     1      -8.498   9.753  71.216  1.00  0.00     0.000 HD 
ENDBRANCH  15  16
ENDBRANCH  14  15
ENDBRANCH  13  14
ENDBRANCH  12  13
ENDBRANCH  11  12
ENDBRANCH  10  11
ENDBRANCH   9  10
ENDBRANCH   8   9
ENDBRANCH   7   8
ENDBRANCH   6   7
ENDBRANCH   5   6
ENDBRANCH   4   5
ENDBRANCH   3   4
ENDBRANCH   2   3
TORSDOF 14
ENDMDL
MODEL      325
REMARK 921   NORMALIZED FREE ENERGY PREDICTED BY IDOCK:   -2.45 KCAL/MOL
REMARK 922        TOTAL FREE ENERGY PREDICTED BY IDOCK:   -5.84 KCAL/MOL
REMARK 923 INTER-LIGAND FREE ENERGY PREDICTED BY IDOCK:   -5.11 KCAL/MOL
REMARK 924 INTRA-LIGAND FREE ENERGY PREDICTED BY IDOCK:   -0.73 KCAL/MOL
REMARK 927      BINDING AFFINITY PREDICTED BY RF-SCORE:    0.00 PKD
ROOT
HETATM    1  C   UNL     1     -10.393  17.229  68.692  1.00  0.00    -0.357 C  
HETATM    2  C   UNL     1     -11.235  16.026  68.302  1.00  0.00    -0.350 C  
ENDROOT
BRANCH   2   3
HETATM    3  C   UNL     1     -11.305  15.009  69.439  1.00  0.00    -0.314 C  
BRANCH   3   4
HETATM    4  C   UNL     1     -11.123  13.584  68.921  1.00  0.00    -0.305 C  
BRANCH   4   5
HETATM    5  C   UNL     1     -12.088  12.624  69.613  1.00  0.00    -0.277 C  
BRANCH   5   6
HETATM    6  C   UNL     1     -12.507  13.158  70.979  1.00  0.00    -0.406 C  
BRANCH   6   7
HETATM    7  C   UNL     1     -13.108  12.046  71.836  1.00  0.00    -0.475 C  
BRANCH   7   8
HETATM    8  C   UNL     1     -13.082  10.712  71.097  1.00  0.00    -0.415 C  
BRANCH   8   9
HETATM    9  C   UNL     1     -12.653   9.582  72.029  1.00  0.00    -0.456 C  
BRANCH   9  10
HETATM   10  C   UNL     1     -11.481   8.805  71.437  1.00  0.00    -0.366 C  
BRANCH  10  11
HETATM   11  C   UNL     1     -10.962   7.764  72.424  1.00  0.00    -0.368 C  
BRANCH  11  12
HETATM   12  C   UNL     1     -11.362   6.356  71.992  1.00  0.00    -0.338 C  
BRANCH  12  13
HETATM   13  C   UNL     1     -10.255   5.352  72.302  1.00  0.00    -0.244 C  
BRANCH  13  14
HETATM   14  C   UNL     1      -9.847   5.425  73.772  1.00  0.00    -0.171 C  
BRANCH  14  15
HETATM   15  C   UNL     1      -8.483   4.779  73.997  1.00  0.00    -0.103 C  
BRANCH  15  16
HETATM   16  C   UNL     1      -7.490   5.186  72.919  1.00  0.00    -0.096 C  
HETATM   17  O   UNL     1      -6.787   6.349  73.327  1.00  0.00    -0.073 OA 
HETATM   18  H   UNL     1      -6.168   6.604  72.653  1.00  0.00     0.000 HD 
ENDBRANCH  15  16
ENDBRANCH  14  15
ENDBRANCH  13  14
ENDBRANCH  12  13
ENDBRANCH  11  12
ENDBRANCH  10  11
ENDBRANCH   9  10
ENDBRANCH   8   9
ENDBRANCH   7   8
ENDBRANCH   6   7
ENDBRANCH   5   6
ENDBRANCH   4   5
ENDBRANCH   3   4
ENDBRANCH   2   3
TORSDOF 14
ENDMDL
MODEL      326
REMARK 921   NORMALIZED FREE ENERGY PREDICTED BY IDOCK:   -2.45 KCAL/MOL
REMARK 922        TOTAL FREE ENERGY PREDICTED BY IDOCK:   -5.84 KCAL/MOL
REMARK 923 INTER-LIGAND FREE ENERGY PREDICTED BY IDOCK:   -3.84 KCAL/MOL
REMARK 924 INTRA-LIGAND FREE ENERGY PREDICTED BY IDOCK:   -2.00 KCAL/MOL
REMARK 927      BINDING AFFINITY PREDICTED BY RF-SCORE:    0.00 PKD
ROOT
HETATM    1  C   UNL     1      -6.395   7.271  67.253  1.00  0.00    -0.054 C  
HETATM    2  C   UNL     1      -7.322   6.075  67.127  1.00  0.00    -0.076 C  
ENDROOT
BRANCH   2   3
HETATM    3  C   UNL     1      -8.464   6.361  66.155  1.00  0.00    -0.140 C  
BRANCH   3   4
HETATM    4  C   UNL     1      -8.519   7.841  65.784  1.00  0.00    -0.155 C  
BRANCH   4   5
HETATM    5  C   UNL     1      -9.825   8.475  66.256  1.00  0.00    -0.285 C  
BRANCH   5   6
HETATM    6  C   UNL     1     -10.539   7.576  67.261  1.00  0.00    -0.394 C  
BRANCH   6   7
HETATM    7  C   UNL     1     -10.653   8.262  68.620  1.00  0.00    -0.144 C  
BRANCH   7   8
HETATM    8  C   UNL     1      -9.282   8.408  69.275  1.00  0.00    -0.154 C  
BRANCH   8   9
HETATM    9  C   UNL     1      -9.038   9.850  69.709  1.00  0.00    -0.249 C  
BRANCH   9  10
HETATM   10  C   UNL     1      -8.013  10.525  68.804  1.00  0.00    -0.127 C  
BRANCH  10  11
HETATM   11  C   UNL     1      -8.458  11.936  68.429  1.00  0.00    -0.155 C  
BRANCH  11  12
HETATM   12  C   UNL     1      -9.227  11.933  67.110  1.00  0.00    -0.183 C  
BRANCH  12  13
HETATM   13  C   UNL     1     -10.672  12.378  67.318  1.00  0.00    -0.259 C  
BRANCH  13  14
HETATM   14  C   UNL     1     -10.858  13.005  68.698  1.00  0.00    -0.287 C  
BRANCH  14  15
HETATM   15  C   UNL     1     -12.136  13.835  68.758  1.00  0.00    -0.344 C  
BRANCH  15  16
HETATM   16  C   UNL     1     -12.081  14.859  69.882  1.00  0.00    -0.332 C  
HETATM   17  O   UNL     1     -11.069  14.501  70.809  1.00  0.00    -0.500 OA 
HETATM   18  H   UNL     1     -11.034  15.140  71.511  1.00  0.00     0.000 HD 
ENDBRANCH  15  16
ENDBRANCH  14  15
ENDBRANCH  13  14
ENDBRANCH  12  13
ENDBRANCH  11  12
ENDBRANCH  10  11
ENDBRANCH   9  10
ENDBRANCH   8   9
ENDBRANCH   7   8
ENDBRANCH   6   7
ENDBRANCH   5   6
ENDBRANCH   4   5
ENDBRANCH   3   4
ENDBRANCH   2   3
TORSDOF 14
ENDMDL
MODEL      327
REMARK 921   NORMALIZED FREE ENERGY PREDICTED BY IDOCK:   -2.45 KCAL/MOL
REMARK 922        TOTAL FREE ENERGY PREDICTED BY IDOCK:   -5.83 KCAL/MOL
REMARK 923 INTER-LIGAND FREE ENERGY PREDICTED BY IDOCK:   -5.14 KCAL/MOL
REMARK 924 INTRA-LIGAND FREE ENERGY PREDICTED BY IDOCK:   -0.69 KCAL/MOL
REMARK 927      BINDING AFFINITY PREDICTED BY RF-SCORE:    0.00 PKD
ROOT
HETATM    1  C   UNL     1      -5.743   7.984  67.576  1.00  0.00    -0.038 C  
HETATM    2  C   UNL     1      -7.227   7.674  67.666  1.00  0.00    -0.087 C  
ENDROOT
BRANCH   2   3
HETATM    3  C   UNL     1      -7.901   8.506  68.755  1.00  0.00    -0.110 C  
BRANCH   3   4
HETATM    4  C   UNL     1      -7.538   7.996  70.148  1.00  0.00    -0.081 C  
BRANCH   4   5
HETATM    5  C   UNL     1      -8.767   7.443  70.864  1.00  0.00    -0.144 C  
BRANCH   5   6
HETATM    6  C   UNL     1      -8.985   8.143  72.201  1.00  0.00    -0.246 C  
BRANCH   6   7
HETATM    7  C   UNL     1     -10.466   8.160  72.572  1.00  0.00    -0.409 C  
BRANCH   7   8
HETATM    8  C   UNL     1     -11.331   7.752  71.383  1.00  0.00    -0.281 C  
BRANCH   8   9
HETATM    9  C   UNL     1     -11.881   8.980  70.664  1.00  0.00    -0.193 C  
BRANCH   9  10
HETATM   10  C   UNL     1     -11.562  10.253  71.442  1.00  0.00    -0.227 C  
BRANCH  10  11
HETATM   11  C   UNL     1     -12.400  11.426  70.939  1.00  0.00    -0.483 C  
BRANCH  11  12
HETATM   12  C   UNL     1     -13.401  11.875  72.000  1.00  0.00    -0.425 C  
BRANCH  12  13
HETATM   13  C   UNL     1     -13.176  13.336  72.382  1.00  0.00    -0.539 C  
BRANCH  13  14
HETATM   14  C   UNL     1     -13.271  14.242  71.156  1.00  0.00    -0.387 C  
BRANCH  14  15
HETATM   15  C   UNL     1     -12.912  15.682  71.507  1.00  0.00    -0.549 C  
BRANCH  15  16
HETATM   16  C   UNL     1     -11.418  15.839  71.746  1.00  0.00    -0.398 C  
HETATM   17  O   UNL     1     -10.698  15.011  70.847  1.00  0.00    -0.542 OA 
HETATM   18  H   UNL     1      -9.764  15.108  70.996  1.00  0.00     0.000 HD 
ENDBRANCH  15  16
ENDBRANCH  14  15
ENDBRANCH  13  14
ENDBRANCH  12  13
ENDBRANCH  11  12
ENDBRANCH  10  11
ENDBRANCH   9  10
ENDBRANCH   8   9
ENDBRANCH   7   8
ENDBRANCH   6   7
ENDBRANCH   5   6
ENDBRANCH   4   5
ENDBRANCH   3   4
ENDBRANCH   2   3
TORSDOF 14
ENDMDL
MODEL      328
REMARK 921   NORMALIZED FREE ENERGY PREDICTED BY IDOCK:   -2.44 KCAL/MOL
REMARK 922        TOTAL FREE ENERGY PREDICTED BY IDOCK:   -5.81 KCAL/MOL
REMARK 923 INTER-LIGAND FREE ENERGY PREDICTED BY IDOCK:   -4.35 KCAL/MOL
REMARK 924 INTRA-LIGAND FREE ENERGY PREDICTED BY IDOCK:   -1.46 KCAL/MOL
REMARK 927      BINDING AFFINITY PREDICTED BY RF-SCORE:    0.00 PKD
ROOT
HETATM    1  C   UNL     1     -12.369  12.084  63.403  1.00  0.00    -0.635 C  
HETATM    2  C   UNL     1     -10.877  12.167  63.677  1.00  0.00    -0.523 C  
ENDROOT
BRANCH   2   3
HETATM    3  C   UNL     1     -10.470  11.224  64.808  1.00  0.00    -0.384 C  
BRANCH   3   4
HETATM    4  C   UNL     1     -11.158  11.601  66.118  1.00  0.00    -0.335 C  
BRANCH   4   5
HETATM    5  C   UNL     1     -10.523  12.847  66.729  1.00  0.00    -0.262 C  
BRANCH   5   6
HETATM    6  C   UNL     1     -10.050  12.580  68.154  1.00  0.00    -0.225 C  
BRANCH   6   7
HETATM    7  C   UNL     1      -8.651  11.967  68.158  1.00  0.00    -0.173 C  
BRANCH   7   8
HETATM    8  C   UNL     1      -8.609  10.706  69.016  1.00  0.00    -0.150 C  
BRANCH   8   9
HETATM    9  C   UNL     1     -10.018  10.259  69.394  1.00  0.00    -0.254 C  
BRANCH   9  10
HETATM   10  C   UNL     1     -10.186   8.758  69.187  1.00  0.00    -0.215 C  
BRANCH  10  11
HETATM   11  C   UNL     1     -10.494   8.438  67.727  1.00  0.00    -0.284 C  
BRANCH  11  12
HETATM   12  C   UNL     1     -10.793   6.953  67.546  1.00  0.00    -0.363 C  
BRANCH  12  13
HETATM   13  C   UNL     1      -9.852   6.325  66.520  1.00  0.00    -0.176 C  
BRANCH  13  14
HETATM   14  C   UNL     1      -8.816   7.338  66.039  1.00  0.00    -0.161 C  
BRANCH  14  15
HETATM   15  C   UNL     1      -7.985   6.773  64.891  1.00  0.00    -0.124 C  
BRANCH  15  16
HETATM   16  C   UNL     1      -6.517   6.658  65.272  1.00  0.00    -0.046 C  
HETATM   17  O   UNL     1      -6.205   7.611  66.277  1.00  0.00    -0.043 OA 
HETATM   18  H   UNL     1      -5.288   7.539  66.514  1.00  0.00     0.000 HD 
ENDBRANCH  15  16
ENDBRANCH  14  15
ENDBRANCH  13  14
ENDBRANCH  12  13
ENDBRANCH  11  12
ENDBRANCH  10  11
ENDBRANCH   9  10
ENDBRANCH   8   9
ENDBRANCH   7   8
ENDBRANCH   6   7
ENDBRANCH   5   6
ENDBRANCH   4   5
ENDBRANCH   3   4
ENDBRANCH   2   3
TORSDOF 14
ENDMDL
MODEL      329
REMARK 921   NORMALIZED FREE ENERGY PREDICTED BY IDOCK:   -2.43 KCAL/MOL
REMARK 922        TOTAL FREE ENERGY PREDICTED BY IDOCK:   -5.80 KCAL/MOL
REMARK 923 INTER-LIGAND FREE ENERGY PREDICTED BY IDOCK:   -4.86 KCAL/MOL
REMARK 924 INTRA-LIGAND FREE ENERGY PREDICTED BY IDOCK:   -0.94 KCAL/MOL
REMARK 927      BINDING AFFINITY PREDICTED BY RF-SCORE:    0.00 PKD
ROOT
HETATM    1  C   UNL     1      -7.153  14.416  67.897  1.00  0.00    -0.169 C  
HETATM    2  C   UNL     1      -6.922  15.917  67.910  1.00  0.00    -0.155 C  
ENDROOT
BRANCH   2   3
HETATM    3  C   UNL     1      -7.861  16.629  66.939  1.00  0.00    -0.261 C  
BRANCH   3   4
HETATM    4  C   UNL     1      -8.522  17.840  67.593  1.00  0.00    -0.229 C  
BRANCH   4   5
HETATM    5  C   UNL     1     -10.019  17.608  67.785  1.00  0.00    -0.315 C  
BRANCH   5   6
HETATM    6  C   UNL     1     -10.276  16.407  68.690  1.00  0.00    -0.258 C  
BRANCH   6   7
HETATM    7  C   UNL     1     -11.102  15.347  67.965  1.00  0.00    -0.312 C  
BRANCH   7   8
HETATM    8  C   UNL     1     -10.744  13.947  68.456  1.00  0.00    -0.268 C  
BRANCH   8   9
HETATM    9  C   UNL     1     -11.710  12.909  67.892  1.00  0.00    -0.405 C  
BRANCH   9  10
HETATM   10  C   UNL     1     -11.075  11.523  67.882  1.00  0.00    -0.317 C  
BRANCH  10  11
HETATM   11  C   UNL     1     -10.233  11.299  69.135  1.00  0.00    -0.123 C  
BRANCH  11  12
HETATM   12  C   UNL     1     -11.043  10.590  70.217  1.00  0.00    -0.359 C  
BRANCH  12  13
HETATM   13  C   UNL     1     -10.633   9.125  70.337  1.00  0.00    -0.275 C  
BRANCH  13  14
HETATM   14  C   UNL     1     -10.114   8.816  71.740  1.00  0.00    -0.403 C  
BRANCH  14  15
HETATM   15  C   UNL     1     -10.786   7.572  72.314  1.00  0.00    -0.302 C  
BRANCH  15  16
HETATM   16  C   UNL     1     -12.294   7.613  72.115  1.00  0.00    -0.241 C  
HETATM   17  O   UNL     1     -12.820   6.296  72.155  1.00  0.00    -0.470 OA 
HETATM   18  H   UNL     1     -13.761   6.321  72.031  1.00  0.00     0.000 HD 
ENDBRANCH  15  16
ENDBRANCH  14  15
ENDBRANCH  13  14
ENDBRANCH  12  13
ENDBRANCH  11  12
ENDBRANCH  10  11
ENDBRANCH   9  10
ENDBRANCH   8   9
ENDBRANCH   7   8
ENDBRANCH   6   7
ENDBRANCH   5   6
ENDBRANCH   4   5
ENDBRANCH   3   4
ENDBRANCH   2   3
TORSDOF 14
ENDMDL
MODEL      330
REMARK 921   NORMALIZED FREE ENERGY PREDICTED BY IDOCK:   -2.43 KCAL/MOL
REMARK 922        TOTAL FREE ENERGY PREDICTED BY IDOCK:   -5.80 KCAL/MOL
REMARK 923 INTER-LIGAND FREE ENERGY PREDICTED BY IDOCK:   -4.52 KCAL/MOL
REMARK 924 INTRA-LIGAND FREE ENERGY PREDICTED BY IDOCK:   -1.28 KCAL/MOL
REMARK 927      BINDING AFFINITY PREDICTED BY RF-SCORE:    0.00 PKD
ROOT
HETATM    1  C   UNL     1      -6.549   9.541  67.496  1.00  0.00    -0.063 C  
HETATM    2  C   UNL     1      -6.515   8.122  68.036  1.00  0.00    -0.056 C  
ENDROOT
BRANCH   2   3
HETATM    3  C   UNL     1      -7.800   7.786  68.789  1.00  0.00    -0.123 C  
BRANCH   3   4
HETATM    4  C   UNL     1      -8.335   6.413  68.388  1.00  0.00    -0.116 C  
BRANCH   4   5
HETATM    5  C   UNL     1      -9.603   6.072  69.167  1.00  0.00    -0.156 C  
BRANCH   5   6
HETATM    6  C   UNL     1      -9.558   4.639  69.688  1.00  0.00    -0.262 C  
BRANCH   6   7
HETATM    7  C   UNL     1      -8.729   4.550  70.966  1.00  0.00    -0.142 C  
BRANCH   7   8
HETATM    8  C   UNL     1      -9.394   5.319  72.104  1.00  0.00    -0.159 C  
BRANCH   8   9
HETATM    9  C   UNL     1      -8.349   5.983  72.995  1.00  0.00    -0.116 C  
BRANCH   9  10
HETATM   10  C   UNL     1      -8.771   7.402  73.362  1.00  0.00    -0.202 C  
BRANCH  10  11
HETATM   11  C   UNL     1      -9.406   8.110  72.168  1.00  0.00    -0.270 C  
BRANCH  11  12
HETATM   12  C   UNL     1     -10.874   8.424  72.439  1.00  0.00    -0.416 C  
BRANCH  12  13
HETATM   13  C   UNL     1     -11.656   8.556  71.135  1.00  0.00    -0.325 C  
BRANCH  13  14
HETATM   14  C   UNL     1     -12.942   9.352  71.347  1.00  0.00    -0.421 C  
BRANCH  14  15
HETATM   15  C   UNL     1     -12.678  10.853  71.274  1.00  0.00    -0.542 C  
BRANCH  15  16
HETATM   16  C   UNL     1     -11.861  11.215  70.043  1.00  0.00    -0.361 C  
HETATM   17  O   UNL     1     -12.464  10.658  68.886  1.00  0.00    -0.791 OA 
HETATM   18  H   UNL     1     -11.953  10.883  68.117  1.00  0.00     0.000 HD 
ENDBRANCH  15  16
ENDBRANCH  14  15
ENDBRANCH  13  14
ENDBRANCH  12  13
ENDBRANCH  11  12
ENDBRANCH  10  11
ENDBRANCH   9  10
ENDBRANCH   8   9
ENDBRANCH   7   8
ENDBRANCH   6   7
ENDBRANCH   5   6
ENDBRANCH   4   5
ENDBRANCH   3   4
ENDBRANCH   2   3
TORSDOF 14
ENDMDL
MODEL      331
REMARK 921   NORMALIZED FREE ENERGY PREDICTED BY IDOCK:   -2.42 KCAL/MOL
REMARK 922        TOTAL FREE ENERGY PREDICTED BY IDOCK:   -5.79 KCAL/MOL
REMARK 923 INTER-LIGAND FREE ENERGY PREDICTED BY IDOCK:   -4.90 KCAL/MOL
REMARK 924 INTRA-LIGAND FREE ENERGY PREDICTED BY IDOCK:   -0.89 KCAL/MOL
REMARK 927      BINDING AFFINITY PREDICTED BY RF-SCORE:    0.00 PKD
ROOT
HETATM    1  C   UNL     1      -6.647  18.266  68.583  1.00  0.00    -0.234 C  
HETATM    2  C   UNL     1      -7.847  18.668  67.743  1.00  0.00    -0.261 C  
ENDROOT
BRANCH   2   3
HETATM    3  C   UNL     1      -8.889  19.402  68.584  1.00  0.00    -0.417 C  
BRANCH   3   4
HETATM    4  C   UNL     1     -10.154  18.563  68.756  1.00  0.00    -0.394 C  
BRANCH   4   5
HETATM    5  C   UNL     1     -10.383  17.665  67.543  1.00  0.00    -0.365 C  
BRANCH   5   6
HETATM    6  C   UNL     1     -10.767  16.253  67.971  1.00  0.00    -0.331 C  
BRANCH   6   7
HETATM    7  C   UNL     1     -11.026  15.367  66.754  1.00  0.00    -0.282 C  
BRANCH   7   8
HETATM    8  C   UNL     1     -12.115  14.339  67.049  1.00  0.00    -0.424 C  
BRANCH   8   9
HETATM    9  C   UNL     1     -11.532  13.117  67.752  1.00  0.00    -0.352 C  
BRANCH   9  10
HETATM   10  C   UNL     1     -11.804  11.848  66.951  1.00  0.00    -0.177 C  
BRANCH  10  11
HETATM   11  C   UNL     1     -10.802  11.695  65.810  1.00  0.00    -0.334 C  
BRANCH  11  12
HETATM   12  C   UNL     1      -9.377  11.937  66.300  1.00  0.00    -0.234 C  
BRANCH  12  13
HETATM   13  C   UNL     1      -8.461  10.779  65.914  1.00  0.00    -0.166 C  
BRANCH  13  14
HETATM   14  C   UNL     1      -9.265   9.614  65.342  1.00  0.00    -0.295 C  
BRANCH  14  15
HETATM   15  C   UNL     1      -8.760   9.223  63.957  1.00  0.00    -0.198 C  
BRANCH  15  16
HETATM   16  C   UNL     1      -8.062   7.871  63.981  1.00  0.00    -0.078 C  
HETATM   17  O   UNL     1      -8.482   7.093  62.871  1.00  0.00    -0.355 OA 
HETATM   18  H   UNL     1      -8.047   6.249  62.886  1.00  0.00     0.000 HD 
ENDBRANCH  15  16
ENDBRANCH  14  15
ENDBRANCH  13  14
ENDBRANCH  12  13
ENDBRANCH  11  12
ENDBRANCH  10  11
ENDBRANCH   9  10
ENDBRANCH   8   9
ENDBRANCH   7   8
ENDBRANCH   6   7
ENDBRANCH   5   6
ENDBRANCH   4   5
ENDBRANCH   3   4
ENDBRANCH   2   3
TORSDOF 14
ENDMDL
MODEL      332
REMARK 921   NORMALIZED FREE ENERGY PREDICTED BY IDOCK:   -2.42 KCAL/MOL
REMARK 922        TOTAL FREE ENERGY PREDICTED BY IDOCK:   -5.77 KCAL/MOL
REMARK 923 INTER-LIGAND FREE ENERGY PREDICTED BY IDOCK:   -4.21 KCAL/MOL
REMARK 924 INTRA-LIGAND FREE ENERGY PREDICTED BY IDOCK:   -1.57 KCAL/MOL
REMARK 927      BINDING AFFINITY PREDICTED BY RF-SCORE:    0.00 PKD
ROOT
HETATM    1  C   UNL     1     -12.187  13.000  63.214  1.00  0.00    -0.464 C  
HETATM    2  C   UNL     1     -11.111  13.243  64.258  1.00  0.00    -0.414 C  
ENDROOT
BRANCH   2   3
HETATM    3  C   UNL     1     -11.323  12.360  65.486  1.00  0.00    -0.387 C  
BRANCH   3   4
HETATM    4  C   UNL     1     -12.107  13.097  66.570  1.00  0.00    -0.423 C  
BRANCH   4   5
HETATM    5  C   UNL     1     -11.478  14.456  66.870  1.00  0.00    -0.379 C  
BRANCH   5   6
HETATM    6  C   UNL     1     -10.133  14.295  67.572  1.00  0.00    -0.236 C  
BRANCH   6   7
HETATM    7  C   UNL     1      -9.019  14.968  66.774  1.00  0.00    -0.293 C  
BRANCH   7   8
HETATM    8  C   UNL     1      -7.682  14.272  67.009  1.00  0.00     0.105 C  
BRANCH   8   9
HETATM    9  C   UNL     1      -7.891  12.868  67.568  1.00  0.00    -0.177 C  
BRANCH   9  10
HETATM   10  C   UNL     1      -7.562  11.811  66.519  1.00  0.00     0.072 C  
BRANCH  10  11
HETATM   11  C   UNL     1      -7.491  10.421  67.146  1.00  0.00    -0.092 C  
BRANCH  11  12
HETATM   12  C   UNL     1      -8.221   9.396  66.283  1.00  0.00    -0.111 C  
BRANCH  12  13
HETATM   13  C   UNL     1      -9.731   9.489  66.482  1.00  0.00    -0.284 C  
BRANCH  13  14
HETATM   14  C   UNL     1     -10.083   9.557  67.966  1.00  0.00    -0.226 C  
BRANCH  14  15
HETATM   15  C   UNL     1     -10.514   8.191  68.493  1.00  0.00    -0.199 C  
BRANCH  15  16
HETATM   16  C   UNL     1     -10.535   8.165  70.014  1.00  0.00    -0.231 C  
HETATM   17  O   UNL     1     -11.876   8.126  70.476  1.00  0.00    -0.470 OA 
HETATM   18  H   UNL     1     -11.890   8.109  71.426  1.00  0.00     0.000 HD 
ENDBRANCH  15  16
ENDBRANCH  14  15
ENDBRANCH  13  14
ENDBRANCH  12  13
ENDBRANCH  11  12
ENDBRANCH  10  11
ENDBRANCH   9  10
ENDBRANCH   8   9
ENDBRANCH   7   8
ENDBRANCH   6   7
ENDBRANCH   5   6
ENDBRANCH   4   5
ENDBRANCH   3   4
ENDBRANCH   2   3
TORSDOF 14
ENDMDL
MODEL      333
REMARK 921   NORMALIZED FREE ENERGY PREDICTED BY IDOCK:   -2.41 KCAL/MOL
REMARK 922        TOTAL FREE ENERGY PREDICTED BY IDOCK:   -5.77 KCAL/MOL
REMARK 923 INTER-LIGAND FREE ENERGY PREDICTED BY IDOCK:   -4.79 KCAL/MOL
REMARK 924 INTRA-LIGAND FREE ENERGY PREDICTED BY IDOCK:   -0.98 KCAL/MOL
REMARK 927      BINDING AFFINITY PREDICTED BY RF-SCORE:    0.00 PKD
ROOT
HETATM    1  C   UNL     1      -9.836  10.217  69.095  1.00  0.00    -0.225 C  
HETATM    2  C   UNL     1      -8.674  11.033  68.555  1.00  0.00    -0.159 C  
ENDROOT
BRANCH   2   3
HETATM    3  C   UNL     1      -9.150  12.375  68.005  1.00  0.00    -0.195 C  
BRANCH   3   4
HETATM    4  C   UNL     1      -7.994  13.169  67.401  1.00  0.00    -0.174 C  
BRANCH   4   5
HETATM    5  C   UNL     1      -8.422  14.600  67.083  1.00  0.00    -0.244 C  
BRANCH   5   6
HETATM    6  C   UNL     1      -8.057  15.548  68.220  1.00  0.00    -0.133 C  
BRANCH   6   7
HETATM    7  C   UNL     1      -6.760  16.292  67.914  1.00  0.00    -0.151 C  
BRANCH   7   8
HETATM    8  C   UNL     1      -6.830  16.971  66.549  1.00  0.00    -0.281 C  
BRANCH   8   9
HETATM    9  C   UNL     1      -5.753  18.045  66.421  1.00  0.00    -0.209 C  
BRANCH   9  10
HETATM   10  C   UNL     1      -6.040  19.217  67.354  1.00  0.00    -0.192 C  
BRANCH  10  11
HETATM   11  C   UNL     1      -6.978  20.224  66.695  1.00  0.00    -0.287 C  
BRANCH  11  12
HETATM   12  C   UNL     1      -8.132  20.585  67.626  1.00  0.00    -0.244 C  
BRANCH  12  13
HETATM   13  C   UNL     1      -8.481  19.416  68.543  1.00  0.00    -0.397 C  
BRANCH  13  14
HETATM   14  C   UNL     1      -9.679  18.637  68.004  1.00  0.00    -0.355 C  
BRANCH  14  15
HETATM   15  C   UNL     1     -10.609  19.543  67.203  1.00  0.00    -0.605 C  
BRANCH  15  16
HETATM   16  C   UNL     1     -10.424  19.344  65.706  1.00  0.00    -0.392 C  
HETATM   17  O   UNL     1     -10.842  18.038  65.340  1.00  0.00    -0.547 OA 
HETATM   18  H   UNL     1     -10.726  17.913  64.405  1.00  0.00     0.000 HD 
ENDBRANCH  15  16
ENDBRANCH  14  15
ENDBRANCH  13  14
ENDBRANCH  12  13
ENDBRANCH  11  12
ENDBRANCH  10  11
ENDBRANCH   9  10
ENDBRANCH   8   9
ENDBRANCH   7   8
ENDBRANCH   6   7
ENDBRANCH   5   6
ENDBRANCH   4   5
ENDBRANCH   3   4
ENDBRANCH   2   3
TORSDOF 14
ENDMDL
MODEL      334
REMARK 921   NORMALIZED FREE ENERGY PREDICTED BY IDOCK:   -2.41 KCAL/MOL
REMARK 922        TOTAL FREE ENERGY PREDICTED BY IDOCK:   -5.76 KCAL/MOL
REMARK 923 INTER-LIGAND FREE ENERGY PREDICTED BY IDOCK:   -5.01 KCAL/MOL
REMARK 924 INTRA-LIGAND FREE ENERGY PREDICTED BY IDOCK:   -0.75 KCAL/MOL
REMARK 927      BINDING AFFINITY PREDICTED BY RF-SCORE:    0.00 PKD
ROOT
HETATM    1  C   UNL     1      -6.362   8.052  74.002  1.00  0.00    -0.113 C  
HETATM    2  C   UNL     1      -6.374   6.583  73.613  1.00  0.00    -0.065 C  
ENDROOT
BRANCH   2   3
HETATM    3  C   UNL     1      -7.463   5.822  74.365  1.00  0.00    -0.087 C  
BRANCH   3   4
HETATM    4  C   UNL     1      -8.249   4.907  73.428  1.00  0.00    -0.107 C  
BRANCH   4   5
HETATM    5  C   UNL     1      -9.390   4.215  74.169  1.00  0.00    -0.117 C  
BRANCH   5   6
HETATM    6  C   UNL     1     -10.742   4.609  73.585  1.00  0.00    -0.346 C  
BRANCH   6   7
HETATM    7  C   UNL     1     -10.571   5.307  72.238  1.00  0.00    -0.280 C  
BRANCH   7   8
HETATM    8  C   UNL     1     -11.684   6.325  72.005  1.00  0.00    -0.374 C  
BRANCH   8   9
HETATM    9  C   UNL     1     -11.348   7.658  72.667  1.00  0.00    -0.423 C  
BRANCH   9  10
HETATM   10  C   UNL     1     -11.445   8.803  71.664  1.00  0.00    -0.386 C  
BRANCH  10  11
HETATM   11  C   UNL     1     -12.562   9.771  72.045  1.00  0.00    -0.432 C  
BRANCH  11  12
HETATM   12  C   UNL     1     -13.015  10.583  70.835  1.00  0.00    -0.455 C  
BRANCH  12  13
HETATM   13  C   UNL     1     -11.893  11.486  70.330  1.00  0.00    -0.413 C  
BRANCH  13  14
HETATM   14  C   UNL     1     -11.748  11.382  68.813  1.00  0.00    -0.404 C  
BRANCH  14  15
HETATM   15  C   UNL     1     -11.656  12.763  68.172  1.00  0.00    -0.380 C  
BRANCH  15  16
HETATM   16  C   UNL     1     -10.225  13.099  67.779  1.00  0.00    -0.231 C  
HETATM   17  O   UNL     1      -9.592  13.811  68.831  1.00  0.00    -0.398 OA 
HETATM   18  H   UNL     1      -8.699  14.021  68.585  1.00  0.00     0.000 HD 
ENDBRANCH  15  16
ENDBRANCH  14  15
ENDBRANCH  13  14
ENDBRANCH  12  13
ENDBRANCH  11  12
ENDBRANCH  10  11
ENDBRANCH   9  10
ENDBRANCH   8   9
ENDBRANCH   7   8
ENDBRANCH   6   7
ENDBRANCH   5   6
ENDBRANCH   4   5
ENDBRANCH   3   4
ENDBRANCH   2   3
TORSDOF 14
ENDMDL
MODEL      335
REMARK 921   NORMALIZED FREE ENERGY PREDICTED BY IDOCK:   -2.41 KCAL/MOL
REMARK 922        TOTAL FREE ENERGY PREDICTED BY IDOCK:   -5.76 KCAL/MOL
REMARK 923 INTER-LIGAND FREE ENERGY PREDICTED BY IDOCK:   -4.92 KCAL/MOL
REMARK 924 INTRA-LIGAND FREE ENERGY PREDICTED BY IDOCK:   -0.83 KCAL/MOL
REMARK 927      BINDING AFFINITY PREDICTED BY RF-SCORE:    0.00 PKD
ROOT
HETATM    1  C   UNL     1      -7.793  16.133  67.865  1.00  0.00    -0.151 C  
HETATM    2  C   UNL     1      -8.722  15.862  66.694  1.00  0.00    -0.324 C  
ENDROOT
BRANCH   2   3
HETATM    3  C   UNL     1      -9.651  14.686  66.987  1.00  0.00    -0.246 C  
BRANCH   3   4
HETATM    4  C   UNL     1     -10.926  14.765  66.149  1.00  0.00    -0.332 C  
BRANCH   4   5
HETATM    5  C   UNL     1     -12.035  13.912  66.761  1.00  0.00    -0.472 C  
BRANCH   5   6
HETATM    6  C   UNL     1     -11.867  12.443  66.388  1.00  0.00    -0.421 C  
BRANCH   6   7
HETATM    7  C   UNL     1     -11.586  11.596  67.627  1.00  0.00    -0.349 C  
BRANCH   7   8
HETATM    8  C   UNL     1     -11.896  12.374  68.903  1.00  0.00    -0.350 C  
BRANCH   8   9
HETATM    9  C   UNL     1     -11.668  11.507  70.137  1.00  0.00    -0.395 C  
BRANCH   9  10
HETATM   10  C   UNL     1     -11.025  10.178  69.757  1.00  0.00    -0.325 C  
BRANCH  10  11
HETATM   11  C   UNL     1     -11.577   9.039  70.611  1.00  0.00    -0.265 C  
BRANCH  11  12
HETATM   12  C   UNL     1     -10.826   8.940  71.936  1.00  0.00    -0.433 C  
BRANCH  12  13
HETATM   13  C   UNL     1     -10.418   7.498  72.228  1.00  0.00    -0.275 C  
BRANCH  13  14
HETATM   14  C   UNL     1      -9.502   6.957  71.133  1.00  0.00    -0.166 C  
BRANCH  14  15
HETATM   15  C   UNL     1      -9.565   5.435  71.063  1.00  0.00    -0.224 C  
BRANCH  15  16
HETATM   16  C   UNL     1      -8.303   4.800  71.628  1.00  0.00    -0.110 C  
HETATM   17  O   UNL     1      -8.649   3.701  72.458  1.00  0.00    -0.088 OA 
HETATM   18  H   UNL     1      -7.861   3.305  72.811  1.00  0.00     0.000 HD 
ENDBRANCH  15  16
ENDBRANCH  14  15
ENDBRANCH  13  14
ENDBRANCH  12  13
ENDBRANCH  11  12
ENDBRANCH  10  11
ENDBRANCH   9  10
ENDBRANCH   8   9
ENDBRANCH   7   8
ENDBRANCH   6   7
ENDBRANCH   5   6
ENDBRANCH   4   5
ENDBRANCH   3   4
ENDBRANCH   2   3
TORSDOF 14
ENDMDL
MODEL      336
REMARK 921   NORMALIZED FREE ENERGY PREDICTED BY IDOCK:   -2.41 KCAL/MOL
REMARK 922        TOTAL FREE ENERGY PREDICTED BY IDOCK:   -5.75 KCAL/MOL
REMARK 923 INTER-LIGAND FREE ENERGY PREDICTED BY IDOCK:   -5.00 KCAL/MOL
REMARK 924 INTRA-LIGAND FREE ENERGY PREDICTED BY IDOCK:   -0.76 KCAL/MOL
REMARK 927      BINDING AFFINITY PREDICTED BY RF-SCORE:    0.00 PKD
ROOT
HETATM    1  C   UNL     1      -9.101  19.943  66.406  1.00  0.00    -0.450 C  
HETATM    2  C   UNL     1      -7.615  20.191  66.207  1.00  0.00    -0.298 C  
ENDROOT
BRANCH   2   3
HETATM    3  C   UNL     1      -7.016  20.936  67.398  1.00  0.00    -0.426 C  
BRANCH   3   4
HETATM    4  C   UNL     1      -6.824  20.006  68.594  1.00  0.00    -0.336 C  
BRANCH   4   5
HETATM    5  C   UNL     1      -5.824  18.899  68.271  1.00  0.00    -0.215 C  
BRANCH   5   6
HETATM    6  C   UNL     1      -6.390  17.527  68.624  1.00  0.00    -0.186 C  
BRANCH   6   7
HETATM    7  C   UNL     1      -7.917  17.550  68.616  1.00  0.00    -0.268 C  
BRANCH   7   8
HETATM    8  C   UNL     1      -8.485  16.139  68.737  1.00  0.00    -0.236 C  
BRANCH   8   9
HETATM    9  C   UNL     1      -9.964  16.115  68.362  1.00  0.00    -0.230 C  
BRANCH   9  10
HETATM   10  C   UNL     1     -10.512  14.692  68.402  1.00  0.00    -0.243 C  
BRANCH  10  11
HETATM   11  C   UNL     1     -11.235  14.422  69.718  1.00  0.00    -0.251 C  
BRANCH  11  12
HETATM   12  C   UNL     1     -12.297  13.339  69.544  1.00  0.00    -0.122 C  
BRANCH  12  13
HETATM   13  C   UNL     1     -11.672  11.947  69.588  1.00  0.00    -0.413 C  
BRANCH  13  14
HETATM   14  C   UNL     1     -12.699  10.901  70.016  1.00  0.00    -0.174 C  
BRANCH  14  15
HETATM   15  C   UNL     1     -12.885  10.898  71.530  1.00  0.00    -0.560 C  
BRANCH  15  16
HETATM   16  C   UNL     1     -12.528   9.546  72.130  1.00  0.00    -0.301 C  
HETATM   17  O   UNL     1     -11.955   8.714  71.134  1.00  0.00    -0.290 OA 
HETATM   18  H   UNL     1     -11.732   7.870  71.509  1.00  0.00     0.000 HD 
ENDBRANCH  15  16
ENDBRANCH  14  15
ENDBRANCH  13  14
ENDBRANCH  12  13
ENDBRANCH  11  12
ENDBRANCH  10  11
ENDBRANCH   9  10
ENDBRANCH   8   9
ENDBRANCH   7   8
ENDBRANCH   6   7
ENDBRANCH   5   6
ENDBRANCH   4   5
ENDBRANCH   3   4
ENDBRANCH   2   3
TORSDOF 14
ENDMDL
MODEL      337
REMARK 921   NORMALIZED FREE ENERGY PREDICTED BY IDOCK:   -2.40 KCAL/MOL
REMARK 922        TOTAL FREE ENERGY PREDICTED BY IDOCK:   -5.75 KCAL/MOL
REMARK 923 INTER-LIGAND FREE ENERGY PREDICTED BY IDOCK:   -4.58 KCAL/MOL
REMARK 924 INTRA-LIGAND FREE ENERGY PREDICTED BY IDOCK:   -1.17 KCAL/MOL
REMARK 927      BINDING AFFINITY PREDICTED BY RF-SCORE:    0.00 PKD
ROOT
HETATM    1  C   UNL     1      -5.284   7.674  68.979  1.00  0.00    -0.019 C  
HETATM    2  C   UNL     1      -6.069   8.671  69.815  1.00  0.00    -0.035 C  
ENDROOT
BRANCH   2   3
HETATM    3  C   UNL     1      -7.052   9.461  68.953  1.00  0.00    -0.068 C  
BRANCH   3   4
HETATM    4  C   UNL     1      -8.438   9.508  69.593  1.00  0.00    -0.174 C  
BRANCH   4   5
HETATM    5  C   UNL     1      -9.118   8.143  69.521  1.00  0.00    -0.151 C  
BRANCH   5   6
HETATM    6  C   UNL     1     -10.130   7.974  70.649  1.00  0.00    -0.203 C  
BRANCH   6   7
HETATM    7  C   UNL     1     -10.307   9.280  71.421  1.00  0.00    -0.392 C  
BRANCH   7   8
HETATM    8  C   UNL     1     -11.687   9.881  71.169  1.00  0.00    -0.478 C  
BRANCH   8   9
HETATM    9  C   UNL     1     -11.588  11.112  70.274  1.00  0.00    -0.388 C  
BRANCH   9  10
HETATM   10  C   UNL     1     -12.259  10.861  68.927  1.00  0.00    -0.040 C  
BRANCH  10  11
HETATM   11  C   UNL     1     -11.226  10.804  67.805  1.00  0.00    -0.385 C  
BRANCH  11  12
HETATM   12  C   UNL     1     -11.462  11.920  66.790  1.00  0.00    -0.384 C  
BRANCH  12  13
HETATM   13  C   UNL     1     -10.372  12.984  66.883  1.00  0.00    -0.246 C  
BRANCH  13  14
HETATM   14  C   UNL     1     -10.315  13.819  65.606  1.00  0.00    -0.321 C  
BRANCH  14  15
HETATM   15  C   UNL     1     -11.360  14.930  65.627  1.00  0.00    -0.325 C  
BRANCH  15  16
HETATM   16  C   UNL     1     -11.301  15.772  64.360  1.00  0.00    -0.265 C  
HETATM   17  O   UNL     1     -10.717  17.033  64.648  1.00  0.00    -0.712 OA 
HETATM   18  H   UNL     1     -10.680  17.558  63.857  1.00  0.00     0.000 HD 
ENDBRANCH  15  16
ENDBRANCH  14  15
ENDBRANCH  13  14
ENDBRANCH  12  13
ENDBRANCH  11  12
ENDBRANCH  10  11
ENDBRANCH   9  10
ENDBRANCH   8   9
ENDBRANCH   7   8
ENDBRANCH   6   7
ENDBRANCH   5   6
ENDBRANCH   4   5
ENDBRANCH   3   4
ENDBRANCH   2   3
TORSDOF 14
ENDMDL
MODEL      338
REMARK 921   NORMALIZED FREE ENERGY PREDICTED BY IDOCK:   -2.40 KCAL/MOL
REMARK 922        TOTAL FREE ENERGY PREDICTED BY IDOCK:   -5.75 KCAL/MOL
REMARK 923 INTER-LIGAND FREE ENERGY PREDICTED BY IDOCK:   -4.57 KCAL/MOL
REMARK 924 INTRA-LIGAND FREE ENERGY PREDICTED BY IDOCK:   -1.18 KCAL/MOL
REMARK 927      BINDING AFFINITY PREDICTED BY RF-SCORE:    0.00 PKD
ROOT
HETATM    1  C   UNL     1      -7.306  14.484  67.974  1.00  0.00    -0.143 C  
HETATM    2  C   UNL     1      -7.016  13.046  67.579  1.00  0.00    -0.155 C  
ENDROOT
BRANCH   2   3
HETATM    3  C   UNL     1      -8.073  12.096  68.138  1.00  0.00    -0.161 C  
BRANCH   3   4
HETATM    4  C   UNL     1      -9.219  11.897  67.148  1.00  0.00    -0.183 C  
BRANCH   4   5
HETATM    5  C   UNL     1      -9.651  10.434  67.100  1.00  0.00    -0.192 C  
BRANCH   5   6
HETATM    6  C   UNL     1     -11.096  10.272  67.560  1.00  0.00    -0.302 C  
BRANCH   6   7
HETATM    7  C   UNL     1     -11.652  11.595  68.082  1.00  0.00    -0.389 C  
BRANCH   7   8
HETATM    8  C   UNL     1     -11.849  11.546  69.594  1.00  0.00    -0.421 C  
BRANCH   8   9
HETATM    9  C   UNL     1     -11.963  10.104  70.081  1.00  0.00    -0.262 C  
BRANCH   9  10
HETATM   10  C   UNL     1     -11.214   9.912  71.395  1.00  0.00    -0.279 C  
BRANCH  10  11
HETATM   11  C   UNL     1     -11.914   8.883  72.278  1.00  0.00    -0.380 C  
BRANCH  11  12
HETATM   12  C   UNL     1     -12.694   7.880  71.432  1.00  0.00    -0.312 C  
BRANCH  12  13
HETATM   13  C   UNL     1     -12.016   6.512  71.440  1.00  0.00    -0.371 C  
BRANCH  13  14
HETATM   14  C   UNL     1     -11.234   6.283  70.148  1.00  0.00    -0.470 C  
BRANCH  14  15
HETATM   15  C   UNL     1      -9.916   5.565  70.422  1.00  0.00    -0.279 C  
BRANCH  15  16
HETATM   16  C   UNL     1      -9.306   6.009  71.743  1.00  0.00    -0.148 C  
HETATM   17  O   UNL     1      -8.506   4.966  72.277  1.00  0.00    -0.120 OA 
HETATM   18  H   UNL     1      -8.125   5.242  73.103  1.00  0.00     0.000 HD 
ENDBRANCH  15  16
ENDBRANCH  14  15
ENDBRANCH  13  14
ENDBRANCH  12  13
ENDBRANCH  11  12
ENDBRANCH  10  11
ENDBRANCH   9  10
ENDBRANCH   8   9
ENDBRANCH   7   8
ENDBRANCH   6   7
ENDBRANCH   5   6
ENDBRANCH   4   5
ENDBRANCH   3   4
ENDBRANCH   2   3
TORSDOF 14
ENDMDL
MODEL      339
REMARK 921   NORMALIZED FREE ENERGY PREDICTED BY IDOCK:   -2.40 KCAL/MOL
REMARK 922        TOTAL FREE ENERGY PREDICTED BY IDOCK:   -5.74 KCAL/MOL
REMARK 923 INTER-LIGAND FREE ENERGY PREDICTED BY IDOCK:   -5.14 KCAL/MOL
REMARK 924 INTRA-LIGAND FREE ENERGY PREDICTED BY IDOCK:   -0.61 KCAL/MOL
REMARK 927      BINDING AFFINITY PREDICTED BY RF-SCORE:    0.00 PKD
ROOT
HETATM    1  C   UNL     1     -12.206  16.097  72.667  1.00  0.00    -0.625 C  
HETATM    2  C   UNL     1     -12.808  14.703  72.626  1.00  0.00    -0.499 C  
ENDROOT
BRANCH   2   3
HETATM    3  C   UNL     1     -12.429  13.975  71.338  1.00  0.00    -0.438 C  
BRANCH   3   4
HETATM    4  C   UNL     1     -12.579  14.886  70.122  1.00  0.00    -0.309 C  
BRANCH   4   5
HETATM    5  C   UNL     1     -11.271  14.971  69.339  1.00  0.00    -0.299 C  
BRANCH   5   6
HETATM    6  C   UNL     1     -11.317  14.088  68.096  1.00  0.00    -0.320 C  
BRANCH   6   7
HETATM    7  C   UNL     1     -11.147  12.616  68.468  1.00  0.00    -0.300 C  
BRANCH   7   8
HETATM    8  C   UNL     1     -11.613  11.709  67.332  1.00  0.00    -0.330 C  
BRANCH   8   9
HETATM    9  C   UNL     1     -10.481  10.797  66.866  1.00  0.00    -0.304 C  
BRANCH   9  10
HETATM   10  C   UNL     1      -9.724  10.219  68.057  1.00  0.00    -0.167 C  
BRANCH  10  11
HETATM   11  C   UNL     1     -10.615   9.281  68.868  1.00  0.00    -0.222 C  
BRANCH  11  12
HETATM   12  C   UNL     1      -9.940   7.928  69.070  1.00  0.00    -0.188 C  
BRANCH  12  13
HETATM   13  C   UNL     1      -9.438   7.362  67.744  1.00  0.00    -0.154 C  
BRANCH  13  14
HETATM   14  C   UNL     1     -10.605   6.938  66.855  1.00  0.00    -0.372 C  
BRANCH  14  15
HETATM   15  C   UNL     1     -10.660   5.420  66.706  1.00  0.00    -0.339 C  
BRANCH  15  16
HETATM   16  C   UNL     1      -9.265   4.819  66.626  1.00  0.00    -0.128 C  
HETATM   17  O   UNL     1      -9.263   3.730  65.716  1.00  0.00    -0.142 OA 
HETATM   18  H   UNL     1      -8.392   3.354  65.666  1.00  0.00     0.000 HD 
ENDBRANCH  15  16
ENDBRANCH  14  15
ENDBRANCH  13  14
ENDBRANCH  12  13
ENDBRANCH  11  12
ENDBRANCH  10  11
ENDBRANCH   9  10
ENDBRANCH   8   9
ENDBRANCH   7   8
ENDBRANCH   6   7
ENDBRANCH   5   6
ENDBRANCH   4   5
ENDBRANCH   3   4
ENDBRANCH   2   3
TORSDOF 14
ENDMDL
MODEL      340
REMARK 921   NORMALIZED FREE ENERGY PREDICTED BY IDOCK:   -2.39 KCAL/MOL
REMARK 922        TOTAL FREE ENERGY PREDICTED BY IDOCK:   -5.73 KCAL/MOL
REMARK 923 INTER-LIGAND FREE ENERGY PREDICTED BY IDOCK:   -3.66 KCAL/MOL
REMARK 924 INTRA-LIGAND FREE ENERGY PREDICTED BY IDOCK:   -2.08 KCAL/MOL
REMARK 927      BINDING AFFINITY PREDICTED BY RF-SCORE:    0.00 PKD
ROOT
HETATM    1  C   UNL     1     -10.545  15.455  68.416  1.00  0.00    -0.247 C  
HETATM    2  C   UNL     1     -11.850  14.908  67.862  1.00  0.00    -0.286 C  
ENDROOT
BRANCH   2   3
HETATM    3  C   UNL     1     -11.596  13.806  66.836  1.00  0.00    -0.394 C  
BRANCH   3   4
HETATM    4  C   UNL     1     -10.656  14.283  65.731  1.00  0.00    -0.315 C  
BRANCH   4   5
HETATM    5  C   UNL     1     -10.057  13.100  64.975  1.00  0.00    -0.240 C  
BRANCH   5   6
HETATM    6  C   UNL     1     -11.002  11.903  64.991  1.00  0.00    -0.365 C  
BRANCH   6   7
HETATM    7  C   UNL     1     -10.227  10.596  64.838  1.00  0.00    -0.395 C  
BRANCH   7   8
HETATM    8  C   UNL     1      -9.046  10.769  63.888  1.00  0.00    -0.207 C  
BRANCH   8   9
HETATM    9  C   UNL     1      -7.887   9.861  64.291  1.00  0.00    -0.139 C  
BRANCH   9  10
HETATM   10  C   UNL     1      -6.817  10.646  65.043  1.00  0.00     0.098 C  
BRANCH  10  11
HETATM   11  C   UNL     1      -6.660  10.128  66.470  1.00  0.00    -0.077 C  
BRANCH  11  12
HETATM   12  C   UNL     1      -7.436  10.997  67.455  1.00  0.00    -0.106 C  
BRANCH  12  13
HETATM   13  C   UNL     1      -8.599  10.224  68.071  1.00  0.00    -0.118 C  
BRANCH  13  14
HETATM   14  C   UNL     1      -9.597  11.172  68.731  1.00  0.00    -0.180 C  
BRANCH  14  15
HETATM   15  C   UNL     1     -11.015  10.612  68.667  1.00  0.00    -0.291 C  
BRANCH  15  16
HETATM   16  C   UNL     1     -11.420   9.973  69.987  1.00  0.00    -0.248 C  
HETATM   17  O   UNL     1     -10.594  10.464  71.031  1.00  0.00    -0.148 OA 
HETATM   18  H   UNL     1     -10.846  10.065  71.856  1.00  0.00     0.000 HD 
ENDBRANCH  15  16
ENDBRANCH  14  15
ENDBRANCH  13  14
ENDBRANCH  12  13
ENDBRANCH  11  12
ENDBRANCH  10  11
ENDBRANCH   9  10
ENDBRANCH   8   9
ENDBRANCH   7   8
ENDBRANCH   6   7
ENDBRANCH   5   6
ENDBRANCH   4   5
ENDBRANCH   3   4
ENDBRANCH   2   3
TORSDOF 14
ENDMDL
MODEL      341
REMARK 921   NORMALIZED FREE ENERGY PREDICTED BY IDOCK:   -2.39 KCAL/MOL
REMARK 922        TOTAL FREE ENERGY PREDICTED BY IDOCK:   -5.73 KCAL/MOL
REMARK 923 INTER-LIGAND FREE ENERGY PREDICTED BY IDOCK:   -4.38 KCAL/MOL
REMARK 924 INTRA-LIGAND FREE ENERGY PREDICTED BY IDOCK:   -1.36 KCAL/MOL
REMARK 927      BINDING AFFINITY PREDICTED BY RF-SCORE:    0.00 PKD
ROOT
HETATM    1  C   UNL     1      -7.116   9.893  62.641  1.00  0.00    -0.119 C  
HETATM    2  C   UNL     1      -8.485   9.239  62.728  1.00  0.00    -0.211 C  
ENDROOT
BRANCH   2   3
HETATM    3  C   UNL     1      -9.133   9.494  64.087  1.00  0.00    -0.203 C  
BRANCH   3   4
HETATM    4  C   UNL     1      -8.113  10.008  65.101  1.00  0.00    -0.144 C  
BRANCH   4   5
HETATM    5  C   UNL     1      -8.268   9.294  66.441  1.00  0.00    -0.111 C  
BRANCH   5   6
HETATM    6  C   UNL     1      -8.225  10.286  67.599  1.00  0.00    -0.114 C  
BRANCH   6   7
HETATM    7  C   UNL     1      -9.349  11.313  67.477  1.00  0.00    -0.166 C  
BRANCH   7   8
HETATM    8  C   UNL     1      -9.275  12.339  68.605  1.00  0.00    -0.005 C  
BRANCH   8   9
HETATM    9  C   UNL     1      -8.432  13.542  68.190  1.00  0.00    -0.172 C  
BRANCH   9  10
HETATM   10  C   UNL     1      -9.244  14.503  67.328  1.00  0.00    -0.213 C  
BRANCH  10  11
HETATM   11  C   UNL     1     -10.312  15.212  68.157  1.00  0.00    -0.239 C  
BRANCH  11  12
HETATM   12  C   UNL     1     -11.658  15.197  67.438  1.00  0.00    -0.251 C  
BRANCH  12  13
HETATM   13  C   UNL     1     -11.541  14.533  66.068  1.00  0.00    -0.356 C  
BRANCH  13  14
HETATM   14  C   UNL     1     -12.647  13.500  65.865  1.00  0.00    -0.454 C  
BRANCH  14  15
HETATM   15  C   UNL     1     -12.194  12.385  64.928  1.00  0.00    -0.485 C  
BRANCH  15  16
HETATM   16  C   UNL     1     -12.662  12.633  63.502  1.00  0.00    -0.183 C  
HETATM   17  O   UNL     1     -12.558  11.436  62.747  1.00  0.00    -0.952 OA 
HETATM   18  H   UNL     1     -12.850  11.591  61.856  1.00  0.00     0.000 HD 
ENDBRANCH  15  16
ENDBRANCH  14  15
ENDBRANCH  13  14
ENDBRANCH  12  13
ENDBRANCH  11  12
ENDBRANCH  10  11
ENDBRANCH   9  10
ENDBRANCH   8   9
ENDBRANCH   7   8
ENDBRANCH   6   7
ENDBRANCH   5   6
ENDBRANCH   4   5
ENDBRANCH   3   4
ENDBRANCH   2   3
TORSDOF 14
ENDMDL
MODEL      342
REMARK 921   NORMALIZED FREE ENERGY PREDICTED BY IDOCK:   -2.39 KCAL/MOL
REMARK 922        TOTAL FREE ENERGY PREDICTED BY IDOCK:   -5.73 KCAL/MOL
REMARK 923 INTER-LIGAND FREE ENERGY PREDICTED BY IDOCK:   -4.41 KCAL/MOL
REMARK 924 INTRA-LIGAND FREE ENERGY PREDICTED BY IDOCK:   -1.32 KCAL/MOL
REMARK 927      BINDING AFFINITY PREDICTED BY RF-SCORE:    0.00 PKD
ROOT
HETATM    1  C   UNL     1     -12.114   9.306  71.977  1.00  0.00    -0.406 C  
HETATM    2  C   UNL     1     -11.472  10.283  71.007  1.00  0.00    -0.386 C  
ENDROOT
BRANCH   2   3
HETATM    3  C   UNL     1     -12.512  10.900  70.075  1.00  0.00    -0.332 C  
BRANCH   3   4
HETATM    4  C   UNL     1     -11.897  11.274  68.728  1.00  0.00    -0.396 C  
BRANCH   4   5
HETATM    5  C   UNL     1     -10.824  12.347  68.896  1.00  0.00    -0.239 C  
BRANCH   5   6
HETATM    6  C   UNL     1      -9.543  11.962  68.165  1.00  0.00    -0.195 C  
BRANCH   6   7
HETATM    7  C   UNL     1      -9.858  11.311  66.820  1.00  0.00    -0.227 C  
BRANCH   7   8
HETATM    8  C   UNL     1      -8.604  10.695  66.205  1.00  0.00    -0.156 C  
BRANCH   8   9
HETATM    9  C   UNL     1      -8.468   9.228  66.604  1.00  0.00    -0.130 C  
BRANCH   9  10
HETATM   10  C   UNL     1      -9.833   8.549  66.651  1.00  0.00    -0.342 C  
BRANCH  10  11
HETATM   11  C   UNL     1      -9.998   7.742  67.936  1.00  0.00    -0.212 C  
BRANCH  11  12
HETATM   12  C   UNL     1     -10.063   6.247  67.635  1.00  0.00    -0.179 C  
BRANCH  12  13
HETATM   13  C   UNL     1     -10.718   5.485  68.785  1.00  0.00    -0.195 C  
BRANCH  13  14
HETATM   14  C   UNL     1     -11.086   6.430  69.926  1.00  0.00    -0.444 C  
BRANCH  14  15
HETATM   15  C   UNL     1     -10.246   6.147  71.168  1.00  0.00    -0.245 C  
BRANCH  15  16
HETATM   16  C   UNL     1      -9.289   7.292  71.463  1.00  0.00    -0.148 C  
HETATM   17  O   UNL     1      -9.528   7.795  72.769  1.00  0.00    -0.173 OA 
HETATM   18  H   UNL     1      -8.930   8.509  72.953  1.00  0.00     0.000 HD 
ENDBRANCH  15  16
ENDBRANCH  14  15
ENDBRANCH  13  14
ENDBRANCH  12  13
ENDBRANCH  11  12
ENDBRANCH  10  11
ENDBRANCH   9  10
ENDBRANCH   8   9
ENDBRANCH   7   8
ENDBRANCH   6   7
ENDBRANCH   5   6
ENDBRANCH   4   5
ENDBRANCH   3   4
ENDBRANCH   2   3
TORSDOF 14
ENDMDL
MODEL      343
REMARK 921   NORMALIZED FREE ENERGY PREDICTED BY IDOCK:   -2.39 KCAL/MOL
REMARK 922        TOTAL FREE ENERGY PREDICTED BY IDOCK:   -5.72 KCAL/MOL
REMARK 923 INTER-LIGAND FREE ENERGY PREDICTED BY IDOCK:   -4.84 KCAL/MOL
REMARK 924 INTRA-LIGAND FREE ENERGY PREDICTED BY IDOCK:   -0.88 KCAL/MOL
REMARK 927      BINDING AFFINITY PREDICTED BY RF-SCORE:    0.00 PKD
ROOT
HETATM    1  C   UNL     1     -11.164  15.683  69.862  1.00  0.00    -0.335 C  
HETATM    2  C   UNL     1     -11.767  14.380  69.364  1.00  0.00    -0.362 C  
ENDROOT
BRANCH   2   3
HETATM    3  C   UNL     1     -12.145  14.475  67.888  1.00  0.00    -0.261 C  
BRANCH   3   4
HETATM    4  C   UNL     1     -11.033  13.931  66.994  1.00  0.00    -0.301 C  
BRANCH   4   5
HETATM    5  C   UNL     1     -10.856  12.428  67.196  1.00  0.00    -0.280 C  
BRANCH   5   6
HETATM    6  C   UNL     1      -9.407  12.086  67.529  1.00  0.00    -0.179 C  
BRANCH   6   7
HETATM    7  C   UNL     1      -8.982  10.791  66.842  1.00  0.00    -0.147 C  
BRANCH   7   8
HETATM    8  C   UNL     1     -10.178   9.866  66.633  1.00  0.00    -0.293 C  
BRANCH   8   9
HETATM    9  C   UNL     1      -9.718   8.448  66.307  1.00  0.00    -0.278 C  
BRANCH   9  10
HETATM   10  C   UNL     1     -10.136   7.475  67.404  1.00  0.00    -0.282 C  
BRANCH  10  11
HETATM   11  C   UNL     1      -8.957   7.135  68.312  1.00  0.00    -0.125 C  
BRANCH  11  12
HETATM   12  C   UNL     1      -9.272   7.480  69.765  1.00  0.00    -0.147 C  
BRANCH  12  13
HETATM   13  C   UNL     1      -9.638   6.228  70.558  1.00  0.00    -0.183 C  
BRANCH  13  14
HETATM   14  C   UNL     1     -11.138   5.951  70.478  1.00  0.00    -0.347 C  
BRANCH  14  15
HETATM   15  C   UNL     1     -11.860   6.467  71.719  1.00  0.00    -0.384 C  
BRANCH  15  16
HETATM   16  C   UNL     1     -12.668   7.719  71.410  1.00  0.00    -0.308 C  
HETATM   17  O   UNL     1     -13.969   7.356  70.974  1.00  0.00    -0.631 OA 
HETATM   18  H   UNL     1     -14.473   8.138  70.781  1.00  0.00     0.000 HD 
ENDBRANCH  15  16
ENDBRANCH  14  15
ENDBRANCH  13  14
ENDBRANCH  12  13
ENDBRANCH  11  12
ENDBRANCH  10  11
ENDBRANCH   9  10
ENDBRANCH   8   9
ENDBRANCH   7   8
ENDBRANCH   6   7
ENDBRANCH   5   6
ENDBRANCH   4   5
ENDBRANCH   3   4
ENDBRANCH   2   3
TORSDOF 14
ENDMDL
MODEL      344
REMARK 921   NORMALIZED FREE ENERGY PREDICTED BY IDOCK:   -2.38 KCAL/MOL
REMARK 922        TOTAL FREE ENERGY PREDICTED BY IDOCK:   -5.72 KCAL/MOL
REMARK 923 INTER-LIGAND FREE ENERGY PREDICTED BY IDOCK:   -4.48 KCAL/MOL
REMARK 924 INTRA-LIGAND FREE ENERGY PREDICTED BY IDOCK:   -1.23 KCAL/MOL
REMARK 927      BINDING AFFINITY PREDICTED BY RF-SCORE:    0.00 PKD
ROOT
HETATM    1  C   UNL     1      -7.258  14.588  68.623  1.00  0.00    -0.124 C  
HETATM    2  C   UNL     1      -6.978  13.135  68.963  1.00  0.00    -0.063 C  
ENDROOT
BRANCH   2   3
HETATM    3  C   UNL     1      -7.016  12.258  67.713  1.00  0.00    -0.115 C  
BRANCH   3   4
HETATM    4  C   UNL     1      -8.324  11.475  67.624  1.00  0.00    -0.135 C  
BRANCH   4   5
HETATM    5  C   UNL     1      -8.826  11.415  66.184  1.00  0.00    -0.186 C  
BRANCH   5   6
HETATM    6  C   UNL     1     -10.350  11.354  66.136  1.00  0.00    -0.294 C  
BRANCH   6   7
HETATM    7  C   UNL     1     -10.955  12.747  66.301  1.00  0.00    -0.307 C  
BRANCH   7   8
HETATM    8  C   UNL     1     -10.252  13.758  65.400  1.00  0.00    -0.344 C  
BRANCH   8   9
HETATM    9  C   UNL     1      -9.748  14.949  66.209  1.00  0.00    -0.320 C  
BRANCH   9  10
HETATM   10  C   UNL     1     -10.660  16.157  66.025  1.00  0.00    -0.303 C  
BRANCH  10  11
HETATM   11  C   UNL     1      -9.861  17.385  65.595  1.00  0.00     0.109 C  
BRANCH  11  12
HETATM   12  C   UNL     1      -8.428  17.312  66.116  1.00  0.00    -0.216 C  
BRANCH  12  13
HETATM   13  C   UNL     1      -7.979  18.659  66.677  1.00  0.00    -0.280 C  
BRANCH  13  14
HETATM   14  C   UNL     1      -8.945  19.769  66.268  1.00  0.00    -0.431 C  
BRANCH  14  15
HETATM   15  C   UNL     1      -9.511  20.485  67.492  1.00  0.00    -0.520 C  
BRANCH  15  16
HETATM   16  C   UNL     1     -10.385  19.557  68.322  1.00  0.00    -0.411 C  
HETATM   17  O   UNL     1     -10.634  20.141  69.592  1.00  0.00    -0.544 OA 
HETATM   18  H   UNL     1     -11.180  19.562  70.111  1.00  0.00     0.000 HD 
ENDBRANCH  15  16
ENDBRANCH  14  15
ENDBRANCH  13  14
ENDBRANCH  12  13
ENDBRANCH  11  12
ENDBRANCH  10  11
ENDBRANCH   9  10
ENDBRANCH   8   9
ENDBRANCH   7   8
ENDBRANCH   6   7
ENDBRANCH   5   6
ENDBRANCH   4   5
ENDBRANCH   3   4
ENDBRANCH   2   3
TORSDOF 14
ENDMDL
MODEL      345
REMARK 921   NORMALIZED FREE ENERGY PREDICTED BY IDOCK:   -2.38 KCAL/MOL
REMARK 922        TOTAL FREE ENERGY PREDICTED BY IDOCK:   -5.71 KCAL/MOL
REMARK 923 INTER-LIGAND FREE ENERGY PREDICTED BY IDOCK:   -3.65 KCAL/MOL
REMARK 924 INTRA-LIGAND FREE ENERGY PREDICTED BY IDOCK:   -2.06 KCAL/MOL
REMARK 927      BINDING AFFINITY PREDICTED BY RF-SCORE:    0.00 PKD
ROOT
HETATM    1  C   UNL     1     -11.174   9.929  70.599  1.00  0.00    -0.416 C  
HETATM    2  C   UNL     1     -10.898   9.003  69.427  1.00  0.00    -0.152 C  
ENDROOT
BRANCH   2   3
HETATM    3  C   UNL     1     -10.810   7.548  69.881  1.00  0.00    -0.250 C  
BRANCH   3   4
HETATM    4  C   UNL     1      -9.358   7.088  69.991  1.00  0.00    -0.158 C  
BRANCH   4   5
HETATM    5  C   UNL     1      -9.003   6.740  71.434  1.00  0.00    -0.142 C  
BRANCH   5   6
HETATM    6  C   UNL     1      -7.645   7.318  71.820  1.00  0.00    -0.086 C  
BRANCH   6   7
HETATM    7  C   UNL     1      -7.587   8.814  71.523  1.00  0.00    -0.130 C  
BRANCH   7   8
HETATM    8  C   UNL     1      -6.265   9.187  70.858  1.00  0.00    -0.062 C  
BRANCH   8   9
HETATM    9  C   UNL     1      -6.481   9.571  69.397  1.00  0.00    -0.044 C  
BRANCH   9  10
HETATM   10  C   UNL     1      -7.677  10.506  69.252  1.00  0.00    -0.144 C  
BRANCH  10  11
HETATM   11  C   UNL     1      -8.056  10.686  67.784  1.00  0.00    -0.111 C  
BRANCH  11  12
HETATM   12  C   UNL     1      -7.894  12.141  67.354  1.00  0.00    -0.168 C  
BRANCH  12  13
HETATM   13  C   UNL     1      -9.234  12.740  66.933  1.00  0.00    -0.229 C  
BRANCH  13  14
HETATM   14  C   UNL     1     -10.307  11.658  66.830  1.00  0.00    -0.257 C  
BRANCH  14  15
HETATM   15  C   UNL     1     -11.636  12.145  67.400  1.00  0.00    -0.410 C  
BRANCH  15  16
HETATM   16  C   UNL     1     -11.423  13.107  68.560  1.00  0.00    -0.303 C  
HETATM   17  O   UNL     1     -12.288  14.224  68.422  1.00  0.00    -0.584 OA 
HETATM   18  H   UNL     1     -12.155  14.824  69.146  1.00  0.00     0.000 HD 
ENDBRANCH  15  16
ENDBRANCH  14  15
ENDBRANCH  13  14
ENDBRANCH  12  13
ENDBRANCH  11  12
ENDBRANCH  10  11
ENDBRANCH   9  10
ENDBRANCH   8   9
ENDBRANCH   7   8
ENDBRANCH   6   7
ENDBRANCH   5   6
ENDBRANCH   4   5
ENDBRANCH   3   4
ENDBRANCH   2   3
TORSDOF 14
ENDMDL
MODEL      346
REMARK 921   NORMALIZED FREE ENERGY PREDICTED BY IDOCK:   -2.37 KCAL/MOL
REMARK 922        TOTAL FREE ENERGY PREDICTED BY IDOCK:   -5.70 KCAL/MOL
REMARK 923 INTER-LIGAND FREE ENERGY PREDICTED BY IDOCK:   -4.00 KCAL/MOL
REMARK 924 INTRA-LIGAND FREE ENERGY PREDICTED BY IDOCK:   -1.69 KCAL/MOL
REMARK 927      BINDING AFFINITY PREDICTED BY RF-SCORE:    0.00 PKD
ROOT
HETATM    1  C   UNL     1     -11.406  10.385  70.515  1.00  0.00    -0.424 C  
HETATM    2  C   UNL     1     -11.101  10.271  69.031  1.00  0.00    -0.277 C  
ENDROOT
BRANCH   2   3
HETATM    3  C   UNL     1     -10.700   8.846  68.657  1.00  0.00    -0.118 C  
BRANCH   3   4
HETATM    4  C   UNL     1      -9.264   8.791  68.142  1.00  0.00    -0.145 C  
BRANCH   4   5
HETATM    5  C   UNL     1      -8.434   7.791  68.943  1.00  0.00    -0.129 C  
BRANCH   5   6
HETATM    6  C   UNL     1      -6.957   8.173  68.936  1.00  0.00    -0.062 C  
BRANCH   6   7
HETATM    7  C   UNL     1      -6.743   9.529  69.605  1.00  0.00    -0.054 C  
BRANCH   7   8
HETATM    8  C   UNL     1      -5.589  10.284  68.951  1.00  0.00    -0.041 C  
BRANCH   8   9
HETATM    9  C   UNL     1      -6.111  11.332  67.972  1.00  0.00    -0.049 C  
BRANCH   9  10
HETATM   10  C   UNL     1      -7.329  12.051  68.543  1.00  0.00    -0.111 C  
BRANCH  10  11
HETATM   11  C   UNL     1      -8.410  12.223  67.480  1.00  0.00    -0.170 C  
BRANCH  11  12
HETATM   12  C   UNL     1      -8.977  13.640  67.504  1.00  0.00    -0.209 C  
BRANCH  12  13
HETATM   13  C   UNL     1      -9.772  13.933  66.234  1.00  0.00    -0.304 C  
BRANCH  13  14
HETATM   14  C   UNL     1     -10.233  12.639  65.567  1.00  0.00    -0.298 C  
BRANCH  14  15
HETATM   15  C   UNL     1     -11.693  12.342  65.891  1.00  0.00    -0.476 C  
BRANCH  15  16
HETATM   16  C   UNL     1     -12.477  13.621  66.147  1.00  0.00    -0.395 C  
HETATM   17  O   UNL     1     -13.153  14.015  64.963  1.00  0.00    -0.742 OA 
HETATM   18  H   UNL     1     -13.642  14.814  65.122  1.00  0.00     0.000 HD 
ENDBRANCH  15  16
ENDBRANCH  14  15
ENDBRANCH  13  14
ENDBRANCH  12  13
ENDBRANCH  11  12
ENDBRANCH  10  11
ENDBRANCH   9  10
ENDBRANCH   8   9
ENDBRANCH   7   8
ENDBRANCH   6   7
ENDBRANCH   5   6
ENDBRANCH   4   5
ENDBRANCH   3   4
ENDBRANCH   2   3
TORSDOF 14
ENDMDL
MODEL      347
REMARK 921   NORMALIZED FREE ENERGY PREDICTED BY IDOCK:   -2.37 KCAL/MOL
REMARK 922        TOTAL FREE ENERGY PREDICTED BY IDOCK:   -5.69 KCAL/MOL
REMARK 923 INTER-LIGAND FREE ENERGY PREDICTED BY IDOCK:   -4.53 KCAL/MOL
REMARK 924 INTRA-LIGAND FREE ENERGY PREDICTED BY IDOCK:   -1.16 KCAL/MOL
REMARK 927      BINDING AFFINITY PREDICTED BY RF-SCORE:    0.00 PKD
ROOT
HETATM    1  C   UNL     1      -8.115   3.381  66.077  1.00  0.00    -0.093 C  
HETATM    2  C   UNL     1      -8.165   4.847  66.472  1.00  0.00    -0.107 C  
ENDROOT
BRANCH   2   3
HETATM    3  C   UNL     1      -9.586   5.397  66.377  1.00  0.00    -0.172 C  
BRANCH   3   4
HETATM    4  C   UNL     1     -10.290   5.352  67.731  1.00  0.00    -0.226 C  
BRANCH   4   5
HETATM    5  C   UNL     1     -10.821   6.730  68.117  1.00  0.00    -0.296 C  
BRANCH   5   6
HETATM    6  C   UNL     1     -10.651   7.724  66.973  1.00  0.00    -0.396 C  
BRANCH   6   7
HETATM    7  C   UNL     1     -10.046   9.033  67.474  1.00  0.00    -0.285 C  
BRANCH   7   8
HETATM    8  C   UNL     1     -10.552   9.368  68.874  1.00  0.00    -0.231 C  
BRANCH   8   9
HETATM    9  C   UNL     1     -10.469  10.868  69.138  1.00  0.00    -0.248 C  
BRANCH   9  10
HETATM   10  C   UNL     1     -11.750  11.378  69.790  1.00  0.00    -0.418 C  
BRANCH  10  11
HETATM   11  C   UNL     1     -11.841  12.899  69.703  1.00  0.00    -0.387 C  
BRANCH  11  12
HETATM   12  C   UNL     1     -11.871  13.360  68.248  1.00  0.00    -0.393 C  
BRANCH  12  13
HETATM   13  C   UNL     1     -11.045  14.629  68.059  1.00  0.00    -0.291 C  
BRANCH  13  14
HETATM   14  C   UNL     1      -9.857  14.374  67.134  1.00  0.00    -0.254 C  
BRANCH  14  15
HETATM   15  C   UNL     1      -8.598  14.049  67.932  1.00  0.00    -0.181 C  
BRANCH  15  16
HETATM   16  C   UNL     1      -7.864  12.852  67.347  1.00  0.00    -0.170 C  
HETATM   17  O   UNL     1      -8.656  12.250  66.335  1.00  0.00    -0.382 OA 
HETATM   18  H   UNL     1      -8.198  11.502  65.970  1.00  0.00     0.000 HD 
ENDBRANCH  15  16
ENDBRANCH  14  15
ENDBRANCH  13  14
ENDBRANCH  12  13
ENDBRANCH  11  12
ENDBRANCH  10  11
ENDBRANCH   9  10
ENDBRANCH   8   9
ENDBRANCH   7   8
ENDBRANCH   6   7
ENDBRANCH   5   6
ENDBRANCH   4   5
ENDBRANCH   3   4
ENDBRANCH   2   3
TORSDOF 14
ENDMDL
MODEL      348
REMARK 921   NORMALIZED FREE ENERGY PREDICTED BY IDOCK:   -2.36 KCAL/MOL
REMARK 922        TOTAL FREE ENERGY PREDICTED BY IDOCK:   -5.68 KCAL/MOL
REMARK 923 INTER-LIGAND FREE ENERGY PREDICTED BY IDOCK:   -4.35 KCAL/MOL
REMARK 924 INTRA-LIGAND FREE ENERGY PREDICTED BY IDOCK:   -1.32 KCAL/MOL
REMARK 927      BINDING AFFINITY PREDICTED BY RF-SCORE:    0.00 PKD
ROOT
HETATM    1  C   UNL     1     -10.531  13.339  64.569  1.00  0.00    -0.434 C  
HETATM    2  C   UNL     1     -11.995  13.746  64.557  1.00  0.00    -0.458 C  
ENDROOT
BRANCH   2   3
HETATM    3  C   UNL     1     -12.468  14.146  65.953  1.00  0.00    -0.479 C  
BRANCH   3   4
HETATM    4  C   UNL     1     -11.463  15.071  66.636  1.00  0.00    -0.251 C  
BRANCH   4   5
HETATM    5  C   UNL     1     -11.414  14.808  68.139  1.00  0.00    -0.343 C  
BRANCH   5   6
HETATM    6  C   UNL     1     -10.024  15.093  68.700  1.00  0.00    -0.220 C  
BRANCH   6   7
HETATM    7  C   UNL     1      -9.039  13.999  68.296  1.00  0.00    -0.191 C  
BRANCH   7   8
HETATM    8  C   UNL     1      -9.470  12.644  68.850  1.00  0.00     0.254 C  
BRANCH   8   9
HETATM    9  C   UNL     1      -9.461  11.581  67.755  1.00  0.00    -0.168 C  
BRANCH   9  10
HETATM   10  C   UNL     1     -10.875  11.086  67.467  1.00  0.00    -0.314 C  
BRANCH  10  11
HETATM   11  C   UNL     1     -11.014   9.603  67.802  1.00  0.00    -0.203 C  
BRANCH  11  12
HETATM   12  C   UNL     1     -10.444   9.301  69.185  1.00  0.00    -0.231 C  
BRANCH  12  13
HETATM   13  C   UNL     1     -10.718   7.854  69.586  1.00  0.00    -0.218 C  
BRANCH  13  14
HETATM   14  C   UNL     1     -10.461   7.643  71.076  1.00  0.00    -0.218 C  
BRANCH  14  15
HETATM   15  C   UNL     1     -10.206   6.171  71.388  1.00  0.00    -0.248 C  
BRANCH  15  16
HETATM   16  C   UNL     1     -11.337   5.574  72.212  1.00  0.00    -0.194 C  
HETATM   17  O   UNL     1     -11.097   5.799  73.593  1.00  0.00    -0.436 OA 
HETATM   18  H   UNL     1     -11.803   5.426  74.107  1.00  0.00     0.000 HD 
ENDBRANCH  15  16
ENDBRANCH  14  15
ENDBRANCH  13  14
ENDBRANCH  12  13
ENDBRANCH  11  12
ENDBRANCH  10  11
ENDBRANCH   9  10
ENDBRANCH   8   9
ENDBRANCH   7   8
ENDBRANCH   6   7
ENDBRANCH   5   6
ENDBRANCH   4   5
ENDBRANCH   3   4
ENDBRANCH   2   3
TORSDOF 14
ENDMDL
MODEL      349
REMARK 921   NORMALIZED FREE ENERGY PREDICTED BY IDOCK:   -2.36 KCAL/MOL
REMARK 922        TOTAL FREE ENERGY PREDICTED BY IDOCK:   -5.67 KCAL/MOL
REMARK 923 INTER-LIGAND FREE ENERGY PREDICTED BY IDOCK:   -4.91 KCAL/MOL
REMARK 924 INTRA-LIGAND FREE ENERGY PREDICTED BY IDOCK:   -0.76 KCAL/MOL
REMARK 927      BINDING AFFINITY PREDICTED BY RF-SCORE:    0.00 PKD
ROOT
HETATM    1  C   UNL     1     -12.250  14.140  64.561  1.00  0.00    -0.468 C  
HETATM    2  C   UNL     1     -11.643  13.078  65.461  1.00  0.00    -0.382 C  
ENDROOT
BRANCH   2   3
HETATM    3  C   UNL     1     -10.953  13.706  66.669  1.00  0.00    -0.295 C  
BRANCH   3   4
HETATM    4  C   UNL     1     -11.971  14.261  67.663  1.00  0.00    -0.400 C  
BRANCH   4   5
HETATM    5  C   UNL     1     -11.533  13.992  69.101  1.00  0.00    -0.340 C  
BRANCH   5   6
HETATM    6  C   UNL     1     -11.014  12.567  69.259  1.00  0.00    -0.138 C  
BRANCH   6   7
HETATM    7  C   UNL     1     -12.145  11.554  69.092  1.00  0.00    -0.329 C  
BRANCH   7   8
HETATM    8  C   UNL     1     -12.626  11.045  70.448  1.00  0.00    -0.349 C  
BRANCH   8   9
HETATM    9  C   UNL     1     -11.563  10.172  71.109  1.00  0.00    -0.430 C  
BRANCH   9  10
HETATM   10  C   UNL     1     -12.144   8.821  71.514  1.00  0.00    -0.388 C  
BRANCH  10  11
HETATM   11  C   UNL     1     -11.186   8.066  72.431  1.00  0.00    -0.432 C  
BRANCH  11  12
HETATM   12  C   UNL     1      -9.737   8.436  72.127  1.00  0.00    -0.370 C  
BRANCH  12  13
HETATM   13  C   UNL     1      -8.881   7.186  71.939  1.00  0.00    -0.131 C  
BRANCH  13  14
HETATM   14  C   UNL     1      -7.403   7.549  71.815  1.00  0.00    -0.071 C  
BRANCH  14  15
HETATM   15  C   UNL     1      -7.128   8.301  70.517  1.00  0.00    -0.037 C  
BRANCH  15  16
HETATM   16  C   UNL     1      -5.935   9.235  70.658  1.00  0.00    -0.052 C  
HETATM   17  O   UNL     1      -6.382  10.580  70.715  1.00  0.00    -0.298 OA 
HETATM   18  H   UNL     1      -5.638  11.164  70.803  1.00  0.00     0.000 HD 
ENDBRANCH  15  16
ENDBRANCH  14  15
ENDBRANCH  13  14
ENDBRANCH  12  13
ENDBRANCH  11  12
ENDBRANCH  10  11
ENDBRANCH   9  10
ENDBRANCH   8   9
ENDBRANCH   7   8
ENDBRANCH   6   7
ENDBRANCH   5   6
ENDBRANCH   4   5
ENDBRANCH   3   4
ENDBRANCH   2   3
TORSDOF 14
ENDMDL
MODEL      350
REMARK 921   NORMALIZED FREE ENERGY PREDICTED BY IDOCK:   -2.35 KCAL/MOL
REMARK 922        TOTAL FREE ENERGY PREDICTED BY IDOCK:   -5.66 KCAL/MOL
REMARK 923 INTER-LIGAND FREE ENERGY PREDICTED BY IDOCK:   -4.34 KCAL/MOL
REMARK 924 INTRA-LIGAND FREE ENERGY PREDICTED BY IDOCK:   -1.32 KCAL/MOL
REMARK 927      BINDING AFFINITY PREDICTED BY RF-SCORE:    0.00 PKD
ROOT
HETATM    1  C   UNL     1     -11.915  11.555  69.338  1.00  0.00    -0.392 C  
HETATM    2  C   UNL     1     -12.404  11.129  70.711  1.00  0.00    -0.504 C  
ENDROOT
BRANCH   2   3
HETATM    3  C   UNL     1     -11.563   9.982  71.267  1.00  0.00    -0.430 C  
BRANCH   3   4
HETATM    4  C   UNL     1     -12.411   8.735  71.503  1.00  0.00    -0.374 C  
BRANCH   4   5
HETATM    5  C   UNL     1     -11.677   7.736  72.393  1.00  0.00    -0.394 C  
BRANCH   5   6
HETATM    6  C   UNL     1     -11.811   6.316  71.852  1.00  0.00    -0.359 C  
BRANCH   6   7
HETATM    7  C   UNL     1     -10.462   5.787  71.372  1.00  0.00    -0.296 C  
BRANCH   7   8
HETATM    8  C   UNL     1     -10.475   5.546  69.865  1.00  0.00    -0.386 C  
BRANCH   8   9
HETATM    9  C   UNL     1      -9.601   6.567  69.144  1.00  0.00    -0.137 C  
BRANCH   9  10
HETATM   10  C   UNL     1     -10.423   7.776  68.709  1.00  0.00    -0.201 C  
BRANCH  10  11
HETATM   11  C   UNL     1      -9.541   9.012  68.558  1.00  0.00    -0.161 C  
BRANCH  11  12
HETATM   12  C   UNL     1      -8.674   9.218  69.797  1.00  0.00    -0.168 C  
BRANCH  12  13
HETATM   13  C   UNL     1      -8.090  10.628  69.829  1.00  0.00     0.123 C  
BRANCH  13  14
HETATM   14  C   UNL     1      -6.698  10.657  69.202  1.00  0.00    -0.073 C  
BRANCH  14  15
HETATM   15  C   UNL     1      -6.405  12.016  68.574  1.00  0.00    -0.055 C  
BRANCH  15  16
HETATM   16  C   UNL     1      -6.076  13.057  69.634  1.00  0.00    -0.122 C  
HETATM   17  O   UNL     1      -5.831  12.417  70.877  1.00  0.00    -0.415 OA 
HETATM   18  H   UNL     1      -5.626  13.067  71.538  1.00  0.00     0.000 HD 
ENDBRANCH  15  16
ENDBRANCH  14  15
ENDBRANCH  13  14
ENDBRANCH  12  13
ENDBRANCH  11  12
ENDBRANCH  10  11
ENDBRANCH   9  10
ENDBRANCH   8   9
ENDBRANCH   7   8
ENDBRANCH   6   7
ENDBRANCH   5   6
ENDBRANCH   4   5
ENDBRANCH   3   4
ENDBRANCH   2   3
TORSDOF 14
ENDMDL
MODEL      351
REMARK 921   NORMALIZED FREE ENERGY PREDICTED BY IDOCK:   -2.35 KCAL/MOL
REMARK 922        TOTAL FREE ENERGY PREDICTED BY IDOCK:   -5.65 KCAL/MOL
REMARK 923 INTER-LIGAND FREE ENERGY PREDICTED BY IDOCK:   -4.91 KCAL/MOL
REMARK 924 INTRA-LIGAND FREE ENERGY PREDICTED BY IDOCK:   -0.74 KCAL/MOL
REMARK 927      BINDING AFFINITY PREDICTED BY RF-SCORE:    0.00 PKD
ROOT
HETATM    1  C   UNL     1     -10.678  16.561  69.496  1.00  0.00    -0.321 C  
HETATM    2  C   UNL     1     -11.293  15.567  70.465  1.00  0.00    -0.372 C  
ENDROOT
BRANCH   2   3
HETATM    3  C   UNL     1     -12.124  14.519  69.728  1.00  0.00    -0.380 C  
BRANCH   3   4
HETATM    4  C   UNL     1     -11.935  13.131  70.338  1.00  0.00    -0.343 C  
BRANCH   4   5
HETATM    5  C   UNL     1     -13.193  12.685  71.079  1.00  0.00     0.105 C  
BRANCH   5   6
HETATM    6  C   UNL     1     -12.999  11.310  71.710  1.00  0.00    -0.519 C  
BRANCH   6   7
HETATM    7  C   UNL     1     -12.174  10.405  70.799  1.00  0.00    -0.457 C  
BRANCH   7   8
HETATM    8  C   UNL     1     -11.335   9.426  71.616  1.00  0.00    -0.452 C  
BRANCH   8   9
HETATM    9  C   UNL     1     -10.765   8.325  70.727  1.00  0.00    -0.244 C  
BRANCH   9  10
HETATM   10  C   UNL     1      -9.282   8.556  70.458  1.00  0.00    -0.175 C  
BRANCH  10  11
HETATM   11  C   UNL     1      -8.885   8.020  69.085  1.00  0.00    -0.145 C  
BRANCH  11  12
HETATM   12  C   UNL     1      -9.847   8.515  68.008  1.00  0.00    -0.202 C  
BRANCH  12  13
HETATM   13  C   UNL     1      -9.192   9.584  67.137  1.00  0.00    -0.158 C  
BRANCH  13  14
HETATM   14  C   UNL     1      -9.822  10.952  67.385  1.00  0.00    -0.199 C  
BRANCH  14  15
HETATM   15  C   UNL     1     -10.628  11.415  66.176  1.00  0.00    -0.316 C  
BRANCH  15  16
HETATM   16  C   UNL     1     -11.689  12.431  66.572  1.00  0.00    -0.379 C  
HETATM   17  O   UNL     1     -12.407  11.960  67.702  1.00  0.00    -0.357 OA 
HETATM   18  H   UNL     1     -13.070  12.594  67.949  1.00  0.00     0.000 HD 
ENDBRANCH  15  16
ENDBRANCH  14  15
ENDBRANCH  13  14
ENDBRANCH  12  13
ENDBRANCH  11  12
ENDBRANCH  10  11
ENDBRANCH   9  10
ENDBRANCH   8   9
ENDBRANCH   7   8
ENDBRANCH   6   7
ENDBRANCH   5   6
ENDBRANCH   4   5
ENDBRANCH   3   4
ENDBRANCH   2   3
TORSDOF 14
ENDMDL
MODEL      352
REMARK 921   NORMALIZED FREE ENERGY PREDICTED BY IDOCK:   -2.35 KCAL/MOL
REMARK 922        TOTAL FREE ENERGY PREDICTED BY IDOCK:   -5.65 KCAL/MOL
REMARK 923 INTER-LIGAND FREE ENERGY PREDICTED BY IDOCK:   -4.74 KCAL/MOL
REMARK 924 INTRA-LIGAND FREE ENERGY PREDICTED BY IDOCK:   -0.92 KCAL/MOL
REMARK 927      BINDING AFFINITY PREDICTED BY RF-SCORE:    0.00 PKD
ROOT
HETATM    1  C   UNL     1      -6.988  14.859  67.728  1.00  0.00    -0.193 C  
HETATM    2  C   UNL     1      -6.553  13.477  68.182  1.00  0.00    -0.121 C  
ENDROOT
BRANCH   2   3
HETATM    3  C   UNL     1      -7.720  12.492  68.152  1.00  0.00    -0.141 C  
BRANCH   3   4
HETATM    4  C   UNL     1      -7.228  11.047  68.178  1.00  0.00    -0.083 C  
BRANCH   4   5
HETATM    5  C   UNL     1      -7.001  10.573  69.611  1.00  0.00    -0.135 C  
BRANCH   5   6
HETATM    6  C   UNL     1      -8.190   9.761  70.115  1.00  0.00    -0.202 C  
BRANCH   6   7
HETATM    7  C   UNL     1      -8.267   8.411  69.406  1.00  0.00    -0.116 C  
BRANCH   7   8
HETATM    8  C   UNL     1      -9.657   7.799  69.547  1.00  0.00    -0.160 C  
BRANCH   8   9
HETATM    9  C   UNL     1     -10.233   8.073  70.933  1.00  0.00    -0.213 C  
BRANCH   9  10
HETATM   10  C   UNL     1     -11.649   8.632  70.833  1.00  0.00    -0.307 C  
BRANCH  10  11
HETATM   11  C   UNL     1     -12.061   9.314  72.134  1.00  0.00    -0.353 C  
BRANCH  11  12
HETATM   12  C   UNL     1     -13.043  10.451  71.866  1.00  0.00    -0.563 C  
BRANCH  12  13
HETATM   13  C   UNL     1     -12.691  11.186  70.575  1.00  0.00    -0.302 C  
BRANCH  13  14
HETATM   14  C   UNL     1     -12.169  12.591  70.871  1.00  0.00    -0.277 C  
BRANCH  14  15
HETATM   15  C   UNL     1     -13.170  13.385  71.704  1.00  0.00    -0.449 C  
BRANCH  15  16
HETATM   16  C   UNL     1     -12.841  14.870  71.700  1.00  0.00    -0.328 C  
HETATM   17  O   UNL     1     -13.733  15.558  70.837  1.00  0.00    -0.794 OA 
HETATM   18  H   UNL     1     -13.527  16.486  70.834  1.00  0.00     0.000 HD 
ENDBRANCH  15  16
ENDBRANCH  14  15
ENDBRANCH  13  14
ENDBRANCH  12  13
ENDBRANCH  11  12
ENDBRANCH  10  11
ENDBRANCH   9  10
ENDBRANCH   8   9
ENDBRANCH   7   8
ENDBRANCH   6   7
ENDBRANCH   5   6
ENDBRANCH   4   5
ENDBRANCH   3   4
ENDBRANCH   2   3
TORSDOF 14
ENDMDL
MODEL      353
REMARK 921   NORMALIZED FREE ENERGY PREDICTED BY IDOCK:   -2.34 KCAL/MOL
REMARK 922        TOTAL FREE ENERGY PREDICTED BY IDOCK:   -5.64 KCAL/MOL
REMARK 923 INTER-LIGAND FREE ENERGY PREDICTED BY IDOCK:   -4.53 KCAL/MOL
REMARK 924 INTRA-LIGAND FREE ENERGY PREDICTED BY IDOCK:   -1.12 KCAL/MOL
REMARK 927      BINDING AFFINITY PREDICTED BY RF-SCORE:    0.00 PKD
ROOT
HETATM    1  C   UNL     1      -7.421  15.503  67.109  1.00  0.00    -0.244 C  
HETATM    2  C   UNL     1      -8.371  14.359  67.419  1.00  0.00    -0.216 C  
ENDROOT
BRANCH   2   3
HETATM    3  C   UNL     1      -9.546  14.338  66.443  1.00  0.00    -0.317 C  
BRANCH   3   4
HETATM    4  C   UNL     1     -10.243  12.979  66.444  1.00  0.00    -0.283 C  
BRANCH   4   5
HETATM    5  C   UNL     1     -11.697  13.111  66.891  1.00  0.00    -0.441 C  
BRANCH   5   6
HETATM    6  C   UNL     1     -11.825  14.086  68.057  1.00  0.00    -0.403 C  
BRANCH   6   7
HETATM    7  C   UNL     1     -11.683  13.359  69.392  1.00  0.00    -0.382 C  
BRANCH   7   8
HETATM    8  C   UNL     1     -12.237  11.940  69.304  1.00  0.00    -0.169 C  
BRANCH   8   9
HETATM    9  C   UNL     1     -11.839  11.124  70.529  1.00  0.00    -0.448 C  
BRANCH   9  10
HETATM   10  C   UNL     1     -10.985   9.925  70.130  1.00  0.00    -0.356 C  
BRANCH  10  11
HETATM   11  C   UNL     1     -10.997   9.725  68.617  1.00  0.00    -0.189 C  
BRANCH  11  12
HETATM   12  C   UNL     1      -9.902   8.752  68.188  1.00  0.00    -0.194 C  
BRANCH  12  13
HETATM   13  C   UNL     1      -9.826   8.650  66.666  1.00  0.00    -0.336 C  
BRANCH  13  14
HETATM   14  C   UNL     1      -8.887   7.523  66.241  1.00  0.00    -0.184 C  
BRANCH  14  15
HETATM   15  C   UNL     1      -9.466   6.158  66.600  1.00  0.00    -0.173 C  
BRANCH  15  16
HETATM   16  C   UNL     1      -8.413   5.065  66.501  1.00  0.00    -0.110 C  
HETATM   17  O   UNL     1      -7.447   5.233  67.527  1.00  0.00    -0.081 OA 
HETATM   18  H   UNL     1      -6.789   4.551  67.466  1.00  0.00     0.000 HD 
ENDBRANCH  15  16
ENDBRANCH  14  15
ENDBRANCH  13  14
ENDBRANCH  12  13
ENDBRANCH  11  12
ENDBRANCH  10  11
ENDBRANCH   9  10
ENDBRANCH   8   9
ENDBRANCH   7   8
ENDBRANCH   6   7
ENDBRANCH   5   6
ENDBRANCH   4   5
ENDBRANCH   3   4
ENDBRANCH   2   3
TORSDOF 14
ENDMDL
MODEL      354
REMARK 921   NORMALIZED FREE ENERGY PREDICTED BY IDOCK:   -2.34 KCAL/MOL
REMARK 922        TOTAL FREE ENERGY PREDICTED BY IDOCK:   -5.64 KCAL/MOL
REMARK 923 INTER-LIGAND FREE ENERGY PREDICTED BY IDOCK:   -4.59 KCAL/MOL
REMARK 924 INTRA-LIGAND FREE ENERGY PREDICTED BY IDOCK:   -1.05 KCAL/MOL
REMARK 927      BINDING AFFINITY PREDICTED BY RF-SCORE:    0.00 PKD
ROOT
HETATM    1  C   UNL     1     -10.227  11.961  65.043  1.00  0.00    -0.316 C  
HETATM    2  C   UNL     1     -10.308  10.815  66.036  1.00  0.00    -0.300 C  
ENDROOT
BRANCH   2   3
HETATM    3  C   UNL     1      -9.396   9.661  65.625  1.00  0.00    -0.296 C  
BRANCH   3   4
HETATM    4  C   UNL     1      -8.412   9.307  66.738  1.00  0.00    -0.129 C  
BRANCH   4   5
HETATM    5  C   UNL     1      -7.671  10.548  67.227  1.00  0.00    -0.106 C  
BRANCH   5   6
HETATM    6  C   UNL     1      -8.062  10.890  68.661  1.00  0.00    -0.143 C  
BRANCH   6   7
HETATM    7  C   UNL     1      -6.937  11.646  69.366  1.00  0.00    -0.051 C  
BRANCH   7   8
HETATM    8  C   UNL     1      -6.478  12.841  68.535  1.00  0.00    -0.082 C  
BRANCH   8   9
HETATM    9  C   UNL     1      -6.990  14.147  69.134  1.00  0.00    -0.111 C  
BRANCH   9  10
HETATM   10  C   UNL     1      -7.333  15.150  68.037  1.00  0.00    -0.133 C  
BRANCH  10  11
HETATM   11  C   UNL     1      -8.153  16.311  68.595  1.00  0.00    -0.213 C  
BRANCH  11  12
HETATM   12  C   UNL     1      -9.442  15.808  69.238  1.00  0.00    -0.270 C  
BRANCH  12  13
HETATM   13  C   UNL     1     -10.663  16.244  68.431  1.00  0.00    -0.311 C  
BRANCH  13  14
HETATM   14  C   UNL     1     -11.152  15.115  67.527  1.00  0.00    -0.319 C  
BRANCH  14  15
HETATM   15  C   UNL     1     -10.503  15.193  66.149  1.00  0.00    -0.320 C  
BRANCH  15  16
HETATM   16  C   UNL     1     -10.460  16.624  65.635  1.00  0.00    -0.297 C  
HETATM   17  O   UNL     1     -11.193  16.721  64.423  1.00  0.00    -1.192 OA 
HETATM   18  H   UNL     1     -11.166  17.615  64.102  1.00  0.00     0.000 HD 
ENDBRANCH  15  16
ENDBRANCH  14  15
ENDBRANCH  13  14
ENDBRANCH  12  13
ENDBRANCH  11  12
ENDBRANCH  10  11
ENDBRANCH   9  10
ENDBRANCH   8   9
ENDBRANCH   7   8
ENDBRANCH   6   7
ENDBRANCH   5   6
ENDBRANCH   4   5
ENDBRANCH   3   4
ENDBRANCH   2   3
TORSDOF 14
ENDMDL
MODEL      355
REMARK 921   NORMALIZED FREE ENERGY PREDICTED BY IDOCK:   -2.34 KCAL/MOL
REMARK 922        TOTAL FREE ENERGY PREDICTED BY IDOCK:   -5.63 KCAL/MOL
REMARK 923 INTER-LIGAND FREE ENERGY PREDICTED BY IDOCK:   -4.64 KCAL/MOL
REMARK 924 INTRA-LIGAND FREE ENERGY PREDICTED BY IDOCK:   -0.99 KCAL/MOL
REMARK 927      BINDING AFFINITY PREDICTED BY RF-SCORE:    0.00 PKD
ROOT
HETATM    1  C   UNL     1     -11.192  16.207  70.127  1.00  0.00    -0.374 C  
HETATM    2  C   UNL     1     -11.768  15.438  68.950  1.00  0.00    -0.377 C  
ENDROOT
BRANCH   2   3
HETATM    3  C   UNL     1     -11.383  13.961  69.013  1.00  0.00    -0.324 C  
BRANCH   3   4
HETATM    4  C   UNL     1      -9.967  13.734  68.489  1.00  0.00    -0.217 C  
BRANCH   4   5
HETATM    5  C   UNL     1      -9.792  12.301  67.993  1.00  0.00    -0.204 C  
BRANCH   5   6
HETATM    6  C   UNL     1      -9.432  12.274  66.511  1.00  0.00    -0.238 C  
BRANCH   6   7
HETATM    7  C   UNL     1     -10.596  11.743  65.677  1.00  0.00    -0.314 C  
BRANCH   7   8
HETATM    8  C   UNL     1     -10.146  10.595  64.778  1.00  0.00    -0.412 C  
BRANCH   8   9
HETATM    9  C   UNL     1      -8.934   9.883  65.372  1.00  0.00    -0.220 C  
BRANCH   9  10
HETATM   10  C   UNL     1      -9.317   8.503  65.895  1.00  0.00    -0.231 C  
BRANCH  10  11
HETATM   11  C   UNL     1      -9.938   8.597  67.286  1.00  0.00    -0.282 C  
BRANCH  11  12
HETATM   12  C   UNL     1      -9.327   7.562  68.226  1.00  0.00    -0.141 C  
BRANCH  12  13
HETATM   13  C   UNL     1     -10.264   6.370  68.412  1.00  0.00    -0.198 C  
BRANCH  13  14
HETATM   14  C   UNL     1      -9.793   5.173  67.589  1.00  0.00    -0.197 C  
BRANCH  14  15
HETATM   15  C   UNL     1     -10.624   5.017  66.319  1.00  0.00    -0.332 C  
BRANCH  15  16
HETATM   16  C   UNL     1      -9.874   4.227  65.258  1.00  0.00    -0.207 C  
HETATM   17  O   UNL     1      -9.882   2.847  65.591  1.00  0.00    -0.377 OA 
HETATM   18  H   UNL     1      -9.413   2.353  64.928  1.00  0.00     0.000 HD 
ENDBRANCH  15  16
ENDBRANCH  14  15
ENDBRANCH  13  14
ENDBRANCH  12  13
ENDBRANCH  11  12
ENDBRANCH  10  11
ENDBRANCH   9  10
ENDBRANCH   8   9
ENDBRANCH   7   8
ENDBRANCH   6   7
ENDBRANCH   5   6
ENDBRANCH   4   5
ENDBRANCH   3   4
ENDBRANCH   2   3
TORSDOF 14
ENDMDL
MODEL      356
REMARK 921   NORMALIZED FREE ENERGY PREDICTED BY IDOCK:   -2.34 KCAL/MOL
REMARK 922        TOTAL FREE ENERGY PREDICTED BY IDOCK:   -5.63 KCAL/MOL
REMARK 923 INTER-LIGAND FREE ENERGY PREDICTED BY IDOCK:   -4.87 KCAL/MOL
REMARK 924 INTRA-LIGAND FREE ENERGY PREDICTED BY IDOCK:   -0.76 KCAL/MOL
REMARK 927      BINDING AFFINITY PREDICTED BY RF-SCORE:    0.00 PKD
ROOT
HETATM    1  C   UNL     1      -7.378   7.815  73.797  1.00  0.00    -0.151 C  
HETATM    2  C   UNL     1      -8.366   6.670  73.943  1.00  0.00    -0.132 C  
ENDROOT
BRANCH   2   3
HETATM    3  C   UNL     1      -9.802   7.152  73.749  1.00  0.00    -0.355 C  
BRANCH   3   4
HETATM    4  C   UNL     1     -10.340   6.755  72.377  1.00  0.00    -0.218 C  
BRANCH   4   5
HETATM    5  C   UNL     1     -11.671   7.447  72.091  1.00  0.00    -0.328 C  
BRANCH   5   6
HETATM    6  C   UNL     1     -11.654   8.124  70.724  1.00  0.00    -0.249 C  
BRANCH   6   7
HETATM    7  C   UNL     1     -10.302   8.782  70.459  1.00  0.00    -0.241 C  
BRANCH   7   8
HETATM    8  C   UNL     1     -10.406   9.812  69.338  1.00  0.00    -0.232 C  
BRANCH   8   9
HETATM    9  C   UNL     1     -11.462  10.864  69.664  1.00  0.00    -0.377 C  
BRANCH   9  10
HETATM   10  C   UNL     1     -11.349  12.058  68.722  1.00  0.00    -0.331 C  
BRANCH  10  11
HETATM   11  C   UNL     1     -10.929  11.614  67.324  1.00  0.00    -0.318 C  
BRANCH  11  12
HETATM   12  C   UNL     1     -11.129  12.739  66.311  1.00  0.00    -0.321 C  
BRANCH  12  13
HETATM   13  C   UNL     1     -10.044  13.803  66.453  1.00  0.00    -0.297 C  
BRANCH  13  14
HETATM   14  C   UNL     1     -10.228  14.912  65.420  1.00  0.00    -0.409 C  
BRANCH  14  15
HETATM   15  C   UNL     1     -10.574  16.238  66.091  1.00  0.00    -0.272 C  
BRANCH  15  16
HETATM   16  C   UNL     1     -10.195  16.230  67.564  1.00  0.00    -0.270 C  
HETATM   17  O   UNL     1     -10.537  17.475  68.154  1.00  0.00    -0.370 OA 
HETATM   18  H   UNL     1     -10.300  17.470  69.075  1.00  0.00     0.000 HD 
ENDBRANCH  15  16
ENDBRANCH  14  15
ENDBRANCH  13  14
ENDBRANCH  12  13
ENDBRANCH  11  12
ENDBRANCH  10  11
ENDBRANCH   9  10
ENDBRANCH   8   9
ENDBRANCH   7   8
ENDBRANCH   6   7
ENDBRANCH   5   6
ENDBRANCH   4   5
ENDBRANCH   3   4
ENDBRANCH   2   3
TORSDOF 14
ENDMDL
MODEL      357
REMARK 921   NORMALIZED FREE ENERGY PREDICTED BY IDOCK:   -2.33 KCAL/MOL
REMARK 922        TOTAL FREE ENERGY PREDICTED BY IDOCK:   -5.61 KCAL/MOL
REMARK 923 INTER-LIGAND FREE ENERGY PREDICTED BY IDOCK:   -4.87 KCAL/MOL
REMARK 924 INTRA-LIGAND FREE ENERGY PREDICTED BY IDOCK:   -0.75 KCAL/MOL
REMARK 927      BINDING AFFINITY PREDICTED BY RF-SCORE:    0.00 PKD
ROOT
HETATM    1  C   UNL     1      -5.719   7.541  67.341  1.00  0.00    -0.035 C  
HETATM    2  C   UNL     1      -7.067   7.117  66.785  1.00  0.00    -0.078 C  
ENDROOT
BRANCH   2   3
HETATM    3  C   UNL     1      -7.541   8.075  65.694  1.00  0.00    -0.084 C  
BRANCH   3   4
HETATM    4  C   UNL     1      -7.520   9.522  66.180  1.00  0.00    -0.100 C  
BRANCH   4   5
HETATM    5  C   UNL     1      -8.769  10.270  65.720  1.00  0.00    -0.169 C  
BRANCH   5   6
HETATM    6  C   UNL     1      -8.853  10.314  64.198  1.00  0.00    -0.239 C  
BRANCH   6   7
HETATM    7  C   UNL     1     -10.252  10.722  63.742  1.00  0.00    -0.354 C  
BRANCH   7   8
HETATM    8  C   UNL     1     -10.425  12.237  63.802  1.00  0.00    -0.476 C  
BRANCH   8   9
HETATM    9  C   UNL     1     -11.860  12.606  64.169  1.00  0.00    -0.483 C  
BRANCH   9  10
HETATM   10  C   UNL     1     -11.953  13.040  65.628  1.00  0.00    -0.479 C  
BRANCH  10  11
HETATM   11  C   UNL     1     -10.733  13.864  66.033  1.00  0.00    -0.287 C  
BRANCH  11  12
HETATM   12  C   UNL     1     -10.674  15.171  65.247  1.00  0.00    -0.422 C  
BRANCH  12  13
HETATM   13  C   UNL     1     -10.533  16.368  66.185  1.00  0.00    -0.321 C  
BRANCH  13  14
HETATM   14  C   UNL     1     -10.747  15.951  67.638  1.00  0.00    -0.312 C  
BRANCH  14  15
HETATM   15  C   UNL     1     -10.552  17.131  68.585  1.00  0.00    -0.352 C  
BRANCH  15  16
HETATM   16  C   UNL     1      -9.567  18.142  68.016  1.00  0.00    -0.300 C  
HETATM   17  O   UNL     1     -10.104  19.451  68.127  1.00  0.00    -0.376 OA 
HETATM   18  H   UNL     1      -9.490  20.082  67.771  1.00  0.00     0.000 HD 
ENDBRANCH  15  16
ENDBRANCH  14  15
ENDBRANCH  13  14
ENDBRANCH  12  13
ENDBRANCH  11  12
ENDBRANCH  10  11
ENDBRANCH   9  10
ENDBRANCH   8   9
ENDBRANCH   7   8
ENDBRANCH   6   7
ENDBRANCH   5   6
ENDBRANCH   4   5
ENDBRANCH   3   4
ENDBRANCH   2   3
TORSDOF 14
ENDMDL
MODEL      358
REMARK 921   NORMALIZED FREE ENERGY PREDICTED BY IDOCK:   -2.32 KCAL/MOL
REMARK 922        TOTAL FREE ENERGY PREDICTED BY IDOCK:   -5.60 KCAL/MOL
REMARK 923 INTER-LIGAND FREE ENERGY PREDICTED BY IDOCK:   -4.81 KCAL/MOL
REMARK 924 INTRA-LIGAND FREE ENERGY PREDICTED BY IDOCK:   -0.79 KCAL/MOL
REMARK 927      BINDING AFFINITY PREDICTED BY RF-SCORE:    0.00 PKD
ROOT
HETATM    1  C   UNL     1     -12.004  17.057  73.870  1.00  0.00    -0.049 C  
HETATM    2  C   UNL     1     -12.111  15.699  73.198  1.00  0.00    -0.598 C  
ENDROOT
BRANCH   2   3
HETATM    3  C   UNL     1     -13.563  15.358  72.870  1.00  0.00    -0.609 C  
BRANCH   3   4
HETATM    4  C   UNL     1     -13.651  14.345  71.730  1.00  0.00    -0.479 C  
BRANCH   4   5
HETATM    5  C   UNL     1     -13.214  12.959  72.197  1.00  0.00    -0.552 C  
BRANCH   5   6
HETATM    6  C   UNL     1     -13.137  11.985  71.026  1.00  0.00    -0.022 C  
BRANCH   6   7
HETATM    7  C   UNL     1     -12.289  10.767  71.387  1.00  0.00    -0.433 C  
BRANCH   7   8
HETATM    8  C   UNL     1     -11.230  10.504  70.320  1.00  0.00    -0.391 C  
BRANCH   8   9
HETATM    9  C   UNL     1     -11.664  11.073  68.972  1.00  0.00    -0.402 C  
BRANCH   9  10
HETATM   10  C   UNL     1     -10.585  11.983  68.394  1.00  0.00    -0.236 C  
BRANCH  10  11
HETATM   11  C   UNL     1     -10.430  11.762  66.892  1.00  0.00    -0.256 C  
BRANCH  11  12
HETATM   12  C   UNL     1     -10.176  10.290  66.581  1.00  0.00    -0.294 C  
BRANCH  12  13
HETATM   13  C   UNL     1      -8.756   9.885  66.968  1.00  0.00    -0.137 C  
BRANCH  13  14
HETATM   14  C   UNL     1      -8.504   8.411  66.657  1.00  0.00    -0.113 C  
BRANCH  14  15
HETATM   15  C   UNL     1      -7.202   8.225  65.885  1.00  0.00    -0.072 C  
BRANCH  15  16
HETATM   16  C   UNL     1      -7.223   8.990  64.570  1.00  0.00    -0.097 C  
HETATM   17  O   UNL     1      -6.466   8.289  63.595  1.00  0.00    -0.071 OA 
HETATM   18  H   UNL     1      -6.478   8.766  62.773  1.00  0.00     0.000 HD 
ENDBRANCH  15  16
ENDBRANCH  14  15
ENDBRANCH  13  14
ENDBRANCH  12  13
ENDBRANCH  11  12
ENDBRANCH  10  11
ENDBRANCH   9  10
ENDBRANCH   8   9
ENDBRANCH   7   8
ENDBRANCH   6   7
ENDBRANCH   5   6
ENDBRANCH   4   5
ENDBRANCH   3   4
ENDBRANCH   2   3
TORSDOF 14
ENDMDL
MODEL      359
REMARK 921   NORMALIZED FREE ENERGY PREDICTED BY IDOCK:   -2.31 KCAL/MOL
REMARK 922        TOTAL FREE ENERGY PREDICTED BY IDOCK:   -5.59 KCAL/MOL
REMARK 923 INTER-LIGAND FREE ENERGY PREDICTED BY IDOCK:   -4.04 KCAL/MOL
REMARK 924 INTRA-LIGAND FREE ENERGY PREDICTED BY IDOCK:   -1.55 KCAL/MOL
REMARK 927      BINDING AFFINITY PREDICTED BY RF-SCORE:    0.00 PKD
ROOT
HETATM    1  C   UNL     1     -10.170  11.808  65.219  1.00  0.00    -0.307 C  
HETATM    2  C   UNL     1      -9.555  10.616  65.932  1.00  0.00    -0.253 C  
ENDROOT
BRANCH   2   3
HETATM    3  C   UNL     1      -8.090  10.434  65.543  1.00  0.00    -0.156 C  
BRANCH   3   4
HETATM    4  C   UNL     1      -7.163  10.721  66.722  1.00  0.00    -0.128 C  
BRANCH   4   5
HETATM    5  C   UNL     1      -7.036  12.223  66.964  1.00  0.00    -0.036 C  
BRANCH   5   6
HETATM    6  C   UNL     1      -7.705  12.626  68.274  1.00  0.00    -0.135 C  
BRANCH   6   7
HETATM    7  C   UNL     1      -7.219  13.999  68.733  1.00  0.00    -0.113 C  
BRANCH   7   8
HETATM    8  C   UNL     1      -7.790  15.104  67.850  1.00  0.00    -0.144 C  
BRANCH   8   9
HETATM    9  C   UNL     1      -8.594  16.101  68.679  1.00  0.00    -0.210 C  
BRANCH   9  10
HETATM   10  C   UNL     1      -9.861  16.525  67.942  1.00  0.00    -0.240 C  
BRANCH  10  11
HETATM   11  C   UNL     1     -11.083  15.796  68.493  1.00  0.00    -0.335 C  
BRANCH  11  12
HETATM   12  C   UNL     1     -11.547  14.705  67.532  1.00  0.00    -0.396 C  
BRANCH  12  13
HETATM   13  C   UNL     1     -11.347  13.319  68.140  1.00  0.00    -0.323 C  
BRANCH  13  14
HETATM   14  C   UNL     1     -11.858  13.274  69.578  1.00  0.00    -0.388 C  
BRANCH  14  15
HETATM   15  C   UNL     1     -12.157  11.843  70.013  1.00  0.00    -0.366 C  
BRANCH  15  16
HETATM   16  C   UNL     1     -11.589  10.833  69.026  1.00  0.00    -0.299 C  
HETATM   17  O   UNL     1     -11.930   9.518  69.436  1.00  0.00    -0.207 OA 
HETATM   18  H   UNL     1     -11.575   8.887  68.820  1.00  0.00     0.000 HD 
ENDBRANCH  15  16
ENDBRANCH  14  15
ENDBRANCH  13  14
ENDBRANCH  12  13
ENDBRANCH  11  12
ENDBRANCH  10  11
ENDBRANCH   9  10
ENDBRANCH   8   9
ENDBRANCH   7   8
ENDBRANCH   6   7
ENDBRANCH   5   6
ENDBRANCH   4   5
ENDBRANCH   3   4
ENDBRANCH   2   3
TORSDOF 14
ENDMDL
MODEL      360
REMARK 921   NORMALIZED FREE ENERGY PREDICTED BY IDOCK:   -2.30 KCAL/MOL
REMARK 922        TOTAL FREE ENERGY PREDICTED BY IDOCK:   -5.57 KCAL/MOL
REMARK 923 INTER-LIGAND FREE ENERGY PREDICTED BY IDOCK:   -4.70 KCAL/MOL
REMARK 924 INTRA-LIGAND FREE ENERGY PREDICTED BY IDOCK:   -0.86 KCAL/MOL
REMARK 927      BINDING AFFINITY PREDICTED BY RF-SCORE:    0.00 PKD
ROOT
HETATM    1  C   UNL     1     -10.430  19.722  66.471  1.00  0.00    -0.615 C  
HETATM    2  C   UNL     1     -10.502  19.652  67.986  1.00  0.00    -0.537 C  
ENDROOT
BRANCH   2   3
HETATM    3  C   UNL     1      -9.233  19.035  68.571  1.00  0.00    -0.413 C  
BRANCH   3   4
HETATM    4  C   UNL     1      -8.949  17.665  67.958  1.00  0.00    -0.264 C  
BRANCH   4   5
HETATM    5  C   UNL     1      -9.456  16.546  68.864  1.00  0.00    -0.260 C  
BRANCH   5   6
HETATM    6  C   UNL     1     -10.751  15.948  68.324  1.00  0.00    -0.291 C  
BRANCH   6   7
HETATM    7  C   UNL     1     -10.681  14.423  68.306  1.00  0.00    -0.246 C  
BRANCH   7   8
HETATM    8  C   UNL     1     -12.011  13.820  67.860  1.00  0.00    -0.391 C  
BRANCH   8   9
HETATM    9  C   UNL     1     -11.783  12.625  66.940  1.00  0.00    -0.453 C  
BRANCH   9  10
HETATM   10  C   UNL     1     -11.251  11.429  67.723  1.00  0.00    -0.346 C  
BRANCH  10  11
HETATM   11  C   UNL     1     -10.505  10.463  66.806  1.00  0.00    -0.287 C  
BRANCH  11  12
HETATM   12  C   UNL     1      -9.068  10.926  66.581  1.00  0.00    -0.175 C  
BRANCH  12  13
HETATM   13  C   UNL     1      -8.240  10.782  67.855  1.00  0.00    -0.113 C  
BRANCH  13  14
HETATM   14  C   UNL     1      -6.794  10.414  67.527  1.00  0.00    -0.075 C  
BRANCH  14  15
HETATM   15  C   UNL     1      -6.609  10.189  66.030  1.00  0.00    -0.102 C  
BRANCH  15  16
HETATM   16  C   UNL     1      -6.362   8.721  65.715  1.00  0.00    -0.056 C  
HETATM   17  O   UNL     1      -7.600   8.031  65.639  1.00  0.00    -0.078 OA 
HETATM   18  H   UNL     1      -7.446   7.115  65.443  1.00  0.00     0.000 HD 
ENDBRANCH  15  16
ENDBRANCH  14  15
ENDBRANCH  13  14
ENDBRANCH  12  13
ENDBRANCH  11  12
ENDBRANCH  10  11
ENDBRANCH   9  10
ENDBRANCH   8   9
ENDBRANCH   7   8
ENDBRANCH   6   7
ENDBRANCH   5   6
ENDBRANCH   4   5
ENDBRANCH   3   4
ENDBRANCH   2   3
TORSDOF 14
ENDMDL
MODEL      361
REMARK 921   NORMALIZED FREE ENERGY PREDICTED BY IDOCK:   -2.30 KCAL/MOL
REMARK 922        TOTAL FREE ENERGY PREDICTED BY IDOCK:   -5.56 KCAL/MOL
REMARK 923 INTER-LIGAND FREE ENERGY PREDICTED BY IDOCK:   -4.64 KCAL/MOL
REMARK 924 INTRA-LIGAND FREE ENERGY PREDICTED BY IDOCK:   -0.92 KCAL/MOL
REMARK 927      BINDING AFFINITY PREDICTED BY RF-SCORE:    0.00 PKD
ROOT
HETATM    1  C   UNL     1      -7.788  16.010  68.076  1.00  0.00    -0.142 C  
HETATM    2  C   UNL     1      -8.869  15.656  67.068  1.00  0.00    -0.250 C  
ENDROOT
BRANCH   2   3
HETATM    3  C   UNL     1      -9.737  14.505  67.570  1.00  0.00    -0.211 C  
BRANCH   3   4
HETATM    4  C   UNL     1     -11.068  14.447  66.824  1.00  0.00    -0.323 C  
BRANCH   4   5
HETATM    5  C   UNL     1     -11.937  13.305  67.345  1.00  0.00    -0.383 C  
BRANCH   5   6
HETATM    6  C   UNL     1     -11.546  11.980  66.701  1.00  0.00    -0.389 C  
BRANCH   6   7
HETATM    7  C   UNL     1     -11.069  10.982  67.754  1.00  0.00    -0.356 C  
BRANCH   7   8
HETATM    8  C   UNL     1     -11.457  11.442  69.157  1.00  0.00    -0.365 C  
BRANCH   8   9
HETATM    9  C   UNL     1     -11.022  10.420  70.203  1.00  0.00    -0.365 C  
BRANCH   9  10
HETATM   10  C   UNL     1     -10.405   9.193  69.541  1.00  0.00    -0.220 C  
BRANCH  10  11
HETATM   11  C   UNL     1     -10.843   7.912  70.247  1.00  0.00    -0.241 C  
BRANCH  11  12
HETATM   12  C   UNL     1      -9.652   7.216  70.900  1.00  0.00    -0.167 C  
BRANCH  12  13
HETATM   13  C   UNL     1      -9.238   5.979  70.108  1.00  0.00    -0.165 C  
BRANCH  13  14
HETATM   14  C   UNL     1     -10.454   5.301  69.480  1.00  0.00    -0.304 C  
BRANCH  14  15
HETATM   15  C   UNL     1     -10.125   4.753  68.094  1.00  0.00    -0.105 C  
BRANCH  15  16
HETATM   16  C   UNL     1     -10.750   5.603  66.998  1.00  0.00    -0.250 C  
HETATM   17  O   UNL     1     -10.311   5.147  65.728  1.00  0.00    -0.403 OA 
HETATM   18  H   UNL     1     -10.701   5.678  65.043  1.00  0.00     0.000 HD 
ENDBRANCH  15  16
ENDBRANCH  14  15
ENDBRANCH  13  14
ENDBRANCH  12  13
ENDBRANCH  11  12
ENDBRANCH  10  11
ENDBRANCH   9  10
ENDBRANCH   8   9
ENDBRANCH   7   8
ENDBRANCH   6   7
ENDBRANCH   5   6
ENDBRANCH   4   5
ENDBRANCH   3   4
ENDBRANCH   2   3
TORSDOF 14
ENDMDL
MODEL      362
REMARK 921   NORMALIZED FREE ENERGY PREDICTED BY IDOCK:   -2.30 KCAL/MOL
REMARK 922        TOTAL FREE ENERGY PREDICTED BY IDOCK:   -5.56 KCAL/MOL
REMARK 923 INTER-LIGAND FREE ENERGY PREDICTED BY IDOCK:   -4.66 KCAL/MOL
REMARK 924 INTRA-LIGAND FREE ENERGY PREDICTED BY IDOCK:   -0.90 KCAL/MOL
REMARK 927      BINDING AFFINITY PREDICTED BY RF-SCORE:    0.00 PKD
ROOT
HETATM    1  C   UNL     1     -11.405  12.801  63.515  1.00  0.00    -0.480 C  
HETATM    2  C   UNL     1     -11.440  12.771  65.033  1.00  0.00    -0.356 C  
ENDROOT
BRANCH   2   3
HETATM    3  C   UNL     1     -12.414  13.811  65.584  1.00  0.00    -0.541 C  
BRANCH   3   4
HETATM    4  C   UNL     1     -12.055  14.204  67.015  1.00  0.00    -0.449 C  
BRANCH   4   5
HETATM    5  C   UNL     1     -10.605  13.847  67.332  1.00  0.00    -0.267 C  
BRANCH   5   6
HETATM    6  C   UNL     1     -10.465  13.340  68.764  1.00  0.00    -0.187 C  
BRANCH   6   7
HETATM    7  C   UNL     1     -10.535  11.815  68.810  1.00  0.00    -0.221 C  
BRANCH   7   8
HETATM    8  C   UNL     1     -11.895  11.346  69.320  1.00  0.00    -0.417 C  
BRANCH   8   9
HETATM    9  C   UNL     1     -11.752  10.079  70.159  1.00  0.00    -0.285 C  
BRANCH   9  10
HETATM   10  C   UNL     1     -10.294   9.640  70.237  1.00  0.00    -0.336 C  
BRANCH  10  11
HETATM   11  C   UNL     1     -10.091   8.294  69.547  1.00  0.00    -0.197 C  
BRANCH  11  12
HETATM   12  C   UNL     1      -8.623   8.083  69.185  1.00  0.00    -0.137 C  
BRANCH  12  13
HETATM   13  C   UNL     1      -8.435   6.795  68.388  1.00  0.00    -0.122 C  
BRANCH  13  14
HETATM   14  C   UNL     1      -8.747   7.017  66.910  1.00  0.00    -0.122 C  
BRANCH  14  15
HETATM   15  C   UNL     1      -8.212   5.872  66.055  1.00  0.00    -0.123 C  
BRANCH  15  16
HETATM   16  C   UNL     1      -9.302   4.858  65.742  1.00  0.00    -0.161 C  
HETATM   17  O   UNL     1      -9.362   4.635  64.342  1.00  0.00    -0.258 OA 
HETATM   18  H   UNL     1     -10.043   4.001  64.146  1.00  0.00     0.000 HD 
ENDBRANCH  15  16
ENDBRANCH  14  15
ENDBRANCH  13  14
ENDBRANCH  12  13
ENDBRANCH  11  12
ENDBRANCH  10  11
ENDBRANCH   9  10
ENDBRANCH   8   9
ENDBRANCH   7   8
ENDBRANCH   6   7
ENDBRANCH   5   6
ENDBRANCH   4   5
ENDBRANCH   3   4
ENDBRANCH   2   3
TORSDOF 14
ENDMDL
MODEL      363
REMARK 921   NORMALIZED FREE ENERGY PREDICTED BY IDOCK:   -2.29 KCAL/MOL
REMARK 922        TOTAL FREE ENERGY PREDICTED BY IDOCK:   -5.54 KCAL/MOL
REMARK 923 INTER-LIGAND FREE ENERGY PREDICTED BY IDOCK:   -3.99 KCAL/MOL
REMARK 924 INTRA-LIGAND FREE ENERGY PREDICTED BY IDOCK:   -1.56 KCAL/MOL
REMARK 927      BINDING AFFINITY PREDICTED BY RF-SCORE:    0.00 PKD
ROOT
HETATM    1  C   UNL     1      -6.623   7.456  67.448  1.00  0.00    -0.061 C  
HETATM    2  C   UNL     1      -6.699   8.044  66.050  1.00  0.00    -0.053 C  
ENDROOT
BRANCH   2   3
HETATM    3  C   UNL     1      -6.211   9.491  66.032  1.00  0.00    -0.064 C  
BRANCH   3   4
HETATM    4  C   UNL     1      -6.786  10.285  67.203  1.00  0.00    -0.082 C  
BRANCH   4   5
HETATM    5  C   UNL     1      -6.997  11.748  66.819  1.00  0.00    -0.047 C  
BRANCH   5   6
HETATM    6  C   UNL     1      -7.884  12.459  67.836  1.00  0.00    -0.145 C  
BRANCH   6   7
HETATM    7  C   UNL     1      -8.177  13.891  67.395  1.00  0.00    -0.198 C  
BRANCH   7   8
HETATM    8  C   UNL     1      -9.582  14.006  66.810  1.00  0.00    -0.293 C  
BRANCH   8   9
HETATM    9  C   UNL     1      -9.800  15.381  66.185  1.00  0.00    -0.337 C  
BRANCH   9  10
HETATM   10  C   UNL     1     -10.663  15.278  64.932  1.00  0.00    -0.423 C  
BRANCH  10  11
HETATM   11  C   UNL     1     -11.615  14.088  65.020  1.00  0.00    -0.351 C  
BRANCH  11  12
HETATM   12  C   UNL     1     -11.246  13.018  63.997  1.00  0.00    -0.448 C  
BRANCH  12  13
HETATM   13  C   UNL     1     -11.303  11.624  64.618  1.00  0.00    -0.284 C  
BRANCH  13  14
HETATM   14  C   UNL     1      -9.944  10.933  64.535  1.00  0.00    -0.376 C  
BRANCH  14  15
HETATM   15  C   UNL     1      -9.876   9.737  65.480  1.00  0.00    -0.378 C  
BRANCH  15  16
HETATM   16  C   UNL     1     -10.505  10.057  66.827  1.00  0.00    -0.198 C  
HETATM   17  O   UNL     1     -10.412   8.927  67.681  1.00  0.00    -0.246 OA 
HETATM   18  H   UNL     1     -10.805   9.127  68.523  1.00  0.00     0.000 HD 
ENDBRANCH  15  16
ENDBRANCH  14  15
ENDBRANCH  13  14
ENDBRANCH  12  13
ENDBRANCH  11  12
ENDBRANCH  10  11
ENDBRANCH   9  10
ENDBRANCH   8   9
ENDBRANCH   7   8
ENDBRANCH   6   7
ENDBRANCH   5   6
ENDBRANCH   4   5
ENDBRANCH   3   4
ENDBRANCH   2   3
TORSDOF 14
ENDMDL
MODEL      364
REMARK 921   NORMALIZED FREE ENERGY PREDICTED BY IDOCK:   -2.29 KCAL/MOL
REMARK 922        TOTAL FREE ENERGY PREDICTED BY IDOCK:   -5.54 KCAL/MOL
REMARK 923 INTER-LIGAND FREE ENERGY PREDICTED BY IDOCK:   -4.55 KCAL/MOL
REMARK 924 INTRA-LIGAND FREE ENERGY PREDICTED BY IDOCK:   -0.99 KCAL/MOL
REMARK 927      BINDING AFFINITY PREDICTED BY RF-SCORE:    0.00 PKD
ROOT
HETATM    1  C   UNL     1     -10.609   8.644  71.649  1.00  0.00    -0.374 C  
HETATM    2  C   UNL     1     -10.224   8.651  70.180  1.00  0.00    -0.204 C  
ENDROOT
BRANCH   2   3
HETATM    3  C   UNL     1     -11.001   9.717  69.411  1.00  0.00    -0.241 C  
BRANCH   3   4
HETATM    4  C   UNL     1     -11.554  10.787  70.350  1.00  0.00    -0.431 C  
BRANCH   4   5
HETATM    5  C   UNL     1     -11.899  12.061  69.584  1.00  0.00    -0.401 C  
BRANCH   5   6
HETATM    6  C   UNL     1     -12.783  12.981  70.418  1.00  0.00    -0.046 C  
BRANCH   6   7
HETATM    7  C   UNL     1     -11.998  14.197  70.906  1.00  0.00    -0.371 C  
BRANCH   7   8
HETATM    8  C   UNL     1     -10.975  14.639  69.864  1.00  0.00    -0.194 C  
BRANCH   8   9
HETATM    9  C   UNL     1     -11.666  15.255  68.651  1.00  0.00    -0.367 C  
BRANCH   9  10
HETATM   10  C   UNL     1     -10.932  14.893  67.364  1.00  0.00    -0.314 C  
BRANCH  10  11
HETATM   11  C   UNL     1      -9.433  15.142  67.501  1.00  0.00    -0.206 C  
BRANCH  11  12
HETATM   12  C   UNL     1      -8.642  13.862  67.248  1.00  0.00    -0.221 C  
BRANCH  12  13
HETATM   13  C   UNL     1      -9.576  12.687  66.971  1.00  0.00    -0.219 C  
BRANCH  13  14
HETATM   14  C   UNL     1      -9.611  12.356  65.480  1.00  0.00    -0.076 C  
BRANCH  14  15
HETATM   15  C   UNL     1      -9.016  10.978  65.208  1.00  0.00    -0.177 C  
BRANCH  15  16
HETATM   16  C   UNL     1      -9.937  10.138  64.335  1.00  0.00    -0.159 C  
HETATM   17  O   UNL     1     -10.066  10.739  63.056  1.00  0.00    -0.548 OA 
HETATM   18  H   UNL     1     -10.641  10.215  62.511  1.00  0.00     0.000 HD 
ENDBRANCH  15  16
ENDBRANCH  14  15
ENDBRANCH  13  14
ENDBRANCH  12  13
ENDBRANCH  11  12
ENDBRANCH  10  11
ENDBRANCH   9  10
ENDBRANCH   8   9
ENDBRANCH   7   8
ENDBRANCH   6   7
ENDBRANCH   5   6
ENDBRANCH   4   5
ENDBRANCH   3   4
ENDBRANCH   2   3
TORSDOF 14
ENDMDL
MODEL      365
REMARK 921   NORMALIZED FREE ENERGY PREDICTED BY IDOCK:   -2.29 KCAL/MOL
REMARK 922        TOTAL FREE ENERGY PREDICTED BY IDOCK:   -5.54 KCAL/MOL
REMARK 923 INTER-LIGAND FREE ENERGY PREDICTED BY IDOCK:   -4.77 KCAL/MOL
REMARK 924 INTRA-LIGAND FREE ENERGY PREDICTED BY IDOCK:   -0.77 KCAL/MOL
REMARK 927      BINDING AFFINITY PREDICTED BY RF-SCORE:    0.00 PKD
ROOT
HETATM    1  C   UNL     1     -10.228   8.783  71.532  1.00  0.00    -0.371 C  
HETATM    2  C   UNL     1     -11.607   9.080  70.969  1.00  0.00    -0.360 C  
ENDROOT
BRANCH   2   3
HETATM    3  C   UNL     1     -11.704  10.524  70.480  1.00  0.00    -0.443 C  
BRANCH   3   4
HETATM    4  C   UNL     1     -10.833  10.752  69.247  1.00  0.00    -0.287 C  
BRANCH   4   5
HETATM    5  C   UNL     1     -11.551  11.631  68.226  1.00  0.00    -0.378 C  
BRANCH   5   6
HETATM    6  C   UNL     1     -11.280  13.109  68.487  1.00  0.00    -0.307 C  
BRANCH   6   7
HETATM    7  C   UNL     1     -10.243  13.653  67.507  1.00  0.00    -0.241 C  
BRANCH   7   8
HETATM    8  C   UNL     1     -10.700  14.982  66.912  1.00  0.00    -0.308 C  
BRANCH   8   9
HETATM    9  C   UNL     1      -9.789  15.405  65.763  1.00  0.00    -0.399 C  
BRANCH   9  10
HETATM   10  C   UNL     1      -8.934  16.604  66.161  1.00  0.00    -0.321 C  
BRANCH  10  11
HETATM   11  C   UNL     1      -9.118  16.941  67.638  1.00  0.00    -0.223 C  
BRANCH  11  12
HETATM   12  C   UNL     1      -7.795  16.828  68.391  1.00  0.00    -0.214 C  
BRANCH  12  13
HETATM   13  C   UNL     1      -6.609  16.942  67.436  1.00  0.00    -0.190 C  
BRANCH  13  14
HETATM   14  C   UNL     1      -5.622  18.004  67.915  1.00  0.00    -0.154 C  
BRANCH  14  15
HETATM   15  C   UNL     1      -6.254  19.393  67.894  1.00  0.00    -0.227 C  
BRANCH  15  16
HETATM   16  C   UNL     1      -5.271  20.442  67.397  1.00  0.00    -0.176 C  
HETATM   17  O   UNL     1      -5.291  20.485  65.978  1.00  0.00    -0.172 OA 
HETATM   18  H   UNL     1      -4.677  21.140  65.667  1.00  0.00     0.000 HD 
ENDBRANCH  15  16
ENDBRANCH  14  15
ENDBRANCH  13  14
ENDBRANCH  12  13
ENDBRANCH  11  12
ENDBRANCH  10  11
ENDBRANCH   9  10
ENDBRANCH   8   9
ENDBRANCH   7   8
ENDBRANCH   6   7
ENDBRANCH   5   6
ENDBRANCH   4   5
ENDBRANCH   3   4
ENDBRANCH   2   3
TORSDOF 14
ENDMDL
MODEL      366
REMARK 921   NORMALIZED FREE ENERGY PREDICTED BY IDOCK:   -2.28 KCAL/MOL
REMARK 922        TOTAL FREE ENERGY PREDICTED BY IDOCK:   -5.53 KCAL/MOL
REMARK 923 INTER-LIGAND FREE ENERGY PREDICTED BY IDOCK:   -4.06 KCAL/MOL
REMARK 924 INTRA-LIGAND FREE ENERGY PREDICTED BY IDOCK:   -1.47 KCAL/MOL
REMARK 927      BINDING AFFINITY PREDICTED BY RF-SCORE:    0.00 PKD
ROOT
HETATM    1  C   UNL     1     -11.282  12.107  65.930  1.00  0.00    -0.384 C  
HETATM    2  C   UNL     1     -11.583  12.604  67.333  1.00  0.00    -0.421 C  
ENDROOT
BRANCH   2   3
HETATM    3  C   UNL     1     -12.030  14.064  67.318  1.00  0.00    -0.448 C  
BRANCH   3   4
HETATM    4  C   UNL     1     -12.005  14.667  68.721  1.00  0.00    -0.301 C  
BRANCH   4   5
HETATM    5  C   UNL     1     -10.983  15.796  68.812  1.00  0.00    -0.291 C  
BRANCH   5   6
HETATM    6  C   UNL     1      -9.626  15.272  69.269  1.00  0.00    -0.249 C  
BRANCH   6   7
HETATM    7  C   UNL     1      -8.667  15.140  68.088  1.00  0.00    -0.167 C  
BRANCH   7   8
HETATM    8  C   UNL     1      -7.215  15.149  68.560  1.00  0.00    -0.118 C  
BRANCH   8   9
HETATM    9  C   UNL     1      -6.446  13.970  67.972  1.00  0.00    -0.152 C  
BRANCH   9  10
HETATM   10  C   UNL     1      -7.397  12.851  67.561  1.00  0.00    -0.154 C  
BRANCH  10  11
HETATM   11  C   UNL     1      -6.645  11.535  67.375  1.00  0.00    -0.101 C  
BRANCH  11  12
HETATM   12  C   UNL     1      -7.617  10.376  67.172  1.00  0.00    -0.096 C  
BRANCH  12  13
HETATM   13  C   UNL     1      -8.665  10.339  68.281  1.00  0.00    -0.126 C  
BRANCH  13  14
HETATM   14  C   UNL     1      -9.855   9.471  67.879  1.00  0.00    -0.186 C  
BRANCH  14  15
HETATM   15  C   UNL     1     -10.605   8.962  69.107  1.00  0.00    -0.211 C  
BRANCH  15  16
HETATM   16  C   UNL     1     -10.848  10.078  70.111  1.00  0.00    -0.311 C  
HETATM   17  O   UNL     1     -10.871   9.544  71.426  1.00  0.00    -0.347 OA 
HETATM   18  H   UNL     1     -11.023  10.241  72.054  1.00  0.00     0.000 HD 
ENDBRANCH  15  16
ENDBRANCH  14  15
ENDBRANCH  13  14
ENDBRANCH  12  13
ENDBRANCH  11  12
ENDBRANCH  10  11
ENDBRANCH   9  10
ENDBRANCH   8   9
ENDBRANCH   7   8
ENDBRANCH   6   7
ENDBRANCH   5   6
ENDBRANCH   4   5
ENDBRANCH   3   4
ENDBRANCH   2   3
TORSDOF 14
ENDMDL
MODEL      367
REMARK 921   NORMALIZED FREE ENERGY PREDICTED BY IDOCK:   -2.28 KCAL/MOL
REMARK 922        TOTAL FREE ENERGY PREDICTED BY IDOCK:   -5.53 KCAL/MOL
REMARK 923 INTER-LIGAND FREE ENERGY PREDICTED BY IDOCK:   -4.75 KCAL/MOL
REMARK 924 INTRA-LIGAND FREE ENERGY PREDICTED BY IDOCK:   -0.77 KCAL/MOL
REMARK 927      BINDING AFFINITY PREDICTED BY RF-SCORE:    0.00 PKD
ROOT
HETATM    1  C   UNL     1      -9.974  20.118  66.296  1.00  0.00    -0.557 C  
HETATM    2  C   UNL     1     -10.748  19.250  67.274  1.00  0.00    -0.594 C  
ENDROOT
BRANCH   2   3
HETATM    3  C   UNL     1      -9.804  18.441  68.161  1.00  0.00    -0.365 C  
BRANCH   3   4
HETATM    4  C   UNL     1      -9.417  17.120  67.500  1.00  0.00    -0.247 C  
BRANCH   4   5
HETATM    5  C   UNL     1     -10.651  16.387  66.980  1.00  0.00    -0.260 C  
BRANCH   5   6
HETATM    6  C   UNL     1     -10.421  15.860  65.567  1.00  0.00    -0.425 C  
BRANCH   6   7
HETATM    7  C   UNL     1      -9.894  14.427  65.600  1.00  0.00    -0.322 C  
BRANCH   7   8
HETATM    8  C   UNL     1     -10.189  13.768  66.944  1.00  0.00    -0.261 C  
BRANCH   8   9
HETATM    9  C   UNL     1     -10.909  12.437  66.749  1.00  0.00    -0.283 C  
BRANCH   9  10
HETATM   10  C   UNL     1     -10.065  11.280  67.273  1.00  0.00    -0.214 C  
BRANCH  10  11
HETATM   11  C   UNL     1     -10.946  10.190  67.878  1.00  0.00    -0.335 C  
BRANCH  11  12
HETATM   12  C   UNL     1     -10.357   8.806  67.617  1.00  0.00    -0.317 C  
BRANCH  12  13
HETATM   13  C   UNL     1      -9.258   8.869  66.560  1.00  0.00    -0.231 C  
BRANCH  13  14
HETATM   14  C   UNL     1      -8.433   7.584  66.553  1.00  0.00    -0.131 C  
BRANCH  14  15
HETATM   15  C   UNL     1      -6.943   7.886  66.681  1.00  0.00    -0.072 C  
BRANCH  15  16
HETATM   16  C   UNL     1      -6.493   7.855  68.134  1.00  0.00    -0.055 C  
HETATM   17  O   UNL     1      -7.263   6.905  68.855  1.00  0.00    -0.085 OA 
HETATM   18  H   UNL     1      -6.982   6.886  69.763  1.00  0.00     0.000 HD 
ENDBRANCH  15  16
ENDBRANCH  14  15
ENDBRANCH  13  14
ENDBRANCH  12  13
ENDBRANCH  11  12
ENDBRANCH  10  11
ENDBRANCH   9  10
ENDBRANCH   8   9
ENDBRANCH   7   8
ENDBRANCH   6   7
ENDBRANCH   5   6
ENDBRANCH   4   5
ENDBRANCH   3   4
ENDBRANCH   2   3
TORSDOF 14
ENDMDL
MODEL      368
REMARK 921   NORMALIZED FREE ENERGY PREDICTED BY IDOCK:   -2.27 KCAL/MOL
REMARK 922        TOTAL FREE ENERGY PREDICTED BY IDOCK:   -5.51 KCAL/MOL
REMARK 923 INTER-LIGAND FREE ENERGY PREDICTED BY IDOCK:   -4.09 KCAL/MOL
REMARK 924 INTRA-LIGAND FREE ENERGY PREDICTED BY IDOCK:   -1.42 KCAL/MOL
REMARK 927      BINDING AFFINITY PREDICTED BY RF-SCORE:    0.00 PKD
ROOT
HETATM    1  C   UNL     1      -8.265   4.336  66.128  1.00  0.00    -0.105 C  
HETATM    2  C   UNL     1      -7.902   5.806  66.241  1.00  0.00    -0.101 C  
ENDROOT
BRANCH   2   3
HETATM    3  C   UNL     1      -9.078   6.697  65.844  1.00  0.00    -0.059 C  
BRANCH   3   4
HETATM    4  C   UNL     1      -9.872   7.145  67.069  1.00  0.00    -0.257 C  
BRANCH   4   5
HETATM    5  C   UNL     1     -10.164   8.643  67.013  1.00  0.00    -0.360 C  
BRANCH   5   6
HETATM    6  C   UNL     1      -9.763   9.230  65.663  1.00  0.00    -0.302 C  
BRANCH   6   7
HETATM    7  C   UNL     1      -8.632  10.243  65.824  1.00  0.00    -0.163 C  
BRANCH   7   8
HETATM    8  C   UNL     1      -8.467  10.649  67.286  1.00  0.00    -0.126 C  
BRANCH   8   9
HETATM    9  C   UNL     1      -7.735  11.983  67.400  1.00  0.00    -0.162 C  
BRANCH   9  10
HETATM   10  C   UNL     1      -8.676  13.079  67.887  1.00  0.00    -0.189 C  
BRANCH  10  11
HETATM   11  C   UNL     1      -8.851  14.161  66.825  1.00  0.00    -0.190 C  
BRANCH  11  12
HETATM   12  C   UNL     1      -9.991  13.811  65.873  1.00  0.00    -0.308 C  
BRANCH  12  13
HETATM   13  C   UNL     1     -11.122  13.099  66.611  1.00  0.00    -0.316 C  
BRANCH  13  14
HETATM   14  C   UNL     1     -12.086  14.106  67.235  1.00  0.00    -0.407 C  
BRANCH  14  15
HETATM   15  C   UNL     1     -12.147  13.942  68.750  1.00  0.00    -0.344 C  
BRANCH  15  16
HETATM   16  C   UNL     1     -12.005  15.281  69.459  1.00  0.00    -0.330 C  
HETATM   17  O   UNL     1     -11.463  16.242  68.567  1.00  0.00    -0.371 OA 
HETATM   18  H   UNL     1     -11.373  17.078  69.009  1.00  0.00     0.000 HD 
ENDBRANCH  15  16
ENDBRANCH  14  15
ENDBRANCH  13  14
ENDBRANCH  12  13
ENDBRANCH  11  12
ENDBRANCH  10  11
ENDBRANCH   9  10
ENDBRANCH   8   9
ENDBRANCH   7   8
ENDBRANCH   6   7
ENDBRANCH   5   6
ENDBRANCH   4   5
ENDBRANCH   3   4
ENDBRANCH   2   3
TORSDOF 14
ENDMDL
MODEL      369
REMARK 921   NORMALIZED FREE ENERGY PREDICTED BY IDOCK:   -2.27 KCAL/MOL
REMARK 922        TOTAL FREE ENERGY PREDICTED BY IDOCK:   -5.51 KCAL/MOL
REMARK 923 INTER-LIGAND FREE ENERGY PREDICTED BY IDOCK:   -4.33 KCAL/MOL
REMARK 924 INTRA-LIGAND FREE ENERGY PREDICTED BY IDOCK:   -1.18 KCAL/MOL
REMARK 927      BINDING AFFINITY PREDICTED BY RF-SCORE:    0.00 PKD
ROOT
HETATM    1  C   UNL     1      -7.804  11.851  67.111  1.00  0.00    -0.168 C  
HETATM    2  C   UNL     1      -8.259  13.291  67.276  1.00  0.00    -0.164 C  
ENDROOT
BRANCH   2   3
HETATM    3  C   UNL     1      -7.069  14.226  67.481  1.00  0.00    -0.189 C  
BRANCH   3   4
HETATM    4  C   UNL     1      -7.492  15.691  67.393  1.00  0.00    -0.235 C  
BRANCH   4   5
HETATM    5  C   UNL     1      -9.010  15.815  67.284  1.00  0.00    -0.211 C  
BRANCH   5   6
HETATM    6  C   UNL     1      -9.585  16.577  68.473  1.00  0.00    -0.233 C  
BRANCH   6   7
HETATM    7  C   UNL     1      -9.954  15.621  69.605  1.00  0.00    -0.290 C  
BRANCH   7   8
HETATM    8  C   UNL     1     -11.290  14.936  69.327  1.00  0.00    -0.315 C  
BRANCH   8   9
HETATM    9  C   UNL     1     -11.111  13.425  69.208  1.00  0.00    -0.216 C  
BRANCH   9  10
HETATM   10  C   UNL     1     -12.263  12.687  69.881  1.00  0.00    -0.238 C  
BRANCH  10  11
HETATM   11  C   UNL     1     -11.806  11.331  70.414  1.00  0.00    -0.443 C  
BRANCH  11  12
HETATM   12  C   UNL     1     -11.240  10.467  69.291  1.00  0.00    -0.304 C  
BRANCH  12  13
HETATM   13  C   UNL     1     -10.748   9.125  69.827  1.00  0.00    -0.239 C  
BRANCH  13  14
HETATM   14  C   UNL     1     -10.045   9.298  71.171  1.00  0.00    -0.374 C  
BRANCH  14  15
HETATM   15  C   UNL     1     -10.574   8.306  72.202  1.00  0.00    -0.380 C  
BRANCH  15  16
HETATM   16  C   UNL     1      -9.438   7.610  72.937  1.00  0.00    -0.206 C  
HETATM   17  O   UNL     1      -8.593   6.954  72.004  1.00  0.00    -0.121 OA 
HETATM   18  H   UNL     1      -7.884   6.519  72.462  1.00  0.00     0.000 HD 
ENDBRANCH  15  16
ENDBRANCH  14  15
ENDBRANCH  13  14
ENDBRANCH  12  13
ENDBRANCH  11  12
ENDBRANCH  10  11
ENDBRANCH   9  10
ENDBRANCH   8   9
ENDBRANCH   7   8
ENDBRANCH   6   7
ENDBRANCH   5   6
ENDBRANCH   4   5
ENDBRANCH   3   4
ENDBRANCH   2   3
TORSDOF 14
ENDMDL
MODEL      370
REMARK 921   NORMALIZED FREE ENERGY PREDICTED BY IDOCK:   -2.26 KCAL/MOL
REMARK 922        TOTAL FREE ENERGY PREDICTED BY IDOCK:   -5.49 KCAL/MOL
REMARK 923 INTER-LIGAND FREE ENERGY PREDICTED BY IDOCK:   -4.53 KCAL/MOL
REMARK 924 INTRA-LIGAND FREE ENERGY PREDICTED BY IDOCK:   -0.96 KCAL/MOL
REMARK 927      BINDING AFFINITY PREDICTED BY RF-SCORE:    0.00 PKD
ROOT
HETATM    1  C   UNL     1      -6.568   7.468  67.098  1.00  0.00    -0.062 C  
HETATM    2  C   UNL     1      -7.706   6.474  66.944  1.00  0.00    -0.100 C  
ENDROOT
BRANCH   2   3
HETATM    3  C   UNL     1      -8.711   6.943  65.894  1.00  0.00    -0.146 C  
BRANCH   3   4
HETATM    4  C   UNL     1      -8.309   8.294  65.306  1.00  0.00    -0.175 C  
BRANCH   4   5
HETATM    5  C   UNL     1      -9.390   9.342  65.555  1.00  0.00    -0.315 C  
BRANCH   5   6
HETATM    6  C   UNL     1     -10.256   8.964  66.752  1.00  0.00    -0.348 C  
BRANCH   6   7
HETATM    7  C   UNL     1     -10.305  10.101  67.770  1.00  0.00    -0.253 C  
BRANCH   7   8
HETATM    8  C   UNL     1      -8.937  10.763  67.914  1.00  0.00    -0.139 C  
BRANCH   8   9
HETATM    9  C   UNL     1      -9.083  12.264  68.143  1.00  0.00    -0.196 C  
BRANCH   9  10
HETATM   10  C   UNL     1      -8.947  13.030  66.831  1.00  0.00    -0.210 C  
BRANCH  10  11
HETATM   11  C   UNL     1      -9.930  14.196  66.774  1.00  0.00    -0.267 C  
BRANCH  11  12
HETATM   12  C   UNL     1      -9.238  15.509  67.128  1.00  0.00    -0.228 C  
BRANCH  12  13
HETATM   13  C   UNL     1      -9.984  16.700  66.531  1.00  0.00    -0.296 C  
BRANCH  13  14
HETATM   14  C   UNL     1     -10.317  17.731  67.607  1.00  0.00    -0.375 C  
BRANCH  14  15
HETATM   15  C   UNL     1     -10.519  19.116  66.999  1.00  0.00    -0.530 C  
BRANCH  15  16
HETATM   16  C   UNL     1     -10.130  20.214  67.977  1.00  0.00    -0.379 C  
HETATM   17  O   UNL     1      -9.933  19.659  69.269  1.00  0.00    -0.511 OA 
HETATM   18  H   UNL     1      -9.691  20.345  69.880  1.00  0.00     0.000 HD 
ENDBRANCH  15  16
ENDBRANCH  14  15
ENDBRANCH  13  14
ENDBRANCH  12  13
ENDBRANCH  11  12
ENDBRANCH  10  11
ENDBRANCH   9  10
ENDBRANCH   8   9
ENDBRANCH   7   8
ENDBRANCH   6   7
ENDBRANCH   5   6
ENDBRANCH   4   5
ENDBRANCH   3   4
ENDBRANCH   2   3
TORSDOF 14
ENDMDL
MODEL      371
REMARK 921   NORMALIZED FREE ENERGY PREDICTED BY IDOCK:   -2.25 KCAL/MOL
REMARK 922        TOTAL FREE ENERGY PREDICTED BY IDOCK:   -5.47 KCAL/MOL
REMARK 923 INTER-LIGAND FREE ENERGY PREDICTED BY IDOCK:   -4.03 KCAL/MOL
REMARK 924 INTRA-LIGAND FREE ENERGY PREDICTED BY IDOCK:   -1.44 KCAL/MOL
REMARK 927      BINDING AFFINITY PREDICTED BY RF-SCORE:    0.00 PKD
ROOT
HETATM    1  C   UNL     1     -11.745  11.228  70.729  1.00  0.00    -0.148 C  
HETATM    2  C   UNL     1     -11.965  12.201  69.583  1.00  0.00    -0.351 C  
ENDROOT
BRANCH   2   3
HETATM    3  C   UNL     1     -12.226  11.462  68.273  1.00  0.00     0.165 C  
BRANCH   3   4
HETATM    4  C   UNL     1     -10.919  11.031  67.609  1.00  0.00    -0.332 C  
BRANCH   4   5
HETATM    5  C   UNL     1     -10.912  11.399  66.128  1.00  0.00    -0.294 C  
BRANCH   5   6
HETATM    6  C   UNL     1      -9.528  11.199  65.520  1.00  0.00    -0.251 C  
BRANCH   6   7
HETATM    7  C   UNL     1      -9.413   9.822  64.868  1.00  0.00    -0.331 C  
BRANCH   7   8
HETATM    8  C   UNL     1      -8.134   9.115  65.308  1.00  0.00    -0.124 C  
BRANCH   8   9
HETATM    9  C   UNL     1      -8.350   8.372  66.623  1.00  0.00    -0.110 C  
BRANCH   9  10
HETATM   10  C   UNL     1      -9.709   7.680  66.641  1.00  0.00    -0.283 C  
BRANCH  10  11
HETATM   11  C   UNL     1     -10.239   7.553  68.066  1.00  0.00    -0.239 C  
BRANCH  11  12
HETATM   12  C   UNL     1      -9.303   6.703  68.922  1.00  0.00    -0.128 C  
BRANCH  12  13
HETATM   13  C   UNL     1      -9.862   6.522  70.331  1.00  0.00    -0.193 C  
BRANCH  13  14
HETATM   14  C   UNL     1     -10.231   7.868  70.950  1.00  0.00    -0.213 C  
BRANCH  14  15
HETATM   15  C   UNL     1     -11.352   7.715  71.973  1.00  0.00    -0.322 C  
BRANCH  15  16
HETATM   16  C   UNL     1     -12.525   6.933  71.400  1.00  0.00    -0.367 C  
HETATM   17  O   UNL     1     -13.736   7.382  71.988  1.00  0.00    -0.510 OA 
HETATM   18  H   UNL     1     -14.468   6.894  71.630  1.00  0.00     0.000 HD 
ENDBRANCH  15  16
ENDBRANCH  14  15
ENDBRANCH  13  14
ENDBRANCH  12  13
ENDBRANCH  11  12
ENDBRANCH  10  11
ENDBRANCH   9  10
ENDBRANCH   8   9
ENDBRANCH   7   8
ENDBRANCH   6   7
ENDBRANCH   5   6
ENDBRANCH   4   5
ENDBRANCH   3   4
ENDBRANCH   2   3
TORSDOF 14
ENDMDL
MODEL      372
REMARK 921   NORMALIZED FREE ENERGY PREDICTED BY IDOCK:   -2.25 KCAL/MOL
REMARK 922        TOTAL FREE ENERGY PREDICTED BY IDOCK:   -5.47 KCAL/MOL
REMARK 923 INTER-LIGAND FREE ENERGY PREDICTED BY IDOCK:   -4.18 KCAL/MOL
REMARK 924 INTRA-LIGAND FREE ENERGY PREDICTED BY IDOCK:   -1.29 KCAL/MOL
REMARK 927      BINDING AFFINITY PREDICTED BY RF-SCORE:    0.00 PKD
ROOT
HETATM    1  C   UNL     1     -12.146   7.798  72.452  1.00  0.00    -0.297 C  
HETATM    2  C   UNL     1     -13.361   8.709  72.438  1.00  0.00    -0.383 C  
ENDROOT
BRANCH   2   3
HETATM    3  C   UNL     1     -13.409   9.546  71.161  1.00  0.00    -0.314 C  
BRANCH   3   4
HETATM    4  C   UNL     1     -12.073  10.238  70.902  1.00  0.00    -0.468 C  
BRANCH   4   5
HETATM    5  C   UNL     1     -12.146  11.116  69.655  1.00  0.00    -0.406 C  
BRANCH   5   6
HETATM    6  C   UNL     1     -11.717  12.546  69.965  1.00  0.00    -0.297 C  
BRANCH   6   7
HETATM    7  C   UNL     1     -12.140  13.496  68.847  1.00  0.00    -0.315 C  
BRANCH   7   8
HETATM    8  C   UNL     1     -11.039  13.631  67.799  1.00  0.00    -0.293 C  
BRANCH   8   9
HETATM    9  C   UNL     1     -10.235  14.909  68.017  1.00  0.00    -0.228 C  
BRANCH   9  10
HETATM   10  C   UNL     1      -8.757  14.594  68.219  1.00  0.00    -0.173 C  
BRANCH  10  11
HETATM   11  C   UNL     1      -8.254  13.624  67.153  1.00  0.00    -0.123 C  
BRANCH  11  12
HETATM   12  C   UNL     1      -7.784  12.316  67.785  1.00  0.00    -0.139 C  
BRANCH  12  13
HETATM   13  C   UNL     1      -8.577  11.130  67.243  1.00  0.00    -0.140 C  
BRANCH  13  14
HETATM   14  C   UNL     1      -8.768  10.063  68.319  1.00  0.00    -0.119 C  
BRANCH  14  15
HETATM   15  C   UNL     1      -9.774   9.006  67.875  1.00  0.00    -0.185 C  
BRANCH  15  16
HETATM   16  C   UNL     1      -9.610   7.716  68.664  1.00  0.00    -0.152 C  
HETATM   17  O   UNL     1     -10.217   6.643  67.963  1.00  0.00    -0.145 OA 
HETATM   18  H   UNL     1     -10.115   5.837  68.456  1.00  0.00     0.000 HD 
ENDBRANCH  15  16
ENDBRANCH  14  15
ENDBRANCH  13  14
ENDBRANCH  12  13
ENDBRANCH  11  12
ENDBRANCH  10  11
ENDBRANCH   9  10
ENDBRANCH   8   9
ENDBRANCH   7   8
ENDBRANCH   6   7
ENDBRANCH   5   6
ENDBRANCH   4   5
ENDBRANCH   3   4
ENDBRANCH   2   3
TORSDOF 14
ENDMDL
MODEL      373
REMARK 921   NORMALIZED FREE ENERGY PREDICTED BY IDOCK:   -2.25 KCAL/MOL
REMARK 922        TOTAL FREE ENERGY PREDICTED BY IDOCK:   -5.46 KCAL/MOL
REMARK 923 INTER-LIGAND FREE ENERGY PREDICTED BY IDOCK:   -3.97 KCAL/MOL
REMARK 924 INTRA-LIGAND FREE ENERGY PREDICTED BY IDOCK:   -1.50 KCAL/MOL
REMARK 927      BINDING AFFINITY PREDICTED BY RF-SCORE:    0.00 PKD
ROOT
HETATM    1  C   UNL     1      -8.746   6.322  65.564  1.00  0.00    -0.090 C  
HETATM    2  C   UNL     1      -8.061   7.209  66.589  1.00  0.00    -0.109 C  
ENDROOT
BRANCH   2   3
HETATM    3  C   UNL     1      -8.604   6.952  67.993  1.00  0.00    -0.123 C  
BRANCH   3   4
HETATM    4  C   UNL     1      -7.664   7.505  69.062  1.00  0.00    -0.117 C  
BRANCH   4   5
HETATM    5  C   UNL     1      -7.528   6.529  70.227  1.00  0.00    -0.094 C  
BRANCH   5   6
HETATM    6  C   UNL     1      -7.277   7.269  71.537  1.00  0.00    -0.072 C  
BRANCH   6   7
HETATM    7  C   UNL     1      -7.120   6.287  72.696  1.00  0.00    -0.079 C  
BRANCH   7   8
HETATM    8  C   UNL     1      -8.004   5.060  72.495  1.00  0.00    -0.101 C  
BRANCH   8   9
HETATM    9  C   UNL     1      -9.302   5.189  73.286  1.00  0.00    -0.139 C  
BRANCH   9  10
HETATM   10  C   UNL     1     -10.510   4.902  72.400  1.00  0.00    -0.269 C  
BRANCH  10  11
HETATM   11  C   UNL     1     -11.503   6.060  72.436  1.00  0.00    -0.357 C  
BRANCH  11  12
HETATM   12  C   UNL     1     -11.246   7.034  71.290  1.00  0.00    -0.296 C  
BRANCH  12  13
HETATM   13  C   UNL     1     -10.842   8.408  71.819  1.00  0.00    -0.353 C  
BRANCH  13  14
HETATM   14  C   UNL     1     -12.069   9.215  72.238  1.00  0.00    -0.311 C  
BRANCH  14  15
HETATM   15  C   UNL     1     -12.205  10.484  71.402  1.00  0.00    -0.429 C  
BRANCH  15  16
HETATM   16  C   UNL     1     -11.350  10.416  70.146  1.00  0.00    -0.323 C  
HETATM   17  O   UNL     1     -12.183  10.434  68.997  1.00  0.00    -0.701 OA 
HETATM   18  H   UNL     1     -11.650  10.391  68.212  1.00  0.00     0.000 HD 
ENDBRANCH  15  16
ENDBRANCH  14  15
ENDBRANCH  13  14
ENDBRANCH  12  13
ENDBRANCH  11  12
ENDBRANCH  10  11
ENDBRANCH   9  10
ENDBRANCH   8   9
ENDBRANCH   7   8
ENDBRANCH   6   7
ENDBRANCH   5   6
ENDBRANCH   4   5
ENDBRANCH   3   4
ENDBRANCH   2   3
TORSDOF 14
ENDMDL
MODEL      374
REMARK 921   NORMALIZED FREE ENERGY PREDICTED BY IDOCK:   -2.24 KCAL/MOL
REMARK 922        TOTAL FREE ENERGY PREDICTED BY IDOCK:   -5.45 KCAL/MOL
REMARK 923 INTER-LIGAND FREE ENERGY PREDICTED BY IDOCK:   -4.27 KCAL/MOL
REMARK 924 INTRA-LIGAND FREE ENERGY PREDICTED BY IDOCK:   -1.18 KCAL/MOL
REMARK 927      BINDING AFFINITY PREDICTED BY RF-SCORE:    0.00 PKD
ROOT
HETATM    1  C   UNL     1      -5.143   7.471  68.120  1.00  0.00    -0.025 C  
HETATM    2  C   UNL     1      -6.077   6.275  68.051  1.00  0.00    -0.024 C  
ENDROOT
BRANCH   2   3
HETATM    3  C   UNL     1      -7.469   6.688  67.579  1.00  0.00    -0.097 C  
BRANCH   3   4
HETATM    4  C   UNL     1      -7.467   8.108  67.018  1.00  0.00    -0.088 C  
BRANCH   4   5
HETATM    5  C   UNL     1      -8.619   8.925  67.595  1.00  0.00    -0.124 C  
BRANCH   5   6
HETATM    6  C   UNL     1      -8.117   9.929  68.627  1.00  0.00    -0.099 C  
BRANCH   6   7
HETATM    7  C   UNL     1      -8.779  11.291  68.429  1.00  0.00    -0.159 C  
BRANCH   7   8
HETATM    8  C   UNL     1      -9.250  11.464  66.988  1.00  0.00    -0.174 C  
BRANCH   8   9
HETATM    9  C   UNL     1      -9.846  12.853  66.775  1.00  0.00    -0.241 C  
BRANCH   9  10
HETATM   10  C   UNL     1     -11.345  12.766  66.507  1.00  0.00    -0.369 C  
BRANCH  10  11
HETATM   11  C   UNL     1     -12.124  13.656  67.471  1.00  0.00    -0.352 C  
BRANCH  11  12
HETATM   12  C   UNL     1     -11.792  13.312  68.920  1.00  0.00    -0.367 C  
BRANCH  12  13
HETATM   13  C   UNL     1     -12.263  11.903  69.271  1.00  0.00    -0.169 C  
BRANCH  13  14
HETATM   14  C   UNL     1     -12.276  11.693  70.784  1.00  0.00    -0.443 C  
BRANCH  14  15
HETATM   15  C   UNL     1     -12.040  10.227  71.138  1.00  0.00    -0.494 C  
BRANCH  15  16
HETATM   16  C   UNL     1     -13.349   9.509  71.429  1.00  0.00    -0.361 C  
HETATM   17  O   UNL     1     -13.616   9.542  72.822  1.00  0.00    -0.685 OA 
HETATM   18  H   UNL     1     -14.433   9.093  73.005  1.00  0.00     0.000 HD 
ENDBRANCH  15  16
ENDBRANCH  14  15
ENDBRANCH  13  14
ENDBRANCH  12  13
ENDBRANCH  11  12
ENDBRANCH  10  11
ENDBRANCH   9  10
ENDBRANCH   8   9
ENDBRANCH   7   8
ENDBRANCH   6   7
ENDBRANCH   5   6
ENDBRANCH   4   5
ENDBRANCH   3   4
ENDBRANCH   2   3
TORSDOF 14
ENDMDL
MODEL      375
REMARK 921   NORMALIZED FREE ENERGY PREDICTED BY IDOCK:   -2.24 KCAL/MOL
REMARK 922        TOTAL FREE ENERGY PREDICTED BY IDOCK:   -5.45 KCAL/MOL
REMARK 923 INTER-LIGAND FREE ENERGY PREDICTED BY IDOCK:   -4.41 KCAL/MOL
REMARK 924 INTRA-LIGAND FREE ENERGY PREDICTED BY IDOCK:   -1.04 KCAL/MOL
REMARK 927      BINDING AFFINITY PREDICTED BY RF-SCORE:    0.00 PKD
ROOT
HETATM    1  C   UNL     1     -12.058  10.967  69.497  1.00  0.00    -0.380 C  
HETATM    2  C   UNL     1     -11.304  12.111  68.843  1.00  0.00    -0.335 C  
ENDROOT
BRANCH   2   3
HETATM    3  C   UNL     1     -10.723  11.690  67.494  1.00  0.00    -0.257 C  
BRANCH   3   4
HETATM    4  C   UNL     1      -9.536  10.746  67.672  1.00  0.00    -0.174 C  
BRANCH   4   5
HETATM    5  C   UNL     1      -8.215  11.492  67.503  1.00  0.00    -0.140 C  
BRANCH   5   6
HETATM    6  C   UNL     1      -8.452  12.968  67.202  1.00  0.00    -0.176 C  
BRANCH   6   7
HETATM    7  C   UNL     1      -8.088  13.834  68.406  1.00  0.00    -0.148 C  
BRANCH   7   8
HETATM    8  C   UNL     1      -8.641  15.247  68.249  1.00  0.00    -0.159 C  
BRANCH   8   9
HETATM    9  C   UNL     1      -8.073  15.917  67.001  1.00  0.00    -0.265 C  
BRANCH   9  10
HETATM   10  C   UNL     1      -6.560  16.077  67.110  1.00  0.00    -0.177 C  
BRANCH  10  11
HETATM   11  C   UNL     1      -6.164  17.551  67.110  1.00  0.00    -0.180 C  
BRANCH  11  12
HETATM   12  C   UNL     1      -7.090  18.364  66.209  1.00  0.00    -0.287 C  
BRANCH  12  13
HETATM   13  C   UNL     1      -7.063  19.842  66.588  1.00  0.00    -0.253 C  
BRANCH  13  14
HETATM   14  C   UNL     1      -8.402  20.279  67.177  1.00  0.00    -0.394 C  
BRANCH  14  15
HETATM   15  C   UNL     1      -9.547  19.434  66.629  1.00  0.00    -0.429 C  
BRANCH  15  16
HETATM   16  C   UNL     1     -10.443  18.921  67.746  1.00  0.00    -0.416 C  
HETATM   17  O   UNL     1     -10.934  17.631  67.415  1.00  0.00    -0.237 OA 
HETATM   18  H   UNL     1     -11.494  17.311  68.113  1.00  0.00     0.000 HD 
ENDBRANCH  15  16
ENDBRANCH  14  15
ENDBRANCH  13  14
ENDBRANCH  12  13
ENDBRANCH  11  12
ENDBRANCH  10  11
ENDBRANCH   9  10
ENDBRANCH   8   9
ENDBRANCH   7   8
ENDBRANCH   6   7
ENDBRANCH   5   6
ENDBRANCH   4   5
ENDBRANCH   3   4
ENDBRANCH   2   3
TORSDOF 14
ENDMDL
MODEL      376
REMARK 921   NORMALIZED FREE ENERGY PREDICTED BY IDOCK:   -2.21 KCAL/MOL
REMARK 922        TOTAL FREE ENERGY PREDICTED BY IDOCK:   -5.39 KCAL/MOL
REMARK 923 INTER-LIGAND FREE ENERGY PREDICTED BY IDOCK:   -3.67 KCAL/MOL
REMARK 924 INTRA-LIGAND FREE ENERGY PREDICTED BY IDOCK:   -1.72 KCAL/MOL
REMARK 927      BINDING AFFINITY PREDICTED BY RF-SCORE:    0.00 PKD
ROOT
HETATM    1  C   UNL     1      -8.140   8.968  70.135  1.00  0.00    -0.128 C  
HETATM    2  C   UNL     1      -9.533   8.652  70.653  1.00  0.00    -0.218 C  
ENDROOT
BRANCH   2   3
HETATM    3  C   UNL     1     -10.441   9.877  70.578  1.00  0.00    -0.330 C  
BRANCH   3   4
HETATM    4  C   UNL     1     -11.391   9.791  69.385  1.00  0.00    -0.090 C  
BRANCH   4   5
HETATM    5  C   UNL     1     -12.348  10.980  69.362  1.00  0.00    -0.222 C  
BRANCH   5   6
HETATM    6  C   UNL     1     -11.936  12.036  70.383  1.00  0.00    -0.379 C  
BRANCH   6   7
HETATM    7  C   UNL     1     -11.596  13.356  69.694  1.00  0.00    -0.334 C  
BRANCH   7   8
HETATM    8  C   UNL     1     -11.695  13.221  68.177  1.00  0.00    -0.397 C  
BRANCH   8   9
HETATM    9  C   UNL     1     -10.350  13.508  67.517  1.00  0.00    -0.237 C  
BRANCH   9  10
HETATM   10  C   UNL     1      -9.231  12.729  68.201  1.00  0.00    -0.212 C  
BRANCH  10  11
HETATM   11  C   UNL     1      -7.929  12.834  67.412  1.00  0.00    -0.179 C  
BRANCH  11  12
HETATM   12  C   UNL     1      -6.985  11.688  67.764  1.00  0.00    -0.084 C  
BRANCH  12  13
HETATM   13  C   UNL     1      -6.682  10.831  66.537  1.00  0.00    -0.126 C  
BRANCH  13  14
HETATM   14  C   UNL     1      -7.434   9.503  66.600  1.00  0.00    -0.093 C  
BRANCH  14  15
HETATM   15  C   UNL     1      -8.560   9.458  65.573  1.00  0.00    -0.169 C  
BRANCH  15  16
HETATM   16  C   UNL     1      -9.873   9.021  66.206  1.00  0.00    -0.291 C  
HETATM   17  O   UNL     1      -9.685   7.801  66.907  1.00  0.00    -0.182 OA 
HETATM   18  H   UNL     1     -10.504   7.527  67.302  1.00  0.00     0.000 HD 
ENDBRANCH  15  16
ENDBRANCH  14  15
ENDBRANCH  13  14
ENDBRANCH  12  13
ENDBRANCH  11  12
ENDBRANCH  10  11
ENDBRANCH   9  10
ENDBRANCH   8   9
ENDBRANCH   7   8
ENDBRANCH   6   7
ENDBRANCH   5   6
ENDBRANCH   4   5
ENDBRANCH   3   4
ENDBRANCH   2   3
TORSDOF 14
ENDMDL
MODEL      377
REMARK 921   NORMALIZED FREE ENERGY PREDICTED BY IDOCK:   -2.21 KCAL/MOL
REMARK 922        TOTAL FREE ENERGY PREDICTED BY IDOCK:   -5.39 KCAL/MOL
REMARK 923 INTER-LIGAND FREE ENERGY PREDICTED BY IDOCK:   -3.42 KCAL/MOL
REMARK 924 INTRA-LIGAND FREE ENERGY PREDICTED BY IDOCK:   -1.97 KCAL/MOL
REMARK 927      BINDING AFFINITY PREDICTED BY RF-SCORE:    0.00 PKD
ROOT
HETATM    1  C   UNL     1     -10.435  10.653  65.033  1.00  0.00    -0.278 C  
HETATM    2  C   UNL     1      -9.758  11.777  65.798  1.00  0.00    -0.260 C  
ENDROOT
BRANCH   2   3
HETATM    3  C   UNL     1     -10.181  11.780  67.265  1.00  0.00    -0.226 C  
BRANCH   3   4
HETATM    4  C   UNL     1     -11.265  10.738  67.532  1.00  0.00    -0.346 C  
BRANCH   4   5
HETATM    5  C   UNL     1     -11.123  10.149  68.933  1.00  0.00    -0.251 C  
BRANCH   5   6
HETATM    6  C   UNL     1      -9.735  10.422  69.505  1.00  0.00    -0.196 C  
BRANCH   6   7
HETATM    7  C   UNL     1      -9.242   9.233  70.327  1.00  0.00    -0.273 C  
BRANCH   7   8
HETATM    8  C   UNL     1      -7.895   8.734  69.812  1.00  0.00    -0.090 C  
BRANCH   8   9
HETATM    9  C   UNL     1      -7.494   9.471  68.537  1.00  0.00    -0.080 C  
BRANCH   9  10
HETATM   10  C   UNL     1      -7.075   8.487  67.450  1.00  0.00    -0.080 C  
BRANCH  10  11
HETATM   11  C   UNL     1      -8.063   8.504  66.286  1.00  0.00    -0.107 C  
BRANCH  11  12
HETATM   12  C   UNL     1      -9.313   7.695  66.621  1.00  0.00    -0.239 C  
BRANCH  12  13
HETATM   13  C   UNL     1      -8.947   6.282  67.069  1.00  0.00    -0.115 C  
BRANCH  13  14
HETATM   14  C   UNL     1     -10.110   5.319  66.843  1.00  0.00    -0.250 C  
BRANCH  14  15
HETATM   15  C   UNL     1      -9.610   3.894  66.622  1.00  0.00    -0.215 C  
BRANCH  15  16
HETATM   16  C   UNL     1      -9.196   3.242  67.933  1.00  0.00    -0.195 C  
HETATM   17  O   UNL     1      -9.306   1.831  67.824  1.00  0.00    -0.216 OA 
HETATM   18  H   UNL     1      -9.047   1.424  68.642  1.00  0.00     0.000 HD 
ENDBRANCH  15  16
ENDBRANCH  14  15
ENDBRANCH  13  14
ENDBRANCH  12  13
ENDBRANCH  11  12
ENDBRANCH  10  11
ENDBRANCH   9  10
ENDBRANCH   8   9
ENDBRANCH   7   8
ENDBRANCH   6   7
ENDBRANCH   5   6
ENDBRANCH   4   5
ENDBRANCH   3   4
ENDBRANCH   2   3
TORSDOF 14
ENDMDL
MODEL      378
REMARK 921   NORMALIZED FREE ENERGY PREDICTED BY IDOCK:   -2.19 KCAL/MOL
REMARK 922        TOTAL FREE ENERGY PREDICTED BY IDOCK:   -5.37 KCAL/MOL
REMARK 923 INTER-LIGAND FREE ENERGY PREDICTED BY IDOCK:   -3.41 KCAL/MOL
REMARK 924 INTRA-LIGAND FREE ENERGY PREDICTED BY IDOCK:   -1.96 KCAL/MOL
REMARK 927      BINDING AFFINITY PREDICTED BY RF-SCORE:    0.00 PKD
ROOT
HETATM    1  C   UNL     1      -8.645   9.351  68.243  1.00  0.00    -0.120 C  
HETATM    2  C   UNL     1      -9.519   9.827  69.391  1.00  0.00    -0.212 C  
ENDROOT
BRANCH   2   3
HETATM    3  C   UNL     1     -10.795   8.995  69.495  1.00  0.00    -0.177 C  
BRANCH   3   4
HETATM    4  C   UNL     1     -10.541   7.679  70.228  1.00  0.00    -0.233 C  
BRANCH   4   5
HETATM    5  C   UNL     1     -11.374   6.550  69.626  1.00  0.00    -0.443 C  
BRANCH   5   6
HETATM    6  C   UNL     1     -10.530   5.676  68.705  1.00  0.00    -0.277 C  
BRANCH   6   7
HETATM    7  C   UNL     1      -9.217   5.284  69.379  1.00  0.00    -0.152 C  
BRANCH   7   8
HETATM    8  C   UNL     1      -8.508   4.184  68.595  1.00  0.00    -0.101 C  
BRANCH   8   9
HETATM    9  C   UNL     1      -7.066   4.578  68.288  1.00  0.00    -0.057 C  
BRANCH   9  10
HETATM   10  C   UNL     1      -6.878   6.087  68.408  1.00  0.00    -0.074 C  
BRANCH  10  11
HETATM   11  C   UNL     1      -6.348   6.678  67.105  1.00  0.00    -0.041 C  
BRANCH  11  12
HETATM   12  C   UNL     1      -7.399   6.593  66.001  1.00  0.00    -0.076 C  
BRANCH  12  13
HETATM   13  C   UNL     1      -6.906   5.734  64.840  1.00  0.00    -0.051 C  
BRANCH  13  14
HETATM   14  C   UNL     1      -7.947   4.685  64.456  1.00  0.00    -0.094 C  
BRANCH  14  15
HETATM   15  C   UNL     1      -9.295   4.985  65.103  1.00  0.00    -0.062 C  
BRANCH  15  16
HETATM   16  C   UNL     1     -10.333   3.934  64.737  1.00  0.00    -0.173 C  
HETATM   17  O   UNL     1     -11.636   4.480  64.866  1.00  0.00    -1.064 OA 
HETATM   18  H   UNL     1     -12.284   3.824  64.638  1.00  0.00     0.000 HD 
ENDBRANCH  15  16
ENDBRANCH  14  15
ENDBRANCH  13  14
ENDBRANCH  12  13
ENDBRANCH  11  12
ENDBRANCH  10  11
ENDBRANCH   9  10
ENDBRANCH   8   9
ENDBRANCH   7   8
ENDBRANCH   6   7
ENDBRANCH   5   6
ENDBRANCH   4   5
ENDBRANCH   3   4
ENDBRANCH   2   3
TORSDOF 14
ENDMDL
MODEL      379
REMARK 921   NORMALIZED FREE ENERGY PREDICTED BY IDOCK:   -2.18 KCAL/MOL
REMARK 922        TOTAL FREE ENERGY PREDICTED BY IDOCK:   -5.34 KCAL/MOL
REMARK 923 INTER-LIGAND FREE ENERGY PREDICTED BY IDOCK:   -4.52 KCAL/MOL
REMARK 924 INTRA-LIGAND FREE ENERGY PREDICTED BY IDOCK:   -0.82 KCAL/MOL
REMARK 927      BINDING AFFINITY PREDICTED BY RF-SCORE:    0.00 PKD
ROOT
HETATM    1  C   UNL     1      -7.560   7.834  64.988  1.00  0.00    -0.096 C  
HETATM    2  C   UNL     1      -6.208   7.520  65.604  1.00  0.00    -0.038 C  
ENDROOT
BRANCH   2   3
HETATM    3  C   UNL     1      -5.292   8.741  65.578  1.00  0.00    -0.038 C  
BRANCH   3   4
HETATM    4  C   UNL     1      -5.561   9.663  66.765  1.00  0.00    -0.046 C  
BRANCH   4   5
HETATM    5  C   UNL     1      -6.590   9.048  67.711  1.00  0.00    -0.061 C  
BRANCH   5   6
HETATM    6  C   UNL     1      -6.226   9.317  69.167  1.00  0.00    -0.042 C  
BRANCH   6   7
HETATM    7  C   UNL     1      -7.174  10.343  69.785  1.00  0.00    -0.155 C  
BRANCH   7   8
HETATM    8  C   UNL     1      -7.796  11.228  68.709  1.00  0.00    -0.139 C  
BRANCH   8   9
HETATM    9  C   UNL     1      -9.320  11.194  68.791  1.00  0.00    -0.156 C  
BRANCH   9  10
HETATM   10  C   UNL     1      -9.945  11.667  67.483  1.00  0.00    -0.202 C  
BRANCH  10  11
HETATM   11  C   UNL     1      -9.101  11.238  66.286  1.00  0.00    -0.209 C  
BRANCH  11  12
HETATM   12  C   UNL     1      -9.987  10.801  65.122  1.00  0.00    -0.351 C  
BRANCH  12  13
HETATM   13  C   UNL     1     -10.049  11.882  64.046  1.00  0.00    -0.361 C  
BRANCH  13  14
HETATM   14  C   UNL     1     -11.339  12.692  64.158  1.00  0.00    -0.439 C  
BRANCH  14  15
HETATM   15  C   UNL     1     -11.057  14.111  64.641  1.00  0.00    -0.378 C  
BRANCH  15  16
HETATM   16  C   UNL     1     -12.209  15.049  64.311  1.00  0.00    -0.293 C  
HETATM   17  O   UNL     1     -11.702  16.263  63.777  1.00  0.00    -1.511 OA 
HETATM   18  H   UNL     1     -12.421  16.849  63.571  1.00  0.00     0.000 HD 
ENDBRANCH  15  16
ENDBRANCH  14  15
ENDBRANCH  13  14
ENDBRANCH  12  13
ENDBRANCH  11  12
ENDBRANCH  10  11
ENDBRANCH   9  10
ENDBRANCH   8   9
ENDBRANCH   7   8
ENDBRANCH   6   7
ENDBRANCH   5   6
ENDBRANCH   4   5
ENDBRANCH   3   4
ENDBRANCH   2   3
TORSDOF 14
ENDMDL
MODEL      380
REMARK 921   NORMALIZED FREE ENERGY PREDICTED BY IDOCK:   -2.16 KCAL/MOL
REMARK 922        TOTAL FREE ENERGY PREDICTED BY IDOCK:   -5.32 KCAL/MOL
REMARK 923 INTER-LIGAND FREE ENERGY PREDICTED BY IDOCK:   -4.30 KCAL/MOL
REMARK 924 INTRA-LIGAND FREE ENERGY PREDICTED BY IDOCK:   -1.01 KCAL/MOL
REMARK 927      BINDING AFFINITY PREDICTED BY RF-SCORE:    0.00 PKD
ROOT
HETATM    1  C   UNL     1     -10.672  19.776  65.804  1.00  0.00    -0.474 C  
HETATM    2  C   UNL     1      -9.535  19.968  66.792  1.00  0.00    -0.530 C  
ENDROOT
BRANCH   2   3
HETATM    3  C   UNL     1      -9.954  19.559  68.203  1.00  0.00    -0.522 C  
BRANCH   3   4
HETATM    4  C   UNL     1     -10.512  18.138  68.226  1.00  0.00    -0.333 C  
BRANCH   4   5
HETATM    5  C   UNL     1      -9.698  17.247  69.161  1.00  0.00    -0.129 C  
BRANCH   5   6
HETATM    6  C   UNL     1      -9.915  15.772  68.840  1.00  0.00    -0.223 C  
BRANCH   6   7
HETATM    7  C   UNL     1     -11.186  15.575  68.017  1.00  0.00    -0.332 C  
BRANCH   7   8
HETATM    8  C   UNL     1     -11.853  14.244  68.353  1.00  0.00    -0.373 C  
BRANCH   8   9
HETATM    9  C   UNL     1     -12.019  14.085  69.861  1.00  0.00    -0.399 C  
BRANCH   9  10
HETATM   10  C   UNL     1     -11.297  12.837  70.359  1.00  0.00     0.535 C  
BRANCH  10  11
HETATM   11  C   UNL     1     -12.195  11.607  70.251  1.00  0.00    -0.401 C  
BRANCH  11  12
HETATM   12  C   UNL     1     -11.623  10.600  69.258  1.00  0.00    -0.346 C  
BRANCH  12  13
HETATM   13  C   UNL     1     -10.176  10.938  68.907  1.00  0.00    -0.213 C  
BRANCH  13  14
HETATM   14  C   UNL     1      -9.243   9.784  69.267  1.00  0.00    -0.197 C  
BRANCH  14  15
HETATM   15  C   UNL     1      -8.046   9.728  68.323  1.00  0.00    -0.104 C  
BRANCH  15  16
HETATM   16  C   UNL     1      -8.488   9.612  66.872  1.00  0.00    -0.120 C  
HETATM   17  O   UNL     1      -7.989  10.712  66.128  1.00  0.00    -0.141 OA 
HETATM   18  H   UNL     1      -8.265  10.640  65.222  1.00  0.00     0.000 HD 
ENDBRANCH  15  16
ENDBRANCH  14  15
ENDBRANCH  13  14
ENDBRANCH  12  13
ENDBRANCH  11  12
ENDBRANCH  10  11
ENDBRANCH   9  10
ENDBRANCH   8   9
ENDBRANCH   7   8
ENDBRANCH   6   7
ENDBRANCH   5   6
ENDBRANCH   4   5
ENDBRANCH   3   4
ENDBRANCH   2   3
TORSDOF 14
ENDMDL
MODEL      381
REMARK 921   NORMALIZED FREE ENERGY PREDICTED BY IDOCK:   -2.14 KCAL/MOL
REMARK 922        TOTAL FREE ENERGY PREDICTED BY IDOCK:   -5.27 KCAL/MOL
REMARK 923 INTER-LIGAND FREE ENERGY PREDICTED BY IDOCK:   -3.90 KCAL/MOL
REMARK 924 INTRA-LIGAND FREE ENERGY PREDICTED BY IDOCK:   -1.38 KCAL/MOL
REMARK 927      BINDING AFFINITY PREDICTED BY RF-SCORE:    0.00 PKD
ROOT
HETATM    1  C   UNL     1      -8.380  17.312  68.385  1.00  0.00    -0.261 C  
HETATM    2  C   UNL     1      -8.978  15.942  68.659  1.00  0.00    -0.203 C  
ENDROOT
BRANCH   2   3
HETATM    3  C   UNL     1     -10.432  16.054  69.112  1.00  0.00    -0.251 C  
BRANCH   3   4
HETATM    4  C   UNL     1     -11.349  15.185  68.254  1.00  0.00    -0.338 C  
BRANCH   4   5
HETATM    5  C   UNL     1     -10.701  14.872  66.907  1.00  0.00    -0.308 C  
BRANCH   5   6
HETATM    6  C   UNL     1     -10.920  13.414  66.518  1.00  0.00    -0.299 C  
BRANCH   6   7
HETATM    7  C   UNL     1     -10.291  12.476  67.547  1.00  0.00    -0.225 C  
BRANCH   7   8
HETATM    8  C   UNL     1      -8.833  12.186  67.202  1.00  0.00    -0.191 C  
BRANCH   8   9
HETATM    9  C   UNL     1      -8.067  11.716  68.434  1.00  0.00    -0.153 C  
BRANCH   9  10
HETATM   10  C   UNL     1      -8.571  10.355  68.901  1.00  0.00    -0.149 C  
BRANCH  10  11
HETATM   11  C   UNL     1      -8.421   9.309  67.799  1.00  0.00    -0.116 C  
BRANCH  11  12
HETATM   12  C   UNL     1      -9.738   8.574  67.563  1.00  0.00    -0.209 C  
BRANCH  12  13
HETATM   13  C   UNL     1      -9.779   7.261  68.340  1.00  0.00    -0.151 C  
BRANCH  13  14
HETATM   14  C   UNL     1     -10.986   7.218  69.275  1.00  0.00    -0.121 C  
BRANCH  14  15
HETATM   15  C   UNL     1     -10.591   7.589  70.701  1.00  0.00    -0.231 C  
BRANCH  15  16
HETATM   16  C   UNL     1     -11.434   8.741  71.228  1.00  0.00    -0.292 C  
HETATM   17  O   UNL     1     -11.722   9.647  70.175  1.00  0.00    -0.400 OA 
HETATM   18  H   UNL     1     -12.247  10.367  70.504  1.00  0.00     0.000 HD 
ENDBRANCH  15  16
ENDBRANCH  14  15
ENDBRANCH  13  14
ENDBRANCH  12  13
ENDBRANCH  11  12
ENDBRANCH  10  11
ENDBRANCH   9  10
ENDBRANCH   8   9
ENDBRANCH   7   8
ENDBRANCH   6   7
ENDBRANCH   5   6
ENDBRANCH   4   5
ENDBRANCH   3   4
ENDBRANCH   2   3
TORSDOF 14
ENDMDL
MODEL      382
REMARK 921   NORMALIZED FREE ENERGY PREDICTED BY IDOCK:   -2.14 KCAL/MOL
REMARK 922        TOTAL FREE ENERGY PREDICTED BY IDOCK:   -5.27 KCAL/MOL
REMARK 923 INTER-LIGAND FREE ENERGY PREDICTED BY IDOCK:   -3.37 KCAL/MOL
REMARK 924 INTRA-LIGAND FREE ENERGY PREDICTED BY IDOCK:   -1.91 KCAL/MOL
REMARK 927      BINDING AFFINITY PREDICTED BY RF-SCORE:    0.00 PKD
ROOT
HETATM    1  C   UNL     1      -8.421   6.290  65.399  1.00  0.00    -0.131 C  
HETATM    2  C   UNL     1      -7.880   6.853  66.702  1.00  0.00    -0.107 C  
ENDROOT
BRANCH   2   3
HETATM    3  C   UNL     1      -8.319   6.006  67.894  1.00  0.00    -0.116 C  
BRANCH   3   4
HETATM    4  C   UNL     1      -7.710   6.523  69.196  1.00  0.00    -0.102 C  
BRANCH   4   5
HETATM    5  C   UNL     1      -7.703   5.433  70.265  1.00  0.00    -0.077 C  
BRANCH   5   6
HETATM    6  C   UNL     1      -7.702   6.038  71.665  1.00  0.00    -0.101 C  
BRANCH   6   7
HETATM    7  C   UNL     1      -8.728   5.345  72.559  1.00  0.00    -0.124 C  
BRANCH   7   8
HETATM    8  C   UNL     1     -10.084   5.254  71.864  1.00  0.00    -0.252 C  
BRANCH   8   9
HETATM    9  C   UNL     1     -10.964   6.443  72.234  1.00  0.00    -0.289 C  
BRANCH   9  10
HETATM   10  C   UNL     1     -11.941   6.767  71.109  1.00  0.00    -0.421 C  
BRANCH  10  11
HETATM   11  C   UNL     1     -11.201   7.246  69.863  1.00  0.00    -0.195 C  
BRANCH  11  12
HETATM   12  C   UNL     1     -10.408   8.517  70.156  1.00  0.00    -0.214 C  
BRANCH  12  13
HETATM   13  C   UNL     1     -10.777   9.630  69.178  1.00  0.00    -0.237 C  
BRANCH  13  14
HETATM   14  C   UNL     1     -10.544   9.188  67.735  1.00  0.00    -0.289 C  
BRANCH  14  15
HETATM   15  C   UNL     1      -9.563  10.117  67.026  1.00  0.00    -0.209 C  
BRANCH  15  16
HETATM   16  C   UNL     1      -9.964  11.576  67.186  1.00  0.00    -0.199 C  
HETATM   17  O   UNL     1     -11.166  11.825  66.473  1.00  0.00    -0.306 OA 
HETATM   18  H   UNL     1     -11.417  12.736  66.573  1.00  0.00     0.000 HD 
ENDBRANCH  15  16
ENDBRANCH  14  15
ENDBRANCH  13  14
ENDBRANCH  12  13
ENDBRANCH  11  12
ENDBRANCH  10  11
ENDBRANCH   9  10
ENDBRANCH   8   9
ENDBRANCH   7   8
ENDBRANCH   6   7
ENDBRANCH   5   6
ENDBRANCH   4   5
ENDBRANCH   3   4
ENDBRANCH   2   3
TORSDOF 14
ENDMDL
MODEL      383
REMARK 921   NORMALIZED FREE ENERGY PREDICTED BY IDOCK:   -2.14 KCAL/MOL
REMARK 922        TOTAL FREE ENERGY PREDICTED BY IDOCK:   -5.26 KCAL/MOL
REMARK 923 INTER-LIGAND FREE ENERGY PREDICTED BY IDOCK:   -4.35 KCAL/MOL
REMARK 924 INTRA-LIGAND FREE ENERGY PREDICTED BY IDOCK:   -0.92 KCAL/MOL
REMARK 927      BINDING AFFINITY PREDICTED BY RF-SCORE:    0.00 PKD
ROOT
HETATM    1  C   UNL     1      -9.911   4.443  70.174  1.00  0.00    -0.249 C  
HETATM    2  C   UNL     1      -9.857   5.896  69.735  1.00  0.00    -0.217 C  
ENDROOT
BRANCH   2   3
HETATM    3  C   UNL     1     -10.645   6.791  70.689  1.00  0.00    -0.257 C  
BRANCH   3   4
HETATM    4  C   UNL     1     -12.131   6.802  70.341  1.00  0.00    -0.270 C  
BRANCH   4   5
HETATM    5  C   UNL     1     -12.983   7.026  71.588  1.00  0.00    -0.400 C  
BRANCH   5   6
HETATM    6  C   UNL     1     -14.302   7.706  71.237  1.00  0.00    -0.438 C  
BRANCH   6   7
HETATM    7  C   UNL     1     -14.401   9.078  71.901  1.00  0.00    -0.300 C  
BRANCH   7   8
HETATM    8  C   UNL     1     -13.765  10.154  71.026  1.00  0.00     0.078 C  
BRANCH   8   9
HETATM    9  C   UNL     1     -12.284  10.317  71.355  1.00  0.00    -0.481 C  
BRANCH   9  10
HETATM   10  C   UNL     1     -11.612  11.275  70.377  1.00  0.00    -0.319 C  
BRANCH  10  11
HETATM   11  C   UNL     1     -12.409  11.381  69.080  1.00  0.00    -0.033 C  
BRANCH  11  12
HETATM   12  C   UNL     1     -11.765  12.382  68.125  1.00  0.00    -0.408 C  
BRANCH  12  13
HETATM   13  C   UNL     1     -11.017  11.666  67.003  1.00  0.00    -0.338 C  
BRANCH  13  14
HETATM   14  C   UNL     1     -11.091  10.151  67.178  1.00  0.00    -0.122 C  
BRANCH  14  15
HETATM   15  C   UNL     1     -10.120   9.440  66.240  1.00  0.00    -0.328 C  
BRANCH  15  16
HETATM   16  C   UNL     1      -8.895   8.936  66.988  1.00  0.00    -0.126 C  
HETATM   17  O   UNL     1      -9.214   8.740  68.357  1.00  0.00    -0.138 OA 
HETATM   18  H   UNL     1      -8.449   8.426  68.824  1.00  0.00     0.000 HD 
ENDBRANCH  15  16
ENDBRANCH  14  15
ENDBRANCH  13  14
ENDBRANCH  12  13
ENDBRANCH  11  12
ENDBRANCH  10  11
ENDBRANCH   9  10
ENDBRANCH   8   9
ENDBRANCH   7   8
ENDBRANCH   6   7
ENDBRANCH   5   6
ENDBRANCH   4   5
ENDBRANCH   3   4
ENDBRANCH   2   3
TORSDOF 14
ENDMDL
MODEL      384
REMARK 921   NORMALIZED FREE ENERGY PREDICTED BY IDOCK:   -2.13 KCAL/MOL
REMARK 922        TOTAL FREE ENERGY PREDICTED BY IDOCK:   -5.25 KCAL/MOL
REMARK 923 INTER-LIGAND FREE ENERGY PREDICTED BY IDOCK:   -4.18 KCAL/MOL
REMARK 924 INTRA-LIGAND FREE ENERGY PREDICTED BY IDOCK:   -1.08 KCAL/MOL
REMARK 927      BINDING AFFINITY PREDICTED BY RF-SCORE:    0.00 PKD
ROOT
HETATM    1  C   UNL     1     -11.146  11.905  65.256  1.00  0.00    -0.354 C  
HETATM    2  C   UNL     1     -11.645  12.540  66.543  1.00  0.00    -0.447 C  
ENDROOT
BRANCH   2   3
HETATM    3  C   UNL     1     -12.071  13.988  66.315  1.00  0.00    -0.482 C  
BRANCH   3   4
HETATM    4  C   UNL     1     -11.786  14.851  67.542  1.00  0.00    -0.328 C  
BRANCH   4   5
HETATM    5  C   UNL     1     -10.387  15.458  67.469  1.00  0.00    -0.264 C  
BRANCH   5   6
HETATM    6  C   UNL     1      -9.408  14.687  68.348  1.00  0.00    -0.201 C  
BRANCH   6   7
HETATM    7  C   UNL     1      -8.328  14.017  67.502  1.00  0.00    -0.200 C  
BRANCH   7   8
HETATM    8  C   UNL     1      -6.968  14.096  68.189  1.00  0.00    -0.126 C  
BRANCH   8   9
HETATM    9  C   UNL     1      -5.993  13.090  67.583  1.00  0.00    -0.145 C  
BRANCH   9  10
HETATM   10  C   UNL     1      -6.739  11.894  67.001  1.00  0.00    -0.119 C  
BRANCH  10  11
HETATM   11  C   UNL     1      -5.792  10.988  66.218  1.00  0.00    -0.148 C  
BRANCH  11  12
HETATM   12  C   UNL     1      -6.358   9.575  66.106  1.00  0.00    -0.069 C  
BRANCH  12  13
HETATM   13  C   UNL     1      -7.763   9.499  66.700  1.00  0.00    -0.098 C  
BRANCH  13  14
HETATM   14  C   UNL     1      -8.242   8.052  66.785  1.00  0.00    -0.111 C  
BRANCH  14  15
HETATM   15  C   UNL     1      -9.398   7.911  67.771  1.00  0.00    -0.153 C  
BRANCH  15  16
HETATM   16  C   UNL     1     -10.743   8.006  67.066  1.00  0.00    -0.193 C  
HETATM   17  O   UNL     1     -11.287   6.706  66.893  1.00  0.00    -0.738 OA 
HETATM   18  H   UNL     1     -12.127   6.765  66.453  1.00  0.00     0.000 HD 
ENDBRANCH  15  16
ENDBRANCH  14  15
ENDBRANCH  13  14
ENDBRANCH  12  13
ENDBRANCH  11  12
ENDBRANCH  10  11
ENDBRANCH   9  10
ENDBRANCH   8   9
ENDBRANCH   7   8
ENDBRANCH   6   7
ENDBRANCH   5   6
ENDBRANCH   4   5
ENDBRANCH   3   4
ENDBRANCH   2   3
TORSDOF 14
ENDMDL
MODEL      385
REMARK 921   NORMALIZED FREE ENERGY PREDICTED BY IDOCK:   -2.11 KCAL/MOL
REMARK 922        TOTAL FREE ENERGY PREDICTED BY IDOCK:   -5.22 KCAL/MOL
REMARK 923 INTER-LIGAND FREE ENERGY PREDICTED BY IDOCK:   -4.23 KCAL/MOL
REMARK 924 INTRA-LIGAND FREE ENERGY PREDICTED BY IDOCK:   -0.99 KCAL/MOL
REMARK 927      BINDING AFFINITY PREDICTED BY RF-SCORE:    0.00 PKD
ROOT
HETATM    1  C   UNL     1     -10.403  16.197  69.576  1.00  0.00    -0.282 C  
HETATM    2  C   UNL     1     -11.404  15.425  68.733  1.00  0.00    -0.328 C  
ENDROOT
BRANCH   2   3
HETATM    3  C   UNL     1     -10.834  14.077  68.296  1.00  0.00    -0.268 C  
BRANCH   3   4
HETATM    4  C   UNL     1     -10.039  14.205  66.998  1.00  0.00    -0.261 C  
BRANCH   4   5
HETATM    5  C   UNL     1      -9.369  12.882  66.636  1.00  0.00    -0.240 C  
BRANCH   5   6
HETATM    6  C   UNL     1      -9.968  12.295  65.362  1.00  0.00    -0.264 C  
BRANCH   6   7
HETATM    7  C   UNL     1     -10.756  11.023  65.668  1.00  0.00    -0.217 C  
BRANCH   7   8
HETATM    8  C   UNL     1      -9.851   9.796  65.626  1.00  0.00    -0.371 C  
BRANCH   8   9
HETATM    9  C   UNL     1     -10.021   8.951  66.885  1.00  0.00    -0.315 C  
BRANCH   9  10
HETATM   10  C   UNL     1     -10.696   9.756  67.992  1.00  0.00    -0.298 C  
BRANCH  10  11
HETATM   11  C   UNL     1     -10.763   8.953  69.288  1.00  0.00    -0.177 C  
BRANCH  11  12
HETATM   12  C   UNL     1      -9.790   9.508  70.324  1.00  0.00    -0.313 C  
BRANCH  12  13
HETATM   13  C   UNL     1      -9.655   8.560  71.513  1.00  0.00    -0.297 C  
BRANCH  13  14
HETATM   14  C   UNL     1      -8.235   8.585  72.073  1.00  0.00    -0.192 C  
BRANCH  14  15
HETATM   15  C   UNL     1      -7.211   8.247  70.994  1.00  0.00    -0.061 C  
BRANCH  15  16
HETATM   16  C   UNL     1      -5.830   8.772  71.355  1.00  0.00    -0.049 C  
HETATM   17  O   UNL     1      -5.940  10.077  71.903  1.00  0.00    -0.300 OA 
HETATM   18  H   UNL     1      -5.078  10.406  72.128  1.00  0.00     0.000 HD 
ENDBRANCH  15  16
ENDBRANCH  14  15
ENDBRANCH  13  14
ENDBRANCH  12  13
ENDBRANCH  11  12
ENDBRANCH  10  11
ENDBRANCH   9  10
ENDBRANCH   8   9
ENDBRANCH   7   8
ENDBRANCH   6   7
ENDBRANCH   5   6
ENDBRANCH   4   5
ENDBRANCH   3   4
ENDBRANCH   2   3
TORSDOF 14
ENDMDL
MODEL      386
REMARK 921   NORMALIZED FREE ENERGY PREDICTED BY IDOCK:   -2.10 KCAL/MOL
REMARK 922        TOTAL FREE ENERGY PREDICTED BY IDOCK:   -5.20 KCAL/MOL
REMARK 923 INTER-LIGAND FREE ENERGY PREDICTED BY IDOCK:   -4.51 KCAL/MOL
REMARK 924 INTRA-LIGAND FREE ENERGY PREDICTED BY IDOCK:   -0.69 KCAL/MOL
REMARK 927      BINDING AFFINITY PREDICTED BY RF-SCORE:    0.00 PKD
ROOT
HETATM    1  C   UNL     1      -9.882  20.366  67.127  1.00  0.00    -0.601 C  
HETATM    2  C   UNL     1     -10.731  19.119  67.303  1.00  0.00    -0.585 C  
ENDROOT
BRANCH   2   3
HETATM    3  C   UNL     1     -10.046  18.110  68.224  1.00  0.00    -0.398 C  
BRANCH   3   4
HETATM    4  C   UNL     1     -10.937  16.896  68.477  1.00  0.00    -0.290 C  
BRANCH   4   5
HETATM    5  C   UNL     1     -10.346  16.004  69.566  1.00  0.00    -0.278 C  
BRANCH   5   6
HETATM    6  C   UNL     1      -9.130  15.241  69.051  1.00  0.00    -0.225 C  
BRANCH   6   7
HETATM    7  C   UNL     1      -9.468  14.476  67.773  1.00  0.00    -0.210 C  
BRANCH   7   8
HETATM    8  C   UNL     1      -9.386  12.970  68.000  1.00  0.00    -0.213 C  
BRANCH   8   9
HETATM    9  C   UNL     1     -10.226  12.218  66.972  1.00  0.00    -0.230 C  
BRANCH   9  10
HETATM   10  C   UNL     1      -9.450  11.040  66.392  1.00  0.00    -0.218 C  
BRANCH  10  11
HETATM   11  C   UNL     1     -10.183   9.725  66.644  1.00  0.00    -0.296 C  
BRANCH  11  12
HETATM   12  C   UNL     1     -10.423   9.513  68.137  1.00  0.00    -0.268 C  
BRANCH  12  13
HETATM   13  C   UNL     1      -9.319   8.658  68.753  1.00  0.00    -0.142 C  
BRANCH  13  14
HETATM   14  C   UNL     1      -9.891   7.374  69.349  1.00  0.00    -0.168 C  
BRANCH  14  15
HETATM   15  C   UNL     1     -10.127   6.323  68.269  1.00  0.00    -0.172 C  
BRANCH  15  16
HETATM   16  C   UNL     1      -9.095   5.207  68.345  1.00  0.00    -0.112 C  
HETATM   17  O   UNL     1      -7.998   5.509  67.496  1.00  0.00    -0.100 OA 
HETATM   18  H   UNL     1      -7.354   4.812  67.543  1.00  0.00     0.000 HD 
ENDBRANCH  15  16
ENDBRANCH  14  15
ENDBRANCH  13  14
ENDBRANCH  12  13
ENDBRANCH  11  12
ENDBRANCH  10  11
ENDBRANCH   9  10
ENDBRANCH   8   9
ENDBRANCH   7   8
ENDBRANCH   6   7
ENDBRANCH   5   6
ENDBRANCH   4   5
ENDBRANCH   3   4
ENDBRANCH   2   3
TORSDOF 14
ENDMDL
MODEL      387
REMARK 921   NORMALIZED FREE ENERGY PREDICTED BY IDOCK:   -2.08 KCAL/MOL
REMARK 922        TOTAL FREE ENERGY PREDICTED BY IDOCK:   -5.17 KCAL/MOL
REMARK 923 INTER-LIGAND FREE ENERGY PREDICTED BY IDOCK:   -4.31 KCAL/MOL
REMARK 924 INTRA-LIGAND FREE ENERGY PREDICTED BY IDOCK:   -0.86 KCAL/MOL
REMARK 927      BINDING AFFINITY PREDICTED BY RF-SCORE:    0.00 PKD
ROOT
HETATM    1  C   UNL     1      -8.732   2.920  70.979  1.00  0.00    -0.122 C  
HETATM    2  C   UNL     1      -8.273   4.331  70.653  1.00  0.00    -0.076 C  
ENDROOT
BRANCH   2   3
HETATM    3  C   UNL     1      -9.043   5.366  71.471  1.00  0.00    -0.158 C  
BRANCH   3   4
HETATM    4  C   UNL     1     -10.435   5.608  70.890  1.00  0.00    -0.323 C  
BRANCH   4   5
HETATM    5  C   UNL     1     -11.376   6.177  71.948  1.00  0.00    -0.350 C  
BRANCH   5   6
HETATM    6  C   UNL     1     -12.365   7.161  71.331  1.00  0.00    -0.415 C  
BRANCH   6   7
HETATM    7  C   UNL     1     -11.824   8.588  71.394  1.00  0.00    -0.345 C  
BRANCH   7   8
HETATM    8  C   UNL     1     -11.582   9.142  69.993  1.00  0.00     0.036 C  
BRANCH   8   9
HETATM    9  C   UNL     1     -10.230   8.684  69.453  1.00  0.00    -0.211 C  
BRANCH   9  10
HETATM   10  C   UNL     1     -10.212   8.720  67.929  1.00  0.00    -0.272 C  
BRANCH  10  11
HETATM   11  C   UNL     1      -8.798   8.515  67.393  1.00  0.00    -0.140 C  
BRANCH  11  12
HETATM   12  C   UNL     1      -8.763   8.670  65.875  1.00  0.00    -0.201 C  
BRANCH  12  13
HETATM   13  C   UNL     1      -7.906   9.866  65.466  1.00  0.00    -0.126 C  
BRANCH  13  14
HETATM   14  C   UNL     1      -8.780  11.059  65.087  1.00  0.00    -0.068 C  
BRANCH  14  15
HETATM   15  C   UNL     1      -9.979  10.620  64.250  1.00  0.00    -0.413 C  
BRANCH  15  16
HETATM   16  C   UNL     1     -10.991  11.745  64.097  1.00  0.00    -0.374 C  
HETATM   17  O   UNL     1     -12.074  11.311  63.289  1.00  0.00    -0.749 OA 
HETATM   18  H   UNL     1     -12.706  12.014  63.193  1.00  0.00     0.000 HD 
ENDBRANCH  15  16
ENDBRANCH  14  15
ENDBRANCH  13  14
ENDBRANCH  12  13
ENDBRANCH  11  12
ENDBRANCH  10  11
ENDBRANCH   9  10
ENDBRANCH   8   9
ENDBRANCH   7   8
ENDBRANCH   6   7
ENDBRANCH   5   6
ENDBRANCH   4   5
ENDBRANCH   3   4
ENDBRANCH   2   3
TORSDOF 14
ENDMDL
MODEL      388
REMARK 921   NORMALIZED FREE ENERGY PREDICTED BY IDOCK:   -2.08 KCAL/MOL
REMARK 922        TOTAL FREE ENERGY PREDICTED BY IDOCK:   -5.17 KCAL/MOL
REMARK 923 INTER-LIGAND FREE ENERGY PREDICTED BY IDOCK:   -3.81 KCAL/MOL
REMARK 924 INTRA-LIGAND FREE ENERGY PREDICTED BY IDOCK:   -1.36 KCAL/MOL
REMARK 927      BINDING AFFINITY PREDICTED BY RF-SCORE:    0.00 PKD
ROOT
HETATM    1  C   UNL     1     -11.872  11.450  68.403  1.00  0.00    -0.344 C  
HETATM    2  C   UNL     1     -10.587  12.249  68.273  1.00  0.00    -0.243 C  
ENDROOT
BRANCH   2   3
HETATM    3  C   UNL     1      -9.921  12.007  66.920  1.00  0.00    -0.218 C  
BRANCH   3   4
HETATM    4  C   UNL     1     -10.952  11.658  65.849  1.00  0.00    -0.334 C  
BRANCH   4   5
HETATM    5  C   UNL     1     -10.517  10.431  65.051  1.00  0.00    -0.139 C  
BRANCH   5   6
HETATM    6  C   UNL     1      -9.293   9.773  65.681  1.00  0.00    -0.285 C  
BRANCH   6   7
HETATM    7  C   UNL     1      -9.609   8.347  66.124  1.00  0.00    -0.246 C  
BRANCH   7   8
HETATM    8  C   UNL     1      -9.200   8.123  67.577  1.00  0.00    -0.154 C  
BRANCH   8   9
HETATM    9  C   UNL     1      -8.406   6.829  67.725  1.00  0.00    -0.119 C  
BRANCH   9  10
HETATM   10  C   UNL     1      -9.312   5.613  67.562  1.00  0.00    -0.109 C  
BRANCH  10  11
HETATM   11  C   UNL     1      -9.497   4.887  68.891  1.00  0.00    -0.202 C  
BRANCH  11  12
HETATM   12  C   UNL     1      -8.277   5.071  69.788  1.00  0.00    -0.077 C  
BRANCH  12  13
HETATM   13  C   UNL     1      -8.689   5.214  71.251  1.00  0.00    -0.137 C  
BRANCH  13  14
HETATM   14  C   UNL     1      -9.229   6.615  71.532  1.00  0.00    -0.146 C  
BRANCH  14  15
HETATM   15  C   UNL     1     -10.495   6.556  72.381  1.00  0.00    -0.229 C  
BRANCH  15  16
HETATM   16  C   UNL     1     -11.732   6.882  71.557  1.00  0.00    -0.311 C  
HETATM   17  O   UNL     1     -12.873   6.928  72.401  1.00  0.00    -0.514 OA 
HETATM   18  H   UNL     1     -13.645   7.131  71.886  1.00  0.00     0.000 HD 
ENDBRANCH  15  16
ENDBRANCH  14  15
ENDBRANCH  13  14
ENDBRANCH  12  13
ENDBRANCH  11  12
ENDBRANCH  10  11
ENDBRANCH   9  10
ENDBRANCH   8   9
ENDBRANCH   7   8
ENDBRANCH   6   7
ENDBRANCH   5   6
ENDBRANCH   4   5
ENDBRANCH   3   4
ENDBRANCH   2   3
TORSDOF 14
ENDMDL
MODEL      389
REMARK 921   NORMALIZED FREE ENERGY PREDICTED BY IDOCK:   -2.08 KCAL/MOL
REMARK 922        TOTAL FREE ENERGY PREDICTED BY IDOCK:   -5.16 KCAL/MOL
REMARK 923 INTER-LIGAND FREE ENERGY PREDICTED BY IDOCK:   -3.82 KCAL/MOL
REMARK 924 INTRA-LIGAND FREE ENERGY PREDICTED BY IDOCK:   -1.34 KCAL/MOL
REMARK 927      BINDING AFFINITY PREDICTED BY RF-SCORE:    0.00 PKD
ROOT
HETATM    1  C   UNL     1      -9.403   5.412  66.113  1.00  0.00    -0.167 C  
HETATM    2  C   UNL     1      -8.281   5.454  67.136  1.00  0.00    -0.104 C  
ENDROOT
BRANCH   2   3
HETATM    3  C   UNL     1      -8.643   4.653  68.385  1.00  0.00    -0.106 C  
BRANCH   3   4
HETATM    4  C   UNL     1      -9.868   5.239  69.084  1.00  0.00    -0.257 C  
BRANCH   4   5
HETATM    5  C   UNL     1      -9.841   4.934  70.579  1.00  0.00    -0.297 C  
BRANCH   5   6
HETATM    6  C   UNL     1     -11.090   5.471  71.271  1.00  0.00    -0.134 C  
BRANCH   6   7
HETATM    7  C   UNL     1     -10.974   5.333  72.787  1.00  0.00    -0.331 C  
BRANCH   7   8
HETATM    8  C   UNL     1     -10.785   6.696  73.447  1.00  0.00    -0.315 C  
BRANCH   8   9
HETATM    9  C   UNL     1      -9.370   7.219  73.217  1.00  0.00    -0.226 C  
BRANCH   9  10
HETATM   10  C   UNL     1      -9.397   8.658  72.714  1.00  0.00    -0.105 C  
BRANCH  10  11
HETATM   11  C   UNL     1      -8.576   8.807  71.436  1.00  0.00    -0.254 C  
BRANCH  11  12
HETATM   12  C   UNL     1      -9.439   8.555  70.202  1.00  0.00    -0.169 C  
BRANCH  12  13
HETATM   13  C   UNL     1      -8.731   9.026  68.934  1.00  0.00    -0.136 C  
BRANCH  13  14
HETATM   14  C   UNL     1      -9.129  10.460  68.587  1.00  0.00    -0.157 C  
BRANCH  14  15
HETATM   15  C   UNL     1     -10.624  10.562  68.297  1.00  0.00    -0.240 C  
BRANCH  15  16
HETATM   16  C   UNL     1     -11.025  11.987  67.949  1.00  0.00    -0.220 C  
HETATM   17  O   UNL     1     -12.086  11.970  67.006  1.00  0.00    -0.603 OA 
HETATM   18  H   UNL     1     -12.337  12.860  66.788  1.00  0.00     0.000 HD 
ENDBRANCH  15  16
ENDBRANCH  14  15
ENDBRANCH  13  14
ENDBRANCH  12  13
ENDBRANCH  11  12
ENDBRANCH  10  11
ENDBRANCH   9  10
ENDBRANCH   8   9
ENDBRANCH   7   8
ENDBRANCH   6   7
ENDBRANCH   5   6
ENDBRANCH   4   5
ENDBRANCH   3   4
ENDBRANCH   2   3
TORSDOF 14
ENDMDL
MODEL      390
REMARK 921   NORMALIZED FREE ENERGY PREDICTED BY IDOCK:   -2.08 KCAL/MOL
REMARK 922        TOTAL FREE ENERGY PREDICTED BY IDOCK:   -5.16 KCAL/MOL
REMARK 923 INTER-LIGAND FREE ENERGY PREDICTED BY IDOCK:   -3.81 KCAL/MOL
REMARK 924 INTRA-LIGAND FREE ENERGY PREDICTED BY IDOCK:   -1.35 KCAL/MOL
REMARK 927      BINDING AFFINITY PREDICTED BY RF-SCORE:    0.00 PKD
ROOT
HETATM    1  C   UNL     1      -8.872   2.987  71.032  1.00  0.00    -0.144 C  
HETATM    2  C   UNL     1      -8.500   4.446  70.825  1.00  0.00    -0.098 C  
ENDROOT
BRANCH   2   3
HETATM    3  C   UNL     1      -9.283   5.354  71.771  1.00  0.00    -0.160 C  
BRANCH   3   4
HETATM    4  C   UNL     1     -10.694   5.614  71.248  1.00  0.00    -0.312 C  
BRANCH   4   5
HETATM    5  C   UNL     1     -11.580   6.210  72.340  1.00  0.00    -0.338 C  
BRANCH   5   6
HETATM    6  C   UNL     1     -12.394   7.384  71.806  1.00  0.00    -0.365 C  
BRANCH   6   7
HETATM    7  C   UNL     1     -11.729   8.712  72.160  1.00  0.00    -0.442 C  
BRANCH   7   8
HETATM    8  C   UNL     1     -11.346   9.484  70.901  1.00  0.00    -0.410 C  
BRANCH   8   9
HETATM    9  C   UNL     1      -9.945   9.101  70.434  1.00  0.00    -0.263 C  
BRANCH   9  10
HETATM   10  C   UNL     1      -9.884   9.014  68.912  1.00  0.00    -0.181 C  
BRANCH  10  11
HETATM   11  C   UNL     1      -9.700   7.571  68.453  1.00  0.00    -0.161 C  
BRANCH  11  12
HETATM   12  C   UNL     1      -9.509   7.500  66.941  1.00  0.00    -0.219 C  
BRANCH  12  13
HETATM   13  C   UNL     1      -8.163   6.873  66.587  1.00  0.00    -0.115 C  
BRANCH  13  14
HETATM   14  C   UNL     1      -7.027   7.875  66.776  1.00  0.00    -0.073 C  
BRANCH  14  15
HETATM   15  C   UNL     1      -7.405   9.247  66.225  1.00  0.00    -0.092 C  
BRANCH  15  16
HETATM   16  C   UNL     1      -6.379  10.302  66.611  1.00  0.00    -0.074 C  
HETATM   17  O   UNL     1      -6.733  11.549  66.033  1.00  0.00    -0.364 OA 
HETATM   18  H   UNL     1      -6.092  12.208  66.273  1.00  0.00     0.000 HD 
ENDBRANCH  15  16
ENDBRANCH  14  15
ENDBRANCH  13  14
ENDBRANCH  12  13
ENDBRANCH  11  12
ENDBRANCH  10  11
ENDBRANCH   9  10
ENDBRANCH   8   9
ENDBRANCH   7   8
ENDBRANCH   6   7
ENDBRANCH   5   6
ENDBRANCH   4   5
ENDBRANCH   3   4
ENDBRANCH   2   3
TORSDOF 14
ENDMDL
MODEL      391
REMARK 921   NORMALIZED FREE ENERGY PREDICTED BY IDOCK:   -2.07 KCAL/MOL
REMARK 922        TOTAL FREE ENERGY PREDICTED BY IDOCK:   -5.15 KCAL/MOL
REMARK 923 INTER-LIGAND FREE ENERGY PREDICTED BY IDOCK:   -4.27 KCAL/MOL
REMARK 924 INTRA-LIGAND FREE ENERGY PREDICTED BY IDOCK:   -0.88 KCAL/MOL
REMARK 927      BINDING AFFINITY PREDICTED BY RF-SCORE:    0.00 PKD
ROOT
HETATM    1  C   UNL     1      -7.218  10.349  62.661  1.00  0.00    -0.140 C  
HETATM    2  C   UNL     1      -8.699  10.255  62.983  1.00  0.00    -0.208 C  
ENDROOT
BRANCH   2   3
HETATM    3  C   UNL     1      -9.013  10.894  64.334  1.00  0.00    -0.121 C  
BRANCH   3   4
HETATM    4  C   UNL     1     -10.506  10.832  64.644  1.00  0.00    -0.346 C  
BRANCH   4   5
HETATM    5  C   UNL     1     -11.103  12.234  64.740  1.00  0.00    -0.356 C  
BRANCH   5   6
HETATM    6  C   UNL     1     -11.806  12.441  66.078  1.00  0.00    -0.459 C  
BRANCH   6   7
HETATM    7  C   UNL     1     -11.253  11.489  67.136  1.00  0.00    -0.365 C  
BRANCH   7   8
HETATM    8  C   UNL     1     -10.659  12.263  68.310  1.00  0.00    -0.243 C  
BRANCH   8   9
HETATM    9  C   UNL     1     -11.686  12.429  69.426  1.00  0.00    -0.384 C  
BRANCH   9  10
HETATM   10  C   UNL     1     -12.284  11.082  69.819  1.00  0.00    -0.388 C  
BRANCH  10  11
HETATM   11  C   UNL     1     -11.333  10.305  70.726  1.00  0.00    -0.421 C  
BRANCH  11  12
HETATM   12  C   UNL     1     -11.407   8.808  70.439  1.00  0.00    -0.213 C  
BRANCH  12  13
HETATM   13  C   UNL     1     -10.103   8.303  69.828  1.00  0.00    -0.197 C  
BRANCH  13  14
HETATM   14  C   UNL     1      -9.540   7.133  70.632  1.00  0.00    -0.165 C  
BRANCH  14  15
HETATM   15  C   UNL     1      -8.089   7.383  71.028  1.00  0.00    -0.101 C  
BRANCH  15  16
HETATM   16  C   UNL     1      -7.784   6.818  72.407  1.00  0.00    -0.093 C  
HETATM   17  O   UNL     1      -6.698   5.908  72.323  1.00  0.00    -0.067 OA 
HETATM   18  H   UNL     1      -6.507   5.554  73.184  1.00  0.00     0.000 HD 
ENDBRANCH  15  16
ENDBRANCH  14  15
ENDBRANCH  13  14
ENDBRANCH  12  13
ENDBRANCH  11  12
ENDBRANCH  10  11
ENDBRANCH   9  10
ENDBRANCH   8   9
ENDBRANCH   7   8
ENDBRANCH   6   7
ENDBRANCH   5   6
ENDBRANCH   4   5
ENDBRANCH   3   4
ENDBRANCH   2   3
TORSDOF 14
ENDMDL
MODEL      392
REMARK 921   NORMALIZED FREE ENERGY PREDICTED BY IDOCK:   -2.07 KCAL/MOL
REMARK 922        TOTAL FREE ENERGY PREDICTED BY IDOCK:   -5.14 KCAL/MOL
REMARK 923 INTER-LIGAND FREE ENERGY PREDICTED BY IDOCK:   -4.35 KCAL/MOL
REMARK 924 INTRA-LIGAND FREE ENERGY PREDICTED BY IDOCK:   -0.79 KCAL/MOL
REMARK 927      BINDING AFFINITY PREDICTED BY RF-SCORE:    0.00 PKD
ROOT
HETATM    1  C   UNL     1      -7.858  16.047  67.951  1.00  0.00    -0.148 C  
HETATM    2  C   UNL     1      -8.758  15.811  66.750  1.00  0.00    -0.305 C  
ENDROOT
BRANCH   2   3
HETATM    3  C   UNL     1      -9.767  14.699  67.026  1.00  0.00    -0.247 C  
BRANCH   3   4
HETATM    4  C   UNL     1     -10.979  14.807  66.104  1.00  0.00    -0.332 C  
BRANCH   4   5
HETATM    5  C   UNL     1     -11.878  13.581  66.237  1.00  0.00    -0.431 C  
BRANCH   5   6
HETATM    6  C   UNL     1     -11.409  12.454  65.324  1.00  0.00    -0.374 C  
BRANCH   6   7
HETATM    7  C   UNL     1     -10.884  11.274  66.140  1.00  0.00    -0.281 C  
BRANCH   7   8
HETATM    8  C   UNL     1     -11.266  11.416  67.611  1.00  0.00    -0.346 C  
BRANCH   8   9
HETATM    9  C   UNL     1     -10.781  10.214  68.417  1.00  0.00    -0.266 C  
BRANCH   9  10
HETATM   10  C   UNL     1     -10.315   9.093  67.493  1.00  0.00    -0.324 C  
BRANCH  10  11
HETATM   11  C   UNL     1     -10.606   7.725  68.104  1.00  0.00    -0.182 C  
BRANCH  11  12
HETATM   12  C   UNL     1      -9.315   6.943  68.329  1.00  0.00    -0.125 C  
BRANCH  12  13
HETATM   13  C   UNL     1      -9.421   5.534  67.751  1.00  0.00    -0.125 C  
BRANCH  13  14
HETATM   14  C   UNL     1      -9.586   5.576  66.234  1.00  0.00    -0.173 C  
BRANCH  14  15
HETATM   15  C   UNL     1     -10.239   4.299  65.715  1.00  0.00    -0.207 C  
BRANCH  15  16
HETATM   16  C   UNL     1      -9.226   3.399  65.023  1.00  0.00    -0.147 C  
HETATM   17  O   UNL     1      -9.821   2.146  64.725  1.00  0.00    -0.338 OA 
HETATM   18  H   UNL     1      -9.189   1.583  64.293  1.00  0.00     0.000 HD 
ENDBRANCH  15  16
ENDBRANCH  14  15
ENDBRANCH  13  14
ENDBRANCH  12  13
ENDBRANCH  11  12
ENDBRANCH  10  11
ENDBRANCH   9  10
ENDBRANCH   8   9
ENDBRANCH   7   8
ENDBRANCH   6   7
ENDBRANCH   5   6
ENDBRANCH   4   5
ENDBRANCH   3   4
ENDBRANCH   2   3
TORSDOF 14
ENDMDL
MODEL      393
REMARK 921   NORMALIZED FREE ENERGY PREDICTED BY IDOCK:   -2.06 KCAL/MOL
REMARK 922        TOTAL FREE ENERGY PREDICTED BY IDOCK:   -5.13 KCAL/MOL
REMARK 923 INTER-LIGAND FREE ENERGY PREDICTED BY IDOCK:   -4.27 KCAL/MOL
REMARK 924 INTRA-LIGAND FREE ENERGY PREDICTED BY IDOCK:   -0.85 KCAL/MOL
REMARK 927      BINDING AFFINITY PREDICTED BY RF-SCORE:    0.00 PKD
ROOT
HETATM    1  C   UNL     1      -7.712  10.121  62.513  1.00  0.00    -0.150 C  
HETATM    2  C   UNL     1      -9.195   9.798  62.452  1.00  0.00    -0.294 C  
ENDROOT
BRANCH   2   3
HETATM    3  C   UNL     1      -9.957  10.478  63.587  1.00  0.00    -0.299 C  
BRANCH   3   4
HETATM    4  C   UNL     1      -9.064  10.685  64.809  1.00  0.00    -0.236 C  
BRANCH   4   5
HETATM    5  C   UNL     1      -9.831  10.408  66.099  1.00  0.00    -0.278 C  
BRANCH   5   6
HETATM    6  C   UNL     1      -9.519  11.459  67.159  1.00  0.00    -0.186 C  
BRANCH   6   7
HETATM    7  C   UNL     1      -8.918  12.711  66.524  1.00  0.00    -0.115 C  
BRANCH   7   8
HETATM    8  C   UNL     1      -9.532  13.975  67.120  1.00  0.00    -0.241 C  
BRANCH   8   9
HETATM    9  C   UNL     1      -8.732  14.449  68.330  1.00  0.00    -0.180 C  
BRANCH   9  10
HETATM   10  C   UNL     1      -7.461  15.171  67.892  1.00  0.00    -0.149 C  
BRANCH  10  11
HETATM   11  C   UNL     1      -7.542  16.662  68.209  1.00  0.00    -0.181 C  
BRANCH  11  12
HETATM   12  C   UNL     1      -6.967  17.494  67.066  1.00  0.00    -0.207 C  
BRANCH  12  13
HETATM   13  C   UNL     1      -8.023  18.432  66.486  1.00  0.00    -0.294 C  
BRANCH  13  14
HETATM   14  C   UNL     1      -7.809  19.863  66.974  1.00  0.00    -0.325 C  
BRANCH  14  15
HETATM   15  C   UNL     1      -8.948  20.310  67.886  1.00  0.00    -0.274 C  
BRANCH  15  16
HETATM   16  C   UNL     1     -10.185  19.445  67.694  1.00  0.00    -0.415 C  
HETATM   17  O   UNL     1     -10.507  18.791  68.911  1.00  0.00    -0.448 OA 
HETATM   18  H   UNL     1     -11.279  18.250  68.792  1.00  0.00     0.000 HD 
ENDBRANCH  15  16
ENDBRANCH  14  15
ENDBRANCH  13  14
ENDBRANCH  12  13
ENDBRANCH  11  12
ENDBRANCH  10  11
ENDBRANCH   9  10
ENDBRANCH   8   9
ENDBRANCH   7   8
ENDBRANCH   6   7
ENDBRANCH   5   6
ENDBRANCH   4   5
ENDBRANCH   3   4
ENDBRANCH   2   3
TORSDOF 14
ENDMDL
MODEL      394
REMARK 921   NORMALIZED FREE ENERGY PREDICTED BY IDOCK:   -2.05 KCAL/MOL
REMARK 922        TOTAL FREE ENERGY PREDICTED BY IDOCK:   -5.12 KCAL/MOL
REMARK 923 INTER-LIGAND FREE ENERGY PREDICTED BY IDOCK:   -3.91 KCAL/MOL
REMARK 924 INTRA-LIGAND FREE ENERGY PREDICTED BY IDOCK:   -1.21 KCAL/MOL
REMARK 927      BINDING AFFINITY PREDICTED BY RF-SCORE:    0.00 PKD
ROOT
HETATM    1  C   UNL     1      -7.261   4.408  68.900  1.00  0.00    -0.052 C  
HETATM    2  C   UNL     1      -7.252   4.553  67.388  1.00  0.00    -0.069 C  
ENDROOT
BRANCH   2   3
HETATM    3  C   UNL     1      -6.850   5.966  66.971  1.00  0.00    -0.063 C  
BRANCH   3   4
HETATM    4  C   UNL     1      -7.818   7.007  67.531  1.00  0.00    -0.112 C  
BRANCH   4   5
HETATM    5  C   UNL     1      -7.101   8.326  67.807  1.00  0.00    -0.083 C  
BRANCH   5   6
HETATM    6  C   UNL     1      -7.847   9.498  67.176  1.00  0.00    -0.095 C  
BRANCH   6   7
HETATM    7  C   UNL     1      -8.132   9.229  65.700  1.00  0.00    -0.112 C  
BRANCH   7   8
HETATM    8  C   UNL     1      -8.637  10.490  65.004  1.00  0.00    -0.184 C  
BRANCH   8   9
HETATM    9  C   UNL     1      -9.487  10.135  63.787  1.00  0.00    -0.330 C  
BRANCH   9  10
HETATM   10  C   UNL     1     -10.118  11.385  63.182  1.00  0.00    -0.390 C  
BRANCH  10  11
HETATM   11  C   UNL     1     -11.476  11.674  63.816  1.00  0.00    -0.457 C  
BRANCH  11  12
HETATM   12  C   UNL     1     -11.621  13.159  64.140  1.00  0.00    -0.460 C  
BRANCH  12  13
HETATM   13  C   UNL     1     -10.704  13.559  65.293  1.00  0.00    -0.328 C  
BRANCH  13  14
HETATM   14  C   UNL     1     -11.358  13.260  66.640  1.00  0.00    -0.353 C  
BRANCH  14  15
HETATM   15  C   UNL     1     -10.463  12.376  67.503  1.00  0.00    -0.229 C  
BRANCH  15  16
HETATM   16  C   UNL     1      -9.132  13.052  67.795  1.00  0.00    -0.200 C  
HETATM   17  O   UNL     1      -9.216  13.774  69.013  1.00  0.00    -0.393 OA 
HETATM   18  H   UNL     1      -8.385  14.197  69.196  1.00  0.00     0.000 HD 
ENDBRANCH  15  16
ENDBRANCH  14  15
ENDBRANCH  13  14
ENDBRANCH  12  13
ENDBRANCH  11  12
ENDBRANCH  10  11
ENDBRANCH   9  10
ENDBRANCH   8   9
ENDBRANCH   7   8
ENDBRANCH   6   7
ENDBRANCH   5   6
ENDBRANCH   4   5
ENDBRANCH   3   4
ENDBRANCH   2   3
TORSDOF 14
ENDMDL
MODEL      395
REMARK 921   NORMALIZED FREE ENERGY PREDICTED BY IDOCK:   -2.05 KCAL/MOL
REMARK 922        TOTAL FREE ENERGY PREDICTED BY IDOCK:   -5.11 KCAL/MOL
REMARK 923 INTER-LIGAND FREE ENERGY PREDICTED BY IDOCK:   -4.37 KCAL/MOL
REMARK 924 INTRA-LIGAND FREE ENERGY PREDICTED BY IDOCK:   -0.75 KCAL/MOL
REMARK 927      BINDING AFFINITY PREDICTED BY RF-SCORE:    0.00 PKD
ROOT
HETATM    1  C   UNL     1     -12.184  14.534  68.128  1.00  0.00    -0.120 C  
HETATM    2  C   UNL     1     -11.791  13.584  67.009  1.00  0.00    -0.447 C  
ENDROOT
BRANCH   2   3
HETATM    3  C   UNL     1     -11.669  12.150  67.519  1.00  0.00    -0.385 C  
BRANCH   3   4
HETATM    4  C   UNL     1     -10.252  11.853  68.005  1.00  0.00    -0.199 C  
BRANCH   4   5
HETATM    5  C   UNL     1     -10.104  10.383  68.388  1.00  0.00    -0.181 C  
BRANCH   5   6
HETATM    6  C   UNL     1     -10.896   9.486  67.443  1.00  0.00    -0.215 C  
BRANCH   6   7
HETATM    7  C   UNL     1     -10.033   9.041  66.264  1.00  0.00    -0.352 C  
BRANCH   7   8
HETATM    8  C   UNL     1      -9.288   7.750  66.590  1.00  0.00    -0.238 C  
BRANCH   8   9
HETATM    9  C   UNL     1     -10.230   6.721  67.209  1.00  0.00    -0.271 C  
BRANCH   9  10
HETATM   10  C   UNL     1      -9.447   5.655  67.969  1.00  0.00    -0.121 C  
BRANCH  10  11
HETATM   11  C   UNL     1     -10.225   5.171  69.189  1.00  0.00    -0.259 C  
BRANCH  11  12
HETATM   12  C   UNL     1      -9.500   4.015  69.874  1.00  0.00    -0.265 C  
BRANCH  12  13
HETATM   13  C   UNL     1      -9.874   3.933  71.352  1.00  0.00    -0.243 C  
BRANCH  13  14
HETATM   14  C   UNL     1      -9.796   5.308  72.012  1.00  0.00    -0.222 C  
BRANCH  14  15
HETATM   15  C   UNL     1      -9.241   5.207  73.430  1.00  0.00    -0.130 C  
BRANCH  15  16
HETATM   16  C   UNL     1     -10.158   5.889  74.434  1.00  0.00    -0.292 C  
HETATM   17  O   UNL     1      -9.979   7.296  74.369  1.00  0.00    -0.428 OA 
HETATM   18  H   UNL     1     -10.552   7.722  74.997  1.00  0.00     0.000 HD 
ENDBRANCH  15  16
ENDBRANCH  14  15
ENDBRANCH  13  14
ENDBRANCH  12  13
ENDBRANCH  11  12
ENDBRANCH  10  11
ENDBRANCH   9  10
ENDBRANCH   8   9
ENDBRANCH   7   8
ENDBRANCH   6   7
ENDBRANCH   5   6
ENDBRANCH   4   5
ENDBRANCH   3   4
ENDBRANCH   2   3
TORSDOF 14
ENDMDL
MODEL      396
REMARK 921   NORMALIZED FREE ENERGY PREDICTED BY IDOCK:   -2.05 KCAL/MOL
REMARK 922        TOTAL FREE ENERGY PREDICTED BY IDOCK:   -5.11 KCAL/MOL
REMARK 923 INTER-LIGAND FREE ENERGY PREDICTED BY IDOCK:   -4.37 KCAL/MOL
REMARK 924 INTRA-LIGAND FREE ENERGY PREDICTED BY IDOCK:   -0.73 KCAL/MOL
REMARK 927      BINDING AFFINITY PREDICTED BY RF-SCORE:    0.00 PKD
ROOT
HETATM    1  C   UNL     1      -7.000  16.655  69.305  1.00  0.00    -0.225 C  
HETATM    2  C   UNL     1      -8.273  17.009  68.556  1.00  0.00    -0.259 C  
ENDROOT
BRANCH   2   3
HETATM    3  C   UNL     1      -9.357  15.956  68.779  1.00  0.00    -0.220 C  
BRANCH   3   4
HETATM    4  C   UNL     1     -10.703  16.419  68.225  1.00  0.00    -0.337 C  
BRANCH   4   5
HETATM    5  C   UNL     1     -11.742  15.304  68.315  1.00  0.00    -0.320 C  
BRANCH   5   6
HETATM    6  C   UNL     1     -11.799  14.501  67.019  1.00  0.00    -0.408 C  
BRANCH   6   7
HETATM    7  C   UNL     1     -10.950  13.237  67.125  1.00  0.00    -0.288 C  
BRANCH   7   8
HETATM    8  C   UNL     1     -11.060  12.620  68.517  1.00  0.00    -0.300 C  
BRANCH   8   9
HETATM    9  C   UNL     1     -11.410  11.138  68.428  1.00  0.00    -0.357 C  
BRANCH   9  10
HETATM   10  C   UNL     1     -10.938  10.392  69.672  1.00  0.00    -0.325 C  
BRANCH  10  11
HETATM   11  C   UNL     1      -9.725   9.520  69.359  1.00  0.00    -0.190 C  
BRANCH  11  12
HETATM   12  C   UNL     1     -10.152   8.202  68.718  1.00  0.00    -0.211 C  
BRANCH  12  13
HETATM   13  C   UNL     1     -11.003   7.376  69.680  1.00  0.00    -0.186 C  
BRANCH  13  14
HETATM   14  C   UNL     1     -10.156   6.322  70.390  1.00  0.00    -0.226 C  
BRANCH  14  15
HETATM   15  C   UNL     1     -10.403   6.340  71.896  1.00  0.00    -0.234 C  
BRANCH  15  16
HETATM   16  C   UNL     1      -9.337   5.554  72.643  1.00  0.00    -0.140 C  
HETATM   17  O   UNL     1      -9.709   5.415  74.006  1.00  0.00    -0.146 OA 
HETATM   18  H   UNL     1      -9.043   4.924  74.473  1.00  0.00     0.000 HD 
ENDBRANCH  15  16
ENDBRANCH  14  15
ENDBRANCH  13  14
ENDBRANCH  12  13
ENDBRANCH  11  12
ENDBRANCH  10  11
ENDBRANCH   9  10
ENDBRANCH   8   9
ENDBRANCH   7   8
ENDBRANCH   6   7
ENDBRANCH   5   6
ENDBRANCH   4   5
ENDBRANCH   3   4
ENDBRANCH   2   3
TORSDOF 14
ENDMDL
MODEL      397
REMARK 921   NORMALIZED FREE ENERGY PREDICTED BY IDOCK:   -2.02 KCAL/MOL
REMARK 922        TOTAL FREE ENERGY PREDICTED BY IDOCK:   -5.06 KCAL/MOL
REMARK 923 INTER-LIGAND FREE ENERGY PREDICTED BY IDOCK:   -4.08 KCAL/MOL
REMARK 924 INTRA-LIGAND FREE ENERGY PREDICTED BY IDOCK:   -0.97 KCAL/MOL
REMARK 927      BINDING AFFINITY PREDICTED BY RF-SCORE:    0.00 PKD
ROOT
HETATM    1  C   UNL     1     -10.024   4.621  67.131  1.00  0.00    -0.215 C  
HETATM    2  C   UNL     1      -9.459   4.279  68.499  1.00  0.00    -0.216 C  
ENDROOT
BRANCH   2   3
HETATM    3  C   UNL     1      -9.023   5.537  69.247  1.00  0.00    -0.125 C  
BRANCH   3   4
HETATM    4  C   UNL     1      -9.346   5.438  70.736  1.00  0.00    -0.200 C  
BRANCH   4   5
HETATM    5  C   UNL     1     -10.739   5.989  71.031  1.00  0.00    -0.325 C  
BRANCH   5   6
HETATM    6  C   UNL     1     -11.220   6.897  69.904  1.00  0.00    -0.334 C  
BRANCH   6   7
HETATM    7  C   UNL     1     -11.018   8.367  70.265  1.00  0.00    -0.236 C  
BRANCH   7   8
HETATM    8  C   UNL     1     -10.261   9.101  69.162  1.00  0.00    -0.215 C  
BRANCH   8   9
HETATM    9  C   UNL     1     -10.892   8.832  67.799  1.00  0.00    -0.087 C  
BRANCH   9  10
HETATM   10  C   UNL     1     -10.260   9.710  66.724  1.00  0.00    -0.308 C  
BRANCH  10  11
HETATM   11  C   UNL     1     -10.753  11.150  66.835  1.00  0.00    -0.322 C  
BRANCH  11  12
HETATM   12  C   UNL     1     -10.572  11.891  65.513  1.00  0.00    -0.313 C  
BRANCH  12  13
HETATM   13  C   UNL     1     -10.603  13.403  65.724  1.00  0.00    -0.286 C  
BRANCH  13  14
HETATM   14  C   UNL     1     -10.483  13.750  67.206  1.00  0.00    -0.264 C  
BRANCH  14  15
HETATM   15  C   UNL     1      -9.368  14.764  67.446  1.00  0.00    -0.199 C  
BRANCH  15  16
HETATM   16  C   UNL     1      -9.063  14.912  68.929  1.00  0.00    -0.191 C  
HETATM   17  O   UNL     1      -9.705  16.071  69.438  1.00  0.00    -0.247 OA 
HETATM   18  H   UNL     1      -9.514  16.164  70.364  1.00  0.00     0.000 HD 
ENDBRANCH  15  16
ENDBRANCH  14  15
ENDBRANCH  13  14
ENDBRANCH  12  13
ENDBRANCH  11  12
ENDBRANCH  10  11
ENDBRANCH   9  10
ENDBRANCH   8   9
ENDBRANCH   7   8
ENDBRANCH   6   7
ENDBRANCH   5   6
ENDBRANCH   4   5
ENDBRANCH   3   4
ENDBRANCH   2   3
TORSDOF 14
ENDMDL
MODEL      398
REMARK 921   NORMALIZED FREE ENERGY PREDICTED BY IDOCK:   -2.02 KCAL/MOL
REMARK 922        TOTAL FREE ENERGY PREDICTED BY IDOCK:   -5.05 KCAL/MOL
REMARK 923 INTER-LIGAND FREE ENERGY PREDICTED BY IDOCK:   -4.17 KCAL/MOL
REMARK 924 INTRA-LIGAND FREE ENERGY PREDICTED BY IDOCK:   -0.88 KCAL/MOL
REMARK 927      BINDING AFFINITY PREDICTED BY RF-SCORE:    0.00 PKD
ROOT
HETATM    1  C   UNL     1     -11.994  14.634  68.231  1.00  0.00    -0.282 C  
HETATM    2  C   UNL     1     -11.750  13.959  66.893  1.00  0.00    -0.425 C  
ENDROOT
BRANCH   2   3
HETATM    3  C   UNL     1     -11.383  12.488  67.075  1.00  0.00    -0.386 C  
BRANCH   3   4
HETATM    4  C   UNL     1      -9.880  12.311  67.275  1.00  0.00    -0.208 C  
BRANCH   4   5
HETATM    5  C   UNL     1      -9.574  10.985  67.968  1.00  0.00    -0.175 C  
BRANCH   5   6
HETATM    6  C   UNL     1     -10.857  10.227  68.294  1.00  0.00    -0.300 C  
BRANCH   6   7
HETATM    7  C   UNL     1     -10.751   8.767  67.860  1.00  0.00    -0.171 C  
BRANCH   7   8
HETATM    8  C   UNL     1     -10.347   7.877  69.033  1.00  0.00    -0.223 C  
BRANCH   8   9
HETATM    9  C   UNL     1     -11.308   8.054  70.205  1.00  0.00    -0.081 C  
BRANCH   9  10
HETATM   10  C   UNL     1     -10.562   8.505  71.456  1.00  0.00    -0.333 C  
BRANCH  10  11
HETATM   11  C   UNL     1      -9.444   7.527  71.809  1.00  0.00    -0.170 C  
BRANCH  11  12
HETATM   12  C   UNL     1      -9.168   7.533  73.310  1.00  0.00    -0.256 C  
BRANCH  12  13
HETATM   13  C   UNL     1      -8.875   6.124  73.818  1.00  0.00    -0.125 C  
BRANCH  13  14
HETATM   14  C   UNL     1     -10.091   5.535  74.529  1.00  0.00    -0.293 C  
BRANCH  14  15
HETATM   15  C   UNL     1     -11.026   4.845  73.540  1.00  0.00    -0.397 C  
BRANCH  15  16
HETATM   16  C   UNL     1     -10.628   3.393  73.320  1.00  0.00    -0.187 C  
HETATM   17  O   UNL     1      -9.945   3.265  72.082  1.00  0.00    -0.159 OA 
HETATM   18  H   UNL     1      -9.697   2.358  71.944  1.00  0.00     0.000 HD 
ENDBRANCH  15  16
ENDBRANCH  14  15
ENDBRANCH  13  14
ENDBRANCH  12  13
ENDBRANCH  11  12
ENDBRANCH  10  11
ENDBRANCH   9  10
ENDBRANCH   8   9
ENDBRANCH   7   8
ENDBRANCH   6   7
ENDBRANCH   5   6
ENDBRANCH   4   5
ENDBRANCH   3   4
ENDBRANCH   2   3
TORSDOF 14
ENDMDL
MODEL      399
REMARK 921   NORMALIZED FREE ENERGY PREDICTED BY IDOCK:   -1.99 KCAL/MOL
REMARK 922        TOTAL FREE ENERGY PREDICTED BY IDOCK:   -4.99 KCAL/MOL
REMARK 923 INTER-LIGAND FREE ENERGY PREDICTED BY IDOCK:   -3.77 KCAL/MOL
REMARK 924 INTRA-LIGAND FREE ENERGY PREDICTED BY IDOCK:   -1.22 KCAL/MOL
REMARK 927      BINDING AFFINITY PREDICTED BY RF-SCORE:    0.00 PKD
ROOT
HETATM    1  C   UNL     1      -6.995  10.393  62.437  1.00  0.00    -0.155 C  
HETATM    2  C   UNL     1      -8.365  10.009  62.970  1.00  0.00    -0.166 C  
ENDROOT
BRANCH   2   3
HETATM    3  C   UNL     1      -8.569  10.523  64.393  1.00  0.00    -0.160 C  
BRANCH   3   4
HETATM    4  C   UNL     1      -9.716   9.794  65.089  1.00  0.00    -0.338 C  
BRANCH   4   5
HETATM    5  C   UNL     1     -10.468  10.731  66.030  1.00  0.00    -0.273 C  
BRANCH   5   6
HETATM    6  C   UNL     1     -10.910  10.000  67.294  1.00  0.00    -0.284 C  
BRANCH   6   7
HETATM    7  C   UNL     1      -9.851   8.994  67.739  1.00  0.00    -0.209 C  
BRANCH   7   8
HETATM    8  C   UNL     1      -8.912   9.609  68.772  1.00  0.00    -0.134 C  
BRANCH   8   9
HETATM    9  C   UNL     1      -9.595   9.715  70.132  1.00  0.00    -0.300 C  
BRANCH   9  10
HETATM   10  C   UNL     1     -10.423   8.467  70.423  1.00  0.00    -0.227 C  
BRANCH  10  11
HETATM   11  C   UNL     1      -9.547   7.347  70.979  1.00  0.00    -0.161 C  
BRANCH  11  12
HETATM   12  C   UNL     1      -9.934   6.001  70.372  1.00  0.00    -0.233 C  
BRANCH  12  13
HETATM   13  C   UNL     1     -11.071   6.160  69.366  1.00  0.00    -0.479 C  
BRANCH  13  14
HETATM   14  C   UNL     1     -10.681   5.586  68.006  1.00  0.00    -0.165 C  
BRANCH  14  15
HETATM   15  C   UNL     1      -9.443   4.701  68.116  1.00  0.00    -0.195 C  
BRANCH  15  16
HETATM   16  C   UNL     1      -9.448   3.607  67.059  1.00  0.00    -0.190 C  
HETATM   17  O   UNL     1      -8.357   3.793  66.170  1.00  0.00    -0.106 OA 
HETATM   18  H   UNL     1      -8.360   3.110  65.510  1.00  0.00     0.000 HD 
ENDBRANCH  15  16
ENDBRANCH  14  15
ENDBRANCH  13  14
ENDBRANCH  12  13
ENDBRANCH  11  12
ENDBRANCH  10  11
ENDBRANCH   9  10
ENDBRANCH   8   9
ENDBRANCH   7   8
ENDBRANCH   6   7
ENDBRANCH   5   6
ENDBRANCH   4   5
ENDBRANCH   3   4
ENDBRANCH   2   3
TORSDOF 14
ENDMDL
MODEL      400
REMARK 921   NORMALIZED FREE ENERGY PREDICTED BY IDOCK:   -1.98 KCAL/MOL
REMARK 922        TOTAL FREE ENERGY PREDICTED BY IDOCK:   -4.99 KCAL/MOL
REMARK 923 INTER-LIGAND FREE ENERGY PREDICTED BY IDOCK:   -3.96 KCAL/MOL
REMARK 924 INTRA-LIGAND FREE ENERGY PREDICTED BY IDOCK:   -1.03 KCAL/MOL
REMARK 927      BINDING AFFINITY PREDICTED BY RF-SCORE:    0.00 PKD
ROOT
HETATM    1  C   UNL     1     -11.629  14.067  67.667  1.00  0.00    -0.385 C  
HETATM    2  C   UNL     1     -11.755  13.451  66.284  1.00  0.00    -0.405 C  
ENDROOT
BRANCH   2   3
HETATM    3  C   UNL     1     -11.332  11.984  66.291  1.00  0.00    -0.415 C  
BRANCH   3   4
HETATM    4  C   UNL     1      -9.811  11.845  66.262  1.00  0.00    -0.246 C  
BRANCH   4   5
HETATM    5  C   UNL     1      -9.368  10.551  66.941  1.00  0.00    -0.181 C  
BRANCH   5   6
HETATM    6  C   UNL     1     -10.560   9.642  67.220  1.00  0.00    -0.315 C  
BRANCH   6   7
HETATM    7  C   UNL     1     -10.203   8.181  66.958  1.00  0.00    -0.378 C  
BRANCH   7   8
HETATM    8  C   UNL     1     -10.104   7.400  68.265  1.00  0.00    -0.201 C  
BRANCH   8   9
HETATM    9  C   UNL     1      -9.878   8.342  69.444  1.00  0.00    -0.185 C  
BRANCH   9  10
HETATM   10  C   UNL     1      -8.427   8.291  69.911  1.00  0.00    -0.127 C  
BRANCH  10  11
HETATM   11  C   UNL     1      -7.970   6.850  70.120  1.00  0.00    -0.115 C  
BRANCH  11  12
HETATM   12  C   UNL     1      -7.020   6.748  71.310  1.00  0.00    -0.074 C  
BRANCH  12  13
HETATM   13  C   UNL     1      -7.441   5.623  72.252  1.00  0.00    -0.099 C  
BRANCH  13  14
HETATM   14  C   UNL     1      -7.748   6.165  73.647  1.00  0.00    -0.095 C  
BRANCH  14  15
HETATM   15  C   UNL     1      -8.792   7.275  73.588  1.00  0.00    -0.223 C  
BRANCH  15  16
HETATM   16  C   UNL     1     -10.204   6.713  73.656  1.00  0.00    -0.302 C  
HETATM   17  O   UNL     1     -10.785   6.715  72.361  1.00  0.00    -0.210 OA 
HETATM   18  H   UNL     1     -11.667   6.364  72.403  1.00  0.00     0.000 HD 
ENDBRANCH  15  16
ENDBRANCH  14  15
ENDBRANCH  13  14
ENDBRANCH  12  13
ENDBRANCH  11  12
ENDBRANCH  10  11
ENDBRANCH   9  10
ENDBRANCH   8   9
ENDBRANCH   7   8
ENDBRANCH   6   7
ENDBRANCH   5   6
ENDBRANCH   4   5
ENDBRANCH   3   4
ENDBRANCH   2   3
TORSDOF 14
ENDMDL
MODEL      401
REMARK 921   NORMALIZED FREE ENERGY PREDICTED BY IDOCK:   -1.98 KCAL/MOL
REMARK 922        TOTAL FREE ENERGY PREDICTED BY IDOCK:   -4.98 KCAL/MOL
REMARK 923 INTER-LIGAND FREE ENERGY PREDICTED BY IDOCK:   -3.78 KCAL/MOL
REMARK 924 INTRA-LIGAND FREE ENERGY PREDICTED BY IDOCK:   -1.20 KCAL/MOL
REMARK 927      BINDING AFFINITY PREDICTED BY RF-SCORE:    0.00 PKD
ROOT
HETATM    1  C   UNL     1     -10.490  13.337  64.614  1.00  0.00    -0.420 C  
HETATM    2  C   UNL     1     -11.203  14.647  64.902  1.00  0.00    -0.400 C  
ENDROOT
BRANCH   2   3
HETATM    3  C   UNL     1     -10.882  15.153  66.307  1.00  0.00    -0.333 C  
BRANCH   3   4
HETATM    4  C   UNL     1      -9.376  15.165  66.562  1.00  0.00    -0.308 C  
BRANCH   4   5
HETATM    5  C   UNL     1      -9.045  14.519  67.905  1.00  0.00    -0.191 C  
BRANCH   5   6
HETATM    6  C   UNL     1      -7.593  14.056  67.947  1.00  0.00    -0.159 C  
BRANCH   6   7
HETATM    7  C   UNL     1      -7.422  12.731  67.208  1.00  0.00    -0.101 C  
BRANCH   7   8
HETATM    8  C   UNL     1      -8.179  11.610  67.915  1.00  0.00    -0.141 C  
BRANCH   8   9
HETATM    9  C   UNL     1      -8.641  10.553  66.917  1.00  0.00    -0.125 C  
BRANCH   9  10
HETATM   10  C   UNL     1     -10.164  10.491  66.857  1.00  0.00    -0.280 C  
BRANCH  10  11
HETATM   11  C   UNL     1     -10.658   9.052  66.977  1.00  0.00    -0.270 C  
BRANCH  11  12
HETATM   12  C   UNL     1      -9.726   8.228  67.861  1.00  0.00    -0.192 C  
BRANCH  12  13
HETATM   13  C   UNL     1     -10.111   6.751  67.836  1.00  0.00    -0.189 C  
BRANCH  13  14
HETATM   14  C   UNL     1      -9.767   6.119  66.489  1.00  0.00    -0.184 C  
BRANCH  14  15
HETATM   15  C   UNL     1     -10.573   4.846  66.255  1.00  0.00    -0.307 C  
BRANCH  15  16
HETATM   16  C   UNL     1      -9.681   3.613  66.268  1.00  0.00    -0.074 C  
HETATM   17  O   UNL     1      -8.347   3.989  66.574  1.00  0.00    -0.104 OA 
HETATM   18  H   UNL     1      -7.790   3.220  66.582  1.00  0.00     0.000 HD 
ENDBRANCH  15  16
ENDBRANCH  14  15
ENDBRANCH  13  14
ENDBRANCH  12  13
ENDBRANCH  11  12
ENDBRANCH  10  11
ENDBRANCH   9  10
ENDBRANCH   8   9
ENDBRANCH   7   8
ENDBRANCH   6   7
ENDBRANCH   5   6
ENDBRANCH   4   5
ENDBRANCH   3   4
ENDBRANCH   2   3
TORSDOF 14
ENDMDL
MODEL      402
REMARK 921   NORMALIZED FREE ENERGY PREDICTED BY IDOCK:   -1.98 KCAL/MOL
REMARK 922        TOTAL FREE ENERGY PREDICTED BY IDOCK:   -4.97 KCAL/MOL
REMARK 923 INTER-LIGAND FREE ENERGY PREDICTED BY IDOCK:   -3.80 KCAL/MOL
REMARK 924 INTRA-LIGAND FREE ENERGY PREDICTED BY IDOCK:   -1.18 KCAL/MOL
REMARK 927      BINDING AFFINITY PREDICTED BY RF-SCORE:    0.00 PKD
ROOT
HETATM    1  C   UNL     1     -12.105  14.024  67.783  1.00  0.00    -0.325 C  
HETATM    2  C   UNL     1     -11.581  13.437  66.483  1.00  0.00    -0.394 C  
ENDROOT
BRANCH   2   3
HETATM    3  C   UNL     1     -11.325  11.937  66.619  1.00  0.00    -0.400 C  
BRANCH   3   4
HETATM    4  C   UNL     1      -9.924  11.660  67.159  1.00  0.00    -0.219 C  
BRANCH   4   5
HETATM    5  C   UNL     1      -9.647  10.159  67.214  1.00  0.00    -0.189 C  
BRANCH   5   6
HETATM    6  C   UNL     1     -10.210   9.452  65.986  1.00  0.00    -0.204 C  
BRANCH   6   7
HETATM    7  C   UNL     1      -9.272   9.605  64.792  1.00  0.00    -0.298 C  
BRANCH   7   8
HETATM    8  C   UNL     1      -8.100   8.633  64.890  1.00  0.00    -0.146 C  
BRANCH   8   9
HETATM    9  C   UNL     1      -8.579   7.243  65.299  1.00  0.00    -0.002 C  
BRANCH   9  10
HETATM   10  C   UNL     1      -8.094   6.891  66.701  1.00  0.00    -0.110 C  
BRANCH  10  11
HETATM   11  C   UNL     1      -9.151   6.094  67.462  1.00  0.00    -0.109 C  
BRANCH  11  12
HETATM   12  C   UNL     1      -8.738   5.892  68.917  1.00  0.00    -0.116 C  
BRANCH  12  13
HETATM   13  C   UNL     1      -9.889   6.224  69.864  1.00  0.00    -0.198 C  
BRANCH  13  14
HETATM   14  C   UNL     1     -10.677   7.432  69.363  1.00  0.00    -0.220 C  
BRANCH  14  15
HETATM   15  C   UNL     1     -11.155   8.299  70.524  1.00  0.00    -0.259 C  
BRANCH  15  16
HETATM   16  C   UNL     1     -10.304   9.552  70.668  1.00  0.00    -0.302 C  
HETATM   17  O   UNL     1      -9.165   9.270  71.467  1.00  0.00    -0.305 OA 
HETATM   18  H   UNL     1      -8.634  10.053  71.557  1.00  0.00     0.000 HD 
ENDBRANCH  15  16
ENDBRANCH  14  15
ENDBRANCH  13  14
ENDBRANCH  12  13
ENDBRANCH  11  12
ENDBRANCH  10  11
ENDBRANCH   9  10
ENDBRANCH   8   9
ENDBRANCH   7   8
ENDBRANCH   6   7
ENDBRANCH   5   6
ENDBRANCH   4   5
ENDBRANCH   3   4
ENDBRANCH   2   3
TORSDOF 14
ENDMDL
MODEL      403
REMARK 921   NORMALIZED FREE ENERGY PREDICTED BY IDOCK:   -1.98 KCAL/MOL
REMARK 922        TOTAL FREE ENERGY PREDICTED BY IDOCK:   -4.97 KCAL/MOL
REMARK 923 INTER-LIGAND FREE ENERGY PREDICTED BY IDOCK:   -3.73 KCAL/MOL
REMARK 924 INTRA-LIGAND FREE ENERGY PREDICTED BY IDOCK:   -1.24 KCAL/MOL
REMARK 927      BINDING AFFINITY PREDICTED BY RF-SCORE:    0.00 PKD
ROOT
HETATM    1  C   UNL     1     -12.464  10.673  70.694  1.00  0.00    -0.462 C  
HETATM    2  C   UNL     1     -12.205  12.144  70.415  1.00  0.00    -0.378 C  
ENDROOT
BRANCH   2   3
HETATM    3  C   UNL     1     -11.928  12.384  68.933  1.00  0.00    -0.289 C  
BRANCH   3   4
HETATM    4  C   UNL     1     -11.439  11.111  68.246  1.00  0.00    -0.373 C  
BRANCH   4   5
HETATM    5  C   UNL     1      -9.990  11.260  67.787  1.00  0.00    -0.193 C  
BRANCH   5   6
HETATM    6  C   UNL     1      -9.255   9.926  67.849  1.00  0.00    -0.138 C  
BRANCH   6   7
HETATM    7  C   UNL     1      -8.717   9.536  66.474  1.00  0.00    -0.147 C  
BRANCH   7   8
HETATM    8  C   UNL     1      -9.047   8.081  66.152  1.00  0.00    -0.224 C  
BRANCH   8   9
HETATM    9  C   UNL     1      -7.863   7.172  66.468  1.00  0.00    -0.106 C  
BRANCH   9  10
HETATM   10  C   UNL     1      -7.489   6.325  65.257  1.00  0.00    -0.084 C  
BRANCH  10  11
HETATM   11  C   UNL     1      -8.083   4.923  65.366  1.00  0.00    -0.114 C  
BRANCH  11  12
HETATM   12  C   UNL     1      -8.252   4.515  66.827  1.00  0.00    -0.102 C  
BRANCH  12  13
HETATM   13  C   UNL     1      -9.667   4.008  67.094  1.00  0.00    -0.207 C  
BRANCH  13  14
HETATM   14  C   UNL     1     -10.540   5.113  67.684  1.00  0.00    -0.062 C  
BRANCH  14  15
HETATM   15  C   UNL     1     -10.371   5.200  69.198  1.00  0.00    -0.226 C  
BRANCH  15  16
HETATM   16  C   UNL     1     -10.100   6.629  69.645  1.00  0.00    -0.181 C  
HETATM   17  O   UNL     1     -11.231   7.441  69.371  1.00  0.00    -0.444 OA 
HETATM   18  H   UNL     1     -11.062   8.333  69.650  1.00  0.00     0.000 HD 
ENDBRANCH  15  16
ENDBRANCH  14  15
ENDBRANCH  13  14
ENDBRANCH  12  13
ENDBRANCH  11  12
ENDBRANCH  10  11
ENDBRANCH   9  10
ENDBRANCH   8   9
ENDBRANCH   7   8
ENDBRANCH   6   7
ENDBRANCH   5   6
ENDBRANCH   4   5
ENDBRANCH   3   4
ENDBRANCH   2   3
TORSDOF 14
ENDMDL
MODEL      404
REMARK 921   NORMALIZED FREE ENERGY PREDICTED BY IDOCK:   -1.97 KCAL/MOL
REMARK 922        TOTAL FREE ENERGY PREDICTED BY IDOCK:   -4.97 KCAL/MOL
REMARK 923 INTER-LIGAND FREE ENERGY PREDICTED BY IDOCK:   -4.33 KCAL/MOL
REMARK 924 INTRA-LIGAND FREE ENERGY PREDICTED BY IDOCK:   -0.63 KCAL/MOL
REMARK 927      BINDING AFFINITY PREDICTED BY RF-SCORE:    0.00 PKD
ROOT
HETATM    1  C   UNL     1      -7.344  14.521  67.782  1.00  0.00    -0.189 C  
HETATM    2  C   UNL     1      -7.100  13.030  67.946  1.00  0.00    -0.128 C  
ENDROOT
BRANCH   2   3
HETATM    3  C   UNL     1      -8.412  12.249  67.923  1.00  0.00    -0.165 C  
BRANCH   3   4
HETATM    4  C   UNL     1      -8.164  10.745  68.018  1.00  0.00    -0.115 C  
BRANCH   4   5
HETATM    5  C   UNL     1      -9.472   9.990  68.245  1.00  0.00    -0.147 C  
BRANCH   5   6
HETATM    6  C   UNL     1      -9.947   9.318  66.961  1.00  0.00    -0.286 C  
BRANCH   6   7
HETATM    7  C   UNL     1      -8.773   9.044  66.023  1.00  0.00    -0.184 C  
BRANCH   7   8
HETATM    8  C   UNL     1      -9.003   9.686  64.658  1.00  0.00    -0.274 C  
BRANCH   8   9
HETATM    9  C   UNL     1     -10.422  10.237  64.549  1.00  0.00     0.210 C  
BRANCH   9  10
HETATM   10  C   UNL     1     -10.425  11.598  63.861  1.00  0.00    -0.433 C  
BRANCH  10  11
HETATM   11  C   UNL     1     -11.850  12.099  63.647  1.00  0.00    -0.608 C  
BRANCH  11  12
HETATM   12  C   UNL     1     -12.216  13.159  64.682  1.00  0.00    -0.471 C  
BRANCH  12  13
HETATM   13  C   UNL     1     -11.153  14.253  64.745  1.00  0.00    -0.398 C  
BRANCH  13  14
HETATM   14  C   UNL     1     -10.444  14.248  66.098  1.00  0.00    -0.294 C  
BRANCH  14  15
HETATM   15  C   UNL     1     -10.945  15.381  66.987  1.00  0.00    -0.306 C  
BRANCH  15  16
HETATM   16  C   UNL     1      -9.790  16.143  67.620  1.00  0.00    -0.236 C  
HETATM   17  O   UNL     1     -10.258  17.374  68.148  1.00  0.00    -0.310 OA 
HETATM   18  H   UNL     1      -9.537  17.850  68.543  1.00  0.00     0.000 HD 
ENDBRANCH  15  16
ENDBRANCH  14  15
ENDBRANCH  13  14
ENDBRANCH  12  13
ENDBRANCH  11  12
ENDBRANCH  10  11
ENDBRANCH   9  10
ENDBRANCH   8   9
ENDBRANCH   7   8
ENDBRANCH   6   7
ENDBRANCH   5   6
ENDBRANCH   4   5
ENDBRANCH   3   4
ENDBRANCH   2   3
TORSDOF 14
ENDMDL
MODEL      405
REMARK 921   NORMALIZED FREE ENERGY PREDICTED BY IDOCK:   -1.97 KCAL/MOL
REMARK 922        TOTAL FREE ENERGY PREDICTED BY IDOCK:   -4.96 KCAL/MOL
REMARK 923 INTER-LIGAND FREE ENERGY PREDICTED BY IDOCK:   -3.85 KCAL/MOL
REMARK 924 INTRA-LIGAND FREE ENERGY PREDICTED BY IDOCK:   -1.11 KCAL/MOL
REMARK 927      BINDING AFFINITY PREDICTED BY RF-SCORE:    0.00 PKD
ROOT
HETATM    1  C   UNL     1      -7.681  10.094  62.350  1.00  0.00    -0.152 C  
HETATM    2  C   UNL     1      -9.096   9.631  62.650  1.00  0.00    -0.267 C  
ENDROOT
BRANCH   2   3
HETATM    3  C   UNL     1      -9.632  10.283  63.923  1.00  0.00    -0.354 C  
BRANCH   3   4
HETATM    4  C   UNL     1      -8.498  10.824  64.790  1.00  0.00    -0.038 C  
BRANCH   4   5
HETATM    5  C   UNL     1      -8.468  10.128  66.148  1.00  0.00    -0.134 C  
BRANCH   5   6
HETATM    6  C   UNL     1      -8.104  11.107  67.259  1.00  0.00    -0.137 C  
BRANCH   6   7
HETATM    7  C   UNL     1      -8.401  12.544  66.836  1.00  0.00    -0.097 C  
BRANCH   7   8
HETATM    8  C   UNL     1      -8.721  13.414  68.049  1.00  0.00    -0.178 C  
BRANCH   8   9
HETATM    9  C   UNL     1      -7.571  14.372  68.348  1.00  0.00    -0.122 C  
BRANCH   9  10
HETATM   10  C   UNL     1      -7.544  15.520  67.344  1.00  0.00    -0.231 C  
BRANCH  10  11
HETATM   11  C   UNL     1      -8.041  16.815  67.980  1.00  0.00    -0.187 C  
BRANCH  11  12
HETATM   12  C   UNL     1      -9.217  17.391  67.195  1.00  0.00    -0.241 C  
BRANCH  12  13
HETATM   13  C   UNL     1     -10.429  17.601  68.099  1.00  0.00    -0.386 C  
BRANCH  13  14
HETATM   14  C   UNL     1     -10.227  16.918  69.450  1.00  0.00    -0.208 C  
BRANCH  14  15
HETATM   15  C   UNL     1     -11.098  15.672  69.572  1.00  0.00    -0.298 C  
BRANCH  15  16
HETATM   16  C   UNL     1     -12.240  15.887  70.555  1.00  0.00    -0.281 C  
HETATM   17  O   UNL     1     -13.087  14.748  70.564  1.00  0.00    -0.536 OA 
HETATM   18  H   UNL     1     -13.800  14.882  71.177  1.00  0.00     0.000 HD 
ENDBRANCH  15  16
ENDBRANCH  14  15
ENDBRANCH  13  14
ENDBRANCH  12  13
ENDBRANCH  11  12
ENDBRANCH  10  11
ENDBRANCH   9  10
ENDBRANCH   8   9
ENDBRANCH   7   8
ENDBRANCH   6   7
ENDBRANCH   5   6
ENDBRANCH   4   5
ENDBRANCH   3   4
ENDBRANCH   2   3
TORSDOF 14
ENDMDL
MODEL      406
REMARK 921   NORMALIZED FREE ENERGY PREDICTED BY IDOCK:   -1.94 KCAL/MOL
REMARK 922        TOTAL FREE ENERGY PREDICTED BY IDOCK:   -4.90 KCAL/MOL
REMARK 923 INTER-LIGAND FREE ENERGY PREDICTED BY IDOCK:   -3.81 KCAL/MOL
REMARK 924 INTRA-LIGAND FREE ENERGY PREDICTED BY IDOCK:   -1.09 KCAL/MOL
REMARK 927      BINDING AFFINITY PREDICTED BY RF-SCORE:    0.00 PKD
ROOT
HETATM    1  C   UNL     1      -5.193   9.222  68.018  1.00  0.00    -0.034 C  
HETATM    2  C   UNL     1      -6.276   8.219  67.658  1.00  0.00    -0.052 C  
ENDROOT
BRANCH   2   3
HETATM    3  C   UNL     1      -7.254   8.804  66.642  1.00  0.00    -0.081 C  
BRANCH   3   4
HETATM    4  C   UNL     1      -7.347  10.323  66.772  1.00  0.00    -0.106 C  
BRANCH   4   5
HETATM    5  C   UNL     1      -8.670  10.736  67.413  1.00  0.00    -0.126 C  
BRANCH   5   6
HETATM    6  C   UNL     1      -8.443  11.725  68.552  1.00  0.00    -0.125 C  
BRANCH   6   7
HETATM    7  C   UNL     1      -9.142  13.052  68.268  1.00  0.00    -0.179 C  
BRANCH   7   8
HETATM    8  C   UNL     1      -8.794  13.565  66.873  1.00  0.00    -0.194 C  
BRANCH   8   9
HETATM    9  C   UNL     1     -10.021  14.164  66.193  1.00  0.00    -0.328 C  
BRANCH   9  10
HETATM   10  C   UNL     1     -11.051  13.084  65.878  1.00  0.00    -0.303 C  
BRANCH  10  11
HETATM   11  C   UNL     1     -12.405  13.422  66.495  1.00  0.00    -0.354 C  
BRANCH  11  12
HETATM   12  C   UNL     1     -12.283  14.589  67.471  1.00  0.00    -0.156 C  
BRANCH  12  13
HETATM   13  C   UNL     1     -12.260  14.095  68.916  1.00  0.00    -0.257 C  
BRANCH  13  14
HETATM   14  C   UNL     1     -12.122  15.262  69.890  1.00  0.00    -0.375 C  
BRANCH  14  15
HETATM   15  C   UNL     1     -11.369  14.842  71.149  1.00  0.00    -0.256 C  
BRANCH  15  16
HETATM   16  C   UNL     1     -12.189  15.114  72.402  1.00  0.00    -0.374 C  
HETATM   17  O   UNL     1     -11.894  16.410  72.898  1.00  0.00    -0.514 OA 
HETATM   18  H   UNL     1     -12.405  16.580  73.680  1.00  0.00     0.000 HD 
ENDBRANCH  15  16
ENDBRANCH  14  15
ENDBRANCH  13  14
ENDBRANCH  12  13
ENDBRANCH  11  12
ENDBRANCH  10  11
ENDBRANCH   9  10
ENDBRANCH   8   9
ENDBRANCH   7   8
ENDBRANCH   6   7
ENDBRANCH   5   6
ENDBRANCH   4   5
ENDBRANCH   3   4
ENDBRANCH   2   3
TORSDOF 14
ENDMDL
MODEL      407
REMARK 921   NORMALIZED FREE ENERGY PREDICTED BY IDOCK:   -1.93 KCAL/MOL
REMARK 922        TOTAL FREE ENERGY PREDICTED BY IDOCK:   -4.89 KCAL/MOL
REMARK 923 INTER-LIGAND FREE ENERGY PREDICTED BY IDOCK:   -3.96 KCAL/MOL
REMARK 924 INTRA-LIGAND FREE ENERGY PREDICTED BY IDOCK:   -0.94 KCAL/MOL
REMARK 927      BINDING AFFINITY PREDICTED BY RF-SCORE:    0.00 PKD
ROOT
HETATM    1  C   UNL     1      -9.959  15.465  67.369  1.00  0.00    -0.229 C  
HETATM    2  C   UNL     1     -10.640  14.220  67.913  1.00  0.00    -0.240 C  
ENDROOT
BRANCH   2   3
HETATM    3  C   UNL     1     -11.174  13.344  66.782  1.00  0.00    -0.332 C  
BRANCH   3   4
HETATM    4  C   UNL     1     -11.903  12.117  67.328  1.00  0.00    -0.293 C  
BRANCH   4   5
HETATM    5  C   UNL     1     -10.911  11.083  67.855  1.00  0.00    -0.317 C  
BRANCH   5   6
HETATM    6  C   UNL     1     -11.519  10.270  68.993  1.00  0.00    -0.200 C  
BRANCH   6   7
HETATM    7  C   UNL     1     -10.563  10.198  70.181  1.00  0.00    -0.337 C  
BRANCH   7   8
HETATM    8  C   UNL     1     -10.676   8.853  70.893  1.00  0.00    -0.292 C  
BRANCH   8   9
HETATM    9  C   UNL     1     -10.745   7.709  69.884  1.00  0.00    -0.253 C  
BRANCH   9  10
HETATM   10  C   UNL     1     -11.563   6.546  70.436  1.00  0.00    -0.470 C  
BRANCH  10  11
HETATM   11  C   UNL     1     -10.751   5.254  70.426  1.00  0.00    -0.216 C  
BRANCH  11  12
HETATM   12  C   UNL     1      -9.258   5.548  70.310  1.00  0.00    -0.181 C  
BRANCH  12  13
HETATM   13  C   UNL     1      -8.583   4.585  69.337  1.00  0.00    -0.105 C  
BRANCH  13  14
HETATM   14  C   UNL     1      -9.561   4.125  68.258  1.00  0.00    -0.191 C  
BRANCH  14  15
HETATM   15  C   UNL     1      -9.026   4.433  66.863  1.00  0.00    -0.122 C  
BRANCH  15  16
HETATM   16  C   UNL     1      -8.341   5.791  66.818  1.00  0.00    -0.109 C  
HETATM   17  O   UNL     1      -7.180   5.716  66.006  1.00  0.00    -0.070 OA 
HETATM   18  H   UNL     1      -6.751   6.564  65.978  1.00  0.00     0.000 HD 
ENDBRANCH  15  16
ENDBRANCH  14  15
ENDBRANCH  13  14
ENDBRANCH  12  13
ENDBRANCH  11  12
ENDBRANCH  10  11
ENDBRANCH   9  10
ENDBRANCH   8   9
ENDBRANCH   7   8
ENDBRANCH   6   7
ENDBRANCH   5   6
ENDBRANCH   4   5
ENDBRANCH   3   4
ENDBRANCH   2   3
TORSDOF 14
ENDMDL
MODEL      408
REMARK 921   NORMALIZED FREE ENERGY PREDICTED BY IDOCK:   -1.89 KCAL/MOL
REMARK 922        TOTAL FREE ENERGY PREDICTED BY IDOCK:   -4.82 KCAL/MOL
REMARK 923 INTER-LIGAND FREE ENERGY PREDICTED BY IDOCK:   -3.70 KCAL/MOL
REMARK 924 INTRA-LIGAND FREE ENERGY PREDICTED BY IDOCK:   -1.13 KCAL/MOL
REMARK 927      BINDING AFFINITY PREDICTED BY RF-SCORE:    0.00 PKD
ROOT
HETATM    1  C   UNL     1     -12.552  14.973  70.326  1.00  0.00    -0.363 C  
HETATM    2  C   UNL     1     -13.633  14.569  71.313  1.00  0.00    -0.423 C  
ENDROOT
BRANCH   2   3
HETATM    3  C   UNL     1     -13.258  13.285  72.049  1.00  0.00    -0.541 C  
BRANCH   3   4
HETATM    4  C   UNL     1     -13.160  12.103  71.087  1.00  0.00    -0.113 C  
BRANCH   4   5
HETATM    5  C   UNL     1     -11.942  11.239  71.407  1.00  0.00     0.180 C  
BRANCH   5   6
HETATM    6  C   UNL     1     -11.892  10.007  70.509  1.00  0.00    -0.387 C  
BRANCH   6   7
HETATM    7  C   UNL     1     -10.452   9.660  70.141  1.00  0.00    -0.321 C  
BRANCH   7   8
HETATM    8  C   UNL     1      -9.736   8.990  71.311  1.00  0.00    -0.371 C  
BRANCH   8   9
HETATM    9  C   UNL     1     -10.470   7.725  71.745  1.00  0.00    -0.259 C  
BRANCH   9  10
HETATM   10  C   UNL     1      -9.610   6.489  71.508  1.00  0.00    -0.169 C  
BRANCH  10  11
HETATM   11  C   UNL     1     -10.105   5.702  70.297  1.00  0.00    -0.287 C  
BRANCH  11  12
HETATM   12  C   UNL     1      -9.040   4.724  69.810  1.00  0.00    -0.159 C  
BRANCH  12  13
HETATM   13  C   UNL     1      -8.032   5.421  68.899  1.00  0.00    -0.094 C  
BRANCH  13  14
HETATM   14  C   UNL     1      -8.739   6.336  67.901  1.00  0.00    -0.114 C  
BRANCH  14  15
HETATM   15  C   UNL     1      -8.079   7.711  67.851  1.00  0.00    -0.123 C  
BRANCH  15  16
HETATM   16  C   UNL     1      -6.971   7.757  66.810  1.00  0.00    -0.072 C  
HETATM   17  O   UNL     1      -7.198   8.834  65.913  1.00  0.00    -0.082 OA 
HETATM   18  H   UNL     1      -6.506   8.863  65.263  1.00  0.00     0.000 HD 
ENDBRANCH  15  16
ENDBRANCH  14  15
ENDBRANCH  13  14
ENDBRANCH  12  13
ENDBRANCH  11  12
ENDBRANCH  10  11
ENDBRANCH   9  10
ENDBRANCH   8   9
ENDBRANCH   7   8
ENDBRANCH   6   7
ENDBRANCH   5   6
ENDBRANCH   4   5
ENDBRANCH   3   4
ENDBRANCH   2   3
TORSDOF 14
ENDMDL
MODEL      409
REMARK 921   NORMALIZED FREE ENERGY PREDICTED BY IDOCK:   -1.88 KCAL/MOL
REMARK 922        TOTAL FREE ENERGY PREDICTED BY IDOCK:   -4.80 KCAL/MOL
REMARK 923 INTER-LIGAND FREE ENERGY PREDICTED BY IDOCK:   -3.47 KCAL/MOL
REMARK 924 INTRA-LIGAND FREE ENERGY PREDICTED BY IDOCK:   -1.33 KCAL/MOL
REMARK 927      BINDING AFFINITY PREDICTED BY RF-SCORE:    0.00 PKD
ROOT
HETATM    1  C   UNL     1     -13.196   9.022  72.393  1.00  0.00    -0.507 C  
HETATM    2  C   UNL     1     -12.229   9.745  71.470  1.00  0.00    -0.493 C  
ENDROOT
BRANCH   2   3
HETATM    3  C   UNL     1     -12.938  10.257  70.219  1.00  0.00    -0.059 C  
BRANCH   3   4
HETATM    4  C   UNL     1     -12.009  11.120  69.368  1.00  0.00    -0.420 C  
BRANCH   4   5
HETATM    5  C   UNL     1     -10.574  11.049  69.883  1.00  0.00     0.049 C  
BRANCH   5   6
HETATM    6  C   UNL     1      -9.662  10.361  68.873  1.00  0.00    -0.203 C  
BRANCH   6   7
HETATM    7  C   UNL     1     -10.024  10.770  67.447  1.00  0.00    -0.214 C  
BRANCH   7   8
HETATM    8  C   UNL     1     -10.126   9.548  66.538  1.00  0.00    -0.326 C  
BRANCH   8   9
HETATM    9  C   UNL     1     -10.602   8.327  67.321  1.00  0.00    -0.335 C  
BRANCH   9  10
HETATM   10  C   UNL     1     -10.016   7.045  66.738  1.00  0.00    -0.266 C  
BRANCH  10  11
HETATM   11  C   UNL     1      -8.534   6.916  67.082  1.00  0.00    -0.121 C  
BRANCH  11  12
HETATM   12  C   UNL     1      -7.890   5.778  66.295  1.00  0.00    -0.101 C  
BRANCH  12  13
HETATM   13  C   UNL     1      -8.035   6.001  64.791  1.00  0.00    -0.127 C  
BRANCH  13  14
HETATM   14  C   UNL     1      -6.673   6.228  64.139  1.00  0.00    -0.038 C  
BRANCH  14  15
HETATM   15  C   UNL     1      -6.607   7.596  63.465  1.00  0.00    -0.058 C  
BRANCH  15  16
HETATM   16  C   UNL     1      -7.764   8.484  63.896  1.00  0.00    -0.141 C  
HETATM   17  O   UNL     1      -7.262   9.690  64.451  1.00  0.00    -0.110 OA 
HETATM   18  H   UNL     1      -7.984  10.245  64.721  1.00  0.00     0.000 HD 
ENDBRANCH  15  16
ENDBRANCH  14  15
ENDBRANCH  13  14
ENDBRANCH  12  13
ENDBRANCH  11  12
ENDBRANCH  10  11
ENDBRANCH   9  10
ENDBRANCH   8   9
ENDBRANCH   7   8
ENDBRANCH   6   7
ENDBRANCH   5   6
ENDBRANCH   4   5
ENDBRANCH   3   4
ENDBRANCH   2   3
TORSDOF 14
ENDMDL
MODEL      410
REMARK 921   NORMALIZED FREE ENERGY PREDICTED BY IDOCK:   -1.88 KCAL/MOL
REMARK 922        TOTAL FREE ENERGY PREDICTED BY IDOCK:   -4.79 KCAL/MOL
REMARK 923 INTER-LIGAND FREE ENERGY PREDICTED BY IDOCK:   -4.22 KCAL/MOL
REMARK 924 INTRA-LIGAND FREE ENERGY PREDICTED BY IDOCK:   -0.57 KCAL/MOL
REMARK 927      BINDING AFFINITY PREDICTED BY RF-SCORE:    0.00 PKD
ROOT
HETATM    1  C   UNL     1     -11.283  16.080  70.116  1.00  0.00    -0.376 C  
HETATM    2  C   UNL     1     -11.977  15.220  69.074  1.00  0.00    -0.304 C  
ENDROOT
BRANCH   2   3
HETATM    3  C   UNL     1     -11.368  13.820  69.019  1.00  0.00    -0.333 C  
BRANCH   3   4
HETATM    4  C   UNL     1     -10.010  13.833  68.320  1.00  0.00    -0.243 C  
BRANCH   4   5
HETATM    5  C   UNL     1      -9.395  12.436  68.296  1.00  0.00    -0.199 C  
BRANCH   5   6
HETATM    6  C   UNL     1      -9.168  11.961  66.865  1.00  0.00    -0.193 C  
BRANCH   6   7
HETATM    7  C   UNL     1     -10.258  10.982  66.436  1.00  0.00    -0.284 C  
BRANCH   7   8
HETATM    8  C   UNL     1      -9.695   9.911  65.505  1.00  0.00    -0.370 C  
BRANCH   8   9
HETATM    9  C   UNL     1      -9.442   8.611  66.264  1.00  0.00    -0.307 C  
BRANCH   9  10
HETATM   10  C   UNL     1     -10.714   8.126  66.951  1.00  0.00    -0.186 C  
BRANCH  10  11
HETATM   11  C   UNL     1     -10.471   6.809  67.684  1.00  0.00    -0.287 C  
BRANCH  11  12
HETATM   12  C   UNL     1     -10.357   7.036  69.189  1.00  0.00    -0.209 C  
BRANCH  12  13
HETATM   13  C   UNL     1      -9.941   5.754  69.906  1.00  0.00    -0.254 C  
BRANCH  13  14
HETATM   14  C   UNL     1     -10.222   5.851  71.404  1.00  0.00    -0.261 C  
BRANCH  14  15
HETATM   15  C   UNL     1      -9.490   4.756  72.174  1.00  0.00    -0.180 C  
BRANCH  15  16
HETATM   16  C   UNL     1     -10.395   3.562  72.436  1.00  0.00    -0.090 C  
HETATM   17  O   UNL     1     -10.492   3.330  73.833  1.00  0.00    -0.147 OA 
HETATM   18  H   UNL     1     -11.057   2.584  73.997  1.00  0.00     0.000 HD 
ENDBRANCH  15  16
ENDBRANCH  14  15
ENDBRANCH  13  14
ENDBRANCH  12  13
ENDBRANCH  11  12
ENDBRANCH  10  11
ENDBRANCH   9  10
ENDBRANCH   8   9
ENDBRANCH   7   8
ENDBRANCH   6   7
ENDBRANCH   5   6
ENDBRANCH   4   5
ENDBRANCH   3   4
ENDBRANCH   2   3
TORSDOF 14
ENDMDL
MODEL      411
REMARK 921   NORMALIZED FREE ENERGY PREDICTED BY IDOCK:   -1.88 KCAL/MOL
REMARK 922        TOTAL FREE ENERGY PREDICTED BY IDOCK:   -4.79 KCAL/MOL
REMARK 923 INTER-LIGAND FREE ENERGY PREDICTED BY IDOCK:   -3.33 KCAL/MOL
REMARK 924 INTRA-LIGAND FREE ENERGY PREDICTED BY IDOCK:   -1.47 KCAL/MOL
REMARK 927      BINDING AFFINITY PREDICTED BY RF-SCORE:    0.00 PKD
ROOT
HETATM    1  C   UNL     1     -10.375  11.856  64.448  1.00  0.00    -0.341 C  
HETATM    2  C   UNL     1     -11.467  12.566  63.667  1.00  0.00    -0.568 C  
ENDROOT
BRANCH   2   3
HETATM    3  C   UNL     1     -11.876  13.870  64.349  1.00  0.00    -0.456 C  
BRANCH   3   4
HETATM    4  C   UNL     1     -10.712  14.476  65.129  1.00  0.00    -0.422 C  
BRANCH   4   5
HETATM    5  C   UNL     1     -11.094  14.706  66.589  1.00  0.00    -0.334 C  
BRANCH   5   6
HETATM    6  C   UNL     1     -11.361  16.183  66.861  1.00  0.00     0.262 C  
BRANCH   6   7
HETATM    7  C   UNL     1     -10.118  17.022  66.571  1.00  0.00    -0.318 C  
BRANCH   7   8
HETATM    8  C   UNL     1      -9.444  17.465  67.867  1.00  0.00    -0.265 C  
BRANCH   8   9
HETATM    9  C   UNL     1      -7.926  17.486  67.709  1.00  0.00    -0.210 C  
BRANCH   9  10
HETATM   10  C   UNL     1      -7.350  16.078  67.802  1.00  0.00    -0.157 C  
BRANCH  10  11
HETATM   11  C   UNL     1      -7.749  15.409  69.115  1.00  0.00    -0.207 C  
BRANCH  11  12
HETATM   12  C   UNL     1      -7.502  13.904  69.056  1.00  0.00    -0.032 C  
BRANCH  12  13
HETATM   13  C   UNL     1      -7.233  13.448  67.624  1.00  0.00    -0.167 C  
BRANCH  13  14
HETATM   14  C   UNL     1      -7.311  11.927  67.511  1.00  0.00    -0.132 C  
BRANCH  14  15
HETATM   15  C   UNL     1      -6.991  11.463  66.094  1.00  0.00     0.150 C  
BRANCH  15  16
HETATM   16  C   UNL     1      -5.884  10.419  66.088  1.00  0.00    -0.087 C  
HETATM   17  O   UNL     1      -5.523  10.094  67.422  1.00  0.00    -0.041 OA 
HETATM   18  H   UNL     1      -4.831   9.442  67.418  1.00  0.00     0.000 HD 
ENDBRANCH  15  16
ENDBRANCH  14  15
ENDBRANCH  13  14
ENDBRANCH  12  13
ENDBRANCH  11  12
ENDBRANCH  10  11
ENDBRANCH   9  10
ENDBRANCH   8   9
ENDBRANCH   7   8
ENDBRANCH   6   7
ENDBRANCH   5   6
ENDBRANCH   4   5
ENDBRANCH   3   4
ENDBRANCH   2   3
TORSDOF 14
ENDMDL
MODEL      412
REMARK 921   NORMALIZED FREE ENERGY PREDICTED BY IDOCK:   -1.85 KCAL/MOL
REMARK 922        TOTAL FREE ENERGY PREDICTED BY IDOCK:   -4.75 KCAL/MOL
REMARK 923 INTER-LIGAND FREE ENERGY PREDICTED BY IDOCK:   -3.81 KCAL/MOL
REMARK 924 INTRA-LIGAND FREE ENERGY PREDICTED BY IDOCK:   -0.95 KCAL/MOL
REMARK 927      BINDING AFFINITY PREDICTED BY RF-SCORE:    0.00 PKD
ROOT
HETATM    1  C   UNL     1      -8.146   2.375  65.878  1.00  0.00    -0.085 C  
HETATM    2  C   UNL     1      -7.613   3.433  66.829  1.00  0.00    -0.076 C  
ENDROOT
BRANCH   2   3
HETATM    3  C   UNL     1      -7.670   4.822  66.198  1.00  0.00    -0.091 C  
BRANCH   3   4
HETATM    4  C   UNL     1      -9.110   5.318  66.077  1.00  0.00    -0.154 C  
BRANCH   4   5
HETATM    5  C   UNL     1      -9.195   6.817  66.351  1.00  0.00    -0.185 C  
BRANCH   5   6
HETATM    6  C   UNL     1      -7.878   7.350  66.905  1.00  0.00    -0.115 C  
BRANCH   6   7
HETATM    7  C   UNL     1      -8.122   8.280  68.091  1.00  0.00    -0.124 C  
BRANCH   7   8
HETATM    8  C   UNL     1      -9.615   8.523  68.296  1.00  0.00    -0.156 C  
BRANCH   8   9
HETATM    9  C   UNL     1      -9.920  10.017  68.351  1.00  0.00    -0.178 C  
BRANCH   9  10
HETATM   10  C   UNL     1     -11.034  10.380  67.373  1.00  0.00    -0.335 C  
BRANCH  10  11
HETATM   11  C   UNL     1     -10.490  11.195  66.203  1.00  0.00    -0.307 C  
BRANCH  11  12
HETATM   12  C   UNL     1     -11.500  12.248  65.757  1.00  0.00    -0.417 C  
BRANCH  12  13
HETATM   13  C   UNL     1     -10.813  13.580  65.469  1.00  0.00    -0.293 C  
BRANCH  13  14
HETATM   14  C   UNL     1      -9.808  13.925  66.566  1.00  0.00    -0.296 C  
BRANCH  14  15
HETATM   15  C   UNL     1      -9.266  15.340  66.392  1.00  0.00    -0.342 C  
BRANCH  15  16
HETATM   16  C   UNL     1     -10.390  16.343  66.179  1.00  0.00    -0.344 C  
HETATM   17  O   UNL     1     -10.194  17.471  67.017  1.00  0.00    -0.307 OA 
HETATM   18  H   UNL     1     -10.896  18.097  66.884  1.00  0.00     0.000 HD 
ENDBRANCH  15  16
ENDBRANCH  14  15
ENDBRANCH  13  14
ENDBRANCH  12  13
ENDBRANCH  11  12
ENDBRANCH  10  11
ENDBRANCH   9  10
ENDBRANCH   8   9
ENDBRANCH   7   8
ENDBRANCH   6   7
ENDBRANCH   5   6
ENDBRANCH   4   5
ENDBRANCH   3   4
ENDBRANCH   2   3
TORSDOF 14
ENDMDL
MODEL      413
REMARK 921   NORMALIZED FREE ENERGY PREDICTED BY IDOCK:   -1.85 KCAL/MOL
REMARK 922        TOTAL FREE ENERGY PREDICTED BY IDOCK:   -4.75 KCAL/MOL
REMARK 923 INTER-LIGAND FREE ENERGY PREDICTED BY IDOCK:   -3.61 KCAL/MOL
REMARK 924 INTRA-LIGAND FREE ENERGY PREDICTED BY IDOCK:   -1.13 KCAL/MOL
REMARK 927      BINDING AFFINITY PREDICTED BY RF-SCORE:    0.00 PKD
ROOT
HETATM    1  C   UNL     1      -5.961   6.748  68.810  1.00  0.00    -0.022 C  
HETATM    2  C   UNL     1      -6.804   7.471  67.775  1.00  0.00    -0.071 C  
ENDROOT
BRANCH   2   3
HETATM    3  C   UNL     1      -8.284   7.131  67.932  1.00  0.00    -0.119 C  
BRANCH   3   4
HETATM    4  C   UNL     1      -8.958   6.941  66.575  1.00  0.00    -0.166 C  
BRANCH   4   5
HETATM    5  C   UNL     1      -8.661   8.119  65.650  1.00  0.00    -0.176 C  
BRANCH   5   6
HETATM    6  C   UNL     1      -9.565   9.306  65.966  1.00  0.00    -0.338 C  
BRANCH   6   7
HETATM    7  C   UNL     1      -8.847  10.625  65.690  1.00  0.00    -0.201 C  
BRANCH   7   8
HETATM    8  C   UNL     1      -7.451  10.627  66.306  1.00  0.00    -0.137 C  
BRANCH   8   9
HETATM    9  C   UNL     1      -7.449  11.358  67.645  1.00  0.00    -0.103 C  
BRANCH   9  10
HETATM   10  C   UNL     1      -8.766  11.143  68.384  1.00  0.00    -0.157 C  
BRANCH  10  11
HETATM   11  C   UNL     1      -9.651  12.383  68.298  1.00  0.00    -0.211 C  
BRANCH  11  12
HETATM   12  C   UNL     1     -11.010  12.129  68.944  1.00  0.00    -0.269 C  
BRANCH  12  13
HETATM   13  C   UNL     1     -12.140  12.312  67.934  1.00  0.00    -0.052 C  
BRANCH  13  14
HETATM   14  C   UNL     1     -11.595  12.768  66.582  1.00  0.00    -0.430 C  
BRANCH  14  15
HETATM   15  C   UNL     1     -12.725  13.001  65.584  1.00  0.00    -0.198 C  
BRANCH  15  16
HETATM   16  C   UNL     1     -12.240  12.844  64.150  1.00  0.00    -0.414 C  
HETATM   17  O   UNL     1     -10.977  13.473  63.999  1.00  0.00    -0.551 OA 
HETATM   18  H   UNL     1     -10.674  13.376  63.103  1.00  0.00     0.000 HD 
ENDBRANCH  15  16
ENDBRANCH  14  15
ENDBRANCH  13  14
ENDBRANCH  12  13
ENDBRANCH  11  12
ENDBRANCH  10  11
ENDBRANCH   9  10
ENDBRANCH   8   9
ENDBRANCH   7   8
ENDBRANCH   6   7
ENDBRANCH   5   6
ENDBRANCH   4   5
ENDBRANCH   3   4
ENDBRANCH   2   3
TORSDOF 14
ENDMDL
MODEL      414
REMARK 921   NORMALIZED FREE ENERGY PREDICTED BY IDOCK:   -1.83 KCAL/MOL
REMARK 922        TOTAL FREE ENERGY PREDICTED BY IDOCK:   -4.71 KCAL/MOL
REMARK 923 INTER-LIGAND FREE ENERGY PREDICTED BY IDOCK:   -3.78 KCAL/MOL
REMARK 924 INTRA-LIGAND FREE ENERGY PREDICTED BY IDOCK:   -0.93 KCAL/MOL
REMARK 927      BINDING AFFINITY PREDICTED BY RF-SCORE:    0.00 PKD
ROOT
HETATM    1  C   UNL     1      -7.731   1.529  65.935  1.00  0.00    -0.066 C  
HETATM    2  C   UNL     1      -7.198   2.764  66.641  1.00  0.00    -0.065 C  
ENDROOT
BRANCH   2   3
HETATM    3  C   UNL     1      -7.457   4.025  65.820  1.00  0.00    -0.081 C  
BRANCH   3   4
HETATM    4  C   UNL     1      -8.926   4.438  65.887  1.00  0.00    -0.124 C  
BRANCH   4   5
HETATM    5  C   UNL     1      -9.070   5.957  65.829  1.00  0.00    -0.101 C  
BRANCH   5   6
HETATM    6  C   UNL     1      -7.704   6.635  65.791  1.00  0.00    -0.092 C  
BRANCH   6   7
HETATM    7  C   UNL     1      -7.605   7.718  66.863  1.00  0.00    -0.099 C  
BRANCH   7   8
HETATM    8  C   UNL     1      -8.850   7.728  67.746  1.00  0.00    -0.126 C  
BRANCH   8   9
HETATM    9  C   UNL     1      -8.986   9.060  68.477  1.00  0.00    -0.133 C  
BRANCH   9  10
HETATM   10  C   UNL     1     -10.419   9.576  68.406  1.00  0.00    -0.261 C  
BRANCH  10  11
HETATM   11  C   UNL     1     -10.634  10.731  69.380  1.00  0.00    -0.254 C  
BRANCH  11  12
HETATM   12  C   UNL     1     -12.105  10.848  69.770  1.00  0.00    -0.409 C  
BRANCH  12  13
HETATM   13  C   UNL     1     -12.316  10.467  71.233  1.00  0.00    -0.502 C  
BRANCH  13  14
HETATM   14  C   UNL     1     -12.570   8.968  71.376  1.00  0.00    -0.370 C  
BRANCH  14  15
HETATM   15  C   UNL     1     -11.623   8.344  72.396  1.00  0.00    -0.450 C  
BRANCH  15  16
HETATM   16  C   UNL     1     -11.444   6.854  72.148  1.00  0.00    -0.279 C  
HETATM   17  O   UNL     1     -11.829   6.538  70.819  1.00  0.00    -0.373 OA 
HETATM   18  H   UNL     1     -11.718   5.608  70.664  1.00  0.00     0.000 HD 
ENDBRANCH  15  16
ENDBRANCH  14  15
ENDBRANCH  13  14
ENDBRANCH  12  13
ENDBRANCH  11  12
ENDBRANCH  10  11
ENDBRANCH   9  10
ENDBRANCH   8   9
ENDBRANCH   7   8
ENDBRANCH   6   7
ENDBRANCH   5   6
ENDBRANCH   4   5
ENDBRANCH   3   4
ENDBRANCH   2   3
TORSDOF 14
ENDMDL
MODEL      415
REMARK 921   NORMALIZED FREE ENERGY PREDICTED BY IDOCK:   -1.82 KCAL/MOL
REMARK 922        TOTAL FREE ENERGY PREDICTED BY IDOCK:   -4.69 KCAL/MOL
REMARK 923 INTER-LIGAND FREE ENERGY PREDICTED BY IDOCK:   -3.73 KCAL/MOL
REMARK 924 INTRA-LIGAND FREE ENERGY PREDICTED BY IDOCK:   -0.96 KCAL/MOL
REMARK 927      BINDING AFFINITY PREDICTED BY RF-SCORE:    0.00 PKD
ROOT
HETATM    1  C   UNL     1      -7.952   3.210  65.753  1.00  0.00    -0.086 C  
HETATM    2  C   UNL     1      -7.277   4.521  65.387  1.00  0.00    -0.068 C  
ENDROOT
BRANCH   2   3
HETATM    3  C   UNL     1      -8.307   5.603  65.071  1.00  0.00    -0.146 C  
BRANCH   3   4
HETATM    4  C   UNL     1      -8.922   6.173  66.347  1.00  0.00    -0.156 C  
BRANCH   4   5
HETATM    5  C   UNL     1      -8.913   7.700  66.322  1.00  0.00    -0.203 C  
BRANCH   5   6
HETATM    6  C   UNL     1      -8.285   8.224  65.035  1.00  0.00    -0.160 C  
BRANCH   6   7
HETATM    7  C   UNL     1      -7.137   9.183  65.341  1.00  0.00    -0.081 C  
BRANCH   7   8
HETATM    8  C   UNL     1      -6.989   9.396  66.844  1.00  0.00    -0.081 C  
BRANCH   8   9
HETATM    9  C   UNL     1      -6.714  10.864  67.160  1.00  0.00    -0.088 C  
BRANCH   9  10
HETATM   10  C   UNL     1      -7.434  11.290  68.435  1.00  0.00    -0.108 C  
BRANCH  10  11
HETATM   11  C   UNL     1      -8.150  12.624  68.238  1.00  0.00    -0.161 C  
BRANCH  11  12
HETATM   12  C   UNL     1      -9.325  12.475  67.276  1.00  0.00    -0.190 C  
BRANCH  12  13
HETATM   13  C   UNL     1     -10.590  13.105  67.854  1.00  0.00    -0.243 C  
BRANCH  13  14
HETATM   14  C   UNL     1     -11.399  13.805  66.765  1.00  0.00    -0.345 C  
BRANCH  14  15
HETATM   15  C   UNL     1     -10.842  15.195  66.473  1.00  0.00    -0.317 C  
BRANCH  15  16
HETATM   16  C   UNL     1     -10.512  15.363  64.998  1.00  0.00    -0.381 C  
HETATM   17  O   UNL     1     -11.068  16.577  64.516  1.00  0.00    -0.916 OA 
HETATM   18  H   UNL     1     -10.862  16.682  63.594  1.00  0.00     0.000 HD 
ENDBRANCH  15  16
ENDBRANCH  14  15
ENDBRANCH  13  14
ENDBRANCH  12  13
ENDBRANCH  11  12
ENDBRANCH  10  11
ENDBRANCH   9  10
ENDBRANCH   8   9
ENDBRANCH   7   8
ENDBRANCH   6   7
ENDBRANCH   5   6
ENDBRANCH   4   5
ENDBRANCH   3   4
ENDBRANCH   2   3
TORSDOF 14
ENDMDL
MODEL      416
REMARK 921   NORMALIZED FREE ENERGY PREDICTED BY IDOCK:   -1.82 KCAL/MOL
REMARK 922        TOTAL FREE ENERGY PREDICTED BY IDOCK:   -4.69 KCAL/MOL
REMARK 923 INTER-LIGAND FREE ENERGY PREDICTED BY IDOCK:   -3.58 KCAL/MOL
REMARK 924 INTRA-LIGAND FREE ENERGY PREDICTED BY IDOCK:   -1.11 KCAL/MOL
REMARK 927      BINDING AFFINITY PREDICTED BY RF-SCORE:    0.00 PKD
ROOT
HETATM    1  C   UNL     1      -8.384   8.840  63.758  1.00  0.00    -0.140 C  
HETATM    2  C   UNL     1      -7.440   8.022  64.621  1.00  0.00    -0.097 C  
ENDROOT
BRANCH   2   3
HETATM    3  C   UNL     1      -6.153   8.790  64.913  1.00  0.00    -0.064 C  
BRANCH   3   4
HETATM    4  C   UNL     1      -6.043   9.145  66.395  1.00  0.00    -0.063 C  
BRANCH   4   5
HETATM    5  C   UNL     1      -7.366   8.898  67.115  1.00  0.00    -0.084 C  
BRANCH   5   6
HETATM    6  C   UNL     1      -7.329   9.451  68.536  1.00  0.00    -0.079 C  
BRANCH   6   7
HETATM    7  C   UNL     1      -8.430  10.489  68.745  1.00  0.00    -0.141 C  
BRANCH   7   8
HETATM    8  C   UNL     1      -9.253  10.675  67.473  1.00  0.00    -0.151 C  
BRANCH   8   9
HETATM    9  C   UNL     1     -10.296  11.773  67.657  1.00  0.00    -0.219 C  
BRANCH   9  10
HETATM   10  C   UNL     1     -11.606  11.196  68.183  1.00  0.00    -0.350 C  
BRANCH  10  11
HETATM   11  C   UNL     1     -11.888  11.684  69.602  1.00  0.00    -0.419 C  
BRANCH  11  12
HETATM   12  C   UNL     1     -12.804  10.711  70.340  1.00  0.00    -0.277 C  
BRANCH  12  13
HETATM   13  C   UNL     1     -12.186  10.278  71.667  1.00  0.00    -0.384 C  
BRANCH  13  14
HETATM   14  C   UNL     1     -11.659   8.847  71.583  1.00  0.00    -0.408 C  
BRANCH  14  15
HETATM   15  C   UNL     1     -10.165   8.791  71.887  1.00  0.00    -0.415 C  
BRANCH  15  16
HETATM   16  C   UNL     1      -9.691   7.359  72.079  1.00  0.00    -0.154 C  
HETATM   17  O   UNL     1      -8.879   7.273  73.240  1.00  0.00    -0.129 OA 
HETATM   18  H   UNL     1      -8.582   6.379  73.360  1.00  0.00     0.000 HD 
ENDBRANCH  15  16
ENDBRANCH  14  15
ENDBRANCH  13  14
ENDBRANCH  12  13
ENDBRANCH  11  12
ENDBRANCH  10  11
ENDBRANCH   9  10
ENDBRANCH   8   9
ENDBRANCH   7   8
ENDBRANCH   6   7
ENDBRANCH   5   6
ENDBRANCH   4   5
ENDBRANCH   3   4
ENDBRANCH   2   3
TORSDOF 14
ENDMDL
MODEL      417
REMARK 921   NORMALIZED FREE ENERGY PREDICTED BY IDOCK:   -1.82 KCAL/MOL
REMARK 922        TOTAL FREE ENERGY PREDICTED BY IDOCK:   -4.68 KCAL/MOL
REMARK 923 INTER-LIGAND FREE ENERGY PREDICTED BY IDOCK:   -3.67 KCAL/MOL
REMARK 924 INTRA-LIGAND FREE ENERGY PREDICTED BY IDOCK:   -1.01 KCAL/MOL
REMARK 927      BINDING AFFINITY PREDICTED BY RF-SCORE:    0.00 PKD
ROOT
HETATM    1  C   UNL     1      -6.559  15.770  68.476  1.00  0.00    -0.115 C  
HETATM    2  C   UNL     1      -7.473  15.126  67.448  1.00  0.00    -0.239 C  
ENDROOT
BRANCH   2   3
HETATM    3  C   UNL     1      -7.868  13.712  67.869  1.00  0.00    -0.159 C  
BRANCH   3   4
HETATM    4  C   UNL     1      -8.961  13.148  66.964  1.00  0.00    -0.228 C  
BRANCH   4   5
HETATM    5  C   UNL     1      -9.441  11.789  67.468  1.00  0.00    -0.174 C  
BRANCH   5   6
HETATM    6  C   UNL     1      -8.572  10.662  66.920  1.00  0.00    -0.126 C  
BRANCH   6   7
HETATM    7  C   UNL     1      -7.669  10.091  68.010  1.00  0.00    -0.089 C  
BRANCH   7   8
HETATM    8  C   UNL     1      -8.398  10.035  69.349  1.00  0.00    -0.169 C  
BRANCH   8   9
HETATM    9  C   UNL     1      -9.133   8.707  69.513  1.00  0.00    -0.146 C  
BRANCH   9  10
HETATM   10  C   UNL     1     -10.617   8.936  69.777  1.00  0.00    -0.230 C  
BRANCH  10  11
HETATM   11  C   UNL     1     -10.835   9.613  71.127  1.00  0.00    -0.404 C  
BRANCH  11  12
HETATM   12  C   UNL     1     -10.462   8.675  72.273  1.00  0.00    -0.376 C  
BRANCH  12  13
HETATM   13  C   UNL     1     -11.291   7.394  72.224  1.00  0.00    -0.323 C  
BRANCH  13  14
HETATM   14  C   UNL     1     -10.395   6.161  72.312  1.00  0.00    -0.221 C  
BRANCH  14  15
HETATM   15  C   UNL     1     -11.002   5.103  73.229  1.00  0.00    -0.375 C  
BRANCH  15  16
HETATM   16  C   UNL     1     -10.055   3.929  73.426  1.00  0.00    -0.138 C  
HETATM   17  O   UNL     1     -10.273   2.961  72.412  1.00  0.00    -0.163 OA 
HETATM   18  H   UNL     1      -9.682   2.227  72.535  1.00  0.00     0.000 HD 
ENDBRANCH  15  16
ENDBRANCH  14  15
ENDBRANCH  13  14
ENDBRANCH  12  13
ENDBRANCH  11  12
ENDBRANCH  10  11
ENDBRANCH   9  10
ENDBRANCH   8   9
ENDBRANCH   7   8
ENDBRANCH   6   7
ENDBRANCH   5   6
ENDBRANCH   4   5
ENDBRANCH   3   4
ENDBRANCH   2   3
TORSDOF 14
ENDMDL
MODEL      418
REMARK 921   NORMALIZED FREE ENERGY PREDICTED BY IDOCK:   -1.81 KCAL/MOL
REMARK 922        TOTAL FREE ENERGY PREDICTED BY IDOCK:   -4.67 KCAL/MOL
REMARK 923 INTER-LIGAND FREE ENERGY PREDICTED BY IDOCK:   -3.57 KCAL/MOL
REMARK 924 INTRA-LIGAND FREE ENERGY PREDICTED BY IDOCK:   -1.10 KCAL/MOL
REMARK 927      BINDING AFFINITY PREDICTED BY RF-SCORE:    0.00 PKD
ROOT
HETATM    1  C   UNL     1     -11.840  11.459  68.504  1.00  0.00    -0.364 C  
HETATM    2  C   UNL     1     -10.479  12.129  68.421  1.00  0.00    -0.242 C  
ENDROOT
BRANCH   2   3
HETATM    3  C   UNL     1      -9.657  11.568  67.264  1.00  0.00    -0.183 C  
BRANCH   3   4
HETATM    4  C   UNL     1     -10.554  10.958  66.189  1.00  0.00    -0.270 C  
BRANCH   4   5
HETATM    5  C   UNL     1     -10.209   9.489  65.959  1.00  0.00    -0.242 C  
BRANCH   5   6
HETATM    6  C   UNL     1      -9.187   8.999  66.979  1.00  0.00    -0.169 C  
BRANCH   6   7
HETATM    7  C   UNL     1      -9.827   8.022  67.964  1.00  0.00    -0.198 C  
BRANCH   7   8
HETATM    8  C   UNL     1      -9.480   8.393  69.403  1.00  0.00    -0.158 C  
BRANCH   8   9
HETATM    9  C   UNL     1      -9.214   7.143  70.237  1.00  0.00    -0.156 C  
BRANCH   9  10
HETATM   10  C   UNL     1     -10.520   6.444  70.601  1.00  0.00    -0.269 C  
BRANCH  10  11
HETATM   11  C   UNL     1     -10.872   6.673  72.068  1.00  0.00    -0.263 C  
BRANCH  11  12
HETATM   12  C   UNL     1     -11.634   5.480  72.638  1.00  0.00    -0.293 C  
BRANCH  12  13
HETATM   13  C   UNL     1     -10.884   4.862  73.815  1.00  0.00    -0.376 C  
BRANCH  13  14
HETATM   14  C   UNL     1      -9.851   3.847  73.333  1.00  0.00    -0.161 C  
BRANCH  14  15
HETATM   15  C   UNL     1      -8.548   3.972  74.117  1.00  0.00    -0.096 C  
BRANCH  15  16
HETATM   16  C   UNL     1      -7.424   4.510  73.244  1.00  0.00    -0.082 C  
HETATM   17  O   UNL     1      -7.162   3.603  72.185  1.00  0.00    -0.047 OA 
HETATM   18  H   UNL     1      -6.460   3.938  71.639  1.00  0.00     0.000 HD 
ENDBRANCH  15  16
ENDBRANCH  14  15
ENDBRANCH  13  14
ENDBRANCH  12  13
ENDBRANCH  11  12
ENDBRANCH  10  11
ENDBRANCH   9  10
ENDBRANCH   8   9
ENDBRANCH   7   8
ENDBRANCH   6   7
ENDBRANCH   5   6
ENDBRANCH   4   5
ENDBRANCH   3   4
ENDBRANCH   2   3
TORSDOF 14
ENDMDL
MODEL      419
REMARK 921   NORMALIZED FREE ENERGY PREDICTED BY IDOCK:   -1.80 KCAL/MOL
REMARK 922        TOTAL FREE ENERGY PREDICTED BY IDOCK:   -4.66 KCAL/MOL
REMARK 923 INTER-LIGAND FREE ENERGY PREDICTED BY IDOCK:   -3.73 KCAL/MOL
REMARK 924 INTRA-LIGAND FREE ENERGY PREDICTED BY IDOCK:   -0.93 KCAL/MOL
REMARK 927      BINDING AFFINITY PREDICTED BY RF-SCORE:    0.00 PKD
ROOT
HETATM    1  C   UNL     1      -9.524   4.055  67.147  1.00  0.00    -0.224 C  
HETATM    2  C   UNL     1      -8.438   3.304  66.397  1.00  0.00    -0.108 C  
ENDROOT
BRANCH   2   3
HETATM    3  C   UNL     1      -7.081   3.985  66.561  1.00  0.00    -0.064 C  
BRANCH   3   4
HETATM    4  C   UNL     1      -7.200   5.501  66.416  1.00  0.00    -0.077 C  
BRANCH   4   5
HETATM    5  C   UNL     1      -6.528   5.980  65.132  1.00  0.00    -0.038 C  
BRANCH   5   6
HETATM    6  C   UNL     1      -6.536   7.503  65.044  1.00  0.00    -0.038 C  
BRANCH   6   7
HETATM    7  C   UNL     1      -7.743   8.084  65.776  1.00  0.00    -0.093 C  
BRANCH   7   8
HETATM    8  C   UNL     1      -8.023   9.513  65.319  1.00  0.00    -0.112 C  
BRANCH   8   9
HETATM    9  C   UNL     1      -8.346  10.410  66.510  1.00  0.00    -0.130 C  
BRANCH   9  10
HETATM   10  C   UNL     1      -9.436  11.415  66.153  1.00  0.00    -0.237 C  
BRANCH  10  11
HETATM   11  C   UNL     1     -10.509  10.772  65.278  1.00  0.00    -0.282 C  
BRANCH  11  12
HETATM   12  C   UNL     1     -10.994  11.744  64.207  1.00  0.00    -0.419 C  
BRANCH  12  13
HETATM   13  C   UNL     1     -10.932  13.185  64.707  1.00  0.00    -0.355 C  
BRANCH  13  14
HETATM   14  C   UNL     1     -12.247  13.590  65.371  1.00  0.00    -0.482 C  
BRANCH  14  15
HETATM   15  C   UNL     1     -12.019  14.050  66.808  1.00  0.00    -0.473 C  
BRANCH  15  16
HETATM   16  C   UNL     1     -10.804  14.959  66.914  1.00  0.00    -0.319 C  
HETATM   17  O   UNL     1     -10.883  15.731  68.102  1.00  0.00    -0.283 OA 
HETATM   18  H   UNL     1     -10.124  16.299  68.168  1.00  0.00     0.000 HD 
ENDBRANCH  15  16
ENDBRANCH  14  15
ENDBRANCH  13  14
ENDBRANCH  12  13
ENDBRANCH  11  12
ENDBRANCH  10  11
ENDBRANCH   9  10
ENDBRANCH   8   9
ENDBRANCH   7   8
ENDBRANCH   6   7
ENDBRANCH   5   6
ENDBRANCH   4   5
ENDBRANCH   3   4
ENDBRANCH   2   3
TORSDOF 14
ENDMDL
MODEL      420
REMARK 921   NORMALIZED FREE ENERGY PREDICTED BY IDOCK:   -1.79 KCAL/MOL
REMARK 922        TOTAL FREE ENERGY PREDICTED BY IDOCK:   -4.63 KCAL/MOL
REMARK 923 INTER-LIGAND FREE ENERGY PREDICTED BY IDOCK:   -3.52 KCAL/MOL
REMARK 924 INTRA-LIGAND FREE ENERGY PREDICTED BY IDOCK:   -1.12 KCAL/MOL
REMARK 927      BINDING AFFINITY PREDICTED BY RF-SCORE:    0.00 PKD
ROOT
HETATM    1  C   UNL     1      -8.311  16.777  68.592  1.00  0.00    -0.252 C  
HETATM    2  C   UNL     1      -9.063  15.685  69.334  1.00  0.00    -0.278 C  
ENDROOT
BRANCH   2   3
HETATM    3  C   UNL     1     -10.504  16.103  69.619  1.00  0.00    -0.291 C  
BRANCH   3   4
HETATM    4  C   UNL     1     -11.460  14.918  69.498  1.00  0.00    -0.325 C  
BRANCH   4   5
HETATM    5  C   UNL     1     -11.981  14.782  68.070  1.00  0.00    -0.261 C  
BRANCH   5   6
HETATM    6  C   UNL     1     -11.940  13.329  67.607  1.00  0.00    -0.366 C  
BRANCH   6   7
HETATM    7  C   UNL     1     -10.546  12.736  67.797  1.00  0.00    -0.231 C  
BRANCH   7   8
HETATM    8  C   UNL     1      -9.662  13.021  66.587  1.00  0.00    -0.256 C  
BRANCH   8   9
HETATM    9  C   UNL     1     -10.137  12.233  65.369  1.00  0.00    -0.292 C  
BRANCH   9  10
HETATM   10  C   UNL     1      -9.118  11.168  64.979  1.00  0.00    -0.138 C  
BRANCH  10  11
HETATM   11  C   UNL     1      -9.742   9.776  65.013  1.00  0.00    -0.303 C  
BRANCH  11  12
HETATM   12  C   UNL     1      -8.675   8.705  65.225  1.00  0.00    -0.200 C  
BRANCH  12  13
HETATM   13  C   UNL     1      -7.935   8.923  66.543  1.00  0.00    -0.103 C  
BRANCH  13  14
HETATM   14  C   UNL     1      -7.312   7.621  67.041  1.00  0.00    -0.090 C  
BRANCH  14  15
HETATM   15  C   UNL     1      -6.364   7.875  68.210  1.00  0.00    -0.050 C  
BRANCH  15  16
HETATM   16  C   UNL     1      -6.501   9.295  68.737  1.00  0.00    -0.048 C  
HETATM   17  O   UNL     1      -6.145   9.335  70.110  1.00  0.00    -0.033 OA 
HETATM   18  H   UNL     1      -6.231  10.222  70.439  1.00  0.00     0.000 HD 
ENDBRANCH  15  16
ENDBRANCH  14  15
ENDBRANCH  13  14
ENDBRANCH  12  13
ENDBRANCH  11  12
ENDBRANCH  10  11
ENDBRANCH   9  10
ENDBRANCH   8   9
ENDBRANCH   7   8
ENDBRANCH   6   7
ENDBRANCH   5   6
ENDBRANCH   4   5
ENDBRANCH   3   4
ENDBRANCH   2   3
TORSDOF 14
ENDMDL
MODEL      421
REMARK 921   NORMALIZED FREE ENERGY PREDICTED BY IDOCK:   -1.79 KCAL/MOL
REMARK 922        TOTAL FREE ENERGY PREDICTED BY IDOCK:   -4.63 KCAL/MOL
REMARK 923 INTER-LIGAND FREE ENERGY PREDICTED BY IDOCK:   -3.22 KCAL/MOL
REMARK 924 INTRA-LIGAND FREE ENERGY PREDICTED BY IDOCK:   -1.41 KCAL/MOL
REMARK 927      BINDING AFFINITY PREDICTED BY RF-SCORE:    0.00 PKD
ROOT
HETATM    1  C   UNL     1      -9.309   5.355  65.807  1.00  0.00    -0.132 C  
HETATM    2  C   UNL     1      -9.619   4.646  67.114  1.00  0.00    -0.197 C  
ENDROOT
BRANCH   2   3
HETATM    3  C   UNL     1      -8.398   4.621  68.032  1.00  0.00    -0.098 C  
BRANCH   3   4
HETATM    4  C   UNL     1      -7.102   4.745  67.234  1.00  0.00    -0.069 C  
BRANCH   4   5
HETATM    5  C   UNL     1      -6.178   5.790  67.854  1.00  0.00    -0.029 C  
BRANCH   5   6
HETATM    6  C   UNL     1      -6.884   7.136  67.990  1.00  0.00    -0.070 C  
BRANCH   6   7
HETATM    7  C   UNL     1      -6.283   8.164  67.034  1.00  0.00    -0.055 C  
BRANCH   7   8
HETATM    8  C   UNL     1      -6.613   7.820  65.585  1.00  0.00    -0.045 C  
BRANCH   8   9
HETATM    9  C   UNL     1      -7.360   8.967  64.910  1.00  0.00    -0.100 C  
BRANCH   9  10
HETATM   10  C   UNL     1      -8.848   8.916  65.241  1.00  0.00    -0.227 C  
BRANCH  10  11
HETATM   11  C   UNL     1      -9.251  10.086  66.133  1.00  0.00    -0.205 C  
BRANCH  11  12
HETATM   12  C   UNL     1      -9.853   9.590  67.444  1.00  0.00    -0.218 C  
BRANCH  12  13
HETATM   13  C   UNL     1     -11.133  10.351  67.782  1.00  0.00    -0.365 C  
BRANCH  13  14
HETATM   14  C   UNL     1     -11.070  11.785  67.261  1.00  0.00    -0.342 C  
BRANCH  14  15
HETATM   15  C   UNL     1     -10.593  12.745  68.347  1.00  0.00    -0.262 C  
BRANCH  15  16
HETATM   16  C   UNL     1     -11.728  13.129  69.285  1.00  0.00    -0.321 C  
HETATM   17  O   UNL     1     -11.244  14.008  70.289  1.00  0.00    -0.480 OA 
HETATM   18  H   UNL     1     -11.953  14.248  70.875  1.00  0.00     0.000 HD 
ENDBRANCH  15  16
ENDBRANCH  14  15
ENDBRANCH  13  14
ENDBRANCH  12  13
ENDBRANCH  11  12
ENDBRANCH  10  11
ENDBRANCH   9  10
ENDBRANCH   8   9
ENDBRANCH   7   8
ENDBRANCH   6   7
ENDBRANCH   5   6
ENDBRANCH   4   5
ENDBRANCH   3   4
ENDBRANCH   2   3
TORSDOF 14
ENDMDL
MODEL      422
REMARK 921   NORMALIZED FREE ENERGY PREDICTED BY IDOCK:   -1.74 KCAL/MOL
REMARK 922        TOTAL FREE ENERGY PREDICTED BY IDOCK:   -4.54 KCAL/MOL
REMARK 923 INTER-LIGAND FREE ENERGY PREDICTED BY IDOCK:   -3.34 KCAL/MOL
REMARK 924 INTRA-LIGAND FREE ENERGY PREDICTED BY IDOCK:   -1.20 KCAL/MOL
REMARK 927      BINDING AFFINITY PREDICTED BY RF-SCORE:    0.00 PKD
ROOT
HETATM    1  C   UNL     1     -13.196   9.022  72.393  1.00  0.00    -0.507 C  
HETATM    2  C   UNL     1     -12.229   9.745  71.470  1.00  0.00    -0.493 C  
ENDROOT
BRANCH   2   3
HETATM    3  C   UNL     1     -12.938  10.257  70.219  1.00  0.00    -0.059 C  
BRANCH   3   4
HETATM    4  C   UNL     1     -12.009  11.120  69.368  1.00  0.00    -0.420 C  
BRANCH   4   5
HETATM    5  C   UNL     1     -10.574  11.049  69.883  1.00  0.00     0.049 C  
BRANCH   5   6
HETATM    6  C   UNL     1      -9.662  10.361  68.873  1.00  0.00    -0.203 C  
BRANCH   6   7
HETATM    7  C   UNL     1     -10.024  10.770  67.447  1.00  0.00    -0.214 C  
BRANCH   7   8
HETATM    8  C   UNL     1     -10.126   9.548  66.538  1.00  0.00    -0.326 C  
BRANCH   8   9
HETATM    9  C   UNL     1     -10.602   8.327  67.321  1.00  0.00    -0.335 C  
BRANCH   9  10
HETATM   10  C   UNL     1     -10.016   7.045  66.738  1.00  0.00    -0.266 C  
BRANCH  10  11
HETATM   11  C   UNL     1      -9.983   5.934  67.784  1.00  0.00    -0.156 C  
BRANCH  11  12
HETATM   12  C   UNL     1      -9.171   4.742  67.287  1.00  0.00    -0.139 C  
BRANCH  12  13
HETATM   13  C   UNL     1      -7.740   5.154  66.953  1.00  0.00    -0.092 C  
BRANCH  13  14
HETATM   14  C   UNL     1      -6.744   4.487  67.900  1.00  0.00    -0.051 C  
BRANCH  14  15
HETATM   15  C   UNL     1      -5.947   5.526  68.682  1.00  0.00    -0.021 C  
BRANCH  15  16
HETATM   16  C   UNL     1      -6.571   6.909  68.564  1.00  0.00    -0.058 C  
HETATM   17  O   UNL     1      -6.862   7.417  69.856  1.00  0.00    -0.052 OA 
HETATM   18  H   UNL     1      -7.252   8.281  69.783  1.00  0.00     0.000 HD 
ENDBRANCH  15  16
ENDBRANCH  14  15
ENDBRANCH  13  14
ENDBRANCH  12  13
ENDBRANCH  11  12
ENDBRANCH  10  11
ENDBRANCH   9  10
ENDBRANCH   8   9
ENDBRANCH   7   8
ENDBRANCH   6   7
ENDBRANCH   5   6
ENDBRANCH   4   5
ENDBRANCH   3   4
ENDBRANCH   2   3
TORSDOF 14
ENDMDL
MODEL      423
REMARK 921   NORMALIZED FREE ENERGY PREDICTED BY IDOCK:   -1.74 KCAL/MOL
REMARK 922        TOTAL FREE ENERGY PREDICTED BY IDOCK:   -4.54 KCAL/MOL
REMARK 923 INTER-LIGAND FREE ENERGY PREDICTED BY IDOCK:   -4.06 KCAL/MOL
REMARK 924 INTRA-LIGAND FREE ENERGY PREDICTED BY IDOCK:   -0.48 KCAL/MOL
REMARK 927      BINDING AFFINITY PREDICTED BY RF-SCORE:    0.00 PKD
ROOT
HETATM    1  C   UNL     1     -10.766  13.598  65.076  1.00  0.00    -0.374 C  
HETATM    2  C   UNL     1     -11.279  15.013  64.869  1.00  0.00    -0.423 C  
ENDROOT
BRANCH   2   3
HETATM    3  C   UNL     1     -10.721  15.963  65.926  1.00  0.00    -0.303 C  
BRANCH   3   4
HETATM    4  C   UNL     1      -9.194  15.943  65.939  1.00  0.00    -0.332 C  
BRANCH   4   5
HETATM    5  C   UNL     1      -8.660  15.965  67.369  1.00  0.00    -0.189 C  
BRANCH   5   6
HETATM    6  C   UNL     1      -7.141  15.830  67.390  1.00  0.00    -0.236 C  
BRANCH   6   7
HETATM    7  C   UNL     1      -6.726  14.363  67.467  1.00  0.00    -0.132 C  
BRANCH   7   8
HETATM    8  C   UNL     1      -7.076  13.767  68.828  1.00  0.00    -0.106 C  
BRANCH   8   9
HETATM    9  C   UNL     1      -7.061  12.242  68.773  1.00  0.00    -0.107 C  
BRANCH   9  10
HETATM   10  C   UNL     1      -8.419  11.700  68.339  1.00  0.00    -0.157 C  
BRANCH  10  11
HETATM   11  C   UNL     1      -8.874  10.568  69.256  1.00  0.00    -0.135 C  
BRANCH  11  12
HETATM   12  C   UNL     1      -8.608   9.209  68.616  1.00  0.00    -0.128 C  
BRANCH  12  13
HETATM   13  C   UNL     1      -9.631   8.175  69.081  1.00  0.00    -0.157 C  
BRANCH  13  14
HETATM   14  C   UNL     1     -10.981   8.831  69.363  1.00  0.00    -0.046 C  
BRANCH  14  15
HETATM   15  C   UNL     1     -11.400   8.626  70.815  1.00  0.00    -0.299 C  
BRANCH  15  16
HETATM   16  C   UNL     1     -11.792   7.181  71.082  1.00  0.00    -0.325 C  
HETATM   17  O   UNL     1     -12.031   6.513  69.853  1.00  0.00    -0.611 OA 
HETATM   18  H   UNL     1     -12.276   5.610  70.019  1.00  0.00     0.000 HD 
ENDBRANCH  15  16
ENDBRANCH  14  15
ENDBRANCH  13  14
ENDBRANCH  12  13
ENDBRANCH  11  12
ENDBRANCH  10  11
ENDBRANCH   9  10
ENDBRANCH   8   9
ENDBRANCH   7   8
ENDBRANCH   6   7
ENDBRANCH   5   6
ENDBRANCH   4   5
ENDBRANCH   3   4
ENDBRANCH   2   3
TORSDOF 14
ENDMDL
MODEL      424
REMARK 921   NORMALIZED FREE ENERGY PREDICTED BY IDOCK:   -1.72 KCAL/MOL
REMARK 922        TOTAL FREE ENERGY PREDICTED BY IDOCK:   -4.51 KCAL/MOL
REMARK 923 INTER-LIGAND FREE ENERGY PREDICTED BY IDOCK:   -3.46 KCAL/MOL
REMARK 924 INTRA-LIGAND FREE ENERGY PREDICTED BY IDOCK:   -1.05 KCAL/MOL
REMARK 927      BINDING AFFINITY PREDICTED BY RF-SCORE:    0.00 PKD
ROOT
HETATM    1  C   UNL     1      -9.207   3.604  67.291  1.00  0.00    -0.215 C  
HETATM    2  C   UNL     1      -8.677   3.057  65.977  1.00  0.00    -0.135 C  
ENDROOT
BRANCH   2   3
HETATM    3  C   UNL     1      -7.368   3.739  65.583  1.00  0.00    -0.072 C  
BRANCH   3   4
HETATM    4  C   UNL     1      -7.247   5.120  66.221  1.00  0.00    -0.077 C  
BRANCH   4   5
HETATM    5  C   UNL     1      -7.610   6.217  65.223  1.00  0.00    -0.089 C  
BRANCH   5   6
HETATM    6  C   UNL     1      -7.734   7.570  65.915  1.00  0.00    -0.099 C  
BRANCH   6   7
HETATM    7  C   UNL     1      -9.165   7.808  66.393  1.00  0.00    -0.229 C  
BRANCH   7   8
HETATM    8  C   UNL     1      -9.265   7.661  67.909  1.00  0.00    -0.139 C  
BRANCH   8   9
HETATM    9  C   UNL     1     -10.679   7.264  68.324  1.00  0.00    -0.174 C  
BRANCH   9  10
HETATM   10  C   UNL     1     -10.926   7.590  69.793  1.00  0.00    -0.195 C  
BRANCH  10  11
HETATM   11  C   UNL     1     -11.780   6.513  70.456  1.00  0.00    -0.438 C  
BRANCH  11  12
HETATM   12  C   UNL     1     -12.359   7.013  71.777  1.00  0.00    -0.391 C  
BRANCH  12  13
HETATM   13  C   UNL     1     -11.398   7.978  72.467  1.00  0.00    -0.469 C  
BRANCH  13  14
HETATM   14  C   UNL     1     -10.626   7.275  73.581  1.00  0.00    -0.353 C  
BRANCH  14  15
HETATM   15  C   UNL     1      -9.229   6.875  73.117  1.00  0.00    -0.157 C  
BRANCH  15  16
HETATM   16  C   UNL     1      -8.616   7.940  72.220  1.00  0.00    -0.145 C  
HETATM   17  O   UNL     1      -7.496   7.402  71.532  1.00  0.00    -0.078 OA 
HETATM   18  H   UNL     1      -7.113   8.067  70.972  1.00  0.00     0.000 HD 
ENDBRANCH  15  16
ENDBRANCH  14  15
ENDBRANCH  13  14
ENDBRANCH  12  13
ENDBRANCH  11  12
ENDBRANCH  10  11
ENDBRANCH   9  10
ENDBRANCH   8   9
ENDBRANCH   7   8
ENDBRANCH   6   7
ENDBRANCH   5   6
ENDBRANCH   4   5
ENDBRANCH   3   4
ENDBRANCH   2   3
TORSDOF 14
ENDMDL
MODEL      425
REMARK 921   NORMALIZED FREE ENERGY PREDICTED BY IDOCK:   -1.71 KCAL/MOL
REMARK 922        TOTAL FREE ENERGY PREDICTED BY IDOCK:   -4.49 KCAL/MOL
REMARK 923 INTER-LIGAND FREE ENERGY PREDICTED BY IDOCK:   -3.48 KCAL/MOL
REMARK 924 INTRA-LIGAND FREE ENERGY PREDICTED BY IDOCK:   -1.01 KCAL/MOL
REMARK 927      BINDING AFFINITY PREDICTED BY RF-SCORE:    0.00 PKD
ROOT
HETATM    1  C   UNL     1     -10.648  16.541  69.505  1.00  0.00    -0.321 C  
HETATM    2  C   UNL     1     -11.135  15.405  70.388  1.00  0.00    -0.351 C  
ENDROOT
BRANCH   2   3
HETATM    3  C   UNL     1     -11.800  14.307  69.560  1.00  0.00    -0.378 C  
BRANCH   3   4
HETATM    4  C   UNL     1     -11.468  12.921  70.107  1.00  0.00     0.001 C  
BRANCH   4   5
HETATM    5  C   UNL     1     -12.734  12.188  70.543  1.00  0.00    -0.071 C  
BRANCH   5   6
HETATM    6  C   UNL     1     -12.404  10.815  71.118  1.00  0.00    -0.498 C  
BRANCH   6   7
HETATM    7  C   UNL     1     -11.099  10.279  70.532  1.00  0.00    -0.381 C  
BRANCH   7   8
HETATM    8  C   UNL     1     -10.510   9.187  71.420  1.00  0.00    -0.414 C  
BRANCH   8   9
HETATM    9  C   UNL     1      -9.313   8.524  70.745  1.00  0.00    -0.206 C  
BRANCH   9  10
HETATM   10  C   UNL     1      -8.047   8.713  71.574  1.00  0.00    -0.188 C  
BRANCH  10  11
HETATM   11  C   UNL     1      -6.800   8.605  70.701  1.00  0.00    -0.045 C  
BRANCH  11  12
HETATM   12  C   UNL     1      -7.009   9.307  69.363  1.00  0.00    -0.049 C  
BRANCH  12  13
HETATM   13  C   UNL     1      -6.188  10.592  69.285  1.00  0.00    -0.050 C  
BRANCH  13  14
HETATM   14  C   UNL     1      -7.097  11.813  69.162  1.00  0.00    -0.071 C  
BRANCH  14  15
HETATM   15  C   UNL     1      -6.881  12.529  67.832  1.00  0.00    -0.105 C  
BRANCH  15  16
HETATM   16  C   UNL     1      -8.141  13.253  67.380  1.00  0.00    -0.175 C  
HETATM   17  O   UNL     1      -9.246  12.364  67.423  1.00  0.00    -0.173 OA 
HETATM   18  H   UNL     1     -10.033  12.815  67.141  1.00  0.00     0.000 HD 
ENDBRANCH  15  16
ENDBRANCH  14  15
ENDBRANCH  13  14
ENDBRANCH  12  13
ENDBRANCH  11  12
ENDBRANCH  10  11
ENDBRANCH   9  10
ENDBRANCH   8   9
ENDBRANCH   7   8
ENDBRANCH   6   7
ENDBRANCH   5   6
ENDBRANCH   4   5
ENDBRANCH   3   4
ENDBRANCH   2   3
TORSDOF 14
ENDMDL
MODEL      426
REMARK 921   NORMALIZED FREE ENERGY PREDICTED BY IDOCK:   -1.70 KCAL/MOL
REMARK 922        TOTAL FREE ENERGY PREDICTED BY IDOCK:   -4.48 KCAL/MOL
REMARK 923 INTER-LIGAND FREE ENERGY PREDICTED BY IDOCK:   -3.65 KCAL/MOL
REMARK 924 INTRA-LIGAND FREE ENERGY PREDICTED BY IDOCK:   -0.83 KCAL/MOL
REMARK 927      BINDING AFFINITY PREDICTED BY RF-SCORE:    0.00 PKD
ROOT
HETATM    1  C   UNL     1     -12.322   9.129  71.873  1.00  0.00    -0.455 C  
HETATM    2  C   UNL     1     -11.673  10.070  70.874  1.00  0.00    -0.462 C  
ENDROOT
BRANCH   2   3
HETATM    3  C   UNL     1     -12.697  10.605  69.874  1.00  0.00    -0.081 C  
BRANCH   3   4
HETATM    4  C   UNL     1     -12.013  11.246  68.669  1.00  0.00    -0.314 C  
BRANCH   4   5
HETATM    5  C   UNL     1     -10.627  11.768  69.041  1.00  0.00    -0.172 C  
BRANCH   5   6
HETATM    6  C   UNL     1      -9.563  11.226  68.093  1.00  0.00    -0.186 C  
BRANCH   6   7
HETATM    7  C   UNL     1     -10.187  10.780  66.772  1.00  0.00    -0.279 C  
BRANCH   7   8
HETATM    8  C   UNL     1      -9.111  10.366  65.773  1.00  0.00    -0.197 C  
BRANCH   8   9
HETATM    9  C   UNL     1      -9.056   8.847  65.633  1.00  0.00    -0.269 C  
BRANCH   9  10
HETATM   10  C   UNL     1      -9.798   8.168  66.779  1.00  0.00    -0.329 C  
BRANCH  10  11
HETATM   11  C   UNL     1      -9.390   6.702  66.902  1.00  0.00    -0.171 C  
BRANCH  11  12
HETATM   12  C   UNL     1     -10.578   5.782  66.633  1.00  0.00    -0.347 C  
BRANCH  12  13
HETATM   13  C   UNL     1     -10.267   4.349  67.057  1.00  0.00    -0.047 C  
BRANCH  13  14
HETATM   14  C   UNL     1      -8.786   4.188  67.394  1.00  0.00    -0.128 C  
BRANCH  14  15
HETATM   15  C   UNL     1      -8.389   2.715  67.442  1.00  0.00    -0.094 C  
BRANCH  15  16
HETATM   16  C   UNL     1      -7.444   2.358  66.305  1.00  0.00    -0.067 C  
HETATM   17  O   UNL     1      -6.927   3.543  65.720  1.00  0.00    -0.055 OA 
HETATM   18  H   UNL     1      -6.336   3.320  65.010  1.00  0.00     0.000 HD 
ENDBRANCH  15  16
ENDBRANCH  14  15
ENDBRANCH  13  14
ENDBRANCH  12  13
ENDBRANCH  11  12
ENDBRANCH  10  11
ENDBRANCH   9  10
ENDBRANCH   8   9
ENDBRANCH   7   8
ENDBRANCH   6   7
ENDBRANCH   5   6
ENDBRANCH   4   5
ENDBRANCH   3   4
ENDBRANCH   2   3
TORSDOF 14
ENDMDL
MODEL      427
REMARK 921   NORMALIZED FREE ENERGY PREDICTED BY IDOCK:   -1.67 KCAL/MOL
REMARK 922        TOTAL FREE ENERGY PREDICTED BY IDOCK:   -4.41 KCAL/MOL
REMARK 923 INTER-LIGAND FREE ENERGY PREDICTED BY IDOCK:   -3.10 KCAL/MOL
REMARK 924 INTRA-LIGAND FREE ENERGY PREDICTED BY IDOCK:   -1.31 KCAL/MOL
REMARK 927      BINDING AFFINITY PREDICTED BY RF-SCORE:    0.00 PKD
ROOT
HETATM    1  C   UNL     1     -10.108  11.817  64.656  1.00  0.00    -0.310 C  
HETATM    2  C   UNL     1     -11.426  12.418  65.112  1.00  0.00    -0.379 C  
ENDROOT
BRANCH   2   3
HETATM    3  C   UNL     1     -11.302  13.025  66.508  1.00  0.00    -0.359 C  
BRANCH   3   4
HETATM    4  C   UNL     1      -9.989  13.789  66.666  1.00  0.00    -0.279 C  
BRANCH   4   5
HETATM    5  C   UNL     1      -9.321  13.457  67.999  1.00  0.00    -0.217 C  
BRANCH   5   6
HETATM    6  C   UNL     1      -7.802  13.447  67.863  1.00  0.00    -0.152 C  
BRANCH   6   7
HETATM    7  C   UNL     1      -7.327  12.179  67.158  1.00  0.00    -0.124 C  
BRANCH   7   8
HETATM    8  C   UNL     1      -7.555  10.950  68.032  1.00  0.00    -0.092 C  
BRANCH   8   9
HETATM    9  C   UNL     1      -8.166   9.811  67.220  1.00  0.00    -0.117 C  
BRANCH   9  10
HETATM   10  C   UNL     1      -9.593   9.524  67.675  1.00  0.00    -0.163 C  
BRANCH  10  11
HETATM   11  C   UNL     1      -9.728   8.090  68.180  1.00  0.00    -0.179 C  
BRANCH  11  12
HETATM   12  C   UNL     1      -8.705   7.800  69.275  1.00  0.00    -0.139 C  
BRANCH  12  13
HETATM   13  C   UNL     1      -8.994   6.464  69.955  1.00  0.00    -0.146 C  
BRANCH  13  14
HETATM   14  C   UNL     1      -8.221   6.340  71.266  1.00  0.00    -0.122 C  
BRANCH  14  15
HETATM   15  C   UNL     1      -8.086   4.881  71.691  1.00  0.00    -0.112 C  
BRANCH  15  16
HETATM   16  C   UNL     1      -8.877   4.596  72.958  1.00  0.00    -0.112 C  
HETATM   17  O   UNL     1      -8.086   4.898  74.097  1.00  0.00    -0.100 OA 
HETATM   18  H   UNL     1      -8.580   4.720  74.889  1.00  0.00     0.000 HD 
ENDBRANCH  15  16
ENDBRANCH  14  15
ENDBRANCH  13  14
ENDBRANCH  12  13
ENDBRANCH  11  12
ENDBRANCH  10  11
ENDBRANCH   9  10
ENDBRANCH   8   9
ENDBRANCH   7   8
ENDBRANCH   6   7
ENDBRANCH   5   6
ENDBRANCH   4   5
ENDBRANCH   3   4
ENDBRANCH   2   3
TORSDOF 14
ENDMDL
MODEL      428
REMARK 921   NORMALIZED FREE ENERGY PREDICTED BY IDOCK:   -1.67 KCAL/MOL
REMARK 922        TOTAL FREE ENERGY PREDICTED BY IDOCK:   -4.41 KCAL/MOL
REMARK 923 INTER-LIGAND FREE ENERGY PREDICTED BY IDOCK:   -2.67 KCAL/MOL
REMARK 924 INTRA-LIGAND FREE ENERGY PREDICTED BY IDOCK:   -1.74 KCAL/MOL
REMARK 927      BINDING AFFINITY PREDICTED BY RF-SCORE:    0.00 PKD
ROOT
HETATM    1  C   UNL     1      -8.453  17.434  68.471  1.00  0.00    -0.274 C  
HETATM    2  C   UNL     1      -8.527  15.919  68.554  1.00  0.00    -0.184 C  
ENDROOT
BRANCH   2   3
HETATM    3  C   UNL     1      -9.892  15.459  69.061  1.00  0.00    -0.234 C  
BRANCH   3   4
HETATM    4  C   UNL     1     -10.460  14.341  68.189  1.00  0.00    -0.246 C  
BRANCH   4   5
HETATM    5  C   UNL     1      -9.820  14.350  66.803  1.00  0.00    -0.269 C  
BRANCH   5   6
HETATM    6  C   UNL     1      -9.709  12.937  66.240  1.00  0.00    -0.268 C  
BRANCH   6   7
HETATM    7  C   UNL     1      -9.000  12.012  67.226  1.00  0.00    -0.180 C  
BRANCH   7   8
HETATM    8  C   UNL     1      -7.497  12.274  67.236  1.00  0.00    -0.147 C  
BRANCH   8   9
HETATM    9  C   UNL     1      -6.993  12.497  68.659  1.00  0.00    -0.091 C  
BRANCH   9  10
HETATM   10  C   UNL     1      -6.987  11.189  69.445  1.00  0.00    -0.124 C  
BRANCH  10  11
HETATM   11  C   UNL     1      -5.914  10.240  68.918  1.00  0.00    -0.040 C  
BRANCH  11  12
HETATM   12  C   UNL     1      -6.402   8.795  68.950  1.00  0.00    -0.045 C  
BRANCH  12  13
HETATM   13  C   UNL     1      -7.568   8.589  67.987  1.00  0.00    -0.098 C  
BRANCH  13  14
HETATM   14  C   UNL     1      -7.068   8.180  66.603  1.00  0.00    -0.077 C  
BRANCH  14  15
HETATM   15  C   UNL     1      -8.214   7.683  65.728  1.00  0.00    -0.133 C  
BRANCH  15  16
HETATM   16  C   UNL     1      -8.276   8.440  64.410  1.00  0.00    -0.138 C  
HETATM   17  O   UNL     1      -7.932   9.801  64.622  1.00  0.00    -0.125 OA 
HETATM   18  H   UNL     1      -7.971  10.275  63.799  1.00  0.00     0.000 HD 
ENDBRANCH  15  16
ENDBRANCH  14  15
ENDBRANCH  13  14
ENDBRANCH  12  13
ENDBRANCH  11  12
ENDBRANCH  10  11
ENDBRANCH   9  10
ENDBRANCH   8   9
ENDBRANCH   7   8
ENDBRANCH   6   7
ENDBRANCH   5   6
ENDBRANCH   4   5
ENDBRANCH   3   4
ENDBRANCH   2   3
TORSDOF 14
ENDMDL
MODEL      429
REMARK 921   NORMALIZED FREE ENERGY PREDICTED BY IDOCK:   -1.66 KCAL/MOL
REMARK 922        TOTAL FREE ENERGY PREDICTED BY IDOCK:   -4.39 KCAL/MOL
REMARK 923 INTER-LIGAND FREE ENERGY PREDICTED BY IDOCK:   -3.50 KCAL/MOL
REMARK 924 INTRA-LIGAND FREE ENERGY PREDICTED BY IDOCK:   -0.89 KCAL/MOL
REMARK 927      BINDING AFFINITY PREDICTED BY RF-SCORE:    0.00 PKD
ROOT
HETATM    1  C   UNL     1      -6.153   6.918  68.434  1.00  0.00    -0.029 C  
HETATM    2  C   UNL     1      -6.826   7.647  67.284  1.00  0.00    -0.069 C  
ENDROOT
BRANCH   2   3
HETATM    3  C   UNL     1      -8.318   7.326  67.223  1.00  0.00    -0.119 C  
BRANCH   3   4
HETATM    4  C   UNL     1      -8.995   8.049  66.061  1.00  0.00    -0.205 C  
BRANCH   4   5
HETATM    5  C   UNL     1      -8.546   9.506  65.989  1.00  0.00    -0.145 C  
BRANCH   5   6
HETATM    6  C   UNL     1      -9.729  10.453  66.155  1.00  0.00    -0.262 C  
BRANCH   6   7
HETATM    7  C   UNL     1      -9.649  11.196  67.487  1.00  0.00    -0.181 C  
BRANCH   7   8
HETATM    8  C   UNL     1     -10.770  10.759  68.425  1.00  0.00    -0.255 C  
BRANCH   8   9
HETATM    9  C   UNL     1     -11.551  11.965  68.938  1.00  0.00    -0.370 C  
BRANCH   9  10
HETATM   10  C   UNL     1     -11.494  13.115  67.938  1.00  0.00    -0.346 C  
BRANCH  10  11
HETATM   11  C   UNL     1     -10.697  14.289  68.499  1.00  0.00    -0.262 C  
BRANCH  11  12
HETATM   12  C   UNL     1     -10.418  15.327  67.415  1.00  0.00    -0.270 C  
BRANCH  12  13
HETATM   13  C   UNL     1      -8.984  15.842  67.506  1.00  0.00    -0.201 C  
BRANCH  13  14
HETATM   14  C   UNL     1      -8.284  15.294  68.748  1.00  0.00    -0.169 C  
BRANCH  14  15
HETATM   15  C   UNL     1      -7.025  16.094  69.070  1.00  0.00    -0.178 C  
BRANCH  15  16
HETATM   16  C   UNL     1      -5.983  15.232  69.766  1.00  0.00    -0.134 C  
HETATM   17  O   UNL     1      -6.594  14.488  70.809  1.00  0.00    -0.307 OA 
HETATM   18  H   UNL     1      -5.943  13.950  71.244  1.00  0.00     0.000 HD 
ENDBRANCH  15  16
ENDBRANCH  14  15
ENDBRANCH  13  14
ENDBRANCH  12  13
ENDBRANCH  11  12
ENDBRANCH  10  11
ENDBRANCH   9  10
ENDBRANCH   8   9
ENDBRANCH   7   8
ENDBRANCH   6   7
ENDBRANCH   5   6
ENDBRANCH   4   5
ENDBRANCH   3   4
ENDBRANCH   2   3
TORSDOF 14
ENDMDL
MODEL      430
REMARK 921   NORMALIZED FREE ENERGY PREDICTED BY IDOCK:   -1.65 KCAL/MOL
REMARK 922        TOTAL FREE ENERGY PREDICTED BY IDOCK:   -4.38 KCAL/MOL
REMARK 923 INTER-LIGAND FREE ENERGY PREDICTED BY IDOCK:   -2.93 KCAL/MOL
REMARK 924 INTRA-LIGAND FREE ENERGY PREDICTED BY IDOCK:   -1.45 KCAL/MOL
REMARK 927      BINDING AFFINITY PREDICTED BY RF-SCORE:    0.00 PKD
ROOT
HETATM    1  C   UNL     1      -9.284   5.398  65.937  1.00  0.00    -0.165 C  
HETATM    2  C   UNL     1      -7.934   5.757  66.532  1.00  0.00    -0.102 C  
ENDROOT
BRANCH   2   3
HETATM    3  C   UNL     1      -7.709   5.043  67.863  1.00  0.00    -0.084 C  
BRANCH   3   4
HETATM    4  C   UNL     1      -8.869   5.286  68.826  1.00  0.00    -0.104 C  
BRANCH   4   5
HETATM    5  C   UNL     1      -8.372   5.392  70.265  1.00  0.00    -0.112 C  
BRANCH   5   6
HETATM    6  C   UNL     1      -9.395   4.825  71.243  1.00  0.00    -0.204 C  
BRANCH   6   7
HETATM    7  C   UNL     1      -9.038   5.195  72.681  1.00  0.00    -0.139 C  
BRANCH   7   8
HETATM    8  C   UNL     1     -10.009   6.233  73.235  1.00  0.00    -0.189 C  
BRANCH   8   9
HETATM    9  C   UNL     1      -9.556   7.646  72.879  1.00  0.00    -0.274 C  
BRANCH   9  10
HETATM   10  C   UNL     1     -10.705   8.449  72.278  1.00  0.00    -0.417 C  
BRANCH  10  11
HETATM   11  C   UNL     1     -10.224   9.296  71.103  1.00  0.00    -0.387 C  
BRANCH  11  12
HETATM   12  C   UNL     1     -10.281   8.503  69.800  1.00  0.00    -0.206 C  
BRANCH  12  13
HETATM   13  C   UNL     1     -10.140   9.424  68.591  1.00  0.00    -0.208 C  
BRANCH  13  14
HETATM   14  C   UNL     1      -9.041   8.928  67.653  1.00  0.00    -0.144 C  
BRANCH  14  15
HETATM   15  C   UNL     1      -7.674   8.985  68.327  1.00  0.00    -0.095 C  
BRANCH  15  16
HETATM   16  C   UNL     1      -6.572   8.519  67.388  1.00  0.00    -0.059 C  
HETATM   17  O   UNL     1      -5.629   9.563  67.199  1.00  0.00    -0.040 OA 
HETATM   18  H   UNL     1      -4.940   9.272  66.612  1.00  0.00     0.000 HD 
ENDBRANCH  15  16
ENDBRANCH  14  15
ENDBRANCH  13  14
ENDBRANCH  12  13
ENDBRANCH  11  12
ENDBRANCH  10  11
ENDBRANCH   9  10
ENDBRANCH   8   9
ENDBRANCH   7   8
ENDBRANCH   6   7
ENDBRANCH   5   6
ENDBRANCH   4   5
ENDBRANCH   3   4
ENDBRANCH   2   3
TORSDOF 14
ENDMDL
MODEL      431
REMARK 921   NORMALIZED FREE ENERGY PREDICTED BY IDOCK:   -1.64 KCAL/MOL
REMARK 922        TOTAL FREE ENERGY PREDICTED BY IDOCK:   -4.36 KCAL/MOL
REMARK 923 INTER-LIGAND FREE ENERGY PREDICTED BY IDOCK:   -4.09 KCAL/MOL
REMARK 924 INTRA-LIGAND FREE ENERGY PREDICTED BY IDOCK:   -0.27 KCAL/MOL
REMARK 927      BINDING AFFINITY PREDICTED BY RF-SCORE:    0.00 PKD
ROOT
HETATM    1  C   UNL     1      -7.307   9.893  62.795  1.00  0.00    -0.126 C  
HETATM    2  C   UNL     1      -8.753   9.429  62.762  1.00  0.00    -0.231 C  
ENDROOT
BRANCH   2   3
HETATM    3  C   UNL     1      -9.502   9.868  64.019  1.00  0.00    -0.231 C  
BRANCH   3   4
HETATM    4  C   UNL     1      -8.536  10.184  65.159  1.00  0.00    -0.167 C  
BRANCH   4   5
HETATM    5  C   UNL     1      -9.116   9.752  66.503  1.00  0.00    -0.182 C  
BRANCH   5   6
HETATM    6  C   UNL     1      -8.560  10.603  67.640  1.00  0.00    -0.118 C  
BRANCH   6   7
HETATM    7  C   UNL     1      -8.896  12.078  67.431  1.00  0.00    -0.178 C  
BRANCH   7   8
HETATM    8  C   UNL     1      -8.309  12.935  68.549  1.00  0.00    -0.054 C  
BRANCH   8   9
HETATM    9  C   UNL     1      -7.055  13.663  68.074  1.00  0.00    -0.132 C  
BRANCH   9  10
HETATM   10  C   UNL     1      -7.408  15.022  67.480  1.00  0.00    -0.228 C  
BRANCH  10  11
HETATM   11  C   UNL     1      -7.473  16.093  68.566  1.00  0.00    -0.167 C  
BRANCH  11  12
HETATM   12  C   UNL     1      -8.852  16.746  68.604  1.00  0.00    -0.255 C  
BRANCH  12  13
HETATM   13  C   UNL     1      -9.818  16.043  67.654  1.00  0.00    -0.235 C  
BRANCH  13  14
HETATM   14  C   UNL     1      -9.521  16.412  66.202  1.00  0.00    -0.363 C  
BRANCH  14  15
HETATM   15  C   UNL     1     -10.808  16.534  65.391  1.00  0.00    -0.216 C  
BRANCH  15  16
HETATM   16  C   UNL     1     -11.048  15.295  64.541  1.00  0.00    -0.245 C  
HETATM   17  O   UNL     1     -12.064  15.558  63.586  1.00  0.00    -0.961 OA 
HETATM   18  H   UNL     1     -12.215  14.784  63.056  1.00  0.00     0.000 HD 
ENDBRANCH  15  16
ENDBRANCH  14  15
ENDBRANCH  13  14
ENDBRANCH  12  13
ENDBRANCH  11  12
ENDBRANCH  10  11
ENDBRANCH   9  10
ENDBRANCH   8   9
ENDBRANCH   7   8
ENDBRANCH   6   7
ENDBRANCH   5   6
ENDBRANCH   4   5
ENDBRANCH   3   4
ENDBRANCH   2   3
TORSDOF 14
ENDMDL
MODEL      432
REMARK 921   NORMALIZED FREE ENERGY PREDICTED BY IDOCK:   -1.62 KCAL/MOL
REMARK 922        TOTAL FREE ENERGY PREDICTED BY IDOCK:   -4.32 KCAL/MOL
REMARK 923 INTER-LIGAND FREE ENERGY PREDICTED BY IDOCK:   -2.83 KCAL/MOL
REMARK 924 INTRA-LIGAND FREE ENERGY PREDICTED BY IDOCK:   -1.49 KCAL/MOL
REMARK 927      BINDING AFFINITY PREDICTED BY RF-SCORE:    0.00 PKD
ROOT
HETATM    1  C   UNL     1      -7.964  11.770  67.055  1.00  0.00    -0.164 C  
HETATM    2  C   UNL     1      -8.694  11.107  68.211  1.00  0.00    -0.151 C  
ENDROOT
BRANCH   2   3
HETATM    3  C   UNL     1     -10.149  11.566  68.280  1.00  0.00    -0.205 C  
BRANCH   3   4
HETATM    4  C   UNL     1     -11.109  10.397  68.074  1.00  0.00    -0.359 C  
BRANCH   4   5
HETATM    5  C   UNL     1     -10.358   9.067  68.070  1.00  0.00    -0.275 C  
BRANCH   5   6
HETATM    6  C   UNL     1     -10.651   8.268  69.335  1.00  0.00    -0.203 C  
BRANCH   6   7
HETATM    7  C   UNL     1     -10.163   6.828  69.194  1.00  0.00    -0.195 C  
BRANCH   7   8
HETATM    8  C   UNL     1     -10.881   6.118  68.049  1.00  0.00    -0.398 C  
BRANCH   8   9
HETATM    9  C   UNL     1      -9.944   5.919  66.861  1.00  0.00    -0.205 C  
BRANCH   9  10
HETATM   10  C   UNL     1      -9.767   4.437  66.551  1.00  0.00    -0.230 C  
BRANCH  10  11
HETATM   11  C   UNL     1      -8.595   3.850  67.334  1.00  0.00    -0.109 C  
BRANCH  11  12
HETATM   12  C   UNL     1      -7.431   4.834  67.392  1.00  0.00    -0.082 C  
BRANCH  12  13
HETATM   13  C   UNL     1      -6.914   4.989  68.820  1.00  0.00    -0.052 C  
BRANCH  13  14
HETATM   14  C   UNL     1      -6.051   6.241  68.956  1.00  0.00    -0.025 C  
BRANCH  14  15
HETATM   15  C   UNL     1      -6.893   7.507  68.828  1.00  0.00    -0.065 C  
BRANCH  15  16
HETATM   16  C   UNL     1      -6.882   8.314  70.118  1.00  0.00    -0.039 C  
HETATM   17  O   UNL     1      -7.321   7.502  71.196  1.00  0.00    -0.069 OA 
HETATM   18  H   UNL     1      -7.314   8.005  72.002  1.00  0.00     0.000 HD 
ENDBRANCH  15  16
ENDBRANCH  14  15
ENDBRANCH  13  14
ENDBRANCH  12  13
ENDBRANCH  11  12
ENDBRANCH  10  11
ENDBRANCH   9  10
ENDBRANCH   8   9
ENDBRANCH   7   8
ENDBRANCH   6   7
ENDBRANCH   5   6
ENDBRANCH   4   5
ENDBRANCH   3   4
ENDBRANCH   2   3
TORSDOF 14
ENDMDL
MODEL      433
REMARK 921   NORMALIZED FREE ENERGY PREDICTED BY IDOCK:   -1.60 KCAL/MOL
REMARK 922        TOTAL FREE ENERGY PREDICTED BY IDOCK:   -4.29 KCAL/MOL
REMARK 923 INTER-LIGAND FREE ENERGY PREDICTED BY IDOCK:   -4.29 KCAL/MOL
REMARK 924 INTRA-LIGAND FREE ENERGY PREDICTED BY IDOCK:    0.00 KCAL/MOL
REMARK 927      BINDING AFFINITY PREDICTED BY RF-SCORE:    0.00 PKD
ROOT
HETATM    1  C   UNL     1     -12.659  14.581  70.239  1.00  0.00    -0.378 C  
HETATM    2  C   UNL     1     -13.646  14.617  71.393  1.00  0.00    -0.474 C  
ENDROOT
BRANCH   2   3
HETATM    3  C   UNL     1     -13.257  13.622  72.484  1.00  0.00    -0.578 C  
BRANCH   3   4
HETATM    4  C   UNL     1     -13.652  12.197  72.103  1.00  0.00    -0.285 C  
BRANCH   4   5
HETATM    5  C   UNL     1     -12.769  11.669  70.975  1.00  0.00    -0.395 C  
BRANCH   5   6
HETATM    6  C   UNL     1     -11.960  10.459  71.432  1.00  0.00    -0.379 C  
BRANCH   6   7
HETATM    7  C   UNL     1     -11.964   9.367  70.365  1.00  0.00    -0.080 C  
BRANCH   7   8
HETATM    8  C   UNL     1     -11.034   9.729  69.210  1.00  0.00    -0.222 C  
BRANCH   8   9
HETATM    9  C   UNL     1      -9.634  10.056  69.722  1.00  0.00    -0.249 C  
BRANCH   9  10
HETATM   10  C   UNL     1      -8.745   8.818  69.703  1.00  0.00    -0.136 C  
BRANCH  10  11
HETATM   11  C   UNL     1      -8.654   8.188  71.091  1.00  0.00    -0.153 C  
BRANCH  11  12
HETATM   12  C   UNL     1      -9.452   6.889  71.153  1.00  0.00    -0.166 C  
BRANCH  12  13
HETATM   13  C   UNL     1      -8.530   5.675  71.070  1.00  0.00    -0.122 C  
BRANCH  13  14
HETATM   14  C   UNL     1      -9.154   4.467  71.764  1.00  0.00    -0.167 C  
BRANCH  14  15
HETATM   15  C   UNL     1      -9.326   4.717  73.259  1.00  0.00    -0.129 C  
BRANCH  15  16
HETATM   16  C   UNL     1     -10.667   5.368  73.562  1.00  0.00    -0.287 C  
HETATM   17  O   UNL     1     -11.676   4.790  72.750  1.00  0.00    -0.092 OA 
HETATM   18  H   UNL     1     -12.514   5.197  72.939  1.00  0.00     0.000 HD 
ENDBRANCH  15  16
ENDBRANCH  14  15
ENDBRANCH  13  14
ENDBRANCH  12  13
ENDBRANCH  11  12
ENDBRANCH  10  11
ENDBRANCH   9  10
ENDBRANCH   8   9
ENDBRANCH   7   8
ENDBRANCH   6   7
ENDBRANCH   5   6
ENDBRANCH   4   5
ENDBRANCH   3   4
ENDBRANCH   2   3
TORSDOF 14
ENDMDL
MODEL      434
REMARK 921   NORMALIZED FREE ENERGY PREDICTED BY IDOCK:   -1.55 KCAL/MOL
REMARK 922        TOTAL FREE ENERGY PREDICTED BY IDOCK:   -4.19 KCAL/MOL
REMARK 923 INTER-LIGAND FREE ENERGY PREDICTED BY IDOCK:   -3.04 KCAL/MOL
REMARK 924 INTRA-LIGAND FREE ENERGY PREDICTED BY IDOCK:   -1.15 KCAL/MOL
REMARK 927      BINDING AFFINITY PREDICTED BY RF-SCORE:    0.00 PKD
ROOT
HETATM    1  C   UNL     1     -12.196   8.897  71.635  1.00  0.00    -0.409 C  
HETATM    2  C   UNL     1     -11.079   9.568  70.853  1.00  0.00    -0.406 C  
ENDROOT
BRANCH   2   3
HETATM    3  C   UNL     1     -11.628  10.317  69.640  1.00  0.00    -0.267 C  
BRANCH   3   4
HETATM    4  C   UNL     1     -10.520  10.637  68.639  1.00  0.00    -0.211 C  
BRANCH   4   5
HETATM    5  C   UNL     1      -9.159  10.194  69.169  1.00  0.00    -0.189 C  
BRANCH   5   6
HETATM    6  C   UNL     1      -8.564   9.091  68.299  1.00  0.00    -0.130 C  
BRANCH   6   7
HETATM    7  C   UNL     1      -8.356   9.580  66.868  1.00  0.00    -0.116 C  
BRANCH   7   8
HETATM    8  C   UNL     1      -8.637   8.465  65.864  1.00  0.00    -0.179 C  
BRANCH   8   9
HETATM    9  C   UNL     1      -9.801   7.596  66.329  1.00  0.00    -0.080 C  
BRANCH   9  10
HETATM   10  C   UNL     1      -9.334   6.175  66.627  1.00  0.00    -0.161 C  
BRANCH  10  11
HETATM   11  C   UNL     1     -10.243   5.505  67.655  1.00  0.00    -0.241 C  
BRANCH  11  12
HETATM   12  C   UNL     1      -9.421   4.796  68.728  1.00  0.00    -0.209 C  
BRANCH  12  13
HETATM   13  C   UNL     1      -8.617   5.797  69.553  1.00  0.00    -0.112 C  
BRANCH  13  14
HETATM   14  C   UNL     1      -7.889   5.100  70.700  1.00  0.00    -0.080 C  
BRANCH  14  15
HETATM   15  C   UNL     1      -8.133   5.815  72.025  1.00  0.00    -0.112 C  
BRANCH  15  16
HETATM   16  C   UNL     1      -7.356   7.120  72.102  1.00  0.00    -0.080 C  
HETATM   17  O   UNL     1      -6.277   6.984  73.015  1.00  0.00    -0.056 OA 
HETATM   18  H   UNL     1      -5.792   7.799  73.064  1.00  0.00     0.000 HD 
ENDBRANCH  15  16
ENDBRANCH  14  15
ENDBRANCH  13  14
ENDBRANCH  12  13
ENDBRANCH  11  12
ENDBRANCH  10  11
ENDBRANCH   9  10
ENDBRANCH   8   9
ENDBRANCH   7   8
ENDBRANCH   6   7
ENDBRANCH   5   6
ENDBRANCH   4   5
ENDBRANCH   3   4
ENDBRANCH   2   3
TORSDOF 14
ENDMDL
MODEL      435
REMARK 921   NORMALIZED FREE ENERGY PREDICTED BY IDOCK:   -1.50 KCAL/MOL
REMARK 922        TOTAL FREE ENERGY PREDICTED BY IDOCK:   -4.10 KCAL/MOL
REMARK 923 INTER-LIGAND FREE ENERGY PREDICTED BY IDOCK:   -3.30 KCAL/MOL
REMARK 924 INTRA-LIGAND FREE ENERGY PREDICTED BY IDOCK:   -0.80 KCAL/MOL
REMARK 927      BINDING AFFINITY PREDICTED BY RF-SCORE:    0.00 PKD
ROOT
HETATM    1  C   UNL     1     -10.587  16.559  69.532  1.00  0.00    -0.321 C  
HETATM    2  C   UNL     1     -10.807  15.707  68.294  1.00  0.00    -0.298 C  
ENDROOT
BRANCH   2   3
HETATM    3  C   UNL     1      -9.931  16.180  67.136  1.00  0.00    -0.251 C  
BRANCH   3   4
HETATM    4  C   UNL     1      -8.752  15.237  66.911  1.00  0.00    -0.288 C  
BRANCH   4   5
HETATM    5  C   UNL     1      -9.149  13.789  67.188  1.00  0.00    -0.243 C  
BRANCH   5   6
HETATM    6  C   UNL     1      -8.177  13.129  68.160  1.00  0.00    -0.160 C  
BRANCH   6   7
HETATM    7  C   UNL     1      -7.724  11.768  67.636  1.00  0.00    -0.137 C  
BRANCH   7   8
HETATM    8  C   UNL     1      -8.881  11.026  66.973  1.00  0.00    -0.143 C  
BRANCH   8   9
HETATM    9  C   UNL     1      -8.512   9.569  66.709  1.00  0.00    -0.129 C  
BRANCH   9  10
HETATM   10  C   UNL     1      -9.495   8.626  67.395  1.00  0.00    -0.187 C  
BRANCH  10  11
HETATM   11  C   UNL     1      -8.928   8.111  68.715  1.00  0.00    -0.144 C  
BRANCH  11  12
HETATM   12  C   UNL     1      -9.893   8.382  69.866  1.00  0.00    -0.186 C  
BRANCH  12  13
HETATM   13  C   UNL     1      -9.137   8.673  71.159  1.00  0.00    -0.263 C  
BRANCH  13  14
HETATM   14  C   UNL     1      -8.694   7.378  71.836  1.00  0.00    -0.127 C  
BRANCH  14  15
HETATM   15  C   UNL     1      -9.667   6.973  72.940  1.00  0.00    -0.188 C  
BRANCH  15  16
HETATM   16  C   UNL     1      -9.185   5.733  73.677  1.00  0.00    -0.130 C  
HETATM   17  O   UNL     1      -8.009   6.036  74.411  1.00  0.00    -0.105 OA 
HETATM   18  H   UNL     1      -7.708   5.262  74.872  1.00  0.00     0.000 HD 
ENDBRANCH  15  16
ENDBRANCH  14  15
ENDBRANCH  13  14
ENDBRANCH  12  13
ENDBRANCH  11  12
ENDBRANCH  10  11
ENDBRANCH   9  10
ENDBRANCH   8   9
ENDBRANCH   7   8
ENDBRANCH   6   7
ENDBRANCH   5   6
ENDBRANCH   4   5
ENDBRANCH   3   4
ENDBRANCH   2   3
TORSDOF 14
ENDMDL
MODEL      436
REMARK 921   NORMALIZED FREE ENERGY PREDICTED BY IDOCK:   -1.49 KCAL/MOL
REMARK 922        TOTAL FREE ENERGY PREDICTED BY IDOCK:   -4.09 KCAL/MOL
REMARK 923 INTER-LIGAND FREE ENERGY PREDICTED BY IDOCK:   -3.12 KCAL/MOL
REMARK 924 INTRA-LIGAND FREE ENERGY PREDICTED BY IDOCK:   -0.98 KCAL/MOL
REMARK 927      BINDING AFFINITY PREDICTED BY RF-SCORE:    0.00 PKD
ROOT
HETATM    1  C   UNL     1     -11.043  11.738  68.630  1.00  0.00    -0.289 C  
HETATM    2  C   UNL     1      -9.744  12.507  68.459  1.00  0.00    -0.133 C  
ENDROOT
BRANCH   2   3
HETATM    3  C   UNL     1      -9.096  12.202  67.110  1.00  0.00    -0.189 C  
BRANCH   3   4
HETATM    4  C   UNL     1     -10.145  11.860  66.054  1.00  0.00    -0.261 C  
BRANCH   4   5
HETATM    5  C   UNL     1      -9.804  10.550  65.349  1.00  0.00    -0.335 C  
BRANCH   5   6
HETATM    6  C   UNL     1      -8.663   9.827  66.057  1.00  0.00    -0.156 C  
BRANCH   6   7
HETATM    7  C   UNL     1      -9.132   8.485  66.614  1.00  0.00    -0.203 C  
BRANCH   7   8
HETATM    8  C   UNL     1      -8.802   8.365  68.099  1.00  0.00    -0.142 C  
BRANCH   8   9
HETATM    9  C   UNL     1      -8.157   7.016  68.405  1.00  0.00    -0.124 C  
BRANCH   9  10
HETATM   10  C   UNL     1      -9.182   5.890  68.313  1.00  0.00    -0.117 C  
BRANCH  10  11
HETATM   11  C   UNL     1      -9.498   5.323  69.694  1.00  0.00    -0.196 C  
BRANCH  11  12
HETATM   12  C   UNL     1      -8.310   5.492  70.637  1.00  0.00    -0.117 C  
BRANCH  12  13
HETATM   13  C   UNL     1      -8.778   5.741  72.069  1.00  0.00    -0.137 C  
BRANCH  13  14
HETATM   14  C   UNL     1      -9.687   6.966  72.141  1.00  0.00    -0.158 C  
BRANCH  14  15
HETATM   15  C   UNL     1      -9.065   8.157  71.419  1.00  0.00    -0.194 C  
BRANCH  15  16
HETATM   16  C   UNL     1      -7.725   8.539  72.030  1.00  0.00    -0.096 C  
HETATM   17  O   UNL     1      -7.233   9.717  71.411  1.00  0.00    -0.271 OA 
HETATM   18  H   UNL     1      -6.396   9.956  71.792  1.00  0.00     0.000 HD 
ENDBRANCH  15  16
ENDBRANCH  14  15
ENDBRANCH  13  14
ENDBRANCH  12  13
ENDBRANCH  11  12
ENDBRANCH  10  11
ENDBRANCH   9  10
ENDBRANCH   8   9
ENDBRANCH   7   8
ENDBRANCH   6   7
ENDBRANCH   5   6
ENDBRANCH   4   5
ENDBRANCH   3   4
ENDBRANCH   2   3
TORSDOF 14
ENDMDL
MODEL      437
REMARK 921   NORMALIZED FREE ENERGY PREDICTED BY IDOCK:   -1.38 KCAL/MOL
REMARK 922        TOTAL FREE ENERGY PREDICTED BY IDOCK:   -3.88 KCAL/MOL
REMARK 923 INTER-LIGAND FREE ENERGY PREDICTED BY IDOCK:   -3.18 KCAL/MOL
REMARK 924 INTRA-LIGAND FREE ENERGY PREDICTED BY IDOCK:   -0.70 KCAL/MOL
REMARK 927      BINDING AFFINITY PREDICTED BY RF-SCORE:    0.00 PKD
ROOT
HETATM    1  C   UNL     1      -9.165   4.256  66.874  1.00  0.00    -0.160 C  
HETATM    2  C   UNL     1      -8.209   3.779  65.794  1.00  0.00    -0.105 C  
ENDROOT
BRANCH   2   3
HETATM    3  C   UNL     1      -7.094   4.795  65.554  1.00  0.00    -0.064 C  
BRANCH   3   4
HETATM    4  C   UNL     1      -7.617   6.226  65.655  1.00  0.00    -0.085 C  
BRANCH   4   5
HETATM    5  C   UNL     1      -8.053   6.746  64.288  1.00  0.00    -0.039 C  
BRANCH   5   6
HETATM    6  C   UNL     1      -7.973   8.268  64.228  1.00  0.00    -0.148 C  
BRANCH   6   7
HETATM    7  C   UNL     1      -7.831   8.861  65.628  1.00  0.00    -0.096 C  
BRANCH   7   8
HETATM    8  C   UNL     1      -8.148  10.353  65.623  1.00  0.00    -0.156 C  
BRANCH   8   9
HETATM    9  C   UNL     1      -7.081  11.138  66.382  1.00  0.00    -0.091 C  
BRANCH   9  10
HETATM   10  C   UNL     1      -7.690  12.348  67.082  1.00  0.00    -0.122 C  
BRANCH  10  11
HETATM   11  C   UNL     1      -9.175  12.128  67.361  1.00  0.00    -0.182 C  
BRANCH  11  12
HETATM   12  C   UNL     1      -9.790  13.352  68.032  1.00  0.00    -0.229 C  
BRANCH  12  13
HETATM   13  C   UNL     1     -11.120  13.003  68.696  1.00  0.00    -0.305 C  
BRANCH  13  14
HETATM   14  C   UNL     1     -11.670  11.684  68.157  1.00  0.00    -0.365 C  
BRANCH  14  15
HETATM   15  C   UNL     1     -11.511  10.562  69.178  1.00  0.00    -0.314 C  
BRANCH  15  16
HETATM   16  C   UNL     1     -11.927  11.016  70.570  1.00  0.00    -0.379 C  
HETATM   17  O   UNL     1     -12.837  10.081  71.128  1.00  0.00    -0.341 OA 
HETATM   18  H   UNL     1     -13.097  10.365  71.997  1.00  0.00     0.000 HD 
ENDBRANCH  15  16
ENDBRANCH  14  15
ENDBRANCH  13  14
ENDBRANCH  12  13
ENDBRANCH  11  12
ENDBRANCH  10  11
ENDBRANCH   9  10
ENDBRANCH   8   9
ENDBRANCH   7   8
ENDBRANCH   6   7
ENDBRANCH   5   6
ENDBRANCH   4   5
ENDBRANCH   3   4
ENDBRANCH   2   3
TORSDOF 14
ENDMDL
MODEL      438
REMARK 921   NORMALIZED FREE ENERGY PREDICTED BY IDOCK:   -1.35 KCAL/MOL
REMARK 922        TOTAL FREE ENERGY PREDICTED BY IDOCK:   -3.84 KCAL/MOL
REMARK 923 INTER-LIGAND FREE ENERGY PREDICTED BY IDOCK:   -2.41 KCAL/MOL
REMARK 924 INTRA-LIGAND FREE ENERGY PREDICTED BY IDOCK:   -1.43 KCAL/MOL
REMARK 927      BINDING AFFINITY PREDICTED BY RF-SCORE:    0.00 PKD
ROOT
HETATM    1  C   UNL     1      -9.007   7.656  69.409  1.00  0.00    -0.139 C  
HETATM    2  C   UNL     1     -10.039   7.892  68.320  1.00  0.00    -0.225 C  
ENDROOT
BRANCH   2   3
HETATM    3  C   UNL     1     -10.279   9.384  68.101  1.00  0.00    -0.239 C  
BRANCH   3   4
HETATM    4  C   UNL     1     -10.747   9.667  66.675  1.00  0.00    -0.102 C  
BRANCH   4   5
HETATM    5  C   UNL     1      -9.933  10.797  66.047  1.00  0.00    -0.295 C  
BRANCH   5   6
HETATM    6  C   UNL     1      -8.529  10.856  66.640  1.00  0.00    -0.151 C  
BRANCH   6   7
HETATM    7  C   UNL     1      -7.497  10.329  65.646  1.00  0.00    -0.149 C  
BRANCH   7   8
HETATM    8  C   UNL     1      -8.161   9.918  64.335  1.00  0.00    -0.164 C  
BRANCH   8   9
HETATM    9  C   UNL     1      -8.286   8.400  64.242  1.00  0.00    -0.130 C  
BRANCH   9  10
HETATM   10  C   UNL     1      -7.849   7.738  65.545  1.00  0.00    -0.111 C  
BRANCH  10  11
HETATM   11  C   UNL     1      -8.251   6.266  65.572  1.00  0.00    -0.145 C  
BRANCH  11  12
HETATM   12  C   UNL     1      -7.388   5.483  66.557  1.00  0.00    -0.082 C  
BRANCH  12  13
HETATM   13  C   UNL     1      -8.069   4.180  66.968  1.00  0.00    -0.100 C  
BRANCH  13  14
HETATM   14  C   UNL     1      -8.962   3.653  65.846  1.00  0.00    -0.142 C  
BRANCH  14  15
HETATM   15  C   UNL     1      -8.872   2.134  65.738  1.00  0.00    -0.121 C  
BRANCH  15  16
HETATM   16  C   UNL     1      -7.623   1.704  64.984  1.00  0.00    -0.062 C  
HETATM   17  O   UNL     1      -7.784   1.965  63.599  1.00  0.00    -0.057 OA 
HETATM   18  H   UNL     1      -7.003   1.696  63.128  1.00  0.00     0.000 HD 
ENDBRANCH  15  16
ENDBRANCH  14  15
ENDBRANCH  13  14
ENDBRANCH  12  13
ENDBRANCH  11  12
ENDBRANCH  10  11
ENDBRANCH   9  10
ENDBRANCH   8   9
ENDBRANCH   7   8
ENDBRANCH   6   7
ENDBRANCH   5   6
ENDBRANCH   4   5
ENDBRANCH   3   4
ENDBRANCH   2   3
TORSDOF 14
ENDMDL
MODEL      439
REMARK 921   NORMALIZED FREE ENERGY PREDICTED BY IDOCK:   -1.31 KCAL/MOL
REMARK 922        TOTAL FREE ENERGY PREDICTED BY IDOCK:   -3.76 KCAL/MOL
REMARK 923 INTER-LIGAND FREE ENERGY PREDICTED BY IDOCK:   -2.94 KCAL/MOL
REMARK 924 INTRA-LIGAND FREE ENERGY PREDICTED BY IDOCK:   -0.82 KCAL/MOL
REMARK 927      BINDING AFFINITY PREDICTED BY RF-SCORE:    0.00 PKD
ROOT
HETATM    1  C   UNL     1      -9.229   3.616  67.306  1.00  0.00    -0.215 C  
HETATM    2  C   UNL     1      -8.673   3.232  65.945  1.00  0.00    -0.127 C  
ENDROOT
BRANCH   2   3
HETATM    3  C   UNL     1      -7.366   3.967  65.655  1.00  0.00    -0.076 C  
BRANCH   3   4
HETATM    4  C   UNL     1      -7.217   5.203  66.540  1.00  0.00    -0.077 C  
BRANCH   4   5
HETATM    5  C   UNL     1      -5.771   5.693  66.552  1.00  0.00    -0.017 C  
BRANCH   5   6
HETATM    6  C   UNL     1      -5.647   7.015  67.304  1.00  0.00    -0.017 C  
BRANCH   6   7
HETATM    7  C   UNL     1      -5.927   8.196  66.378  1.00  0.00    -0.041 C  
BRANCH   7   8
HETATM    8  C   UNL     1      -7.222   8.902  66.771  1.00  0.00    -0.082 C  
BRANCH   8   9
HETATM    9  C   UNL     1      -7.886   9.536  65.552  1.00  0.00    -0.108 C  
BRANCH   9  10
HETATM   10  C   UNL     1      -8.787  10.695  65.965  1.00  0.00    -0.187 C  
BRANCH  10  11
HETATM   11  C   UNL     1     -10.099  10.673  65.187  1.00  0.00    -0.374 C  
BRANCH  11  12
HETATM   12  C   UNL     1     -10.778  12.039  65.223  1.00  0.00    -0.331 C  
BRANCH  12  13
HETATM   13  C   UNL     1     -10.442  12.784  66.512  1.00  0.00    -0.276 C  
BRANCH  13  14
HETATM   14  C   UNL     1     -11.594  12.693  67.511  1.00  0.00    -0.418 C  
BRANCH  14  15
HETATM   15  C   UNL     1     -11.280  11.699  68.625  1.00  0.00    -0.308 C  
BRANCH  15  16
HETATM   16  C   UNL     1      -9.831  11.810  69.076  1.00  0.00     0.100 C  
HETATM   17  O   UNL     1      -9.478  10.669  69.843  1.00  0.00    -0.383 OA 
HETATM   18  H   UNL     1      -8.573  10.739  70.125  1.00  0.00     0.000 HD 
ENDBRANCH  15  16
ENDBRANCH  14  15
ENDBRANCH  13  14
ENDBRANCH  12  13
ENDBRANCH  11  12
ENDBRANCH  10  11
ENDBRANCH   9  10
ENDBRANCH   8   9
ENDBRANCH   7   8
ENDBRANCH   6   7
ENDBRANCH   5   6
ENDBRANCH   4   5
ENDBRANCH   3   4
ENDBRANCH   2   3
TORSDOF 14
ENDMDL
MODEL      440
REMARK 921   NORMALIZED FREE ENERGY PREDICTED BY IDOCK:   -1.31 KCAL/MOL
REMARK 922        TOTAL FREE ENERGY PREDICTED BY IDOCK:   -3.76 KCAL/MOL
REMARK 923 INTER-LIGAND FREE ENERGY PREDICTED BY IDOCK:   -4.22 KCAL/MOL
REMARK 924 INTRA-LIGAND FREE ENERGY PREDICTED BY IDOCK:    0.46 KCAL/MOL
REMARK 927      BINDING AFFINITY PREDICTED BY RF-SCORE:    0.00 PKD
ROOT
HETATM    1  C   UNL     1     -12.544  14.726  70.184  1.00  0.00    -0.319 C  
HETATM    2  C   UNL     1     -13.614  14.295  71.173  1.00  0.00    -0.300 C  
ENDROOT
BRANCH   2   3
HETATM    3  C   UNL     1     -13.105  13.183  72.088  1.00  0.00    -0.481 C  
BRANCH   3   4
HETATM    4  C   UNL     1     -13.083  11.838  71.365  1.00  0.00    -0.322 C  
BRANCH   4   5
HETATM    5  C   UNL     1     -11.800  11.676  70.553  1.00  0.00    -0.328 C  
BRANCH   5   6
HETATM    6  C   UNL     1     -11.541  10.209  70.224  1.00  0.00    -0.379 C  
BRANCH   6   7
HETATM    7  C   UNL     1     -10.908  10.065  68.842  1.00  0.00    -0.250 C  
BRANCH   7   8
HETATM    8  C   UNL     1      -9.441  10.485  68.866  1.00  0.00    -0.199 C  
BRANCH   8   9
HETATM    9  C   UNL     1      -8.645   9.621  69.840  1.00  0.00    -0.218 C  
BRANCH   9  10
HETATM   10  C   UNL     1      -7.414   9.030  69.161  1.00  0.00    -0.072 C  
BRANCH  10  11
HETATM   11  C   UNL     1      -7.478   7.505  69.142  1.00  0.00    -0.098 C  
BRANCH  11  12
HETATM   12  C   UNL     1      -6.487   6.931  68.134  1.00  0.00    -0.050 C  
BRANCH  12  13
HETATM   13  C   UNL     1      -6.967   7.158  66.703  1.00  0.00    -0.077 C  
BRANCH  13  14
HETATM   14  C   UNL     1      -8.375   7.750  66.686  1.00  0.00    -0.126 C  
BRANCH  14  15
HETATM   15  C   UNL     1      -9.434   6.651  66.692  1.00  0.00    -0.201 C  
BRANCH  15  16
HETATM   16  C   UNL     1     -10.175   6.602  68.020  1.00  0.00    -0.167 C  
HETATM   17  O   UNL     1     -11.575   6.637  67.791  1.00  0.00    -0.635 OA 
HETATM   18  H   UNL     1     -12.038   6.606  68.620  1.00  0.00     0.000 HD 
ENDBRANCH  15  16
ENDBRANCH  14  15
ENDBRANCH  13  14
ENDBRANCH  12  13
ENDBRANCH  11  12
ENDBRANCH  10  11
ENDBRANCH   9  10
ENDBRANCH   8   9
ENDBRANCH   7   8
ENDBRANCH   6   7
ENDBRANCH   5   6
ENDBRANCH   4   5
ENDBRANCH   3   4
ENDBRANCH   2   3
TORSDOF 14
ENDMDL
MODEL      441
REMARK 921   NORMALIZED FREE ENERGY PREDICTED BY IDOCK:   -1.28 KCAL/MOL
REMARK 922        TOTAL FREE ENERGY PREDICTED BY IDOCK:   -3.71 KCAL/MOL
REMARK 923 INTER-LIGAND FREE ENERGY PREDICTED BY IDOCK:   -2.87 KCAL/MOL
REMARK 924 INTRA-LIGAND FREE ENERGY PREDICTED BY IDOCK:   -0.84 KCAL/MOL
REMARK 927      BINDING AFFINITY PREDICTED BY RF-SCORE:    0.00 PKD
ROOT
HETATM    1  C   UNL     1     -10.594  16.432  69.558  1.00  0.00    -0.320 C  
HETATM    2  C   UNL     1     -10.723  15.687  68.240  1.00  0.00    -0.283 C  
ENDROOT
BRANCH   2   3
HETATM    3  C   UNL     1      -9.682  16.165  67.231  1.00  0.00    -0.233 C  
BRANCH   3   4
HETATM    4  C   UNL     1      -8.677  15.062  66.905  1.00  0.00    -0.285 C  
BRANCH   4   5
HETATM    5  C   UNL     1      -9.281  13.683  67.153  1.00  0.00    -0.244 C  
BRANCH   5   6
HETATM    6  C   UNL     1      -8.307  12.785  67.909  1.00  0.00    -0.172 C  
BRANCH   6   7
HETATM    7  C   UNL     1      -7.821  11.641  67.022  1.00  0.00    -0.164 C  
BRANCH   7   8
HETATM    8  C   UNL     1      -8.886  11.253  66.000  1.00  0.00    -0.189 C  
BRANCH   8   9
HETATM    9  C   UNL     1      -8.353  10.199  65.034  1.00  0.00    -0.158 C  
BRANCH   9  10
HETATM   10  C   UNL     1      -9.338   9.044  64.892  1.00  0.00     0.047 C  
BRANCH  10  11
HETATM   11  C   UNL     1      -8.821   7.794  65.599  1.00  0.00    -0.102 C  
BRANCH  11  12
HETATM   12  C   UNL     1      -9.306   7.747  67.045  1.00  0.00    -0.196 C  
BRANCH  12  13
HETATM   13  C   UNL     1      -8.269   7.085  67.949  1.00  0.00    -0.115 C  
BRANCH  13  14
HETATM   14  C   UNL     1      -8.328   5.564  67.826  1.00  0.00    -0.099 C  
BRANCH  14  15
HETATM   15  C   UNL     1      -9.156   4.952  68.953  1.00  0.00    -0.149 C  
BRANCH  15  16
HETATM   16  C   UNL     1      -9.161   3.433  68.875  1.00  0.00    -0.165 C  
HETATM   17  O   UNL     1      -7.860   2.934  69.142  1.00  0.00    -0.047 OA 
HETATM   18  H   UNL     1      -7.863   1.985  69.094  1.00  0.00     0.000 HD 
ENDBRANCH  15  16
ENDBRANCH  14  15
ENDBRANCH  13  14
ENDBRANCH  12  13
ENDBRANCH  11  12
ENDBRANCH  10  11
ENDBRANCH   9  10
ENDBRANCH   8   9
ENDBRANCH   7   8
ENDBRANCH   6   7
ENDBRANCH   5   6
ENDBRANCH   4   5
ENDBRANCH   3   4
ENDBRANCH   2   3
TORSDOF 14
ENDMDL
MODEL      442
REMARK 921   NORMALIZED FREE ENERGY PREDICTED BY IDOCK:   -1.27 KCAL/MOL
REMARK 922        TOTAL FREE ENERGY PREDICTED BY IDOCK:   -3.69 KCAL/MOL
REMARK 923 INTER-LIGAND FREE ENERGY PREDICTED BY IDOCK:   -2.97 KCAL/MOL
REMARK 924 INTRA-LIGAND FREE ENERGY PREDICTED BY IDOCK:   -0.72 KCAL/MOL
REMARK 927      BINDING AFFINITY PREDICTED BY RF-SCORE:    0.00 PKD
ROOT
HETATM    1  C   UNL     1      -9.324   3.886  67.153  1.00  0.00    -0.216 C  
HETATM    2  C   UNL     1      -8.282   2.998  66.495  1.00  0.00    -0.087 C  
ENDROOT
BRANCH   2   3
HETATM    3  C   UNL     1      -6.886   3.281  67.049  1.00  0.00    -0.049 C  
BRANCH   3   4
HETATM    4  C   UNL     1      -6.720   4.756  67.405  1.00  0.00    -0.055 C  
BRANCH   4   5
HETATM    5  C   UNL     1      -5.750   5.443  66.447  1.00  0.00    -0.018 C  
BRANCH   5   6
HETATM    6  C   UNL     1      -5.553   6.909  66.823  1.00  0.00    -0.018 C  
BRANCH   6   7
HETATM    7  C   UNL     1      -6.742   7.428  67.627  1.00  0.00    -0.066 C  
BRANCH   7   8
HETATM    8  C   UNL     1      -6.866   8.944  67.501  1.00  0.00    -0.071 C  
BRANCH   8   9
HETATM    9  C   UNL     1      -7.265   9.569  68.835  1.00  0.00    -0.072 C  
BRANCH   9  10
HETATM   10  C   UNL     1      -8.184  10.768  68.620  1.00  0.00    -0.139 C  
BRANCH  10  11
HETATM   11  C   UNL     1      -9.228  10.471  67.547  1.00  0.00    -0.152 C  
BRANCH  11  12
HETATM   12  C   UNL     1      -9.533  11.720  66.724  1.00  0.00    -0.202 C  
BRANCH  12  13
HETATM   13  C   UNL     1     -11.032  12.006  66.698  1.00  0.00    -0.330 C  
BRANCH  13  14
HETATM   14  C   UNL     1     -11.737  11.336  67.876  1.00  0.00    -0.289 C  
BRANCH  14  15
HETATM   15  C   UNL     1     -11.684  12.215  69.122  1.00  0.00    -0.384 C  
BRANCH  15  16
HETATM   16  C   UNL     1     -11.682  13.692  68.759  1.00  0.00    -0.348 C  
HETATM   17  O   UNL     1     -12.451  14.420  69.703  1.00  0.00    -0.480 OA 
HETATM   18  H   UNL     1     -12.450  15.343  69.477  1.00  0.00     0.000 HD 
ENDBRANCH  15  16
ENDBRANCH  14  15
ENDBRANCH  13  14
ENDBRANCH  12  13
ENDBRANCH  11  12
ENDBRANCH  10  11
ENDBRANCH   9  10
ENDBRANCH   8   9
ENDBRANCH   7   8
ENDBRANCH   6   7
ENDBRANCH   5   6
ENDBRANCH   4   5
ENDBRANCH   3   4
ENDBRANCH   2   3
TORSDOF 14
ENDMDL
MODEL      443
REMARK 921   NORMALIZED FREE ENERGY PREDICTED BY IDOCK:   -1.13 KCAL/MOL
REMARK 922        TOTAL FREE ENERGY PREDICTED BY IDOCK:   -3.44 KCAL/MOL
REMARK 923 INTER-LIGAND FREE ENERGY PREDICTED BY IDOCK:   -3.03 KCAL/MOL
REMARK 924 INTRA-LIGAND FREE ENERGY PREDICTED BY IDOCK:   -0.41 KCAL/MOL
REMARK 927      BINDING AFFINITY PREDICTED BY RF-SCORE:    0.00 PKD
ROOT
HETATM    1  C   UNL     1      -7.946  11.795  67.056  1.00  0.00    -0.164 C  
HETATM    2  C   UNL     1      -8.652  11.157  68.241  1.00  0.00    -0.146 C  
ENDROOT
BRANCH   2   3
HETATM    3  C   UNL     1     -10.089  11.660  68.363  1.00  0.00    -0.207 C  
BRANCH   3   4
HETATM    4  C   UNL     1     -11.092  10.525  68.166  1.00  0.00    -0.346 C  
BRANCH   4   5
HETATM    5  C   UNL     1     -10.381   9.178  68.072  1.00  0.00    -0.272 C  
BRANCH   5   6
HETATM    6  C   UNL     1     -10.627   8.338  69.321  1.00  0.00    -0.191 C  
BRANCH   6   7
HETATM    7  C   UNL     1     -10.239   6.881  69.082  1.00  0.00    -0.196 C  
BRANCH   7   8
HETATM    8  C   UNL     1     -11.069   6.272  67.956  1.00  0.00    -0.365 C  
BRANCH   8   9
HETATM    9  C   UNL     1     -10.207   6.017  66.723  1.00  0.00    -0.268 C  
BRANCH   9  10
HETATM   10  C   UNL     1     -10.320   4.564  66.272  1.00  0.00    -0.227 C  
BRANCH  10  11
HETATM   11  C   UNL     1      -9.200   3.717  66.871  1.00  0.00    -0.198 C  
BRANCH  11  12
HETATM   12  C   UNL     1      -7.897   4.509  66.942  1.00  0.00    -0.098 C  
BRANCH  12  13
HETATM   13  C   UNL     1      -7.096   4.135  68.187  1.00  0.00    -0.059 C  
BRANCH  13  14
HETATM   14  C   UNL     1      -7.980   4.158  69.432  1.00  0.00    -0.056 C  
BRANCH  14  15
HETATM   15  C   UNL     1      -8.856   2.911  69.509  1.00  0.00    -0.151 C  
BRANCH  15  16
HETATM   16  C   UNL     1      -8.530   2.078  70.739  1.00  0.00    -0.050 C  
HETATM   17  O   UNL     1      -7.151   1.743  70.741  1.00  0.00    -0.032 OA 
HETATM   18  H   UNL     1      -6.947   1.222  71.509  1.00  0.00     0.000 HD 
ENDBRANCH  15  16
ENDBRANCH  14  15
ENDBRANCH  13  14
ENDBRANCH  12  13
ENDBRANCH  11  12
ENDBRANCH  10  11
ENDBRANCH   9  10
ENDBRANCH   8   9
ENDBRANCH   7   8
ENDBRANCH   6   7
ENDBRANCH   5   6
ENDBRANCH   4   5
ENDBRANCH   3   4
ENDBRANCH   2   3
TORSDOF 14
ENDMDL
MODEL      444
REMARK 921   NORMALIZED FREE ENERGY PREDICTED BY IDOCK:   -0.64 KCAL/MOL
REMARK 922        TOTAL FREE ENERGY PREDICTED BY IDOCK:   -2.55 KCAL/MOL
REMARK 923 INTER-LIGAND FREE ENERGY PREDICTED BY IDOCK:   -2.46 KCAL/MOL
REMARK 924 INTRA-LIGAND FREE ENERGY PREDICTED BY IDOCK:   -0.09 KCAL/MOL
REMARK 927      BINDING AFFINITY PREDICTED BY RF-SCORE:    0.00 PKD
ROOT
HETATM    1  C   UNL     1     -11.506  17.162  71.804  1.00  0.00     1.036 C  
HETATM    2  C   UNL     1     -12.107  15.768  71.862  1.00  0.00    -0.548 C  
ENDROOT
BRANCH   2   3
HETATM    3  C   UNL     1     -11.895  15.021  70.547  1.00  0.00    -0.347 C  
BRANCH   3   4
HETATM    4  C   UNL     1     -12.384  15.843  69.357  1.00  0.00     0.049 C  
BRANCH   4   5
HETATM    5  C   UNL     1     -11.326  15.895  68.257  1.00  0.00    -0.342 C  
BRANCH   5   6
HETATM    6  C   UNL     1     -11.593  14.840  67.188  1.00  0.00    -0.373 C  
BRANCH   6   7
HETATM    7  C   UNL     1     -11.161  13.457  67.669  1.00  0.00    -0.302 C  
BRANCH   7   8
HETATM    8  C   UNL     1     -11.674  12.368  66.731  1.00  0.00    -0.430 C  
BRANCH   8   9
HETATM    9  C   UNL     1     -10.525  11.741  65.947  1.00  0.00    -0.296 C  
BRANCH   9  10
HETATM   10  C   UNL     1      -9.260  11.674  66.796  1.00  0.00    -0.190 C  
BRANCH  10  11
HETATM   11  C   UNL     1      -9.482  10.819  68.041  1.00  0.00    -0.166 C  
BRANCH  11  12
HETATM   12  C   UNL     1      -8.342   9.821  68.227  1.00  0.00    -0.106 C  
BRANCH  12  13
HETATM   13  C   UNL     1      -7.739   9.422  66.883  1.00  0.00    -0.091 C  
BRANCH  13  14
HETATM   14  C   UNL     1      -8.561   8.320  66.220  1.00  0.00    -0.152 C  
BRANCH  14  15
HETATM   15  C   UNL     1      -8.142   6.942  66.724  1.00  0.00    -0.109 C  
BRANCH  15  16
HETATM   16  C   UNL     1      -6.857   7.014  67.535  1.00  0.00    -0.073 C  
HETATM   17  O   UNL     1      -6.011   5.928  67.191  1.00  0.00    -0.017 OA 
HETATM   18  H   UNL     1      -5.208   5.973  67.698  1.00  0.00     0.000 HD 
ENDBRANCH  15  16
ENDBRANCH  14  15
ENDBRANCH  13  14
ENDBRANCH  12  13
ENDBRANCH  11  12
ENDBRANCH  10  11
ENDBRANCH   9  10
ENDBRANCH   8   9
ENDBRANCH   7   8
ENDBRANCH   6   7
ENDBRANCH   5   6
ENDBRANCH   4   5
ENDBRANCH   3   4
ENDBRANCH   2   3
TORSDOF 14
ENDMDL
MODEL      445
REMARK 921   NORMALIZED FREE ENERGY PREDICTED BY IDOCK:    9.25 KCAL/MOL
REMARK 922        TOTAL FREE ENERGY PREDICTED BY IDOCK:   15.45 KCAL/MOL
REMARK 923 INTER-LIGAND FREE ENERGY PREDICTED BY IDOCK:   13.52 KCAL/MOL
REMARK 924 INTRA-LIGAND FREE ENERGY PREDICTED BY IDOCK:    1.93 KCAL/MOL
REMARK 927      BINDING AFFINITY PREDICTED BY RF-SCORE:    0.00 PKD
ROOT
HETATM    1  C   UNL     1      -9.979  13.257  64.821  1.00  0.00    -0.150 C  
HETATM    2  C   UNL     1     -10.627  14.604  64.550  1.00  0.00    -0.090 C  
ENDROOT
BRANCH   2   3
HETATM    3  C   UNL     1     -10.687  15.452  65.819  1.00  0.00    -0.360 C  
BRANCH   3   4
HETATM    4  C   UNL     1      -9.884  14.815  66.951  1.00  0.00    -0.248 C  
BRANCH   4   5
HETATM    5  C   UNL     1     -10.594  14.994  68.291  1.00  0.00    -0.247 C  
BRANCH   5   6
HETATM    6  C   UNL     1      -9.601  15.334  69.397  1.00  0.00    -0.245 C  
BRANCH   6   7
HETATM    7  C   UNL     1      -8.470  14.310  69.446  1.00  0.00     0.358 C  
BRANCH   7   8
HETATM    8  C   UNL     1      -8.762  13.223  70.477  1.00  0.00     5.657 C  
BRANCH   8   9
HETATM    9  C   UNL     1      -7.544  12.326  70.681  1.00  0.00     4.385 C  
BRANCH   9  10
HETATM   10  C   UNL     1      -7.445  11.284  69.571  1.00  0.00     0.073 C  
BRANCH  10  11
HETATM   11  C   UNL     1      -8.130   9.983  69.979  1.00  0.00    -0.154 C  
BRANCH  11  12
HETATM   12  C   UNL     1      -8.187   9.006  68.808  1.00  0.00    -0.117 C  
BRANCH  12  13
HETATM   13  C   UNL     1      -7.101   9.319  67.781  1.00  0.00    -0.082 C  
BRANCH  13  14
HETATM   14  C   UNL     1      -7.203  10.766  67.303  1.00  0.00    -0.096 C  
BRANCH  14  15
HETATM   15  C   UNL     1      -6.056  11.116  66.360  1.00  0.00    -0.137 C  
BRANCH  15  16
HETATM   16  C   UNL     1      -6.468  12.183  65.357  1.00  0.00     3.640 C  
HETATM   17  O   UNL     1      -7.844  12.489  65.519  1.00  0.00     1.331 OA 
HETATM   18  H   UNL     1      -8.102  13.155  64.892  1.00  0.00     0.000 HD 
ENDBRANCH  15  16
ENDBRANCH  14  15
ENDBRANCH  13  14
ENDBRANCH  12  13
ENDBRANCH  11  12
ENDBRANCH  10  11
ENDBRANCH   9  10
ENDBRANCH   8   9
ENDBRANCH   7   8
ENDBRANCH   6   7
ENDBRANCH   5   6
ENDBRANCH   4   5
ENDBRANCH   3   4
ENDBRANCH   2   3
TORSDOF 14
ENDMDL
