MODEL        1
REMARK 921   NORMALIZED FREE ENERGY PREDICTED BY IDOCK:   -7.72 KCAL/MOL
REMARK 922        TOTAL FREE ENERGY PREDICTED BY IDOCK:   -8.27 KCAL/MOL
REMARK 923 INTER-LIGAND FREE ENERGY PREDICTED BY IDOCK:   -8.17 KCAL/MOL
REMARK 924 INTRA-LIGAND FREE ENERGY PREDICTED BY IDOCK:   -0.10 KCAL/MOL
REMARK 927      BINDING AFFINITY PREDICTED BY RF-SCORE:    0.00 PKD
ROOT
HETATM    1  C   UNL     1     -10.537  12.518  65.750  1.00  0.00    -0.299 C  
HETATM    2  C   UNL     1     -10.889  14.249  66.202  1.00  0.00    -0.310 C  
HETATM    3  C   UNL     1     -11.876  12.097  66.326  1.00  0.00    -0.320 C  
HETATM    4  C   UNL     1      -9.820  15.324  65.795  1.00  0.00    -0.395 C  
HETATM    5  C   UNL     1     -11.629  11.972  67.823  1.00  0.00    -0.400 C  
HETATM    6  C   UNL     1     -12.268  14.827  65.705  1.00  0.00    -0.076 C  
HETATM    7  C   UNL     1     -10.764  10.761  67.761  1.00  0.00    -0.296 C  
HETATM    8  C   UNL     1      -8.269  11.287  66.750  1.00  0.00    -0.158 C  
HETATM    9  C   UNL     1     -10.452   9.893  68.985  1.00  0.00    -0.227 C  
HETATM   10  C   UNL     1      -9.789  11.037  66.593  1.00  0.00    -0.235 C  
HETATM   11  C   UNL     1      -9.799   9.527  66.003  1.00  0.00    -0.353 C  
HETATM   12  C   UNL     1     -11.622  10.100  69.914  1.00  0.00    -0.223 C  
HETATM   13  C   UNL     1      -9.471   8.362  67.165  1.00  0.00    -0.209 C  
HETATM   14  C   UNL     1     -11.784   9.079  70.985  1.00  0.00    -0.353 C  
HETATM   15  O   UNL     1     -11.550  11.362  70.572  1.00  0.00    -0.467 OA 
HETATM   16  H   UNL     1     -12.286  11.492  71.158  1.00  0.00     0.000 HD 
HETATM   17  C   UNL     1     -11.783   7.633  70.471  1.00  0.00    -0.148 C  
HETATM   18  C   UNL     1     -12.158   6.761  71.680  1.00  0.00    -0.404 C  
HETATM   19  C   UNL     1     -11.074   6.464  72.700  1.00  0.00    -0.261 C  
HETATM   20  O   UNL     1     -11.084   7.378  73.798  1.00  0.00    -0.557 OA 
HETATM   21  C   UNL     1      -9.679   6.342  72.096  1.00  0.00    -0.161 C  
HETATM   22  C   UNL     1      -9.352   7.193  70.806  1.00  0.00    -0.160 C  
HETATM   23  H   UNL     1     -10.406   7.193  74.437  1.00  0.00     0.000 HD 
HETATM   24  C   UNL     1     -10.462   7.284  69.696  1.00  0.00    -0.239 C  
HETATM   25  C   UNL     1     -10.565   5.888  69.047  1.00  0.00    -0.360 C  
HETATM   26  C   UNL     1     -10.391   8.412  68.470  1.00  0.00    -0.232 C  
ENDROOT
BRANCH   4  27
HETATM   27  C   UNL     1     -10.214  16.773  66.216  1.00  0.00    -0.341 C  
HETATM   28  O   UNL     1      -9.532  19.030  66.442  1.00  0.00    -0.333 OA 
HETATM   29  C   UNL     1      -9.099  17.780  66.119  1.00  0.00    -0.102 C  
HETATM   30  O   UNL     1      -7.954  17.548  65.791  1.00  0.00    -0.548 OA 
ENDBRANCH   4  27
TORSDOF 1
ENDMDL
MODEL        2
REMARK 921   NORMALIZED FREE ENERGY PREDICTED BY IDOCK:   -7.63 KCAL/MOL
REMARK 922        TOTAL FREE ENERGY PREDICTED BY IDOCK:   -8.17 KCAL/MOL
REMARK 923 INTER-LIGAND FREE ENERGY PREDICTED BY IDOCK:   -8.03 KCAL/MOL
REMARK 924 INTRA-LIGAND FREE ENERGY PREDICTED BY IDOCK:   -0.15 KCAL/MOL
REMARK 927      BINDING AFFINITY PREDICTED BY RF-SCORE:    0.00 PKD
ROOT
HETATM    1  C   UNL     1     -10.457  12.391  65.622  1.00  0.00    -0.290 C  
HETATM    2  C   UNL     1     -10.925  14.115  65.988  1.00  0.00    -0.304 C  
HETATM    3  C   UNL     1     -11.783  11.914  66.184  1.00  0.00    -0.217 C  
HETATM    4  C   UNL     1      -9.912  15.235  65.558  1.00  0.00    -0.383 C  
HETATM    5  C   UNL     1     -11.571  11.870  67.690  1.00  0.00    -0.382 C  
HETATM    6  C   UNL     1     -12.323  14.585  65.431  1.00  0.00    -0.286 C  
HETATM    7  C   UNL     1     -10.633  10.713  67.704  1.00  0.00    -0.288 C  
HETATM    8  C   UNL     1      -8.148  11.346  66.732  1.00  0.00    -0.161 C  
HETATM    9  C   UNL     1     -10.303   9.919  68.973  1.00  0.00    -0.224 C  
HETATM   10  C   UNL     1      -9.645  10.997  66.549  1.00  0.00    -0.223 C  
HETATM   11  C   UNL     1      -9.548   9.464  66.028  1.00  0.00    -0.328 C  
HETATM   12  C   UNL     1     -11.508  10.093  69.863  1.00  0.00    -0.254 C  
HETATM   13  C   UNL     1      -9.182   8.374  67.248  1.00  0.00    -0.165 C  
HETATM   14  C   UNL     1     -11.637   9.112  70.974  1.00  0.00    -0.370 C  
HETATM   15  O   UNL     1     -11.530  11.385  70.465  1.00  0.00    -0.475 OA 
HETATM   16  H   UNL     1     -12.288  11.495  71.026  1.00  0.00     0.000 HD 
HETATM   17  C   UNL     1     -11.535   7.648  70.526  1.00  0.00    -0.236 C  
HETATM   18  C   UNL     1     -11.890   6.808  71.763  1.00  0.00    -0.371 C  
HETATM   19  C   UNL     1     -10.818   6.623  72.822  1.00  0.00    -0.251 C  
HETATM   20  O   UNL     1     -10.913   7.581  73.878  1.00  0.00    -0.528 OA 
HETATM   21  C   UNL     1      -9.402   6.560  72.259  1.00  0.00    -0.137 C  
HETATM   22  C   UNL     1      -9.092   7.373  70.940  1.00  0.00    -0.154 C  
HETATM   23  H   UNL     1     -10.243   7.465  74.540  1.00  0.00     0.000 HD 
HETATM   24  C   UNL     1     -10.175   7.347  69.800  1.00  0.00    -0.210 C  
HETATM   25  C   UNL     1     -10.176   5.921  69.212  1.00  0.00    -0.275 C  
HETATM   26  C   UNL     1     -10.138   8.423  68.527  1.00  0.00    -0.218 C  
ENDROOT
BRANCH   4  27
HETATM   27  C   UNL     1     -10.404  16.674  65.904  1.00  0.00    -0.355 C  
HETATM   28  O   UNL     1     -10.644  18.343  67.567  1.00  0.00    -0.408 OA 
HETATM   29  C   UNL     1     -10.252  17.057  67.353  1.00  0.00    -0.314 C  
HETATM   30  O   UNL     1      -9.832  16.344  68.239  1.00  0.00    -0.221 OA 
ENDBRANCH   4  27
TORSDOF 1
ENDMDL
MODEL        3
REMARK 921   NORMALIZED FREE ENERGY PREDICTED BY IDOCK:   -7.22 KCAL/MOL
REMARK 922        TOTAL FREE ENERGY PREDICTED BY IDOCK:   -7.74 KCAL/MOL
REMARK 923 INTER-LIGAND FREE ENERGY PREDICTED BY IDOCK:   -8.30 KCAL/MOL
REMARK 924 INTRA-LIGAND FREE ENERGY PREDICTED BY IDOCK:    0.56 KCAL/MOL
REMARK 927      BINDING AFFINITY PREDICTED BY RF-SCORE:    0.00 PKD
ROOT
HETATM    1  C   UNL     1     -10.558  12.141  65.857  1.00  0.00    -0.293 C  
HETATM    2  C   UNL     1     -10.728  13.888  66.352  1.00  0.00    -0.281 C  
HETATM    3  C   UNL     1     -11.859  11.815  66.565  1.00  0.00    -0.011 C  
HETATM    4  C   UNL     1      -9.627  14.885  65.843  1.00  0.00    -0.343 C  
HETATM    5  C   UNL     1     -11.473  11.653  68.028  1.00  0.00    -0.385 C  
HETATM    6  C   UNL     1     -12.102  14.575  66.001  1.00  0.00    -0.298 C  
HETATM    7  C   UNL     1     -10.713  10.381  67.872  1.00  0.00    -0.307 C  
HETATM    8  C   UNL     1      -8.301  10.730  66.614  1.00  0.00    -0.141 C  
HETATM    9  C   UNL     1     -10.347   9.476  69.053  1.00  0.00    -0.219 C  
HETATM   10  C   UNL     1      -9.843  10.597  66.612  1.00  0.00    -0.245 C  
HETATM   11  C   UNL     1     -10.029   9.100  66.019  1.00  0.00    -0.293 C  
HETATM   12  C   UNL     1     -11.397   9.758  70.098  1.00  0.00    -0.251 C  
HETATM   13  C   UNL     1      -9.675   7.899  67.135  1.00  0.00    -0.249 C  
HETATM   14  C   UNL     1     -11.527   8.739  71.175  1.00  0.00    -0.344 C  
HETATM   15  O   UNL     1     -11.162  11.003  70.752  1.00  0.00    -0.326 OA 
HETATM   16  H   UNL     1     -11.823  11.180  71.410  1.00  0.00     0.000 HD 
HETATM   17  C   UNL     1     -11.689   7.304  70.656  1.00  0.00    -0.310 C  
HETATM   18  C   UNL     1     -12.005   6.447  71.892  1.00  0.00    -0.381 C  
HETATM   19  C   UNL     1     -10.849   6.056  72.795  1.00  0.00    -0.249 C  
HETATM   20  O   UNL     1     -10.678   6.954  73.893  1.00  0.00    -0.497 OA 
HETATM   21  C   UNL     1      -9.535   5.837  72.051  1.00  0.00    -0.166 C  
HETATM   22  C   UNL     1      -9.277   6.677  70.739  1.00  0.00    -0.155 C  
HETATM   23  H   UNL     1      -9.955   6.710  74.458  1.00  0.00     0.000 HD 
HETATM   24  C   UNL     1     -10.484   6.866  69.748  1.00  0.00    -0.240 C  
HETATM   25  C   UNL     1     -10.759   5.490  69.106  1.00  0.00    -0.260 C  
HETATM   26  C   UNL     1     -10.451   8.001  68.527  1.00  0.00    -0.200 C  
ENDROOT
BRANCH   4  27
HETATM   27  C   UNL     1      -9.864  16.353  66.310  1.00  0.00    -0.336 C  
HETATM   28  O   UNL     1     -10.871  18.446  65.844  1.00  0.00    -0.283 OA 
HETATM   29  C   UNL     1     -10.651  17.200  65.343  1.00  0.00    -0.104 C  
HETATM   30  O   UNL     1     -11.059  16.848  64.257  1.00  0.00    -1.135 OA 
ENDBRANCH   4  27
TORSDOF 1
ENDMDL
MODEL        4
REMARK 921   NORMALIZED FREE ENERGY PREDICTED BY IDOCK:   -7.02 KCAL/MOL
REMARK 922        TOTAL FREE ENERGY PREDICTED BY IDOCK:   -7.54 KCAL/MOL
REMARK 923 INTER-LIGAND FREE ENERGY PREDICTED BY IDOCK:   -7.41 KCAL/MOL
REMARK 924 INTRA-LIGAND FREE ENERGY PREDICTED BY IDOCK:   -0.13 KCAL/MOL
REMARK 927      BINDING AFFINITY PREDICTED BY RF-SCORE:    0.00 PKD
ROOT
HETATM    1  C   UNL     1     -11.573  11.065  68.731  1.00  0.00    -0.386 C  
HETATM    2  C   UNL     1     -10.782   9.687  69.626  1.00  0.00    -0.260 C  
HETATM    3  C   UNL     1     -10.425  11.079  67.741  1.00  0.00    -0.232 C  
HETATM    4  C   UNL     1     -11.559   9.094  70.855  1.00  0.00    -0.350 C  
HETATM    5  C   UNL     1      -9.331  11.882  68.429  1.00  0.00    -0.184 C  
HETATM    6  C   UNL     1     -10.374   8.440  68.753  1.00  0.00    -0.225 C  
HETATM    7  C   UNL     1     -10.008  13.207  68.354  1.00  0.00    -0.223 C  
HETATM    8  C   UNL     1     -12.129  13.416  70.079  1.00  0.00    -0.404 C  
HETATM    9  C   UNL     1      -9.272  14.535  68.565  1.00  0.00    -0.195 C  
HETATM   10  C   UNL     1     -11.470  12.923  68.769  1.00  0.00    -0.345 C  
HETATM   11  C   UNL     1     -12.151  13.914  67.682  1.00  0.00    -0.342 C  
HETATM   12  C   UNL     1      -7.841  14.249  68.188  1.00  0.00    -0.139 C  
HETATM   13  C   UNL     1     -11.514  15.466  67.714  1.00  0.00    -0.284 C  
HETATM   14  C   UNL     1      -6.996  15.443  67.909  1.00  0.00    -0.161 C  
HETATM   15  O   UNL     1      -7.169  13.513  69.207  1.00  0.00    -0.281 OA 
HETATM   16  H   UNL     1      -6.267  13.333  68.969  1.00  0.00     0.000 HD 
HETATM   17  C   UNL     1      -7.612  16.416  66.895  1.00  0.00    -0.275 C  
HETATM   18  C   UNL     1      -6.518  17.454  66.598  1.00  0.00    -0.260 C  
HETATM   19  C   UNL     1      -6.296  18.558  67.616  1.00  0.00    -0.199 C  
HETATM   20  O   UNL     1      -5.258  18.247  68.549  1.00  0.00    -0.162 OA 
HETATM   21  C   UNL     1      -7.568  18.999  68.332  1.00  0.00    -0.343 C  
HETATM   22  C   UNL     1      -8.706  17.926  68.551  1.00  0.00    -0.297 C  
HETATM   23  H   UNL     1      -5.119  18.937  69.186  1.00  0.00     0.000 HD 
HETATM   24  C   UNL     1      -9.016  16.943  67.362  1.00  0.00    -0.215 C  
HETATM   25  C   UNL     1      -9.681  17.780  66.249  1.00  0.00    -0.277 C  
HETATM   26  C   UNL     1      -9.926  15.563  67.576  1.00  0.00    -0.230 C  
ENDROOT
BRANCH   4  27
HETATM   27  C   UNL     1     -10.807   7.916  71.547  1.00  0.00    -0.268 C  
HETATM   28  O   UNL     1     -10.942   5.726  72.440  1.00  0.00    -0.232 OA 
HETATM   29  C   UNL     1     -11.676   6.737  71.898  1.00  0.00    -0.310 C  
HETATM   30  O   UNL     1     -12.875   6.658  71.727  1.00  0.00    -0.335 OA 
ENDBRANCH   4  27
TORSDOF 1
ENDMDL
MODEL        5
REMARK 921   NORMALIZED FREE ENERGY PREDICTED BY IDOCK:   -7.00 KCAL/MOL
REMARK 922        TOTAL FREE ENERGY PREDICTED BY IDOCK:   -7.51 KCAL/MOL
REMARK 923 INTER-LIGAND FREE ENERGY PREDICTED BY IDOCK:   -7.41 KCAL/MOL
REMARK 924 INTRA-LIGAND FREE ENERGY PREDICTED BY IDOCK:   -0.10 KCAL/MOL
REMARK 927      BINDING AFFINITY PREDICTED BY RF-SCORE:    0.00 PKD
ROOT
HETATM    1  C   UNL     1     -10.364  10.494  68.812  1.00  0.00    -0.208 C  
HETATM    2  C   UNL     1      -9.370   9.708  70.124  1.00  0.00    -0.294 C  
HETATM    3  C   UNL     1      -9.092  10.897  68.092  1.00  0.00    -0.155 C  
HETATM    4  C   UNL     1     -10.154   8.976  71.272  1.00  0.00    -0.384 C  
HETATM    5  C   UNL     1      -8.637  12.167  68.794  1.00  0.00     0.101 C  
HETATM    6  C   UNL     1      -8.282   8.675  69.642  1.00  0.00    -0.114 C  
HETATM    7  C   UNL     1      -9.732  13.047  68.300  1.00  0.00    -0.221 C  
HETATM    8  C   UNL     1     -12.148  12.501  69.480  1.00  0.00    -0.248 C  
HETATM    9  C   UNL     1      -9.669  14.577  68.361  1.00  0.00    -0.224 C  
HETATM   10  C   UNL     1     -11.017  12.202  68.466  1.00  0.00    -0.276 C  
HETATM   11  C   UNL     1     -11.709  12.669  67.076  1.00  0.00    -0.438 C  
HETATM   12  C   UNL     1      -8.197  14.904  68.348  1.00  0.00    -0.151 C  
HETATM   13  C   UNL     1     -11.771  14.336  66.898  1.00  0.00    -0.430 C  
HETATM   14  C   UNL     1      -7.850  16.307  67.992  1.00  0.00    -0.154 C  
HETATM   15  O   UNL     1      -7.595  14.653  69.616  1.00  0.00    -0.347 OA 
HETATM   16  H   UNL     1      -6.668  14.860  69.608  1.00  0.00     0.000 HD 
HETATM   17  C   UNL     1      -8.498  16.795  66.689  1.00  0.00    -0.291 C  
HETATM   18  C   UNL     1      -7.867  18.166  66.398  1.00  0.00    -0.295 C  
HETATM   19  C   UNL     1      -8.385  19.361  67.177  1.00  0.00    -0.287 C  
HETATM   20  O   UNL     1      -7.606  19.640  68.343  1.00  0.00    -0.313 OA 
HETATM   21  C   UNL     1      -9.870  19.281  67.511  1.00  0.00    -0.429 C  
HETATM   22  C   UNL     1     -10.506  17.851  67.725  1.00  0.00    -0.409 C  
HETATM   23  H   UNL     1      -7.931  20.389  68.829  1.00  0.00     0.000 HD 
HETATM   24  C   UNL     1     -10.065  16.705  66.741  1.00  0.00    -0.293 C  
HETATM   25  C   UNL     1     -10.675  17.038  65.363  1.00  0.00    -0.126 C  
HETATM   26  C   UNL     1     -10.378  15.099  67.062  1.00  0.00    -0.271 C  
ENDROOT
BRANCH   4  27
HETATM   27  C   UNL     1      -9.218   8.329  72.338  1.00  0.00    -0.326 C  
HETATM   28  O   UNL     1      -9.056   7.003  74.294  1.00  0.00    -0.193 OA 
HETATM   29  C   UNL     1      -9.936   7.591  73.438  1.00  0.00    -0.323 C  
HETATM   30  O   UNL     1     -11.138   7.503  73.570  1.00  0.00    -0.312 OA 
ENDBRANCH   4  27
TORSDOF 1
ENDMDL
MODEL        6
REMARK 921   NORMALIZED FREE ENERGY PREDICTED BY IDOCK:   -6.95 KCAL/MOL
REMARK 922        TOTAL FREE ENERGY PREDICTED BY IDOCK:   -7.46 KCAL/MOL
REMARK 923 INTER-LIGAND FREE ENERGY PREDICTED BY IDOCK:   -7.33 KCAL/MOL
REMARK 924 INTRA-LIGAND FREE ENERGY PREDICTED BY IDOCK:   -0.13 KCAL/MOL
REMARK 927      BINDING AFFINITY PREDICTED BY RF-SCORE:    0.00 PKD
ROOT
HETATM    1  C   UNL     1     -10.964  16.313  67.261  1.00  0.00    -0.144 C  
HETATM    2  C   UNL     1      -9.792  17.707  67.364  1.00  0.00    -0.305 C  
HETATM    3  C   UNL     1     -10.267  15.643  68.431  1.00  0.00    -0.222 C  
HETATM    4  C   UNL     1     -10.012  18.899  66.365  1.00  0.00    -0.435 C  
HETATM    5  C   UNL     1      -9.064  14.946  67.814  1.00  0.00    -0.185 C  
HETATM    6  C   UNL     1      -9.637  18.377  68.782  1.00  0.00    -0.345 C  
HETATM    7  C   UNL     1      -9.824  13.895  67.080  1.00  0.00    -0.257 C  
HETATM    8  C   UNL     1     -11.168  14.882  64.902  1.00  0.00    -0.415 C  
HETATM    9  C   UNL     1      -9.170  12.626  66.522  1.00  0.00    -0.200 C  
HETATM   10  C   UNL     1     -11.002  14.652  66.424  1.00  0.00    -0.325 C  
HETATM   11  C   UNL     1     -12.113  13.501  66.691  1.00  0.00    -0.447 C  
HETATM   12  C   UNL     1      -7.961  12.399  67.394  1.00  0.00    -0.178 C  
HETATM   13  C   UNL     1     -11.634  11.985  66.154  1.00  0.00    -0.371 C  
HETATM   14  C   UNL     1      -7.376  11.031  67.342  1.00  0.00    -0.105 C  
HETATM   15  O   UNL     1      -6.904  13.298  67.067  1.00  0.00    -0.426 OA 
HETATM   16  H   UNL     1      -6.142  13.154  67.615  1.00  0.00     0.000 HD 
HETATM   17  C   UNL     1      -8.397   9.909  67.574  1.00  0.00    -0.114 C  
HETATM   18  C   UNL     1      -7.576   8.614  67.682  1.00  0.00    -0.098 C  
HETATM   19  C   UNL     1      -7.082   7.982  66.394  1.00  0.00    -0.074 C  
HETATM   20  O   UNL     1      -5.753   8.384  66.056  1.00  0.00    -0.042 OA 
HETATM   21  C   UNL     1      -8.031   8.167  65.215  1.00  0.00    -0.126 C  
HETATM   22  C   UNL     1      -8.919   9.473  65.175  1.00  0.00    -0.253 C  
HETATM   23  H   UNL     1      -5.444   7.988  65.250  1.00  0.00     0.000 HD 
HETATM   24  C   UNL     1      -9.567   9.951  66.527  1.00  0.00    -0.243 C  
HETATM   25  C   UNL     1     -10.660   8.924  66.890  1.00  0.00    -0.254 C  
HETATM   26  C   UNL     1     -10.222  11.475  66.698  1.00  0.00    -0.254 C  
ENDROOT
BRANCH   4  27
HETATM   27  C   UNL     1      -8.967  20.043  66.536  1.00  0.00    -0.431 C  
HETATM   28  O   UNL     1      -6.768  20.805  66.098  1.00  0.00    -0.233 OA 
HETATM   29  C   UNL     1      -7.606  19.740  65.967  1.00  0.00    -0.330 C  
HETATM   30  O   UNL     1      -7.267  18.699  65.446  1.00  0.00    -0.520 OA 
ENDBRANCH   4  27
TORSDOF 1
ENDMDL
MODEL        7
REMARK 921   NORMALIZED FREE ENERGY PREDICTED BY IDOCK:   -6.92 KCAL/MOL
REMARK 922        TOTAL FREE ENERGY PREDICTED BY IDOCK:   -7.42 KCAL/MOL
REMARK 923 INTER-LIGAND FREE ENERGY PREDICTED BY IDOCK:   -7.28 KCAL/MOL
REMARK 924 INTRA-LIGAND FREE ENERGY PREDICTED BY IDOCK:   -0.14 KCAL/MOL
REMARK 927      BINDING AFFINITY PREDICTED BY RF-SCORE:    0.00 PKD
ROOT
HETATM    1  C   UNL     1     -10.596  16.769  67.374  1.00  0.00    -0.291 C  
HETATM    2  C   UNL     1      -9.316  18.066  67.300  1.00  0.00    -0.256 C  
HETATM    3  C   UNL     1      -9.844  16.095  68.506  1.00  0.00    -0.226 C  
HETATM    4  C   UNL     1      -9.537  19.229  66.268  1.00  0.00    -0.411 C  
HETATM    5  C   UNL     1      -8.762  15.276  67.816  1.00  0.00    -0.168 C  
HETATM    6  C   UNL     1      -8.975  18.781  68.663  1.00  0.00    -0.368 C  
HETATM    7  C   UNL     1      -9.667  14.261  67.207  1.00  0.00    -0.234 C  
HETATM    8  C   UNL     1     -11.133  15.262  65.117  1.00  0.00    -0.412 C  
HETATM    9  C   UNL     1      -9.169  12.921  66.655  1.00  0.00    -0.222 C  
HETATM   10  C   UNL     1     -10.841  15.083  66.626  1.00  0.00    -0.318 C  
HETATM   11  C   UNL     1     -12.006  14.038  67.050  1.00  0.00    -0.472 C  
HETATM   12  C   UNL     1      -7.903  12.633  67.423  1.00  0.00    -0.175 C  
HETATM   13  C   UNL     1     -11.699  12.468  66.547  1.00  0.00    -0.454 C  
HETATM   14  C   UNL     1      -7.433  11.221  67.385  1.00  0.00    -0.116 C  
HETATM   15  O   UNL     1      -6.817  13.429  66.956  1.00  0.00    -0.425 OA 
HETATM   16  H   UNL     1      -6.019  13.246  67.439  1.00  0.00     0.000 HD 
HETATM   17  C   UNL     1      -8.511  10.197  67.764  1.00  0.00    -0.114 C  
HETATM   18  C   UNL     1      -7.785   8.845  67.860  1.00  0.00    -0.101 C  
HETATM   19  C   UNL     1      -7.467   8.122  66.564  1.00  0.00    -0.088 C  
HETATM   20  O   UNL     1      -6.148   8.400  66.087  1.00  0.00    -0.047 OA 
HETATM   21  C   UNL     1      -8.506   8.334  65.469  1.00  0.00    -0.177 C  
HETATM   22  C   UNL     1      -9.291   9.704  65.448  1.00  0.00    -0.320 C  
HETATM   23  H   UNL     1      -5.949   7.947  65.276  1.00  0.00     0.000 HD 
HETATM   24  C   UNL     1      -9.768  10.290  66.828  1.00  0.00    -0.231 C  
HETATM   25  C   UNL     1     -10.897   9.371  67.340  1.00  0.00    -0.189 C  
HETATM   26  C   UNL     1     -10.285  11.868  66.983  1.00  0.00    -0.233 C  
ENDROOT
BRANCH   4  27
HETATM   27  C   UNL     1      -8.396  20.292  66.286  1.00  0.00    -0.182 C  
HETATM   28  O   UNL     1      -6.200  20.857  65.603  1.00  0.00    -0.240 OA 
HETATM   29  C   UNL     1      -7.126  19.859  65.601  1.00  0.00    -0.315 C  
HETATM   30  O   UNL     1      -6.922  18.776  65.095  1.00  0.00    -0.502 OA 
ENDBRANCH   4  27
TORSDOF 1
ENDMDL
MODEL        8
REMARK 921   NORMALIZED FREE ENERGY PREDICTED BY IDOCK:   -6.90 KCAL/MOL
REMARK 922        TOTAL FREE ENERGY PREDICTED BY IDOCK:   -7.40 KCAL/MOL
REMARK 923 INTER-LIGAND FREE ENERGY PREDICTED BY IDOCK:   -7.30 KCAL/MOL
REMARK 924 INTRA-LIGAND FREE ENERGY PREDICTED BY IDOCK:   -0.11 KCAL/MOL
REMARK 927      BINDING AFFINITY PREDICTED BY RF-SCORE:    0.00 PKD
ROOT
HETATM    1  C   UNL     1     -11.085  11.119  67.079  1.00  0.00    -0.339 C  
HETATM    2  C   UNL     1     -10.021   9.684  67.443  1.00  0.00    -0.237 C  
HETATM    3  C   UNL     1     -10.115  11.563  66.001  1.00  0.00    -0.270 C  
HETATM    4  C   UNL     1     -10.528   8.679  68.538  1.00  0.00    -0.209 C  
HETATM    5  C   UNL     1      -9.019  12.305  66.751  1.00  0.00    -0.209 C  
HETATM    6  C   UNL     1      -9.624   8.787  66.210  1.00  0.00    -0.328 C  
HETATM    7  C   UNL     1      -9.836  13.489  67.137  1.00  0.00    -0.245 C  
HETATM    8  C   UNL     1     -11.671  12.921  69.095  1.00  0.00    -0.376 C  
HETATM    9  C   UNL     1      -9.223  14.806  67.625  1.00  0.00    -0.191 C  
HETATM   10  C   UNL     1     -11.176  12.895  67.629  1.00  0.00    -0.317 C  
HETATM   11  C   UNL     1     -12.122  14.028  66.958  1.00  0.00    -0.455 C  
HETATM   12  C   UNL     1      -7.847  14.843  67.011  1.00  0.00    -0.094 C  
HETATM   13  C   UNL     1     -11.658  15.591  67.351  1.00  0.00    -0.063 C  
HETATM   14  C   UNL     1      -7.189  16.178  66.981  1.00  0.00    -0.256 C  
HETATM   15  O   UNL     1      -6.948  13.969  67.690  1.00  0.00    -0.166 OA 
HETATM   16  H   UNL     1      -6.081  13.993  67.304  1.00  0.00     0.000 HD 
HETATM   17  C   UNL     1      -8.056  17.285  66.368  1.00  0.00    -0.328 C  
HETATM   18  C   UNL     1      -7.140  18.513  66.246  1.00  0.00    -0.284 C  
HETATM   19  C   UNL     1      -6.880  19.327  67.501  1.00  0.00    -0.200 C  
HETATM   20  O   UNL     1      -5.681  18.935  68.174  1.00  0.00    -0.199 OA 
HETATM   21  C   UNL     1      -8.063  19.372  68.461  1.00  0.00    -0.396 C  
HETATM   22  C   UNL     1      -9.032  18.125  68.504  1.00  0.00    -0.309 C  
HETATM   23  H   UNL     1      -5.518  19.444  68.959  1.00  0.00     0.000 HD 
HETATM   24  C   UNL     1      -9.418  17.458  67.132  1.00  0.00    -0.257 C  
HETATM   25  C   UNL     1     -10.335  18.453  66.391  1.00  0.00    -0.430 C  
HETATM   26  C   UNL     1     -10.131  15.953  67.055  1.00  0.00    -0.268 C  
ENDROOT
BRANCH   4  27
HETATM   27  C   UNL     1      -9.555   7.483  68.771  1.00  0.00    -0.149 C  
HETATM   28  O   UNL     1      -9.309   5.226  69.447  1.00  0.00    -0.116 OA 
HETATM   29  C   UNL     1     -10.205   6.244  69.329  1.00  0.00    -0.193 C  
HETATM   30  O   UNL     1     -11.373   6.128  69.636  1.00  0.00    -0.414 OA 
ENDBRANCH   4  27
TORSDOF 1
ENDMDL
MODEL        9
REMARK 921   NORMALIZED FREE ENERGY PREDICTED BY IDOCK:   -6.87 KCAL/MOL
REMARK 922        TOTAL FREE ENERGY PREDICTED BY IDOCK:   -7.37 KCAL/MOL
REMARK 923 INTER-LIGAND FREE ENERGY PREDICTED BY IDOCK:   -7.19 KCAL/MOL
REMARK 924 INTRA-LIGAND FREE ENERGY PREDICTED BY IDOCK:   -0.18 KCAL/MOL
REMARK 927      BINDING AFFINITY PREDICTED BY RF-SCORE:    0.00 PKD
ROOT
HETATM    1  C   UNL     1      -9.698  13.004  65.863  1.00  0.00    -0.187 C  
HETATM    2  C   UNL     1     -10.397  14.654  66.204  1.00  0.00    -0.309 C  
HETATM    3  C   UNL     1     -11.053  12.377  66.128  1.00  0.00    -0.340 C  
HETATM    4  C   UNL     1      -9.437  15.885  66.035  1.00  0.00    -0.389 C  
HETATM    5  C   UNL     1     -11.134  12.257  67.642  1.00  0.00    -0.318 C  
HETATM    6  C   UNL     1     -11.700  15.032  65.402  1.00  0.00    -0.170 C  
HETATM    7  C   UNL     1     -10.105  11.189  67.792  1.00  0.00    -0.200 C  
HETATM    8  C   UNL     1      -7.555  12.102  67.362  1.00  0.00    -0.155 C  
HETATM    9  C   UNL     1      -9.950  10.350  69.064  1.00  0.00    -0.224 C  
HETATM   10  C   UNL     1      -8.945  11.633  66.871  1.00  0.00    -0.191 C  
HETATM   11  C   UNL     1      -8.597  10.151  66.311  1.00  0.00    -0.138 C  
HETATM   12  C   UNL     1     -11.316  10.359  69.703  1.00  0.00    -0.272 C  
HETATM   13  C   UNL     1      -8.368   9.023  67.530  1.00  0.00    -0.116 C  
HETATM   14  C   UNL     1     -11.559   9.302  70.723  1.00  0.00    -0.345 C  
HETATM   15  O   UNL     1     -11.583  11.603  70.346  1.00  0.00    -0.490 OA 
HETATM   16  H   UNL     1     -12.443  11.609  70.749  1.00  0.00     0.000 HD 
HETATM   17  C   UNL     1     -11.227   7.885  70.239  1.00  0.00    -0.206 C  
HETATM   18  C   UNL     1     -11.729   6.940  71.342  1.00  0.00    -0.358 C  
HETATM   19  C   UNL     1     -10.869   6.784  72.584  1.00  0.00    -0.250 C  
HETATM   20  O   UNL     1     -11.263   7.662  73.641  1.00  0.00    -0.537 OA 
HETATM   21  C   UNL     1      -9.372   6.884  72.312  1.00  0.00    -0.148 C  
HETATM   22  C   UNL     1      -8.895   7.803  71.119  1.00  0.00    -0.143 C  
HETATM   23  H   UNL     1     -10.725   7.565  74.418  1.00  0.00     0.000 HD 
HETATM   24  C   UNL     1      -9.729   7.753  69.785  1.00  0.00    -0.176 C  
HETATM   25  C   UNL     1      -9.473   6.372  69.147  1.00  0.00    -0.137 C  
HETATM   26  C   UNL     1      -9.553   8.906  68.594  1.00  0.00    -0.158 C  
ENDROOT
BRANCH   4  27
HETATM   27  C   UNL     1     -10.128  17.249  66.340  1.00  0.00    -0.321 C  
HETATM   28  O   UNL     1     -10.374  19.056  67.851  1.00  0.00    -0.373 OA 
HETATM   29  C   UNL     1      -9.785  17.840  67.682  1.00  0.00    -0.282 C  
HETATM   30  O   UNL     1      -9.073  17.334  68.523  1.00  0.00    -0.257 OA 
ENDBRANCH   4  27
TORSDOF 1
ENDMDL
MODEL       10
REMARK 921   NORMALIZED FREE ENERGY PREDICTED BY IDOCK:   -6.86 KCAL/MOL
REMARK 922        TOTAL FREE ENERGY PREDICTED BY IDOCK:   -7.36 KCAL/MOL
REMARK 923 INTER-LIGAND FREE ENERGY PREDICTED BY IDOCK:   -7.26 KCAL/MOL
REMARK 924 INTRA-LIGAND FREE ENERGY PREDICTED BY IDOCK:   -0.11 KCAL/MOL
REMARK 927      BINDING AFFINITY PREDICTED BY RF-SCORE:    0.00 PKD
ROOT
HETATM    1  C   UNL     1      -8.832   7.793  71.386  1.00  0.00    -0.149 C  
HETATM    2  C   UNL     1     -10.103   6.743  72.167  1.00  0.00    -0.198 C  
HETATM    3  C   UNL     1      -9.511   9.028  71.947  1.00  0.00    -0.179 C  
HETATM    4  C   UNL     1      -9.942   5.189  72.006  1.00  0.00    -0.240 C  
HETATM    5  C   UNL     1     -10.644   9.320  70.975  1.00  0.00    -0.386 C  
HETATM    6  C   UNL     1     -10.344   6.978  73.707  1.00  0.00    -0.408 C  
HETATM    7  C   UNL     1      -9.792   9.753  69.832  1.00  0.00    -0.279 C  
HETATM    8  C   UNL     1      -8.463   7.668  68.647  1.00  0.00    -0.129 C  
HETATM    9  C   UNL     1     -10.338  10.529  68.629  1.00  0.00    -0.201 C  
HETATM   10  C   UNL     1      -8.653   8.709  69.777  1.00  0.00    -0.131 C  
HETATM   11  C   UNL     1      -7.471   9.765  69.433  1.00  0.00    -0.099 C  
HETATM   12  C   UNL     1     -11.551  11.255  69.154  1.00  0.00    -0.319 C  
HETATM   13  C   UNL     1      -7.826  10.749  68.122  1.00  0.00    -0.112 C  
HETATM   14  C   UNL     1     -12.036  12.389  68.320  1.00  0.00    -0.270 C  
HETATM   15  O   UNL     1     -12.660  10.373  69.311  1.00  0.00    -0.686 OA 
HETATM   16  H   UNL     1     -13.424  10.830  69.641  1.00  0.00     0.000 HD 
HETATM   17  C   UNL     1     -10.944  13.405  67.959  1.00  0.00    -0.265 C  
HETATM   18  C   UNL     1     -11.673  14.578  67.285  1.00  0.00    -0.429 C  
HETATM   19  C   UNL     1     -12.085  14.412  65.833  1.00  0.00    -0.348 C  
HETATM   20  O   UNL     1     -13.431  13.950  65.691  1.00  0.00    -0.655 OA 
HETATM   21  C   UNL     1     -11.120  13.563  65.013  1.00  0.00    -0.338 C  
HETATM   22  C   UNL     1     -10.327  12.416  65.755  1.00  0.00    -0.289 C  
HETATM   23  H   UNL     1     -13.689  13.846  64.783  1.00  0.00     0.000 HD 
HETATM   24  C   UNL     1      -9.752  12.738  67.183  1.00  0.00    -0.216 C  
HETATM   25  C   UNL     1      -8.599  13.745  66.988  1.00  0.00    -0.182 C  
HETATM   26  C   UNL     1      -9.212  11.537  68.206  1.00  0.00    -0.186 C  
ENDROOT
BRANCH   4  27
HETATM   27  C   UNL     1     -11.070   4.378  72.714  1.00  0.00    -0.122 C  
HETATM   28  O   UNL     1     -11.721   2.324  73.696  1.00  0.00    -0.221 OA 
HETATM   29  C   UNL     1     -10.714   2.948  73.025  1.00  0.00    -0.125 C  
HETATM   30  O   UNL     1      -9.674   2.394  72.740  1.00  0.00    -0.098 OA 
ENDBRANCH   4  27
TORSDOF 1
ENDMDL
MODEL       11
REMARK 921   NORMALIZED FREE ENERGY PREDICTED BY IDOCK:   -6.84 KCAL/MOL
REMARK 922        TOTAL FREE ENERGY PREDICTED BY IDOCK:   -7.34 KCAL/MOL
REMARK 923 INTER-LIGAND FREE ENERGY PREDICTED BY IDOCK:   -7.23 KCAL/MOL
REMARK 924 INTRA-LIGAND FREE ENERGY PREDICTED BY IDOCK:   -0.11 KCAL/MOL
REMARK 927      BINDING AFFINITY PREDICTED BY RF-SCORE:    0.00 PKD
ROOT
HETATM    1  C   UNL     1     -11.438  11.166  68.200  1.00  0.00    -0.373 C  
HETATM    2  C   UNL     1     -10.529   9.695  68.780  1.00  0.00    -0.238 C  
HETATM    3  C   UNL     1     -10.440  11.334  67.069  1.00  0.00    -0.272 C  
HETATM    4  C   UNL     1     -11.127   8.928  70.013  1.00  0.00    -0.180 C  
HETATM    5  C   UNL     1      -9.259  12.057  67.701  1.00  0.00    -0.182 C  
HETATM    6  C   UNL     1     -10.249   8.584  67.698  1.00  0.00    -0.297 C  
HETATM    7  C   UNL     1      -9.939  13.367  67.901  1.00  0.00    -0.236 C  
HETATM    8  C   UNL     1     -11.796  13.305  69.918  1.00  0.00    -0.380 C  
HETATM    9  C   UNL     1      -9.180  14.668  68.186  1.00  0.00    -0.192 C  
HETATM   10  C   UNL     1     -11.328  13.003  68.474  1.00  0.00    -0.323 C  
HETATM   11  C   UNL     1     -12.155  14.119  67.637  1.00  0.00    -0.337 C  
HETATM   12  C   UNL     1      -7.816  14.461  67.576  1.00  0.00    -0.190 C  
HETATM   13  C   UNL     1     -11.518  15.664  67.790  1.00  0.00    -0.209 C  
HETATM   14  C   UNL     1      -7.018  15.697  67.347  1.00  0.00    -0.234 C  
HETATM   15  O   UNL     1      -7.008  13.607  68.383  1.00  0.00    -0.086 OA 
HETATM   16  H   UNL     1      -6.148  13.478  67.999  1.00  0.00     0.000 HD 
HETATM   17  C   UNL     1      -7.769  16.786  66.571  1.00  0.00    -0.334 C  
HETATM   18  C   UNL     1      -6.727  17.874  66.267  1.00  0.00    -0.294 C  
HETATM   19  C   UNL     1      -6.362  18.835  67.384  1.00  0.00    -0.191 C  
HETATM   20  O   UNL     1      -5.204  18.420  68.112  1.00  0.00    -0.164 OA 
HETATM   21  C   UNL     1      -7.521  19.153  68.324  1.00  0.00    -0.334 C  
HETATM   22  C   UNL     1      -8.618  18.040  68.552  1.00  0.00    -0.306 C  
HETATM   23  H   UNL     1      -4.976  19.021  68.811  1.00  0.00     0.000 HD 
HETATM   24  C   UNL     1      -9.093  17.220  67.296  1.00  0.00    -0.231 C  
HETATM   25  C   UNL     1      -9.907  18.186  66.410  1.00  0.00    -0.353 C  
HETATM   26  C   UNL     1      -9.966  15.807  67.446  1.00  0.00    -0.237 C  
ENDROOT
BRANCH   4  27
HETATM   27  C   UNL     1     -10.286   7.682  70.427  1.00  0.00    -0.214 C  
HETATM   28  O   UNL     1     -10.289   5.510  71.372  1.00  0.00    -0.212 OA 
HETATM   29  C   UNL     1     -11.075   6.587  71.096  1.00  0.00    -0.282 C  
HETATM   30  O   UNL     1     -12.258   6.620  71.362  1.00  0.00    -0.347 OA 
ENDBRANCH   4  27
TORSDOF 1
ENDMDL
MODEL       12
REMARK 921   NORMALIZED FREE ENERGY PREDICTED BY IDOCK:   -6.76 KCAL/MOL
REMARK 922        TOTAL FREE ENERGY PREDICTED BY IDOCK:   -7.26 KCAL/MOL
REMARK 923 INTER-LIGAND FREE ENERGY PREDICTED BY IDOCK:   -7.11 KCAL/MOL
REMARK 924 INTRA-LIGAND FREE ENERGY PREDICTED BY IDOCK:   -0.15 KCAL/MOL
REMARK 927      BINDING AFFINITY PREDICTED BY RF-SCORE:    0.00 PKD
ROOT
HETATM    1  C   UNL     1      -8.806   6.350  68.771  1.00  0.00    -0.124 C  
HETATM    2  C   UNL     1      -9.039   5.856  70.511  1.00  0.00    -0.158 C  
HETATM    3  C   UNL     1      -8.025   7.569  69.223  1.00  0.00    -0.121 C  
HETATM    4  C   UNL     1      -9.798   4.507  70.775  1.00  0.00    -0.280 C  
HETATM    5  C   UNL     1      -9.087   8.595  69.588  1.00  0.00    -0.149 C  
HETATM    6  C   UNL     1      -7.731   5.773  71.387  1.00  0.00    -0.107 C  
HETATM    7  C   UNL     1      -9.568   8.856  68.202  1.00  0.00    -0.161 C  
HETATM    8  C   UNL     1     -11.025   6.773  67.173  1.00  0.00    -0.458 C  
HETATM    9  C   UNL     1     -10.416  10.075  67.826  1.00  0.00    -0.282 C  
HETATM   10  C   UNL     1      -9.690   7.454  67.561  1.00  0.00    -0.186 C  
HETATM   11  C   UNL     1      -9.120   7.882  66.105  1.00  0.00    -0.210 C  
HETATM   12  C   UNL     1     -10.065  11.122  68.853  1.00  0.00    -0.186 C  
HETATM   13  C   UNL     1      -9.903   9.216  65.456  1.00  0.00    -0.064 C  
HETATM   14  C   UNL     1     -10.426  12.522  68.497  1.00  0.00    -0.246 C  
HETATM   15  O   UNL     1     -10.690  10.854  70.106  1.00  0.00    -0.463 OA 
HETATM   16  H   UNL     1     -10.469  11.514  70.753  1.00  0.00     0.000 HD 
HETATM   17  C   UNL     1      -9.919  12.963  67.118  1.00  0.00    -0.240 C  
HETATM   18  C   UNL     1     -10.213  14.469  67.028  1.00  0.00    -0.262 C  
HETATM   19  C   UNL     1     -11.635  14.893  66.710  1.00  0.00    -0.269 C  
HETATM   20  O   UNL     1     -12.405  15.168  67.882  1.00  0.00    -0.420 OA 
HETATM   21  C   UNL     1     -12.369  13.933  65.779  1.00  0.00    -0.518 C  
HETATM   22  C   UNL     1     -11.986  12.402  65.841  1.00  0.00    -0.434 C  
HETATM   23  H   UNL     1     -13.295  15.433  67.683  1.00  0.00     0.000 HD 
HETATM   24  C   UNL     1     -10.461  12.040  65.968  1.00  0.00    -0.284 C  
HETATM   25  C   UNL     1      -9.799  12.403  64.622  1.00  0.00    -0.101 C  
HETATM   26  C   UNL     1      -9.952  10.509  66.391  1.00  0.00    -0.271 C  
ENDROOT
BRANCH   4  27
HETATM   27  C   UNL     1      -9.938   4.168  72.290  1.00  0.00    -0.240 C  
HETATM   28  O   UNL     1     -11.127   4.537  74.306  1.00  0.00    -0.277 OA 
HETATM   29  C   UNL     1     -11.023   4.929  73.006  1.00  0.00    -0.288 C  
HETATM   30  O   UNL     1     -11.737   5.781  72.520  1.00  0.00    -0.309 OA 
ENDBRANCH   4  27
TORSDOF 1
ENDMDL
MODEL       13
REMARK 921   NORMALIZED FREE ENERGY PREDICTED BY IDOCK:   -6.74 KCAL/MOL
REMARK 922        TOTAL FREE ENERGY PREDICTED BY IDOCK:   -7.24 KCAL/MOL
REMARK 923 INTER-LIGAND FREE ENERGY PREDICTED BY IDOCK:   -7.13 KCAL/MOL
REMARK 924 INTRA-LIGAND FREE ENERGY PREDICTED BY IDOCK:   -0.10 KCAL/MOL
REMARK 927      BINDING AFFINITY PREDICTED BY RF-SCORE:    0.00 PKD
ROOT
HETATM    1  C   UNL     1     -10.384  12.490  66.110  1.00  0.00    -0.274 C  
HETATM    2  C   UNL     1     -10.516  14.112  66.933  1.00  0.00    -0.272 C  
HETATM    3  C   UNL     1     -11.640  12.028  66.823  1.00  0.00    -0.391 C  
HETATM    4  C   UNL     1      -9.444  15.195  66.552  1.00  0.00    -0.308 C  
HETATM    5  C   UNL     1     -11.164  11.598  68.203  1.00  0.00    -0.325 C  
HETATM    6  C   UNL     1     -11.907  14.842  66.802  1.00  0.00    -0.187 C  
HETATM    7  C   UNL     1     -10.421  10.383  67.766  1.00  0.00    -0.268 C  
HETATM    8  C   UNL     1      -8.090  10.979  66.449  1.00  0.00    -0.166 C  
HETATM    9  C   UNL     1      -9.986   9.276  68.731  1.00  0.00    -0.193 C  
HETATM   10  C   UNL     1      -9.630  10.838  66.517  1.00  0.00    -0.217 C  
HETATM   11  C   UNL     1      -9.859   9.477  65.666  1.00  0.00    -0.343 C  
HETATM   12  C   UNL     1     -10.968   9.350  69.873  1.00  0.00    -0.229 C  
HETATM   13  C   UNL     1      -9.441   8.091  66.514  1.00  0.00    -0.278 C  
HETATM   14  C   UNL     1     -11.035   8.145  70.746  1.00  0.00    -0.261 C  
HETATM   15  O   UNL     1     -10.688  10.451  70.733  1.00  0.00    -0.379 OA 
HETATM   16  H   UNL     1     -11.306  10.498  71.452  1.00  0.00     0.000 HD 
HETATM   17  C   UNL     1     -11.235   6.832  69.978  1.00  0.00    -0.380 C  
HETATM   18  C   UNL     1     -11.477   5.757  71.049  1.00  0.00    -0.014 C  
HETATM   19  C   UNL     1     -10.269   5.212  71.789  1.00  0.00    -0.209 C  
HETATM   20  O   UNL     1     -10.026   5.890  73.024  1.00  0.00    -0.169 OA 
HETATM   21  C   UNL     1      -9.005   5.146  70.939  1.00  0.00    -0.162 C  
HETATM   22  C   UNL     1      -8.825   6.219  69.794  1.00  0.00    -0.140 C  
HETATM   23  H   UNL     1      -9.270   5.550  73.487  1.00  0.00     0.000 HD 
HETATM   24  C   UNL     1     -10.090   6.581  68.932  1.00  0.00    -0.183 C  
HETATM   25  C   UNL     1     -10.410   5.347  68.062  1.00  0.00    -0.215 C  
HETATM   26  C   UNL     1     -10.129   7.925  67.945  1.00  0.00    -0.240 C  
ENDROOT
BRANCH   4  27
HETATM   27  C   UNL     1      -9.646  16.548  67.300  1.00  0.00    -0.242 C  
HETATM   28  O   UNL     1      -9.188  18.871  67.359  1.00  0.00    -0.283 OA 
HETATM   29  C   UNL     1      -8.916  17.717  66.691  1.00  0.00    -0.265 C  
HETATM   30  O   UNL     1      -8.180  17.674  65.728  1.00  0.00    -0.543 OA 
ENDBRANCH   4  27
TORSDOF 1
ENDMDL
MODEL       14
REMARK 921   NORMALIZED FREE ENERGY PREDICTED BY IDOCK:   -6.70 KCAL/MOL
REMARK 922        TOTAL FREE ENERGY PREDICTED BY IDOCK:   -7.19 KCAL/MOL
REMARK 923 INTER-LIGAND FREE ENERGY PREDICTED BY IDOCK:   -7.09 KCAL/MOL
REMARK 924 INTRA-LIGAND FREE ENERGY PREDICTED BY IDOCK:   -0.10 KCAL/MOL
REMARK 927      BINDING AFFINITY PREDICTED BY RF-SCORE:    0.00 PKD
ROOT
HETATM    1  C   UNL     1      -8.835  11.125  65.867  1.00  0.00    -0.193 C  
HETATM    2  C   UNL     1     -10.321  11.998  65.270  1.00  0.00    -0.311 C  
HETATM    3  C   UNL     1      -9.606   9.818  65.869  1.00  0.00    -0.313 C  
HETATM    4  C   UNL     1     -10.177  13.534  64.976  1.00  0.00    -0.345 C  
HETATM    5  C   UNL     1     -10.379   9.829  67.180  1.00  0.00    -0.311 C  
HETATM    6  C   UNL     1     -11.010  11.394  63.987  1.00  0.00    -0.428 C  
HETATM    7  C   UNL     1      -9.204   9.661  68.081  1.00  0.00    -0.130 C  
HETATM    8  C   UNL     1      -7.656  11.919  68.240  1.00  0.00    -0.116 C  
HETATM    9  C   UNL     1      -9.330   9.238  69.548  1.00  0.00    -0.177 C  
HETATM   10  C   UNL     1      -8.142  10.636  67.523  1.00  0.00    -0.111 C  
HETATM   11  C   UNL     1      -6.873   9.652  67.747  1.00  0.00    -0.078 C  
HETATM   12  C   UNL     1     -10.617   8.455  69.617  1.00  0.00    -0.219 C  
HETATM   13  C   UNL     1      -6.776   9.046  69.308  1.00  0.00    -0.049 C  
HETATM   14  C   UNL     1     -10.783   7.588  70.816  1.00  0.00    -0.238 C  
HETATM   15  O   UNL     1     -11.753   9.316  69.586  1.00  0.00    -0.418 OA 
HETATM   16  H   UNL     1     -12.564   8.823  69.629  1.00  0.00     0.000 HD 
HETATM   17  C   UNL     1      -9.596   6.651  71.073  1.00  0.00    -0.178 C  
HETATM   18  C   UNL     1     -10.041   5.718  72.210  1.00  0.00    -0.216 C  
HETATM   19  C   UNL     1      -9.999   6.261  73.627  1.00  0.00    -0.207 C  
HETATM   20  O   UNL     1     -11.254   6.800  74.049  1.00  0.00    -0.253 OA 
HETATM   21  C   UNL     1      -8.863   7.247  73.874  1.00  0.00    -0.245 C  
HETATM   22  C   UNL     1      -8.375   8.135  72.662  1.00  0.00    -0.236 C  
HETATM   23  H   UNL     1     -11.228   7.140  74.935  1.00  0.00     0.000 HD 
HETATM   24  C   UNL     1      -8.250   7.440  71.256  1.00  0.00    -0.105 C  
HETATM   25  C   UNL     1      -7.056   6.467  71.341  1.00  0.00    -0.077 C  
HETATM   26  C   UNL     1      -8.092   8.321  69.850  1.00  0.00    -0.117 C  
ENDROOT
BRANCH   4  27
HETATM   27  C   UNL     1     -11.496  14.187  64.463  1.00  0.00    -0.380 C  
HETATM   28  O   UNL     1     -12.622  16.185  63.871  1.00  0.00    -0.703 OA 
HETATM   29  C   UNL     1     -11.462  15.691  64.384  1.00  0.00    -0.262 C  
HETATM   30  O   UNL     1     -10.537  16.402  64.716  1.00  0.00    -0.676 OA 
ENDBRANCH   4  27
TORSDOF 1
ENDMDL
MODEL       15
REMARK 921   NORMALIZED FREE ENERGY PREDICTED BY IDOCK:   -6.68 KCAL/MOL
REMARK 922        TOTAL FREE ENERGY PREDICTED BY IDOCK:   -7.18 KCAL/MOL
REMARK 923 INTER-LIGAND FREE ENERGY PREDICTED BY IDOCK:   -7.06 KCAL/MOL
REMARK 924 INTRA-LIGAND FREE ENERGY PREDICTED BY IDOCK:   -0.12 KCAL/MOL
REMARK 927      BINDING AFFINITY PREDICTED BY RF-SCORE:    0.00 PKD
ROOT
HETATM    1  C   UNL     1      -8.858   6.815  69.098  1.00  0.00    -0.134 C  
HETATM    2  C   UNL     1      -9.639   6.498  70.716  1.00  0.00    -0.190 C  
HETATM    3  C   UNL     1      -8.550   8.237  69.527  1.00  0.00    -0.134 C  
HETATM    4  C   UNL     1     -10.175   5.046  70.977  1.00  0.00    -0.283 C  
HETATM    5  C   UNL     1      -9.843   9.001  69.285  1.00  0.00    -0.179 C  
HETATM    6  C   UNL     1      -8.772   6.854  71.983  1.00  0.00    -0.126 C  
HETATM    7  C   UNL     1      -9.799   8.960  67.796  1.00  0.00    -0.208 C  
HETATM    8  C   UNL     1     -10.338   6.467  66.786  1.00  0.00    -0.279 C  
HETATM    9  C   UNL     1     -10.652   9.872  66.908  1.00  0.00    -0.248 C  
HETATM   10  C   UNL     1      -9.404   7.504  67.458  1.00  0.00    -0.157 C  
HETATM   11  C   UNL     1      -8.413   7.877  66.229  1.00  0.00    -0.139 C  
HETATM   12  C   UNL     1     -10.921  11.092  67.752  1.00  0.00    -0.262 C  
HETATM   13  C   UNL     1      -9.125   8.881  65.090  1.00  0.00    -0.157 C  
HETATM   14  C   UNL     1     -11.374  12.302  67.012  1.00  0.00    -0.395 C  
HETATM   15  O   UNL     1     -11.913  10.834  68.742  1.00  0.00    -0.620 OA 
HETATM   16  H   UNL     1     -12.083  11.603  69.274  1.00  0.00     0.000 HD 
HETATM   17  C   UNL     1     -10.472  12.682  65.831  1.00  0.00    -0.295 C  
HETATM   18  C   UNL     1     -10.985  14.043  65.336  1.00  0.00    -0.321 C  
HETATM   19  C   UNL     1     -12.231  14.055  64.469  1.00  0.00    -0.434 C  
HETATM   20  O   UNL     1     -13.426  14.271  65.223  1.00  0.00    -0.564 OA 
HETATM   21  C   UNL     1     -12.363  12.835  63.564  1.00  0.00    -0.559 C  
HETATM   22  C   UNL     1     -11.753  11.468  64.069  1.00  0.00    -0.226 C  
HETATM   23  H   UNL     1     -14.206  14.279  64.680  1.00  0.00     0.000 HD 
HETATM   24  C   UNL     1     -10.352  11.517  64.783  1.00  0.00    -0.341 C  
HETATM   25  C   UNL     1      -9.308  11.865  63.701  1.00  0.00     0.072 C  
HETATM   26  C   UNL     1      -9.766  10.227  65.662  1.00  0.00    -0.308 C  
ENDROOT
BRANCH   4  27
HETATM   27  C   UNL     1     -10.815   4.872  72.388  1.00  0.00    -0.204 C  
HETATM   28  O   UNL     1     -11.092   3.482  74.285  1.00  0.00    -0.072 OA 
HETATM   29  C   UNL     1     -10.556   3.537  73.035  1.00  0.00    -0.160 C  
HETATM   30  O   UNL     1      -9.947   2.611  72.541  1.00  0.00    -0.135 OA 
ENDBRANCH   4  27
TORSDOF 1
ENDMDL
MODEL       16
REMARK 921   NORMALIZED FREE ENERGY PREDICTED BY IDOCK:   -6.58 KCAL/MOL
REMARK 922        TOTAL FREE ENERGY PREDICTED BY IDOCK:   -7.07 KCAL/MOL
REMARK 923 INTER-LIGAND FREE ENERGY PREDICTED BY IDOCK:   -6.97 KCAL/MOL
REMARK 924 INTRA-LIGAND FREE ENERGY PREDICTED BY IDOCK:   -0.10 KCAL/MOL
REMARK 927      BINDING AFFINITY PREDICTED BY RF-SCORE:    0.00 PKD
ROOT
HETATM    1  C   UNL     1      -9.862  11.596  65.815  1.00  0.00    -0.268 C  
HETATM    2  C   UNL     1     -10.670  13.226  65.949  1.00  0.00    -0.284 C  
HETATM    3  C   UNL     1     -11.160  10.922  66.218  1.00  0.00    -0.038 C  
HETATM    4  C   UNL     1      -9.807  14.483  65.572  1.00  0.00    -0.320 C  
HETATM    5  C   UNL     1     -11.187  11.014  67.737  1.00  0.00    -0.374 C  
HETATM    6  C   UNL     1     -12.020  13.396  65.154  1.00  0.00    -0.406 C  
HETATM    7  C   UNL     1     -10.080  10.051  67.994  1.00  0.00    -0.197 C  
HETATM    8  C   UNL     1      -7.616  11.064  67.341  1.00  0.00    -0.110 C  
HETATM    9  C   UNL     1      -9.827   9.413  69.364  1.00  0.00    -0.183 C  
HETATM   10  C   UNL     1      -8.983  10.436  66.975  1.00  0.00    -0.150 C  
HETATM   11  C   UNL     1      -8.544   8.917  66.615  1.00  0.00    -0.130 C  
HETATM   12  C   UNL     1     -11.171   9.421  70.049  1.00  0.00    -0.190 C  
HETATM   13  C   UNL     1      -8.198   7.992  67.970  1.00  0.00    -0.129 C  
HETATM   14  C   UNL     1     -11.306   8.505  71.215  1.00  0.00    -0.325 C  
HETATM   15  O   UNL     1     -11.509  10.723  70.521  1.00  0.00    -0.313 OA 
HETATM   16  H   UNL     1     -12.355  10.728  70.953  1.00  0.00     0.000 HD 
HETATM   17  C   UNL     1     -10.886   7.059  70.921  1.00  0.00    -0.268 C  
HETATM   18  C   UNL     1     -11.285   6.249  72.165  1.00  0.00    -0.326 C  
HETATM   19  C   UNL     1     -10.381   6.331  73.381  1.00  0.00    -0.242 C  
HETATM   20  O   UNL     1     -10.806   7.321  74.320  1.00  0.00    -0.444 OA 
HETATM   21  C   UNL     1      -8.904   6.493  73.039  1.00  0.00    -0.135 C  
HETATM   22  C   UNL     1      -8.530   7.262  71.712  1.00  0.00    -0.116 C  
HETATM   23  H   UNL     1     -10.241   7.372  75.081  1.00  0.00     0.000 HD 
HETATM   24  C   UNL     1      -9.396   6.967  70.432  1.00  0.00    -0.159 C  
HETATM   25  C   UNL     1      -9.060   5.529  69.983  1.00  0.00    -0.160 C  
HETATM   26  C   UNL     1      -9.340   7.948  69.085  1.00  0.00    -0.154 C  
ENDROOT
BRANCH   4  27
HETATM   27  C   UNL     1     -10.586  15.826  65.710  1.00  0.00    -0.369 C  
HETATM   28  O   UNL     1     -10.461  18.184  65.891  1.00  0.00    -0.518 OA 
HETATM   29  C   UNL     1      -9.714  17.047  65.837  1.00  0.00    -0.142 C  
HETATM   30  O   UNL     1      -8.502  17.057  65.881  1.00  0.00    -0.519 OA 
ENDBRANCH   4  27
TORSDOF 1
ENDMDL
MODEL       17
REMARK 921   NORMALIZED FREE ENERGY PREDICTED BY IDOCK:   -6.54 KCAL/MOL
REMARK 922        TOTAL FREE ENERGY PREDICTED BY IDOCK:   -7.03 KCAL/MOL
REMARK 923 INTER-LIGAND FREE ENERGY PREDICTED BY IDOCK:   -6.83 KCAL/MOL
REMARK 924 INTRA-LIGAND FREE ENERGY PREDICTED BY IDOCK:   -0.19 KCAL/MOL
REMARK 927      BINDING AFFINITY PREDICTED BY RF-SCORE:    0.00 PKD
ROOT
HETATM    1  C   UNL     1     -11.426  10.609  68.340  1.00  0.00    -0.330 C  
HETATM    2  C   UNL     1     -10.485   9.205  69.026  1.00  0.00    -0.238 C  
HETATM    3  C   UNL     1     -10.391  10.763  67.241  1.00  0.00    -0.262 C  
HETATM    4  C   UNL     1     -11.102   8.475  70.272  1.00  0.00    -0.222 C  
HETATM    5  C   UNL     1      -9.265  11.563  67.881  1.00  0.00    -0.168 C  
HETATM    6  C   UNL     1     -10.119   8.056  68.011  1.00  0.00    -0.238 C  
HETATM    7  C   UNL     1     -10.002  12.853  67.990  1.00  0.00    -0.236 C  
HETATM    8  C   UNL     1     -11.935  12.811  69.936  1.00  0.00    -0.368 C  
HETATM    9  C   UNL     1      -9.306  14.195  68.239  1.00  0.00    -0.203 C  
HETATM   10  C   UNL     1     -11.398  12.461  68.527  1.00  0.00    -0.336 C  
HETATM   11  C   UNL     1     -12.233  13.501  67.605  1.00  0.00    -0.215 C  
HETATM   12  C   UNL     1      -7.912  14.015  67.694  1.00  0.00    -0.178 C  
HETATM   13  C   UNL     1     -11.664  15.075  67.706  1.00  0.00    -0.294 C  
HETATM   14  C   UNL     1      -7.154  15.270  67.434  1.00  0.00    -0.223 C  
HETATM   15  O   UNL     1      -7.104  13.234  68.571  1.00  0.00    -0.092 OA 
HETATM   16  H   UNL     1      -6.226  13.121  68.228  1.00  0.00     0.000 HD 
HETATM   17  C   UNL     1      -7.914  16.290  66.577  1.00  0.00    -0.326 C  
HETATM   18  C   UNL     1      -6.904  17.403  66.260  1.00  0.00    -0.307 C  
HETATM   19  C   UNL     1      -6.622  18.430  67.342  1.00  0.00    -0.192 C  
HETATM   20  O   UNL     1      -5.479  18.098  68.133  1.00  0.00    -0.158 OA 
HETATM   21  C   UNL     1      -7.828  18.745  68.220  1.00  0.00    -0.333 C  
HETATM   22  C   UNL     1      -8.890  17.601  68.460  1.00  0.00    -0.285 C  
HETATM   23  H   UNL     1      -5.302  18.741  68.810  1.00  0.00     0.000 HD 
HETATM   24  C   UNL     1      -9.282  16.703  67.229  1.00  0.00    -0.228 C  
HETATM   25  C   UNL     1     -10.097  17.592  66.266  1.00  0.00    -0.344 C  
HETATM   26  C   UNL     1     -10.105  15.265  67.415  1.00  0.00    -0.232 C  
ENDROOT
BRANCH   4  27
HETATM   27  C   UNL     1     -10.230   7.285  70.778  1.00  0.00    -0.204 C  
HETATM   28  O   UNL     1      -8.587   6.540  72.313  1.00  0.00    -0.123 OA 
HETATM   29  C   UNL     1      -9.267   7.638  71.881  1.00  0.00    -0.134 C  
HETATM   30  O   UNL     1      -9.097   8.742  72.353  1.00  0.00    -0.366 OA 
ENDBRANCH   4  27
TORSDOF 1
ENDMDL
MODEL       18
REMARK 921   NORMALIZED FREE ENERGY PREDICTED BY IDOCK:   -6.52 KCAL/MOL
REMARK 922        TOTAL FREE ENERGY PREDICTED BY IDOCK:   -7.00 KCAL/MOL
REMARK 923 INTER-LIGAND FREE ENERGY PREDICTED BY IDOCK:   -6.84 KCAL/MOL
REMARK 924 INTRA-LIGAND FREE ENERGY PREDICTED BY IDOCK:   -0.16 KCAL/MOL
REMARK 927      BINDING AFFINITY PREDICTED BY RF-SCORE:    0.00 PKD
ROOT
HETATM    1  C   UNL     1      -9.483  12.816  68.289  1.00  0.00    -0.203 C  
HETATM    2  C   UNL     1      -9.604  14.161  67.063  1.00  0.00    -0.264 C  
HETATM    3  C   UNL     1      -8.247  12.288  67.584  1.00  0.00    -0.166 C  
HETATM    4  C   UNL     1     -10.755  15.210  67.266  1.00  0.00    -0.305 C  
HETATM    5  C   UNL     1      -8.787  11.462  66.426  1.00  0.00    -0.193 C  
HETATM    6  C   UNL     1      -8.298  15.016  66.843  1.00  0.00    -0.247 C  
HETATM    7  C   UNL     1      -9.349  10.352  67.244  1.00  0.00    -0.164 C  
HETATM    8  C   UNL     1     -11.612  11.079  68.612  1.00  0.00    -0.385 C  
HETATM    9  C   UNL     1      -9.738   8.992  66.654  1.00  0.00    -0.295 C  
HETATM   10  C   UNL     1     -10.077  11.057  68.412  1.00  0.00    -0.194 C  
HETATM   11  C   UNL     1      -9.626  10.001  69.556  1.00  0.00    -0.249 C  
HETATM   12  C   UNL     1      -8.870   8.839  65.430  1.00  0.00    -0.178 C  
HETATM   13  C   UNL     1      -9.955   8.407  69.150  1.00  0.00    -0.197 C  
HETATM   14  C   UNL     1      -8.742   7.454  64.899  1.00  0.00     0.250 C  
HETATM   15  O   UNL     1      -9.344   9.639  64.351  1.00  0.00    -0.366 OA 
HETATM   16  H   UNL     1      -8.798   9.542  63.579  1.00  0.00     0.000 HD 
HETATM   17  C   UNL     1      -8.332   6.419  65.954  1.00  0.00    -0.143 C  
HETATM   18  C   UNL     1      -8.062   5.119  65.179  1.00  0.00    -0.118 C  
HETATM   19  C   UNL     1      -9.260   4.294  64.746  1.00  0.00    -0.156 C  
HETATM   20  O   UNL     1      -9.680   4.590  63.412  1.00  0.00    -0.335 OA 
HETATM   21  C   UNL     1     -10.431   4.351  65.720  1.00  0.00    -0.211 C  
HETATM   22  C   UNL     1     -10.633   5.674  66.560  1.00  0.00    -0.320 C  
HETATM   23  H   UNL     1     -10.430   4.073  63.141  1.00  0.00     0.000 HD 
HETATM   24  C   UNL     1      -9.348   6.362  67.151  1.00  0.00    -0.133 C  
HETATM   25  C   UNL     1      -8.819   5.441  68.270  1.00  0.00    -0.105 C  
HETATM   26  C   UNL     1      -9.377   7.920  67.743  1.00  0.00    -0.153 C  
ENDROOT
BRANCH   4  27
HETATM   27  C   UNL     1     -10.770  16.324  66.175  1.00  0.00    -0.198 C  
HETATM   28  O   UNL     1     -11.428  16.951  63.987  1.00  0.00    -1.130 OA 
HETATM   29  C   UNL     1     -11.394  15.912  64.867  1.00  0.00    -0.256 C  
HETATM   30  O   UNL     1     -11.829  14.812  64.600  1.00  0.00    -0.420 OA 
ENDBRANCH   4  27
TORSDOF 1
ENDMDL
MODEL       19
REMARK 921   NORMALIZED FREE ENERGY PREDICTED BY IDOCK:   -6.50 KCAL/MOL
REMARK 922        TOTAL FREE ENERGY PREDICTED BY IDOCK:   -6.98 KCAL/MOL
REMARK 923 INTER-LIGAND FREE ENERGY PREDICTED BY IDOCK:   -6.86 KCAL/MOL
REMARK 924 INTRA-LIGAND FREE ENERGY PREDICTED BY IDOCK:   -0.12 KCAL/MOL
REMARK 927      BINDING AFFINITY PREDICTED BY RF-SCORE:    0.00 PKD
ROOT
HETATM    1  C   UNL     1     -10.463  10.068  67.864  1.00  0.00    -0.276 C  
HETATM    2  C   UNL     1      -9.447   8.998  68.936  1.00  0.00    -0.151 C  
HETATM    3  C   UNL     1      -9.209  10.559  67.167  1.00  0.00    -0.158 C  
HETATM    4  C   UNL     1     -10.208   8.081  69.958  1.00  0.00    -0.205 C  
HETATM    5  C   UNL     1      -8.660  11.645  68.080  1.00  0.00    -0.158 C  
HETATM    6  C   UNL     1      -8.433   8.043  68.198  1.00  0.00    -0.123 C  
HETATM    7  C   UNL     1      -9.735  12.646  67.833  1.00  0.00    -0.216 C  
HETATM    8  C   UNL     1     -12.114  11.966  69.016  1.00  0.00    -0.245 C  
HETATM    9  C   UNL     1      -9.595  14.129  68.192  1.00  0.00    -0.218 C  
HETATM   10  C   UNL     1     -11.049  11.834  67.901  1.00  0.00    -0.302 C  
HETATM   11  C   UNL     1     -11.783  12.596  66.673  1.00  0.00    -0.464 C  
HETATM   12  C   UNL     1      -8.111  14.397  68.161  1.00  0.00    -0.137 C  
HETATM   13  C   UNL     1     -11.774  14.265  66.832  1.00  0.00    -0.430 C  
HETATM   14  C   UNL     1      -7.715  15.829  68.070  1.00  0.00    -0.136 C  
HETATM   15  O   UNL     1      -7.462  13.875  69.318  1.00  0.00    -0.300 OA 
HETATM   16  H   UNL     1      -6.527  14.044  69.298  1.00  0.00     0.000 HD 
HETATM   17  C   UNL     1      -8.400  16.592  66.929  1.00  0.00    -0.243 C  
HETATM   18  C   UNL     1      -7.718  17.969  66.880  1.00  0.00    -0.245 C  
HETATM   19  C   UNL     1      -8.140  19.003  67.908  1.00  0.00    -0.278 C  
HETATM   20  O   UNL     1      -7.294  19.013  69.060  1.00  0.00    -0.329 OA 
HETATM   21  C   UNL     1      -9.610  18.913  68.304  1.00  0.00    -0.401 C  
HETATM   22  C   UNL     1     -10.303  17.493  68.266  1.00  0.00    -0.379 C  
HETATM   23  H   UNL     1      -7.558  19.660  69.703  1.00  0.00     0.000 HD 
HETATM   24  C   UNL     1      -9.966  16.553  67.051  1.00  0.00    -0.268 C  
HETATM   25  C   UNL     1     -10.624  17.178  65.803  1.00  0.00    -0.201 C  
HETATM   26  C   UNL     1     -10.340  14.928  67.065  1.00  0.00    -0.264 C  
ENDROOT
BRANCH   4  27
HETATM   27  C   UNL     1      -9.255   7.199  70.821  1.00  0.00    -0.157 C  
HETATM   28  O   UNL     1      -8.640   5.013  71.495  1.00  0.00    -0.120 OA 
HETATM   29  C   UNL     1      -9.548   5.723  70.770  1.00  0.00    -0.171 C  
HETATM   30  O   UNL     1     -10.459   5.197  70.165  1.00  0.00    -0.286 OA 
ENDBRANCH   4  27
TORSDOF 1
ENDMDL
MODEL       20
REMARK 921   NORMALIZED FREE ENERGY PREDICTED BY IDOCK:   -6.50 KCAL/MOL
REMARK 922        TOTAL FREE ENERGY PREDICTED BY IDOCK:   -6.98 KCAL/MOL
REMARK 923 INTER-LIGAND FREE ENERGY PREDICTED BY IDOCK:   -6.80 KCAL/MOL
REMARK 924 INTRA-LIGAND FREE ENERGY PREDICTED BY IDOCK:   -0.18 KCAL/MOL
REMARK 927      BINDING AFFINITY PREDICTED BY RF-SCORE:    0.00 PKD
ROOT
HETATM    1  C   UNL     1      -8.149  10.315  66.403  1.00  0.00    -0.123 C  
HETATM    2  C   UNL     1      -9.410  10.481  65.095  1.00  0.00    -0.262 C  
HETATM    3  C   UNL     1      -8.225   8.805  66.282  1.00  0.00    -0.115 C  
HETATM    4  C   UNL     1      -9.790  11.938  64.651  1.00  0.00    -0.207 C  
HETATM    5  C   UNL     1      -9.436   8.412  67.114  1.00  0.00    -0.209 C  
HETATM    6  C   UNL     1      -9.123   9.701  63.755  1.00  0.00    -0.220 C  
HETATM    7  C   UNL     1      -8.850   8.730  68.446  1.00  0.00    -0.138 C  
HETATM    8  C   UNL     1      -8.622  11.427  68.892  1.00  0.00    -0.020 C  
HETATM    9  C   UNL     1      -9.443   8.222  69.764  1.00  0.00    -0.163 C  
HETATM   10  C   UNL     1      -8.155  10.097  68.251  1.00  0.00    -0.102 C  
HETATM   11  C   UNL     1      -6.850   9.756  69.151  1.00  0.00    -0.054 C  
HETATM   12  C   UNL     1     -10.172   6.954  69.398  1.00  0.00    -0.182 C  
HETATM   13  C   UNL     1      -7.235   9.176  70.677  1.00  0.00    -0.106 C  
HETATM   14  C   UNL     1     -10.494   6.044  70.531  1.00  0.00    -0.303 C  
HETATM   15  O   UNL     1     -11.408   7.232  68.745  1.00  0.00    -0.443 OA 
HETATM   16  H   UNL     1     -11.868   6.434  68.515  1.00  0.00     0.000 HD 
HETATM   17  C   UNL     1      -9.289   5.707  71.419  1.00  0.00    -0.169 C  
HETATM   18  C   UNL     1      -9.776   4.618  72.387  1.00  0.00    -0.207 C  
HETATM   19  C   UNL     1     -10.611   5.054  73.578  1.00  0.00    -0.256 C  
HETATM   20  O   UNL     1     -12.015   4.970  73.328  1.00  0.00    -0.493 OA 
HETATM   21  C   UNL     1     -10.228   6.424  74.128  1.00  0.00    -0.361 C  
HETATM   22  C   UNL     1      -9.655   7.494  73.118  1.00  0.00    -0.286 C  
HETATM   23  H   UNL     1     -12.537   5.243  74.074  1.00  0.00     0.000 HD 
HETATM   24  C   UNL     1      -8.631   6.994  72.033  1.00  0.00    -0.123 C  
HETATM   25  C   UNL     1      -7.327   6.637  72.776  1.00  0.00    -0.084 C  
HETATM   26  C   UNL     1      -8.226   7.925  70.710  1.00  0.00    -0.110 C  
ENDROOT
BRANCH   4  27
HETATM   27  C   UNL     1     -10.867  11.974  63.524  1.00  0.00    -0.509 C  
HETATM   28  O   UNL     1     -13.133  12.365  62.956  1.00  0.00    -0.442 OA 
HETATM   29  C   UNL     1     -12.262  12.290  63.999  1.00  0.00    -0.475 C  
HETATM   30  O   UNL     1     -12.600  12.468  65.150  1.00  0.00    -0.631 OA 
ENDBRANCH   4  27
TORSDOF 1
ENDMDL
MODEL       21
REMARK 921   NORMALIZED FREE ENERGY PREDICTED BY IDOCK:   -6.26 KCAL/MOL
REMARK 922        TOTAL FREE ENERGY PREDICTED BY IDOCK:   -6.73 KCAL/MOL
REMARK 923 INTER-LIGAND FREE ENERGY PREDICTED BY IDOCK:   -6.55 KCAL/MOL
REMARK 924 INTRA-LIGAND FREE ENERGY PREDICTED BY IDOCK:   -0.18 KCAL/MOL
REMARK 927      BINDING AFFINITY PREDICTED BY RF-SCORE:    0.00 PKD
ROOT
HETATM    1  C   UNL     1     -11.035  15.648  67.003  1.00  0.00    -0.261 C  
HETATM    2  C   UNL     1      -9.980  17.075  67.424  1.00  0.00    -0.278 C  
HETATM    3  C   UNL     1     -10.751  15.039  68.364  1.00  0.00    -0.245 C  
HETATM    4  C   UNL     1      -9.877  18.225  66.359  1.00  0.00    -0.358 C  
HETATM    5  C   UNL     1      -9.403  14.353  68.205  1.00  0.00    -0.206 C  
HETATM    6  C   UNL     1     -10.309  17.800  68.785  1.00  0.00    -0.332 C  
HETATM    7  C   UNL     1      -9.864  13.257  67.308  1.00  0.00    -0.233 C  
HETATM    8  C   UNL     1     -10.433  14.128  64.771  1.00  0.00    -0.432 C  
HETATM    9  C   UNL     1      -9.046  11.987  67.050  1.00  0.00    -0.191 C  
HETATM   10  C   UNL     1     -10.772  13.957  66.271  1.00  0.00    -0.285 C  
HETATM   11  C   UNL     1     -11.893  12.787  66.208  1.00  0.00    -0.485 C  
HETATM   12  C   UNL     1      -8.188  11.823  68.279  1.00  0.00    -0.157 C  
HETATM   13  C   UNL     1     -11.244  11.267  65.923  1.00  0.00    -0.096 C  
HETATM   14  C   UNL     1      -7.600  10.470  68.480  1.00  0.00    -0.097 C  
HETATM   15  O   UNL     1      -7.095  12.738  68.278  1.00  0.00    -0.086 OA 
HETATM   16  H   UNL     1      -6.553  12.635  69.052  1.00  0.00     0.000 HD 
HETATM   17  C   UNL     1      -8.625   9.331  68.413  1.00  0.00    -0.124 C  
HETATM   18  C   UNL     1      -7.867   8.063  68.839  1.00  0.00    -0.113 C  
HETATM   19  C   UNL     1      -6.969   7.399  67.811  1.00  0.00    -0.076 C  
HETATM   20  O   UNL     1      -5.608   7.824  67.911  1.00  0.00    -0.030 OA 
HETATM   21  C   UNL     1      -7.480   7.516  66.379  1.00  0.00    -0.084 C  
HETATM   22  C   UNL     1      -8.324   8.795  65.996  1.00  0.00    -0.130 C  
HETATM   23  H   UNL     1      -5.045   7.408  67.268  1.00  0.00     0.000 HD 
HETATM   24  C   UNL     1      -9.386   9.304  67.039  1.00  0.00    -0.183 C  
HETATM   25  C   UNL     1     -10.523   8.261  67.068  1.00  0.00    -0.384 C  
HETATM   26  C   UNL     1     -10.082  10.815  66.921  1.00  0.00    -0.255 C  
ENDROOT
BRANCH   4  27
HETATM   27  C   UNL     1      -8.961  19.402  66.814  1.00  0.00    -0.373 C  
HETATM   28  O   UNL     1      -6.895  20.528  66.547  1.00  0.00    -0.242 OA 
HETATM   29  C   UNL     1      -7.612  19.442  66.147  1.00  0.00    -0.297 C  
HETATM   30  O   UNL     1      -7.188  18.635  65.347  1.00  0.00    -0.520 OA 
ENDBRANCH   4  27
TORSDOF 1
ENDMDL
MODEL       22
REMARK 921   NORMALIZED FREE ENERGY PREDICTED BY IDOCK:   -6.22 KCAL/MOL
REMARK 922        TOTAL FREE ENERGY PREDICTED BY IDOCK:   -6.69 KCAL/MOL
REMARK 923 INTER-LIGAND FREE ENERGY PREDICTED BY IDOCK:   -6.54 KCAL/MOL
REMARK 924 INTRA-LIGAND FREE ENERGY PREDICTED BY IDOCK:   -0.15 KCAL/MOL
REMARK 927      BINDING AFFINITY PREDICTED BY RF-SCORE:    0.00 PKD
ROOT
HETATM    1  C   UNL     1      -9.569   6.009  68.783  1.00  0.00    -0.148 C  
HETATM    2  C   UNL     1      -8.808   4.842  67.606  1.00  0.00    -0.107 C  
HETATM    3  C   UNL     1     -10.668   6.302  67.779  1.00  0.00    -0.383 C  
HETATM    4  C   UNL     1      -7.530   4.069  68.093  1.00  0.00    -0.067 C  
HETATM    5  C   UNL     1     -10.062   7.330  66.834  1.00  0.00    -0.317 C  
HETATM    6  C   UNL     1      -9.761   3.735  67.014  1.00  0.00    -0.149 C  
HETATM    7  C   UNL     1     -10.022   8.461  67.802  1.00  0.00    -0.236 C  
HETATM    8  C   UNL     1      -8.089   8.149  69.722  1.00  0.00    -0.116 C  
HETATM    9  C   UNL     1      -9.837   9.921  67.375  1.00  0.00    -0.223 C  
HETATM   10  C   UNL     1      -9.475   7.839  69.108  1.00  0.00    -0.151 C  
HETATM   11  C   UNL     1     -10.453   8.657  70.109  1.00  0.00    -0.228 C  
HETATM   12  C   UNL     1     -10.364   9.981  65.964  1.00  0.00    -0.152 C  
HETATM   13  C   UNL     1     -10.428  10.314  69.848  1.00  0.00    -0.304 C  
HETATM   14  C   UNL     1     -10.682  11.343  65.451  1.00  0.00    -0.313 C  
HETATM   15  O   UNL     1      -9.444   9.410  65.037  1.00  0.00    -0.398 OA 
HETATM   16  H   UNL     1      -9.776   9.449  64.148  1.00  0.00     0.000 HD 
HETATM   17  C   UNL     1     -11.594  12.158  66.377  1.00  0.00    -0.429 C  
HETATM   18  C   UNL     1     -11.961  13.426  65.590  1.00  0.00    -0.439 C  
HETATM   19  C   UNL     1     -10.930  14.538  65.523  1.00  0.00    -0.335 C  
HETATM   20  O   UNL     1     -10.116  14.467  64.350  1.00  0.00    -0.610 OA 
HETATM   21  C   UNL     1     -10.076  14.662  66.780  1.00  0.00    -0.266 C  
HETATM   22  C   UNL     1      -9.785  13.351  67.611  1.00  0.00    -0.222 C  
HETATM   23  H   UNL     1      -9.471  15.163  64.308  1.00  0.00     0.000 HD 
HETATM   24  C   UNL     1     -10.972  12.337  67.808  1.00  0.00    -0.274 C  
HETATM   25  C   UNL     1     -11.983  13.009  68.761  1.00  0.00    -0.302 C  
HETATM   26  C   UNL     1     -10.719  10.780  68.348  1.00  0.00    -0.255 C  
ENDROOT
BRANCH   4  27
HETATM   27  C   UNL     1      -6.959   3.091  67.021  1.00  0.00    -0.049 C  
HETATM   28  O   UNL     1      -5.636   2.832  65.074  1.00  0.00    -0.012 OA 
HETATM   29  C   UNL     1      -6.152   3.752  65.935  1.00  0.00    -0.028 C  
HETATM   30  O   UNL     1      -5.957   4.943  65.816  1.00  0.00    -0.021 OA 
ENDBRANCH   4  27
TORSDOF 1
ENDMDL
MODEL       23
REMARK 921   NORMALIZED FREE ENERGY PREDICTED BY IDOCK:   -6.11 KCAL/MOL
REMARK 922        TOTAL FREE ENERGY PREDICTED BY IDOCK:   -6.57 KCAL/MOL
REMARK 923 INTER-LIGAND FREE ENERGY PREDICTED BY IDOCK:   -6.39 KCAL/MOL
REMARK 924 INTRA-LIGAND FREE ENERGY PREDICTED BY IDOCK:   -0.19 KCAL/MOL
REMARK 927      BINDING AFFINITY PREDICTED BY RF-SCORE:    0.00 PKD
ROOT
HETATM    1  C   UNL     1      -9.644  11.988  68.676  1.00  0.00    -0.087 C  
HETATM    2  C   UNL     1      -9.988  12.984  67.188  1.00  0.00    -0.235 C  
HETATM    3  C   UNL     1      -8.360  11.487  68.043  1.00  0.00    -0.146 C  
HETATM    4  C   UNL     1     -11.275  13.883  67.212  1.00  0.00    -0.329 C  
HETATM    5  C   UNL     1      -8.797  10.350  67.131  1.00  0.00    -0.141 C  
HETATM    6  C   UNL     1      -8.826  13.937  66.710  1.00  0.00    -0.170 C  
HETATM    7  C   UNL     1      -9.172   9.392  68.208  1.00  0.00    -0.133 C  
HETATM    8  C   UNL     1     -11.488  10.096  69.499  1.00  0.00    -0.227 C  
HETATM    9  C   UNL     1      -9.370   7.892  67.962  1.00  0.00    -0.152 C  
HETATM   10  C   UNL     1      -9.971  10.240  69.225  1.00  0.00    -0.244 C  
HETATM   11  C   UNL     1      -9.345   9.549  70.552  1.00  0.00    -0.296 C  
HETATM   12  C   UNL     1      -8.516   7.582  66.759  1.00  0.00    -0.124 C  
HETATM   13  C   UNL     1      -9.446   7.875  70.533  1.00  0.00    -0.162 C  
HETATM   14  C   UNL     1      -8.198   6.143  66.547  1.00  0.00    -0.111 C  
HETATM   15  O   UNL     1      -9.126   8.039  65.554  1.00  0.00    -0.385 OA 
HETATM   16  H   UNL     1      -8.588   7.843  64.796  1.00  0.00     0.000 HD 
HETATM   17  C   UNL     1      -7.617   5.446  67.784  1.00  0.00    -0.088 C  
HETATM   18  C   UNL     1      -7.176   4.053  67.308  1.00  0.00    -0.068 C  
HETATM   19  C   UNL     1      -8.249   2.993  67.138  1.00  0.00    -0.084 C  
HETATM   20  O   UNL     1      -8.737   2.912  65.797  1.00  0.00    -0.116 OA 
HETATM   21  C   UNL     1      -9.395   3.111  68.137  1.00  0.00    -0.247 C  
HETATM   22  C   UNL     1      -9.771   4.551  68.667  1.00  0.00    -0.203 C  
HETATM   23  H   UNL     1      -9.408   2.248  65.690  1.00  0.00     0.000 HD 
HETATM   24  C   UNL     1      -8.588   5.528  69.016  1.00  0.00    -0.103 C  
HETATM   25  C   UNL     1      -7.906   4.972  70.284  1.00  0.00    -0.070 C  
HETATM   26  C   UNL     1      -8.833   7.161  69.243  1.00  0.00    -0.136 C  
ENDROOT
BRANCH   4  27
HETATM   27  C   UNL     1     -11.477  14.701  65.900  1.00  0.00    -0.338 C  
HETATM   28  O   UNL     1     -12.628  14.896  63.840  1.00  0.00    -0.831 OA 
HETATM   29  C   UNL     1     -12.458  14.098  64.929  1.00  0.00    -0.401 C  
HETATM   30  O   UNL     1     -13.045  13.046  65.069  1.00  0.00    -0.761 OA 
ENDBRANCH   4  27
TORSDOF 1
ENDMDL
MODEL       24
REMARK 921   NORMALIZED FREE ENERGY PREDICTED BY IDOCK:   -6.09 KCAL/MOL
REMARK 922        TOTAL FREE ENERGY PREDICTED BY IDOCK:   -6.55 KCAL/MOL
REMARK 923 INTER-LIGAND FREE ENERGY PREDICTED BY IDOCK:   -6.36 KCAL/MOL
REMARK 924 INTRA-LIGAND FREE ENERGY PREDICTED BY IDOCK:   -0.18 KCAL/MOL
REMARK 927      BINDING AFFINITY PREDICTED BY RF-SCORE:    0.00 PKD
ROOT
HETATM    1  C   UNL     1      -8.245  10.019  66.709  1.00  0.00    -0.121 C  
HETATM    2  C   UNL     1      -9.684  10.767  65.873  1.00  0.00    -0.272 C  
HETATM    3  C   UNL     1      -8.812   8.637  66.443  1.00  0.00    -0.167 C  
HETATM    4  C   UNL     1      -9.696  12.331  65.738  1.00  0.00    -0.228 C  
HETATM    5  C   UNL     1      -9.831   8.417  67.551  1.00  0.00    -0.235 C  
HETATM    6  C   UNL     1     -10.004  10.224  64.429  1.00  0.00    -0.331 C  
HETATM    7  C   UNL     1      -8.855   8.297  68.670  1.00  0.00    -0.133 C  
HETATM    8  C   UNL     1      -7.700  10.694  69.336  1.00  0.00    -0.132 C  
HETATM    9  C   UNL     1      -9.219   7.709  70.038  1.00  0.00    -0.151 C  
HETATM   10  C   UNL     1      -7.846   9.444  68.433  1.00  0.00    -0.090 C  
HETATM   11  C   UNL     1      -6.526   8.600  68.850  1.00  0.00    -0.049 C  
HETATM   12  C   UNL     1     -10.372   6.777  69.764  1.00  0.00    -0.201 C  
HETATM   13  C   UNL     1      -6.668   7.848  70.343  1.00  0.00    -0.038 C  
HETATM   14  C   UNL     1     -10.658   5.775  70.827  1.00  0.00    -0.337 C  
HETATM   15  O   UNL     1     -11.585   7.495  69.554  1.00  0.00    -0.429 OA 
HETATM   16  H   UNL     1     -12.311   6.907  69.382  1.00  0.00     0.000 HD 
HETATM   17  C   UNL     1      -9.431   4.963  71.263  1.00  0.00    -0.214 C  
HETATM   18  C   UNL     1      -9.967   3.869  72.200  1.00  0.00    -0.243 C  
HETATM   19  C   UNL     1     -10.292   4.262  73.630  1.00  0.00    -0.180 C  
HETATM   20  O   UNL     1     -11.669   4.601  73.810  1.00  0.00    -0.318 OA 
HETATM   21  C   UNL     1      -9.378   5.344  74.194  1.00  0.00    -0.134 C  
HETATM   22  C   UNL     1      -8.780   6.407  73.189  1.00  0.00    -0.125 C  
HETATM   23  H   UNL     1     -11.872   4.846  74.704  1.00  0.00     0.000 HD 
HETATM   24  C   UNL     1      -8.274   5.883  71.794  1.00  0.00    -0.119 C  
HETATM   25  C   UNL     1      -6.999   5.055  72.061  1.00  0.00    -0.066 C  
HETATM   26  C   UNL     1      -7.954   6.920  70.528  1.00  0.00    -0.114 C  
ENDROOT
BRANCH   4  27
HETATM   27  C   UNL     1     -10.959  12.874  65.003  1.00  0.00    -0.324 C  
HETATM   28  O   UNL     1     -13.202  13.611  65.191  1.00  0.00    -0.739 OA 
HETATM   29  C   UNL     1     -12.161  13.079  65.888  1.00  0.00    -0.444 C  
HETATM   30  O   UNL     1     -12.226  12.824  67.072  1.00  0.00    -0.431 OA 
ENDBRANCH   4  27
TORSDOF 1
ENDMDL
MODEL       25
REMARK 921   NORMALIZED FREE ENERGY PREDICTED BY IDOCK:   -6.08 KCAL/MOL
REMARK 922        TOTAL FREE ENERGY PREDICTED BY IDOCK:   -6.54 KCAL/MOL
REMARK 923 INTER-LIGAND FREE ENERGY PREDICTED BY IDOCK:   -6.44 KCAL/MOL
REMARK 924 INTRA-LIGAND FREE ENERGY PREDICTED BY IDOCK:   -0.10 KCAL/MOL
REMARK 927      BINDING AFFINITY PREDICTED BY RF-SCORE:    0.00 PKD
ROOT
HETATM    1  C   UNL     1     -11.100  10.753  66.984  1.00  0.00    -0.245 C  
HETATM    2  C   UNL     1     -10.648  12.515  67.117  1.00  0.00    -0.247 C  
HETATM    3  C   UNL     1     -11.520  10.752  68.442  1.00  0.00    -0.358 C  
HETATM    4  C   UNL     1     -10.141  13.222  65.810  1.00  0.00    -0.293 C  
HETATM    5  C   UNL     1     -10.223  10.574  69.217  1.00  0.00    -0.245 C  
HETATM    6  C   UNL     1     -11.757  13.471  67.702  1.00  0.00    -0.398 C  
HETATM    7  C   UNL     1      -9.970   9.160  68.820  1.00  0.00    -0.188 C  
HETATM    8  C   UNL     1      -9.184   8.916  66.204  1.00  0.00    -0.273 C  
HETATM    9  C   UNL     1      -8.979   8.250  69.553  1.00  0.00    -0.150 C  
HETATM   10  C   UNL     1     -10.256   9.125  67.301  1.00  0.00    -0.319 C  
HETATM   11  C   UNL     1     -10.992   7.680  67.300  1.00  0.00    -0.122 C  
HETATM   12  C   UNL     1      -8.911   8.801  70.955  1.00  0.00    -0.217 C  
HETATM   13  C   UNL     1     -10.093   6.481  68.053  1.00  0.00    -0.168 C  
HETATM   14  C   UNL     1      -8.349   7.883  71.983  1.00  0.00    -0.161 C  
HETATM   15  O   UNL     1      -8.129   9.991  71.010  1.00  0.00    -0.257 OA 
HETATM   16  H   UNL     1      -8.085  10.338  71.894  1.00  0.00     0.000 HD 
HETATM   17  C   UNL     1      -9.007   6.498  72.006  1.00  0.00    -0.140 C  
HETATM   18  C   UNL     1      -8.438   5.787  73.244  1.00  0.00    -0.116 C  
HETATM   19  C   UNL     1      -7.046   5.191  73.138  1.00  0.00    -0.085 C  
HETATM   20  O   UNL     1      -6.029   6.078  73.612  1.00  0.00    -0.058 OA 
HETATM   21  C   UNL     1      -6.709   4.657  71.750  1.00  0.00    -0.038 C  
HETATM   22  C   UNL     1      -7.375   5.361  70.503  1.00  0.00    -0.071 C  
HETATM   23  H   UNL     1      -5.158   5.705  73.545  1.00  0.00     0.000 HD 
HETATM   24  C   UNL     1      -8.890   5.767  70.621  1.00  0.00    -0.145 C  
HETATM   25  C   UNL     1      -9.707   4.458  70.626  1.00  0.00    -0.283 C  
HETATM   26  C   UNL     1      -9.609   6.812  69.538  1.00  0.00    -0.148 C  
ENDROOT
BRANCH   4  27
HETATM   27  C   UNL     1      -9.788  14.726  66.023  1.00  0.00    -0.350 C  
HETATM   28  O   UNL     1     -10.271  16.976  65.464  1.00  0.00    -0.589 OA 
HETATM   29  C   UNL     1     -10.589  15.683  65.180  1.00  0.00    -0.424 C  
HETATM   30  O   UNL     1     -11.422  15.379  64.352  1.00  0.00    -0.355 OA 
ENDBRANCH   4  27
TORSDOF 1
ENDMDL
MODEL       26
REMARK 921   NORMALIZED FREE ENERGY PREDICTED BY IDOCK:   -6.07 KCAL/MOL
REMARK 922        TOTAL FREE ENERGY PREDICTED BY IDOCK:   -6.52 KCAL/MOL
REMARK 923 INTER-LIGAND FREE ENERGY PREDICTED BY IDOCK:   -6.40 KCAL/MOL
REMARK 924 INTRA-LIGAND FREE ENERGY PREDICTED BY IDOCK:   -0.12 KCAL/MOL
REMARK 927      BINDING AFFINITY PREDICTED BY RF-SCORE:    0.00 PKD
ROOT
HETATM    1  C   UNL     1     -10.246  10.190  65.866  1.00  0.00    -0.281 C  
HETATM    2  C   UNL     1      -9.236   8.862  66.603  1.00  0.00    -0.215 C  
HETATM    3  C   UNL     1      -8.989  10.842  65.322  1.00  0.00    -0.202 C  
HETATM    4  C   UNL     1     -10.003   7.709  67.342  1.00  0.00    -0.252 C  
HETATM    5  C   UNL     1      -8.428  11.636  66.493  1.00  0.00    -0.141 C  
HETATM    6  C   UNL     1      -8.233   8.135  65.629  1.00  0.00    -0.133 C  
HETATM    7  C   UNL     1      -9.495  12.675  66.531  1.00  0.00    -0.247 C  
HETATM    8  C   UNL     1     -11.877  11.718  67.497  1.00  0.00    -0.227 C  
HETATM    9  C   UNL     1      -9.341  14.004  67.278  1.00  0.00    -0.230 C  
HETATM   10  C   UNL     1     -10.816  11.885  66.382  1.00  0.00    -0.318 C  
HETATM   11  C   UNL     1     -11.547  12.957  65.410  1.00  0.00    -0.386 C  
HETATM   12  C   UNL     1      -7.855  14.259  67.313  1.00  0.00    -0.147 C  
HETATM   13  C   UNL     1     -11.522  14.521  66.015  1.00  0.00    -0.348 C  
HETATM   14  C   UNL     1      -7.447  15.659  67.613  1.00  0.00    -0.186 C  
HETATM   15  O   UNL     1      -7.208  13.438  68.283  1.00  0.00    -0.090 OA 
HETATM   16  H   UNL     1      -6.272  13.599  68.305  1.00  0.00     0.000 HD 
HETATM   17  C   UNL     1      -8.128  16.708  66.724  1.00  0.00    -0.281 C  
HETATM   18  C   UNL     1      -7.434  18.041  67.047  1.00  0.00    -0.228 C  
HETATM   19  C   UNL     1      -7.845  18.761  68.319  1.00  0.00    -0.305 C  
HETATM   20  O   UNL     1      -6.996  18.452  69.426  1.00  0.00    -0.221 OA 
HETATM   21  C   UNL     1      -9.315  18.578  68.681  1.00  0.00    -0.352 C  
HETATM   22  C   UNL     1     -10.019  17.228  68.264  1.00  0.00    -0.313 C  
HETATM   23  H   UNL     1      -7.253  18.902  70.222  1.00  0.00     0.000 HD 
HETATM   24  C   UNL     1      -9.694  16.649  66.838  1.00  0.00    -0.261 C  
HETATM   25  C   UNL     1     -10.349  17.594  65.809  1.00  0.00    -0.194 C  
HETATM   26  C   UNL     1     -10.082  15.084  66.413  1.00  0.00    -0.289 C  
ENDROOT
BRANCH   4  27
HETATM   27  C   UNL     1      -9.055   6.619  67.929  1.00  0.00    -0.114 C  
HETATM   28  O   UNL     1      -8.491   4.320  68.023  1.00  0.00    -0.093 OA 
HETATM   29  C   UNL     1      -9.395   5.208  67.525  1.00  0.00    -0.121 C  
HETATM   30  O   UNL     1     -10.337   4.870  66.839  1.00  0.00    -0.224 OA 
ENDBRANCH   4  27
TORSDOF 1
ENDMDL
MODEL       27
REMARK 921   NORMALIZED FREE ENERGY PREDICTED BY IDOCK:   -5.95 KCAL/MOL
REMARK 922        TOTAL FREE ENERGY PREDICTED BY IDOCK:   -6.40 KCAL/MOL
REMARK 923 INTER-LIGAND FREE ENERGY PREDICTED BY IDOCK:   -6.22 KCAL/MOL
REMARK 924 INTRA-LIGAND FREE ENERGY PREDICTED BY IDOCK:   -0.18 KCAL/MOL
REMARK 927      BINDING AFFINITY PREDICTED BY RF-SCORE:    0.00 PKD
ROOT
HETATM    1  C   UNL     1      -7.257   7.806  67.798  1.00  0.00    -0.094 C  
HETATM    2  C   UNL     1      -7.038   6.396  66.662  1.00  0.00    -0.069 C  
HETATM    3  C   UNL     1      -8.762   7.681  67.660  1.00  0.00    -0.122 C  
HETATM    4  C   UNL     1      -5.566   5.920  66.391  1.00  0.00    -0.013 C  
HETATM    5  C   UNL     1      -9.093   8.407  66.365  1.00  0.00    -0.231 C  
HETATM    6  C   UNL     1      -7.836   5.086  67.024  1.00  0.00    -0.096 C  
HETATM    7  C   UNL     1      -8.798   9.783  66.851  1.00  0.00    -0.150 C  
HETATM    8  C   UNL     1      -6.113  10.245  67.169  1.00  0.00    -0.055 C  
HETATM    9  C   UNL     1      -9.270  11.047  66.124  1.00  0.00    -0.209 C  
HETATM   10  C   UNL     1      -7.466   9.647  67.625  1.00  0.00    -0.091 C  
HETATM   11  C   UNL     1      -7.865  10.655  68.830  1.00  0.00    -0.129 C  
HETATM   12  C   UNL     1     -10.504  10.620  65.369  1.00  0.00    -0.184 C  
HETATM   13  C   UNL     1      -8.419  12.143  68.289  1.00  0.00    -0.176 C  
HETATM   14  C   UNL     1     -11.393  11.722  64.909  1.00  0.00    -0.299 C  
HETATM   15  O   UNL     1     -10.170   9.864  64.207  1.00  0.00    -0.404 OA 
HETATM   16  H   UNL     1     -10.947   9.596  63.731  1.00  0.00     0.000 HD 
HETATM   17  C   UNL     1     -11.783  12.709  66.016  1.00  0.00    -0.470 C  
HETATM   18  C   UNL     1     -12.843  13.633  65.396  1.00  0.00    -0.440 C  
HETATM   19  C   UNL     1     -12.362  14.749  64.486  1.00  0.00    -0.366 C  
HETATM   20  O   UNL     1     -12.380  14.380  63.105  1.00  0.00    -1.014 OA 
HETATM   21  C   UNL     1     -11.009  15.328  64.885  1.00  0.00    -0.445 C  
HETATM   22  C   UNL     1      -9.972  14.371  65.593  1.00  0.00    -0.365 C  
HETATM   23  H   UNL     1     -12.079  15.078  62.535  1.00  0.00     0.000 HD 
HETATM   24  C   UNL     1     -10.525  13.377  66.680  1.00  0.00    -0.280 C  
HETATM   25  C   UNL     1     -10.941  14.228  67.898  1.00  0.00    -0.278 C  
HETATM   26  C   UNL     1      -9.621  12.092  67.240  1.00  0.00    -0.185 C  
ENDROOT
BRANCH   4  27
HETATM   27  C   UNL     1      -5.483   4.705  65.417  1.00  0.00    -0.013 C  
HETATM   28  O   UNL     1      -5.393   3.967  63.168  1.00  0.00    -0.008 OA 
HETATM   29  C   UNL     1      -5.533   5.069  63.956  1.00  0.00    -0.016 C  
HETATM   30  O   UNL     1      -5.668   6.186  63.503  1.00  0.00    -0.021 OA 
ENDBRANCH   4  27
TORSDOF 1
ENDMDL
MODEL       28
REMARK 921   NORMALIZED FREE ENERGY PREDICTED BY IDOCK:   -5.95 KCAL/MOL
REMARK 922        TOTAL FREE ENERGY PREDICTED BY IDOCK:   -6.40 KCAL/MOL
REMARK 923 INTER-LIGAND FREE ENERGY PREDICTED BY IDOCK:   -6.62 KCAL/MOL
REMARK 924 INTRA-LIGAND FREE ENERGY PREDICTED BY IDOCK:    0.22 KCAL/MOL
REMARK 927      BINDING AFFINITY PREDICTED BY RF-SCORE:    0.00 PKD
ROOT
HETATM    1  C   UNL     1      -9.847  11.089  67.904  1.00  0.00    -0.186 C  
HETATM    2  C   UNL     1     -10.722  11.559  66.375  1.00  0.00    -0.320 C  
HETATM    3  C   UNL     1      -8.868  10.265  67.089  1.00  0.00    -0.141 C  
HETATM    4  C   UNL     1     -11.931  12.551  66.520  1.00  0.00    -0.367 C  
HETATM    5  C   UNL     1      -9.583   8.945  66.846  1.00  0.00    -0.248 C  
HETATM    6  C   UNL     1      -9.828  12.162  65.224  1.00  0.00    -0.216 C  
HETATM    7  C   UNL     1      -9.528   8.451  68.251  1.00  0.00    -0.147 C  
HETATM    8  C   UNL     1     -11.236   9.799  69.920  1.00  0.00    -0.271 C  
HETATM    9  C   UNL     1      -9.773   6.987  68.633  1.00  0.00    -0.139 C  
HETATM   10  C   UNL     1      -9.922   9.674  69.111  1.00  0.00    -0.189 C  
HETATM   11  C   UNL     1      -8.848   9.403  70.295  1.00  0.00    -0.269 C  
HETATM   12  C   UNL     1      -9.403   6.199  67.402  1.00  0.00    -0.115 C  
HETATM   13  C   UNL     1      -8.918   7.842  70.904  1.00  0.00    -0.148 C  
HETATM   14  C   UNL     1      -9.157   4.746  67.616  1.00  0.00    -0.128 C  
HETATM   15  O   UNL     1     -10.414   6.289  66.401  1.00  0.00    -0.432 OA 
HETATM   16  H   UNL     1     -10.182   5.792  65.626  1.00  0.00     0.000 HD 
HETATM   17  C   UNL     1      -8.157   4.445  68.739  1.00  0.00    -0.077 C  
HETATM   18  C   UNL     1      -7.891   2.933  68.666  1.00  0.00    -0.057 C  
HETATM   19  C   UNL     1      -8.933   2.003  69.259  1.00  0.00    -0.102 C  
HETATM   20  O   UNL     1      -9.870   1.532  68.288  1.00  0.00    -0.312 OA 
HETATM   21  C   UNL     1      -9.645   2.576  70.480  1.00  0.00    -0.138 C  
HETATM   22  C   UNL     1      -9.831   4.142  70.562  1.00  0.00    -0.252 C  
HETATM   23  H   UNL     1     -10.522   0.950  68.659  1.00  0.00     0.000 HD 
HETATM   24  C   UNL     1      -8.620   5.042  70.116  1.00  0.00    -0.111 C  
HETATM   25  C   UNL     1      -7.517   4.872  71.182  1.00  0.00    -0.073 C  
HETATM   26  C   UNL     1      -8.797   6.674  69.822  1.00  0.00    -0.144 C  
ENDROOT
BRANCH   4  27
HETATM   27  C   UNL     1     -12.606  12.899  65.159  1.00  0.00    -0.536 C  
HETATM   28  O   UNL     1     -12.776  14.433  63.362  1.00  0.00    -0.689 OA 
HETATM   29  C   UNL     1     -12.196  14.226  64.576  1.00  0.00    -0.455 C  
HETATM   30  O   UNL     1     -11.442  15.027  65.087  1.00  0.00    -0.360 OA 
ENDBRANCH   4  27
TORSDOF 1
ENDMDL
MODEL       29
REMARK 921   NORMALIZED FREE ENERGY PREDICTED BY IDOCK:   -5.91 KCAL/MOL
REMARK 922        TOTAL FREE ENERGY PREDICTED BY IDOCK:   -6.36 KCAL/MOL
REMARK 923 INTER-LIGAND FREE ENERGY PREDICTED BY IDOCK:   -6.33 KCAL/MOL
REMARK 924 INTRA-LIGAND FREE ENERGY PREDICTED BY IDOCK:   -0.03 KCAL/MOL
REMARK 927      BINDING AFFINITY PREDICTED BY RF-SCORE:    0.00 PKD
ROOT
HETATM    1  C   UNL     1      -9.856  12.654  66.213  1.00  0.00    -0.266 C  
HETATM    2  C   UNL     1     -11.054  13.629  67.182  1.00  0.00    -0.311 C  
HETATM    3  C   UNL     1     -10.941  11.643  65.892  1.00  0.00    -0.334 C  
HETATM    4  C   UNL     1     -10.539  14.974  67.808  1.00  0.00    -0.264 C  
HETATM    5  C   UNL     1     -11.001  10.740  67.115  1.00  0.00    -0.324 C  
HETATM    6  C   UNL     1     -12.398  14.003  66.447  1.00  0.00    -0.468 C  
HETATM    7  C   UNL     1      -9.686  10.071  66.907  1.00  0.00    -0.237 C  
HETATM    8  C   UNL     1      -7.559  11.719  67.439  1.00  0.00    -0.143 C  
HETATM    9  C   UNL     1      -9.288   8.772  67.615  1.00  0.00    -0.157 C  
HETATM   10  C   UNL     1      -8.717  11.219  66.542  1.00  0.00    -0.178 C  
HETATM   11  C   UNL     1      -7.902  10.399  65.405  1.00  0.00    -0.143 C  
HETATM   12  C   UNL     1     -10.594   8.082  67.922  1.00  0.00    -0.145 C  
HETATM   13  C   UNL     1      -7.340   8.912  65.940  1.00  0.00    -0.093 C  
HETATM   14  C   UNL     1     -10.498   6.630  68.236  1.00  0.00    -0.249 C  
HETATM   15  O   UNL     1     -11.256   8.688  69.029  1.00  0.00    -0.416 OA 
HETATM   16  H   UNL     1     -12.078   8.253  69.223  1.00  0.00     0.000 HD 
HETATM   17  C   UNL     1      -9.721   5.818  67.192  1.00  0.00    -0.147 C  
HETATM   18  C   UNL     1      -9.908   4.345  67.586  1.00  0.00    -0.168 C  
HETATM   19  C   UNL     1      -9.062   3.806  68.726  1.00  0.00    -0.142 C  
HETATM   20  O   UNL     1      -9.733   3.865  69.986  1.00  0.00    -0.201 OA 
HETATM   21  C   UNL     1      -7.673   4.429  68.809  1.00  0.00    -0.066 C  
HETATM   22  C   UNL     1      -7.499   5.921  68.321  1.00  0.00    -0.085 C  
HETATM   23  H   UNL     1      -9.204   3.528  70.699  1.00  0.00     0.000 HD 
HETATM   24  C   UNL     1      -8.253   6.348  67.007  1.00  0.00    -0.113 C  
HETATM   25  C   UNL     1      -7.558   5.625  65.835  1.00  0.00    -0.086 C  
HETATM   26  C   UNL     1      -8.441   7.949  66.580  1.00  0.00    -0.131 C  
ENDROOT
BRANCH   4  27
HETATM   27  C   UNL     1     -11.636  15.739  68.609  1.00  0.00    -0.392 C  
HETATM   28  O   UNL     1     -12.982  15.816  70.556  1.00  0.00    -0.454 OA 
HETATM   29  C   UNL     1     -12.070  15.062  69.882  1.00  0.00    -0.334 C  
HETATM   30  O   UNL     1     -11.674  13.991  70.292  1.00  0.00    -0.277 OA 
ENDBRANCH   4  27
TORSDOF 1
ENDMDL
MODEL       30
REMARK 921   NORMALIZED FREE ENERGY PREDICTED BY IDOCK:   -5.86 KCAL/MOL
REMARK 922        TOTAL FREE ENERGY PREDICTED BY IDOCK:   -6.31 KCAL/MOL
REMARK 923 INTER-LIGAND FREE ENERGY PREDICTED BY IDOCK:   -6.19 KCAL/MOL
REMARK 924 INTRA-LIGAND FREE ENERGY PREDICTED BY IDOCK:   -0.11 KCAL/MOL
REMARK 927      BINDING AFFINITY PREDICTED BY RF-SCORE:    0.00 PKD
ROOT
HETATM    1  C   UNL     1      -9.542  11.864  67.317  1.00  0.00    -0.181 C  
HETATM    2  C   UNL     1     -11.074  12.448  68.117  1.00  0.00    -0.288 C  
HETATM    3  C   UNL     1     -10.366  11.064  66.326  1.00  0.00    -0.304 C  
HETATM    4  C   UNL     1     -10.917  13.462  69.305  1.00  0.00    -0.159 C  
HETATM    5  C   UNL     1     -10.715   9.780  67.064  1.00  0.00    -0.236 C  
HETATM    6  C   UNL     1     -12.150  13.092  67.162  1.00  0.00    -0.343 C  
HETATM    7  C   UNL     1      -9.342   9.203  67.078  1.00  0.00    -0.188 C  
HETATM    8  C   UNL     1      -7.663  10.497  68.819  1.00  0.00    -0.109 C  
HETATM    9  C   UNL     1      -9.058   7.727  67.375  1.00  0.00    -0.138 C  
HETATM   10  C   UNL     1      -8.426  10.383  67.477  1.00  0.00    -0.115 C  
HETATM   11  C   UNL     1      -7.219  10.014  66.460  1.00  0.00    -0.101 C  
HETATM   12  C   UNL     1     -10.318   7.002  66.975  1.00  0.00    -0.290 C  
HETATM   13  C   UNL     1      -6.708   8.422  66.593  1.00  0.00    -0.061 C  
HETATM   14  C   UNL     1     -10.182   5.533  66.774  1.00  0.00    -0.277 C  
HETATM   15  O   UNL     1     -11.351   7.179  67.942  1.00  0.00    -0.500 OA 
HETATM   16  H   UNL     1     -12.145   6.722  67.691  1.00  0.00     0.000 HD 
HETATM   17  C   UNL     1      -9.040   5.139  65.829  1.00  0.00    -0.158 C  
HETATM   18  C   UNL     1      -9.193   3.627  65.598  1.00  0.00    -0.156 C  
HETATM   19  C   UNL     1      -8.698   2.693  66.686  1.00  0.00    -0.123 C  
HETATM   20  O   UNL     1      -9.732   2.305  67.594  1.00  0.00    -0.395 OA 
HETATM   21  C   UNL     1      -7.474   3.212  67.433  1.00  0.00    -0.062 C  
HETATM   22  C   UNL     1      -7.306   4.775  67.584  1.00  0.00    -0.074 C  
HETATM   23  H   UNL     1      -9.423   1.720  68.275  1.00  0.00     0.000 HD 
HETATM   24  C   UNL     1      -7.649   5.667  66.333  1.00  0.00    -0.091 C  
HETATM   25  C   UNL     1      -6.553   5.404  65.279  1.00  0.00    -0.040 C  
HETATM   26  C   UNL     1      -7.852   7.317  66.458  1.00  0.00    -0.109 C  
ENDROOT
BRANCH   4  27
HETATM   27  C   UNL     1     -12.281  13.908  69.916  1.00  0.00    -0.393 C  
HETATM   28  O   UNL     1     -13.534  15.655  70.909  1.00  0.00    -0.569 OA 
HETATM   29  C   UNL     1     -12.298  15.316  70.450  1.00  0.00    -0.380 C  
HETATM   30  O   UNL     1     -11.357  16.081  70.477  1.00  0.00    -0.355 OA 
ENDBRANCH   4  27
TORSDOF 1
ENDMDL
MODEL       31
REMARK 921   NORMALIZED FREE ENERGY PREDICTED BY IDOCK:   -5.85 KCAL/MOL
REMARK 922        TOTAL FREE ENERGY PREDICTED BY IDOCK:   -6.29 KCAL/MOL
REMARK 923 INTER-LIGAND FREE ENERGY PREDICTED BY IDOCK:   -6.14 KCAL/MOL
REMARK 924 INTRA-LIGAND FREE ENERGY PREDICTED BY IDOCK:   -0.16 KCAL/MOL
REMARK 927      BINDING AFFINITY PREDICTED BY RF-SCORE:    0.00 PKD
ROOT
HETATM    1  C   UNL     1      -8.826   7.248  67.668  1.00  0.00    -0.123 C  
HETATM    2  C   UNL     1      -9.150   6.056  66.325  1.00  0.00    -0.160 C  
HETATM    3  C   UNL     1     -10.259   7.739  67.575  1.00  0.00    -0.301 C  
HETATM    4  C   UNL     1      -7.974   5.095  65.926  1.00  0.00    -0.108 C  
HETATM    5  C   UNL     1     -10.254   8.726  66.417  1.00  0.00    -0.256 C  
HETATM    6  C   UNL     1     -10.403   5.120  66.520  1.00  0.00    -0.336 C  
HETATM    7  C   UNL     1      -9.456   9.788  67.091  1.00  0.00    -0.189 C  
HETATM    8  C   UNL     1      -6.810   9.118  67.364  1.00  0.00    -0.077 C  
HETATM    9  C   UNL     1      -9.385  11.232  66.582  1.00  0.00    -0.196 C  
HETATM   10  C   UNL     1      -8.299   9.029  67.780  1.00  0.00    -0.117 C  
HETATM   11  C   UNL     1      -8.299   9.915  69.139  1.00  0.00    -0.145 C  
HETATM   12  C   UNL     1     -10.671  11.438  65.823  1.00  0.00    -0.251 C  
HETATM   13  C   UNL     1      -8.218  11.565  68.850  1.00  0.00    -0.019 C  
HETATM   14  C   UNL     1     -11.051  12.855  65.570  1.00  0.00    -0.306 C  
HETATM   15  O   UNL     1     -10.634  10.801  64.548  1.00  0.00    -0.336 OA 
HETATM   16  H   UNL     1     -11.444  10.931  64.070  1.00  0.00     0.000 HD 
HETATM   17  C   UNL     1     -11.049  13.733  66.828  1.00  0.00    -0.316 C  
HETATM   18  C   UNL     1     -11.652  15.079  66.397  1.00  0.00    -0.172 C  
HETATM   19  C   UNL     1     -10.757  16.047  65.645  1.00  0.00    -0.329 C  
HETATM   20  O   UNL     1     -10.888  15.931  64.226  1.00  0.00    -0.838 OA 
HETATM   21  C   UNL     1      -9.294  15.988  66.071  1.00  0.00    -0.380 C  
HETATM   22  C   UNL     1      -8.726  14.606  66.584  1.00  0.00    -0.197 C  
HETATM   23  H   UNL     1     -10.327  16.537  63.756  1.00  0.00     0.000 HD 
HETATM   24  C   UNL     1      -9.645  13.750  67.532  1.00  0.00    -0.219 C  
HETATM   25  C   UNL     1      -9.721  14.498  68.879  1.00  0.00    -0.169 C  
HETATM   26  C   UNL     1      -9.324  12.146  67.856  1.00  0.00    -0.192 C  
ENDROOT
BRANCH   4  27
HETATM   27  C   UNL     1      -8.351   4.109  64.778  1.00  0.00    -0.103 C  
HETATM   28  O   UNL     1      -8.596   3.779  62.445  1.00  0.00    -0.079 OA 
HETATM   29  C   UNL     1      -8.318   4.711  63.398  1.00  0.00    -0.109 C  
HETATM   30  O   UNL     1      -8.071   5.868  63.130  1.00  0.00    -0.112 OA 
ENDBRANCH   4  27
TORSDOF 1
ENDMDL
MODEL       32
REMARK 921   NORMALIZED FREE ENERGY PREDICTED BY IDOCK:   -5.83 KCAL/MOL
REMARK 922        TOTAL FREE ENERGY PREDICTED BY IDOCK:   -6.28 KCAL/MOL
REMARK 923 INTER-LIGAND FREE ENERGY PREDICTED BY IDOCK:   -6.18 KCAL/MOL
REMARK 924 INTRA-LIGAND FREE ENERGY PREDICTED BY IDOCK:   -0.10 KCAL/MOL
REMARK 927      BINDING AFFINITY PREDICTED BY RF-SCORE:    0.00 PKD
ROOT
HETATM    1  C   UNL     1      -9.431  10.363  68.616  1.00  0.00    -0.167 C  
HETATM    2  C   UNL     1      -9.966  10.407  66.873  1.00  0.00    -0.254 C  
HETATM    3  C   UNL     1      -8.474   9.232  68.292  1.00  0.00    -0.120 C  
HETATM    4  C   UNL     1     -11.013  11.507  66.475  1.00  0.00    -0.346 C  
HETATM    5  C   UNL     1      -9.338   7.979  68.310  1.00  0.00    -0.143 C  
HETATM    6  C   UNL     1      -8.817  10.523  65.800  1.00  0.00    -0.190 C  
HETATM    7  C   UNL     1      -9.586   7.954  69.779  1.00  0.00    -0.167 C  
HETATM    8  C   UNL     1     -11.309   9.923  70.600  1.00  0.00    -0.413 C  
HETATM    9  C   UNL     1     -10.113   6.718  70.516  1.00  0.00    -0.201 C  
HETATM   10  C   UNL     1      -9.918   9.419  70.144  1.00  0.00    -0.269 C  
HETATM   11  C   UNL     1      -9.103   9.434  71.546  1.00  0.00     0.271 C  
HETATM   12  C   UNL     1      -9.678   5.548  69.671  1.00  0.00    -0.172 C  
HETATM   13  C   UNL     1      -9.511   8.161  72.559  1.00  0.00    -0.339 C  
HETATM   14  C   UNL     1      -9.698   4.221  70.347  1.00  0.00    -0.280 C  
HETATM   15  O   UNL     1     -10.489   5.415  68.507  1.00  0.00    -0.177 OA 
HETATM   16  H   UNL     1     -10.216   4.677  67.975  1.00  0.00     0.000 HD 
HETATM   17  C   UNL     1      -8.950   4.195  71.687  1.00  0.00    -0.160 C  
HETATM   18  C   UNL     1      -8.914   2.720  72.115  1.00  0.00    -0.128 C  
HETATM   19  C   UNL     1     -10.170   2.133  72.734  1.00  0.00    -0.143 C  
HETATM   20  O   UNL     1     -11.000   1.473  71.776  1.00  0.00     0.301 OA 
HETATM   21  C   UNL     1     -10.970   3.131  73.564  1.00  0.00    -0.323 C  
HETATM   22  C   UNL     1     -10.922   4.653  73.144  1.00  0.00    -0.364 C  
HETATM   23  H   UNL     1     -11.786   1.105  72.164  1.00  0.00     0.000 HD 
HETATM   24  C   UNL     1      -9.530   5.241  72.705  1.00  0.00    -0.157 C  
HETATM   25  C   UNL     1      -8.652   5.311  73.973  1.00  0.00    -0.115 C  
HETATM   26  C   UNL     1      -9.402   6.704  71.916  1.00  0.00    -0.147 C  
ENDROOT
BRANCH   4  27
HETATM   27  C   UNL     1     -11.400  11.470  64.965  1.00  0.00    -0.168 C  
HETATM   28  O   UNL     1     -12.673  12.437  63.217  1.00  0.00    -0.688 OA 
HETATM   29  C   UNL     1     -12.433  12.487  64.556  1.00  0.00    -0.459 C  
HETATM   30  O   UNL     1     -12.992  13.272  65.294  1.00  0.00    -0.659 OA 
ENDBRANCH   4  27
TORSDOF 1
ENDMDL
MODEL       33
REMARK 921   NORMALIZED FREE ENERGY PREDICTED BY IDOCK:   -5.79 KCAL/MOL
REMARK 922        TOTAL FREE ENERGY PREDICTED BY IDOCK:   -6.23 KCAL/MOL
REMARK 923 INTER-LIGAND FREE ENERGY PREDICTED BY IDOCK:   -6.06 KCAL/MOL
REMARK 924 INTRA-LIGAND FREE ENERGY PREDICTED BY IDOCK:   -0.16 KCAL/MOL
REMARK 927      BINDING AFFINITY PREDICTED BY RF-SCORE:    0.00 PKD
ROOT
HETATM    1  C   UNL     1      -9.854   6.577  70.708  1.00  0.00    -0.201 C  
HETATM    2  C   UNL     1      -8.920   5.100  70.186  1.00  0.00    -0.151 C  
HETATM    3  C   UNL     1     -10.766   6.423  69.506  1.00  0.00    -0.347 C  
HETATM    4  C   UNL     1      -7.751   4.628  71.122  1.00  0.00    -0.081 C  
HETATM    5  C   UNL     1     -10.000   7.060  68.357  1.00  0.00    -0.160 C  
HETATM    6  C   UNL     1      -9.774   3.806  69.905  1.00  0.00    -0.200 C  
HETATM    7  C   UNL     1     -10.109   8.469  68.828  1.00  0.00    -0.210 C  
HETATM    8  C   UNL     1      -8.527   8.986  71.008  1.00  0.00    -0.254 C  
HETATM    9  C   UNL     1      -9.839   9.677  67.925  1.00  0.00    -0.182 C  
HETATM   10  C   UNL     1      -9.795   8.400  70.341  1.00  0.00    -0.194 C  
HETATM   11  C   UNL     1     -10.917   9.478  70.797  1.00  0.00    -0.389 C  
HETATM   12  C   UNL     1     -10.123   9.186  66.527  1.00  0.00    -0.287 C  
HETATM   13  C   UNL     1     -10.830  10.921  69.947  1.00  0.00    -0.205 C  
HETATM   14  C   UNL     1     -10.335  10.245  65.502  1.00  0.00    -0.239 C  
HETATM   15  O   UNL     1      -9.067   8.363  66.039  1.00  0.00    -0.174 OA 
HETATM   16  H   UNL     1      -9.245   8.054  65.158  1.00  0.00     0.000 HD 
HETATM   17  C   UNL     1     -11.379  11.296  65.902  1.00  0.00     0.008 C  
HETATM   18  C   UNL     1     -11.595  12.164  64.652  1.00  0.00    -0.392 C  
HETATM   19  C   UNL     1     -10.555  13.226  64.342  1.00  0.00    -0.419 C  
HETATM   20  O   UNL     1      -9.558  12.769  63.425  1.00  0.00    -0.540 OA 
HETATM   21  C   UNL     1      -9.922  13.847  65.582  1.00  0.00    -0.298 C  
HETATM   22  C   UNL     1      -9.788  12.951  66.875  1.00  0.00    -0.235 C  
HETATM   23  H   UNL     1      -8.907  13.434  63.230  1.00  0.00     0.000 HD 
HETATM   24  C   UNL     1     -11.003  12.021  67.243  1.00  0.00    -0.313 C  
HETATM   25  C   UNL     1     -12.151  12.943  67.704  1.00  0.00    -0.239 C  
HETATM   26  C   UNL     1     -10.861  10.787  68.356  1.00  0.00    -0.276 C  
ENDROOT
BRANCH   4  27
HETATM   27  C   UNL     1      -7.020   3.355  70.596  1.00  0.00    -0.033 C  
HETATM   28  O   UNL     1      -5.364   2.471  69.152  1.00  0.00    -0.011 OA 
HETATM   29  C   UNL     1      -6.003   3.616  69.516  1.00  0.00    -0.023 C  
HETATM   30  O   UNL     1      -5.752   4.694  69.019  1.00  0.00    -0.015 OA 
ENDBRANCH   4  27
TORSDOF 1
ENDMDL
MODEL       34
REMARK 921   NORMALIZED FREE ENERGY PREDICTED BY IDOCK:   -5.76 KCAL/MOL
REMARK 922        TOTAL FREE ENERGY PREDICTED BY IDOCK:   -6.20 KCAL/MOL
REMARK 923 INTER-LIGAND FREE ENERGY PREDICTED BY IDOCK:   -6.01 KCAL/MOL
REMARK 924 INTRA-LIGAND FREE ENERGY PREDICTED BY IDOCK:   -0.19 KCAL/MOL
REMARK 927      BINDING AFFINITY PREDICTED BY RF-SCORE:    0.00 PKD
ROOT
HETATM    1  C   UNL     1      -7.550   8.250  70.595  1.00  0.00    -0.071 C  
HETATM    2  C   UNL     1      -8.380   6.628  70.695  1.00  0.00    -0.129 C  
HETATM    3  C   UNL     1      -8.792   8.918  71.156  1.00  0.00    -0.297 C  
HETATM    4  C   UNL     1      -7.541   5.370  70.274  1.00  0.00    -0.076 C  
HETATM    5  C   UNL     1      -9.714   9.085  69.958  1.00  0.00    -0.203 C  
HETATM    6  C   UNL     1      -9.009   6.258  72.092  1.00  0.00    -0.137 C  
HETATM    7  C   UNL     1      -8.915  10.131  69.261  1.00  0.00    -0.193 C  
HETATM    8  C   UNL     1      -6.609   9.144  68.152  1.00  0.00    -0.060 C  
HETATM    9  C   UNL     1      -9.480  11.004  68.136  1.00  0.00    -0.172 C  
HETATM   10  C   UNL     1      -7.454   9.632  69.353  1.00  0.00    -0.093 C  
HETATM   11  C   UNL     1      -6.795  11.087  69.630  1.00  0.00    -0.129 C  
HETATM   12  C   UNL     1     -10.967  11.047  68.388  1.00  0.00    -0.230 C  
HETATM   13  C   UNL     1      -7.259  12.246  68.510  1.00  0.00    -0.103 C  
HETATM   14  C   UNL     1     -11.707  12.140  67.701  1.00  0.00    -0.386 C  
HETATM   15  O   UNL     1     -11.597   9.830  67.999  1.00  0.00    -0.535 OA 
HETATM   16  H   UNL     1     -12.534   9.857  68.157  1.00  0.00     0.000 HD 
HETATM   17  C   UNL     1     -11.106  13.534  67.924  1.00  0.00    -0.288 C  
HETATM   18  C   UNL     1     -12.111  14.523  67.313  1.00  0.00    -0.298 C  
HETATM   19  C   UNL     1     -12.105  14.695  65.805  1.00  0.00    -0.197 C  
HETATM   20  O   UNL     1     -13.063  13.859  65.151  1.00  0.00    -0.773 OA 
HETATM   21  C   UNL     1     -10.724  14.551  65.175  1.00  0.00    -0.422 C  
HETATM   22  C   UNL     1      -9.688  13.586  65.874  1.00  0.00    -0.199 C  
HETATM   23  H   UNL     1     -13.059  13.967  64.207  1.00  0.00     0.000 HD 
HETATM   24  C   UNL     1      -9.612  13.616  67.445  1.00  0.00    -0.226 C  
HETATM   25  C   UNL     1      -8.988  14.970  67.840  1.00  0.00    -0.175 C  
HETATM   26  C   UNL     1      -8.833  12.423  68.312  1.00  0.00    -0.174 C  
ENDROOT
BRANCH   4  27
HETATM   27  C   UNL     1      -8.332   4.033  70.402  1.00  0.00    -0.081 C  
HETATM   28  O   UNL     1      -9.657   2.398  69.315  1.00  0.00    -0.105 OA 
HETATM   29  C   UNL     1      -9.041   3.600  69.145  1.00  0.00    -0.137 C  
HETATM   30  O   UNL     1      -9.072   4.211  68.098  1.00  0.00    -0.117 OA 
ENDBRANCH   4  27
TORSDOF 1
ENDMDL
MODEL       35
REMARK 921   NORMALIZED FREE ENERGY PREDICTED BY IDOCK:   -5.75 KCAL/MOL
REMARK 922        TOTAL FREE ENERGY PREDICTED BY IDOCK:   -6.18 KCAL/MOL
REMARK 923 INTER-LIGAND FREE ENERGY PREDICTED BY IDOCK:   -5.99 KCAL/MOL
REMARK 924 INTRA-LIGAND FREE ENERGY PREDICTED BY IDOCK:   -0.19 KCAL/MOL
REMARK 927      BINDING AFFINITY PREDICTED BY RF-SCORE:    0.00 PKD
ROOT
HETATM    1  C   UNL     1      -7.896   6.711  67.966  1.00  0.00    -0.113 C  
HETATM    2  C   UNL     1      -7.803   6.119  69.688  1.00  0.00    -0.103 C  
HETATM    3  C   UNL     1      -7.166   7.980  68.364  1.00  0.00    -0.089 C  
HETATM    4  C   UNL     1      -8.386   4.691  69.984  1.00  0.00    -0.075 C  
HETATM    5  C   UNL     1      -8.245   8.878  68.950  1.00  0.00    -0.117 C  
HETATM    6  C   UNL     1      -6.370   6.126  70.345  1.00  0.00    -0.036 C  
HETATM    7  C   UNL     1      -8.962   9.153  67.672  1.00  0.00    -0.130 C  
HETATM    8  C   UNL     1     -10.369   6.984  66.756  1.00  0.00    -0.291 C  
HETATM    9  C   UNL     1      -9.966  10.298  67.506  1.00  0.00    -0.226 C  
HETATM   10  C   UNL     1      -9.057   7.776  66.975  1.00  0.00    -0.162 C  
HETATM   11  C   UNL     1      -8.767   8.323  65.477  1.00  0.00    -0.173 C  
HETATM   12  C   UNL     1      -9.552  11.327  68.528  1.00  0.00    -0.198 C  
HETATM   13  C   UNL     1      -9.761   9.601  65.038  1.00  0.00    -0.234 C  
HETATM   14  C   UNL     1     -10.091  12.699  68.316  1.00  0.00    -0.233 C  
HETATM   15  O   UNL     1      -9.943  10.942  69.843  1.00  0.00    -0.392 OA 
HETATM   16  H   UNL     1      -9.683  11.591  70.487  1.00  0.00     0.000 HD 
HETATM   17  C   UNL     1      -9.851  13.250  66.905  1.00  0.00    -0.247 C  
HETATM   18  C   UNL     1     -10.291  14.722  66.952  1.00  0.00    -0.267 C  
HETATM   19  C   UNL     1     -11.778  15.017  66.882  1.00  0.00    -0.172 C  
HETATM   20  O   UNL     1     -12.373  15.161  68.174  1.00  0.00    -0.499 OA 
HETATM   21  C   UNL     1     -12.561  14.033  66.020  1.00  0.00    -0.452 C  
HETATM   22  C   UNL     1     -12.036  12.546  65.930  1.00  0.00    -0.420 C  
HETATM   23  H   UNL     1     -13.304  15.346  68.130  1.00  0.00     0.000 HD 
HETATM   24  C   UNL     1     -10.483  12.331  65.799  1.00  0.00    -0.287 C  
HETATM   25  C   UNL     1     -10.079  12.817  64.391  1.00  0.00    -0.275 C  
HETATM   26  C   UNL     1      -9.777  10.840  66.045  1.00  0.00    -0.264 C  
ENDROOT
BRANCH   4  27
HETATM   27  C   UNL     1      -8.251   4.271  71.480  1.00  0.00    -0.091 C  
HETATM   28  O   UNL     1      -9.294   4.126  73.602  1.00  0.00    -0.104 OA 
HETATM   29  C   UNL     1      -9.459   4.575  72.327  1.00  0.00    -0.134 C  
HETATM   30  O   UNL     1     -10.469   5.135  71.956  1.00  0.00    -0.211 OA 
ENDBRANCH   4  27
TORSDOF 1
ENDMDL
MODEL       36
REMARK 921   NORMALIZED FREE ENERGY PREDICTED BY IDOCK:   -5.66 KCAL/MOL
REMARK 922        TOTAL FREE ENERGY PREDICTED BY IDOCK:   -6.10 KCAL/MOL
REMARK 923 INTER-LIGAND FREE ENERGY PREDICTED BY IDOCK:   -6.00 KCAL/MOL
REMARK 924 INTRA-LIGAND FREE ENERGY PREDICTED BY IDOCK:   -0.10 KCAL/MOL
REMARK 927      BINDING AFFINITY PREDICTED BY RF-SCORE:    0.00 PKD
ROOT
HETATM    1  C   UNL     1      -9.766  15.652  68.640  1.00  0.00    -0.204 C  
HETATM    2  C   UNL     1      -8.586  16.731  67.762  1.00  0.00    -0.199 C  
HETATM    3  C   UNL     1      -8.608  14.913  69.284  1.00  0.00    -0.106 C  
HETATM    4  C   UNL     1      -9.191  17.875  66.872  1.00  0.00    -0.267 C  
HETATM    5  C   UNL     1      -8.157  13.911  68.231  1.00  0.00    -0.150 C  
HETATM    6  C   UNL     1      -7.496  17.436  68.657  1.00  0.00    -0.263 C  
HETATM    7  C   UNL     1      -9.353  13.026  68.303  1.00  0.00    -0.199 C  
HETATM    8  C   UNL     1     -11.584  14.162  67.183  1.00  0.00    -0.400 C  
HETATM    9  C   UNL     1      -9.378  11.605  67.730  1.00  0.00    -0.178 C  
HETATM   10  C   UNL     1     -10.556  13.997  68.328  1.00  0.00    -0.253 C  
HETATM   11  C   UNL     1     -11.426  13.162  69.413  1.00  0.00    -0.321 C  
HETATM   12  C   UNL     1      -7.939  11.153  67.754  1.00  0.00    -0.116 C  
HETATM   13  C   UNL     1     -11.610  11.546  69.007  1.00  0.00    -0.383 C  
HETATM   14  C   UNL     1      -7.722   9.685  67.639  1.00  0.00    -0.095 C  
HETATM   15  O   UNL     1      -7.186  11.753  66.702  1.00  0.00    -0.320 OA 
HETATM   16  H   UNL     1      -6.280  11.468  66.717  1.00  0.00     0.000 HD 
HETATM   17  C   UNL     1      -8.538   8.856  68.638  1.00  0.00    -0.133 C  
HETATM   18  C   UNL     1      -8.029   7.413  68.496  1.00  0.00    -0.124 C  
HETATM   19  C   UNL     1      -8.531   6.600  67.317  1.00  0.00    -0.120 C  
HETATM   20  O   UNL     1      -7.646   6.651  66.195  1.00  0.00    -0.082 OA 
HETATM   21  C   UNL     1      -9.962   6.928  66.908  1.00  0.00    -0.264 C  
HETATM   22  C   UNL     1     -10.480   8.402  67.141  1.00  0.00    -0.380 C  
HETATM   23  H   UNL     1      -7.960   6.142  65.457  1.00  0.00     0.000 HD 
HETATM   24  C   UNL     1     -10.082   9.107  68.490  1.00  0.00    -0.212 C  
HETATM   25  C   UNL     1     -10.860   8.395  69.616  1.00  0.00    -0.153 C  
HETATM   26  C   UNL     1     -10.257  10.751  68.710  1.00  0.00    -0.207 C  
ENDROOT
BRANCH   4  27
HETATM   27  C   UNL     1      -8.104  18.747  66.171  1.00  0.00    -0.221 C  
HETATM   28  O   UNL     1      -7.144  20.897  65.920  1.00  0.00    -0.059 OA 
HETATM   29  C   UNL     1      -8.156  20.212  66.518  1.00  0.00    -0.274 C  
HETATM   30  O   UNL     1      -8.973  20.745  67.239  1.00  0.00    -0.314 OA 
ENDBRANCH   4  27
TORSDOF 1
ENDMDL
MODEL       37
REMARK 921   NORMALIZED FREE ENERGY PREDICTED BY IDOCK:   -5.66 KCAL/MOL
REMARK 922        TOTAL FREE ENERGY PREDICTED BY IDOCK:   -6.09 KCAL/MOL
REMARK 923 INTER-LIGAND FREE ENERGY PREDICTED BY IDOCK:   -6.09 KCAL/MOL
REMARK 924 INTRA-LIGAND FREE ENERGY PREDICTED BY IDOCK:   -0.00 KCAL/MOL
REMARK 927      BINDING AFFINITY PREDICTED BY RF-SCORE:    0.00 PKD
ROOT
HETATM    1  C   UNL     1     -10.237   7.775  68.310  1.00  0.00    -0.236 C  
HETATM    2  C   UNL     1      -9.064   6.721  67.394  1.00  0.00    -0.117 C  
HETATM    3  C   UNL     1     -10.755   8.335  66.999  1.00  0.00    -0.225 C  
HETATM    4  C   UNL     1      -8.168   5.748  68.240  1.00  0.00    -0.108 C  
HETATM    5  C   UNL     1      -9.757   9.419  66.621  1.00  0.00    -0.280 C  
HETATM    6  C   UNL     1      -9.683   5.828  66.253  1.00  0.00    -0.148 C  
HETATM    7  C   UNL     1     -10.122  10.382  67.699  1.00  0.00    -0.223 C  
HETATM    8  C   UNL     1      -9.273   9.574  70.178  1.00  0.00    -0.281 C  
HETATM    9  C   UNL     1      -9.718  11.860  67.672  1.00  0.00    -0.186 C  
HETATM   10  C   UNL     1     -10.242   9.514  68.973  1.00  0.00    -0.211 C  
HETATM   11  C   UNL     1     -11.540  10.276  69.576  1.00  0.00    -0.234 C  
HETATM   12  C   UNL     1      -9.551  12.189  66.210  1.00  0.00    -0.237 C  
HETATM   13  C   UNL     1     -11.348  11.940  69.661  1.00  0.00    -0.266 C  
HETATM   14  C   UNL     1      -9.561  13.638  65.869  1.00  0.00    -0.140 C  
HETATM   15  O   UNL     1      -8.330  11.665  65.693  1.00  0.00    -0.370 OA 
HETATM   16  H   UNL     1      -8.224  11.873  64.772  1.00  0.00     0.000 HD 
HETATM   17  C   UNL     1     -10.766  14.401  66.434  1.00  0.00    -0.306 C  
HETATM   18  C   UNL     1     -10.698  15.805  65.813  1.00  0.00    -0.337 C  
HETATM   19  C   UNL     1      -9.713  16.794  66.410  1.00  0.00    -0.290 C  
HETATM   20  O   UNL     1      -8.461  16.810  65.721  1.00  0.00    -0.472 OA 
HETATM   21  C   UNL     1      -9.515  16.634  67.913  1.00  0.00    -0.225 C  
HETATM   22  C   UNL     1      -9.670  15.188  68.532  1.00  0.00    -0.214 C  
HETATM   23  H   UNL     1      -7.845  17.429  66.095  1.00  0.00     0.000 HD 
HETATM   24  C   UNL     1     -10.850  14.294  67.999  1.00  0.00    -0.247 C  
HETATM   25  C   UNL     1     -12.160  14.923  68.518  1.00  0.00    -0.193 C  
HETATM   26  C   UNL     1     -10.917  12.655  68.300  1.00  0.00    -0.275 C  
ENDROOT
BRANCH   4  27
HETATM   27  C   UNL     1      -7.206   4.884  67.368  1.00  0.00    -0.074 C  
HETATM   28  O   UNL     1      -6.718   2.746  66.475  1.00  0.00    -0.039 OA 
HETATM   29  C   UNL     1      -7.563   3.423  67.301  1.00  0.00    -0.078 C  
HETATM   30  O   UNL     1      -8.479   2.884  67.885  1.00  0.00    -0.078 OA 
ENDBRANCH   4  27
TORSDOF 1
ENDMDL
MODEL       38
REMARK 921   NORMALIZED FREE ENERGY PREDICTED BY IDOCK:   -5.65 KCAL/MOL
REMARK 922        TOTAL FREE ENERGY PREDICTED BY IDOCK:   -6.08 KCAL/MOL
REMARK 923 INTER-LIGAND FREE ENERGY PREDICTED BY IDOCK:   -5.90 KCAL/MOL
REMARK 924 INTRA-LIGAND FREE ENERGY PREDICTED BY IDOCK:   -0.19 KCAL/MOL
REMARK 927      BINDING AFFINITY PREDICTED BY RF-SCORE:    0.00 PKD
ROOT
HETATM    1  C   UNL     1     -10.551   5.689  72.656  1.00  0.00    -0.266 C  
HETATM    2  C   UNL     1      -9.463   4.226  72.620  1.00  0.00    -0.165 C  
HETATM    3  C   UNL     1     -11.017   5.375  71.247  1.00  0.00    -0.135 C  
HETATM    4  C   UNL     1      -8.653   3.908  73.927  1.00  0.00    -0.093 C  
HETATM    5  C   UNL     1      -9.933   5.947  70.346  1.00  0.00    -0.247 C  
HETATM    6  C   UNL     1     -10.147   2.865  72.215  1.00  0.00    -0.222 C  
HETATM    7  C   UNL     1     -10.223   7.385  70.607  1.00  0.00    -0.202 C  
HETATM    8  C   UNL     1      -9.452   8.187  73.114  1.00  0.00    -0.316 C  
HETATM    9  C   UNL     1      -9.701   8.519  69.718  1.00  0.00    -0.179 C  
HETATM   10  C   UNL     1     -10.418   7.472  72.138  1.00  0.00    -0.255 C  
HETATM   11  C   UNL     1     -11.653   8.522  72.093  1.00  0.00    -0.447 C  
HETATM   12  C   UNL     1      -9.502   7.888  68.363  1.00  0.00    -0.148 C  
HETATM   13  C   UNL     1     -11.327   9.884  71.170  1.00  0.00    -0.443 C  
HETATM   14  C   UNL     1      -9.393   8.835  67.219  1.00  0.00    -0.181 C  
HETATM   15  O   UNL     1      -8.325   7.084  68.330  1.00  0.00    -0.122 OA 
HETATM   16  H   UNL     1      -8.199   6.687  67.476  1.00  0.00     0.000 HD 
HETATM   17  C   UNL     1     -10.535   9.857  67.148  1.00  0.00    -0.305 C  
HETATM   18  C   UNL     1     -10.351  10.594  65.812  1.00  0.00    -0.287 C  
HETATM   19  C   UNL     1      -9.292  11.680  65.745  1.00  0.00    -0.205 C  
HETATM   20  O   UNL     1      -8.040  11.199  65.251  1.00  0.00    -0.364 OA 
HETATM   21  C   UNL     1      -9.114  12.447  67.050  1.00  0.00    -0.207 C  
HETATM   22  C   UNL     1      -9.388  11.681  68.404  1.00  0.00    -0.191 C  
HETATM   23  H   UNL     1      -7.377  11.878  65.209  1.00  0.00     0.000 HD 
HETATM   24  C   UNL     1     -10.634  10.721  68.456  1.00  0.00    -0.223 C  
HETATM   25  C   UNL     1     -11.891  11.615  68.423  1.00  0.00    -0.346 C  
HETATM   26  C   UNL     1     -10.834   9.604  69.678  1.00  0.00    -0.266 C  
ENDROOT
BRANCH   4  27
HETATM   27  C   UNL     1      -7.760   2.635  73.801  1.00  0.00    -0.051 C  
HETATM   28  O   UNL     1      -5.586   1.762  73.451  1.00  0.00     0.000 OA 
HETATM   29  C   UNL     1      -6.314   2.912  73.484  1.00  0.00    -0.020 C  
HETATM   30  O   UNL     1      -5.823   4.004  73.288  1.00  0.00    -0.010 OA 
ENDBRANCH   4  27
TORSDOF 1
ENDMDL
MODEL       39
REMARK 921   NORMALIZED FREE ENERGY PREDICTED BY IDOCK:   -5.65 KCAL/MOL
REMARK 922        TOTAL FREE ENERGY PREDICTED BY IDOCK:   -6.08 KCAL/MOL
REMARK 923 INTER-LIGAND FREE ENERGY PREDICTED BY IDOCK:   -5.91 KCAL/MOL
REMARK 924 INTRA-LIGAND FREE ENERGY PREDICTED BY IDOCK:   -0.17 KCAL/MOL
REMARK 927      BINDING AFFINITY PREDICTED BY RF-SCORE:    0.00 PKD
ROOT
HETATM    1  C   UNL     1      -9.587  12.112  67.217  1.00  0.00    -0.185 C  
HETATM    2  C   UNL     1     -10.986  13.113  67.824  1.00  0.00    -0.272 C  
HETATM    3  C   UNL     1     -10.555  11.030  66.777  1.00  0.00    -0.317 C  
HETATM    4  C   UNL     1     -10.647  14.529  68.413  1.00  0.00    -0.244 C  
HETATM    5  C   UNL     1     -10.845  10.234  68.041  1.00  0.00    -0.325 C  
HETATM    6  C   UNL     1     -12.156  13.361  66.798  1.00  0.00    -0.419 C  
HETATM    7  C   UNL     1      -9.499   9.609  68.171  1.00  0.00    -0.144 C  
HETATM    8  C   UNL     1      -7.572  11.390  68.970  1.00  0.00    -0.084 C  
HETATM    9  C   UNL     1      -9.223   8.395  69.064  1.00  0.00    -0.147 C  
HETATM   10  C   UNL     1      -8.505  10.764  67.906  1.00  0.00    -0.122 C  
HETATM   11  C   UNL     1      -7.450   9.886  67.042  1.00  0.00    -0.091 C  
HETATM   12  C   UNL     1     -10.545   7.677  69.160  1.00  0.00    -0.186 C  
HETATM   13  C   UNL     1      -6.974   8.477  67.818  1.00  0.00    -0.075 C  
HETATM   14  C   UNL     1     -10.480   6.263  69.622  1.00  0.00    -0.295 C  
HETATM   15  O   UNL     1     -11.439   8.346  70.047  1.00  0.00    -0.456 OA 
HETATM   16  H   UNL     1     -12.272   7.893  70.108  1.00  0.00     0.000 HD 
HETATM   17  C   UNL     1      -9.481   5.400  68.841  1.00  0.00    -0.174 C  
HETATM   18  C   UNL     1      -9.708   3.959  69.325  1.00  0.00    -0.157 C  
HETATM   19  C   UNL     1      -9.104   3.559  70.659  1.00  0.00    -0.116 C  
HETATM   20  O   UNL     1     -10.024   3.698  71.745  1.00  0.00    -0.174 OA 
HETATM   21  C   UNL     1      -7.780   4.249  70.966  1.00  0.00    -0.066 C  
HETATM   22  C   UNL     1      -7.547   5.699  70.386  1.00  0.00    -0.089 C  
HETATM   23  H   UNL     1      -9.647   3.447  72.579  1.00  0.00     0.000 HD 
HETATM   24  C   UNL     1      -8.022   5.977  68.912  1.00  0.00    -0.100 C  
HETATM   25  C   UNL     1      -7.079   5.187  67.980  1.00  0.00    -0.063 C  
HETATM   26  C   UNL     1      -8.158   7.525  68.307  1.00  0.00    -0.124 C  
ENDROOT
BRANCH   4  27
HETATM   27  C   UNL     1     -11.907  15.310  68.897  1.00  0.00    -0.344 C  
HETATM   28  O   UNL     1     -13.467  15.677  70.641  1.00  0.00    -0.476 OA 
HETATM   29  C   UNL     1     -12.406  14.913  70.261  1.00  0.00    -0.341 C  
HETATM   30  O   UNL     1     -11.944  14.038  70.963  1.00  0.00    -0.327 OA 
ENDBRANCH   4  27
TORSDOF 1
ENDMDL
MODEL       40
REMARK 921   NORMALIZED FREE ENERGY PREDICTED BY IDOCK:   -5.58 KCAL/MOL
REMARK 922        TOTAL FREE ENERGY PREDICTED BY IDOCK:   -6.01 KCAL/MOL
REMARK 923 INTER-LIGAND FREE ENERGY PREDICTED BY IDOCK:   -5.90 KCAL/MOL
REMARK 924 INTRA-LIGAND FREE ENERGY PREDICTED BY IDOCK:   -0.11 KCAL/MOL
REMARK 927      BINDING AFFINITY PREDICTED BY RF-SCORE:    0.00 PKD
ROOT
HETATM    1  C   UNL     1      -8.376  10.173  68.581  1.00  0.00    -0.116 C  
HETATM    2  C   UNL     1      -9.566   8.993  67.861  1.00  0.00    -0.170 C  
HETATM    3  C   UNL     1      -9.523  10.947  69.203  1.00  0.00    -0.107 C  
HETATM    4  C   UNL     1      -8.973   7.783  67.055  1.00  0.00    -0.145 C  
HETATM    5  C   UNL     1     -10.041  11.836  68.082  1.00  0.00    -0.196 C  
HETATM    6  C   UNL     1     -10.601   8.356  68.864  1.00  0.00    -0.162 C  
HETATM    7  C   UNL     1      -8.864  12.747  68.018  1.00  0.00    -0.195 C  
HETATM    8  C   UNL     1      -6.656  11.554  66.911  1.00  0.00    -0.138 C  
HETATM    9  C   UNL     1      -8.896  14.108  67.314  1.00  0.00    -0.227 C  
HETATM   10  C   UNL     1      -7.638  11.807  68.081  1.00  0.00    -0.117 C  
HETATM   11  C   UNL     1      -6.743  12.757  69.043  1.00  0.00    -0.096 C  
HETATM   12  C   UNL     1     -10.343  14.532  67.358  1.00  0.00    -0.252 C  
HETATM   13  C   UNL     1      -6.614  14.331  68.480  1.00  0.00    -0.095 C  
HETATM   14  C   UNL     1     -10.599  15.978  67.116  1.00  0.00    -0.305 C  
HETATM   15  O   UNL     1     -11.125  13.822  66.402  1.00  0.00    -0.303 OA 
HETATM   16  H   UNL     1     -12.036  14.089  66.429  1.00  0.00     0.000 HD 
HETATM   17  C   UNL     1      -9.760  16.914  67.996  1.00  0.00    -0.256 C  
HETATM   18  C   UNL     1     -10.309  18.327  67.742  1.00  0.00    -0.419 C  
HETATM   19  C   UNL     1      -9.877  19.035  66.471  1.00  0.00    -0.369 C  
HETATM   20  O   UNL     1     -10.806  18.860  65.399  1.00  0.00    -0.553 OA 
HETATM   21  C   UNL     1      -8.456  18.696  66.031  1.00  0.00    -0.047 C  
HETATM   22  C   UNL     1      -7.895  17.261  66.379  1.00  0.00    -0.345 C  
HETATM   23  H   UNL     1     -10.535  19.303  64.604  1.00  0.00     0.000 HD 
HETATM   24  C   UNL     1      -8.219  16.680  67.804  1.00  0.00    -0.184 C  
HETATM   25  C   UNL     1      -7.411  17.510  68.823  1.00  0.00    -0.258 C  
HETATM   26  C   UNL     1      -7.996  15.068  68.169  1.00  0.00    -0.131 C  
ENDROOT
BRANCH   4  27
HETATM   27  C   UNL     1     -10.067   6.828  66.488  1.00  0.00    -0.136 C  
HETATM   28  O   UNL     1     -10.674   4.603  65.949  1.00  0.00    -0.307 OA 
HETATM   29  C   UNL     1      -9.650   5.383  66.393  1.00  0.00    -0.159 C  
HETATM   30  O   UNL     1      -8.559   4.936  66.674  1.00  0.00    -0.110 OA 
ENDBRANCH   4  27
TORSDOF 1
ENDMDL
MODEL       41
REMARK 921   NORMALIZED FREE ENERGY PREDICTED BY IDOCK:   -5.58 KCAL/MOL
REMARK 922        TOTAL FREE ENERGY PREDICTED BY IDOCK:   -6.01 KCAL/MOL
REMARK 923 INTER-LIGAND FREE ENERGY PREDICTED BY IDOCK:   -5.89 KCAL/MOL
REMARK 924 INTRA-LIGAND FREE ENERGY PREDICTED BY IDOCK:   -0.11 KCAL/MOL
REMARK 927      BINDING AFFINITY PREDICTED BY RF-SCORE:    0.00 PKD
ROOT
HETATM    1  C   UNL     1      -8.947   8.552  67.979  1.00  0.00    -0.141 C  
HETATM    2  C   UNL     1      -9.760   7.357  66.866  1.00  0.00    -0.265 C  
HETATM    3  C   UNL     1     -10.290   9.199  68.262  1.00  0.00    -0.256 C  
HETATM    4  C   UNL     1      -8.851   6.254  66.216  1.00  0.00    -0.153 C  
HETATM    5  C   UNL     1     -10.520  10.137  67.086  1.00  0.00    -0.305 C  
HETATM    6  C   UNL     1     -10.991   6.577  67.469  1.00  0.00    -0.444 C  
HETATM    7  C   UNL     1      -9.461  11.125  67.434  1.00  0.00    -0.176 C  
HETATM    8  C   UNL     1      -6.929  10.167  66.993  1.00  0.00    -0.088 C  
HETATM    9  C   UNL     1      -9.397  12.531  66.829  1.00  0.00    -0.230 C  
HETATM   10  C   UNL     1      -8.235  10.264  67.818  1.00  0.00    -0.110 C  
HETATM   11  C   UNL     1      -7.756  11.192  69.058  1.00  0.00    -0.114 C  
HETATM   12  C   UNL     1     -10.820  12.856  66.452  1.00  0.00    -0.274 C  
HETATM   13  C   UNL     1      -7.599  12.810  68.648  1.00  0.00    -0.085 C  
HETATM   14  C   UNL     1     -11.114  14.297  66.222  1.00  0.00    -0.323 C  
HETATM   15  O   UNL     1     -11.215  12.173  65.265  1.00  0.00    -0.315 OA 
HETATM   16  H   UNL     1     -12.111  12.378  65.027  1.00  0.00     0.000 HD 
HETATM   17  C   UNL     1     -10.662  15.214  67.366  1.00  0.00    -0.286 C  
HETATM   18  C   UNL     1     -11.228  16.604  67.034  1.00  0.00     0.294 C  
HETATM   19  C   UNL     1     -10.495  17.435  65.996  1.00  0.00    -0.276 C  
HETATM   20  O   UNL     1     -11.041  17.284  64.684  1.00  0.00    -1.052 OA 
HETATM   21  C   UNL     1      -8.985  17.224  65.995  1.00  0.00    -0.111 C  
HETATM   22  C   UNL     1      -8.433  15.806  66.418  1.00  0.00    -0.313 C  
HETATM   23  H   UNL     1     -10.582  17.804  64.035  1.00  0.00     0.000 HD 
HETATM   24  C   UNL     1      -9.121  15.095  67.642  1.00  0.00    -0.181 C  
HETATM   25  C   UNL     1      -8.731  15.895  68.903  1.00  0.00    -0.225 C  
HETATM   26  C   UNL     1      -8.881  13.478  67.970  1.00  0.00    -0.181 C  
ENDROOT
BRANCH   4  27
HETATM   27  C   UNL     1      -9.638   5.277  65.291  1.00  0.00     0.107 C  
HETATM   28  O   UNL     1      -9.873   3.062  64.484  1.00  0.00    -0.153 OA 
HETATM   29  C   UNL     1      -9.101   3.870  65.262  1.00  0.00    -0.142 C  
HETATM   30  O   UNL     1      -8.118   3.470  65.850  1.00  0.00    -0.092 OA 
ENDBRANCH   4  27
TORSDOF 1
ENDMDL
MODEL       42
REMARK 921   NORMALIZED FREE ENERGY PREDICTED BY IDOCK:   -5.38 KCAL/MOL
REMARK 922        TOTAL FREE ENERGY PREDICTED BY IDOCK:   -5.79 KCAL/MOL
REMARK 923 INTER-LIGAND FREE ENERGY PREDICTED BY IDOCK:   -5.67 KCAL/MOL
REMARK 924 INTRA-LIGAND FREE ENERGY PREDICTED BY IDOCK:   -0.12 KCAL/MOL
REMARK 927      BINDING AFFINITY PREDICTED BY RF-SCORE:    0.00 PKD
ROOT
HETATM    1  C   UNL     1     -11.229  12.592  67.031  1.00  0.00    -0.353 C  
HETATM    2  C   UNL     1     -10.216  11.198  66.433  1.00  0.00    -0.279 C  
HETATM    3  C   UNL     1     -10.919  13.360  65.761  1.00  0.00    -0.288 C  
HETATM    4  C   UNL     1     -10.153   9.919  67.342  1.00  0.00    -0.254 C  
HETATM    5  C   UNL     1      -9.551  13.979  66.009  1.00  0.00    -0.230 C  
HETATM    6  C   UNL     1     -10.558  10.664  64.990  1.00  0.00    -0.187 C  
HETATM    7  C   UNL     1      -9.985  14.965  67.038  1.00  0.00    -0.240 C  
HETATM    8  C   UNL     1     -10.596  13.794  69.441  1.00  0.00     0.062 C  
HETATM    9  C   UNL     1      -9.131  16.166  67.458  1.00  0.00    -0.207 C  
HETATM   10  C   UNL     1     -10.921  14.166  67.974  1.00  0.00    -0.269 C  
HETATM   11  C   UNL     1     -12.006  15.352  68.184  1.00  0.00    -0.052 C  
HETATM   12  C   UNL     1      -8.260  16.459  66.263  1.00  0.00    -0.308 C  
HETATM   13  C   UNL     1     -11.313  16.803  68.663  1.00  0.00    -0.062 C  
HETATM   14  C   UNL     1      -7.630  17.808  66.238  1.00  0.00    -0.322 C  
HETATM   15  O   UNL     1      -7.195  15.518  66.149  1.00  0.00     0.305 OA 
HETATM   16  H   UNL     1      -6.646  15.703  65.396  1.00  0.00     0.000 HD 
HETATM   17  C   UNL     1      -8.621  18.960  66.449  1.00  0.00    -0.301 C  
HETATM   18  C   UNL     1      -7.823  20.248  66.191  1.00  0.00    -0.204 C  
HETATM   19  C   UNL     1      -6.911  20.747  67.297  1.00  0.00    -0.358 C  
HETATM   20  O   UNL     1      -5.563  20.297  67.146  1.00  0.00    -0.166 OA 
HETATM   21  C   UNL     1      -7.435  20.463  68.700  1.00  0.00     0.072 C  
HETATM   22  C   UNL     1      -8.319  19.173  68.915  1.00  0.00    -0.325 C  
HETATM   23  H   UNL     1      -4.993  20.609  67.838  1.00  0.00     0.000 HD 
HETATM   24  C   UNL     1      -9.390  18.834  67.813  1.00  0.00    -0.323 C  
HETATM   25  C   UNL     1     -10.495  19.906  67.915  1.00  0.00    -0.505 C  
HETATM   26  C   UNL     1     -10.132  17.343  67.734  1.00  0.00    -0.323 C  
ENDROOT
BRANCH   4  27
HETATM   27  C   UNL     1      -9.271   8.782  66.742  1.00  0.00    -0.211 C  
HETATM   28  O   UNL     1      -7.592   7.158  67.131  1.00  0.00    -0.099 OA 
HETATM   29  C   UNL     1      -8.281   8.182  67.705  1.00  0.00    -0.128 C  
HETATM   30  O   UNL     1      -8.098   8.533  68.852  1.00  0.00    -0.115 OA 
ENDBRANCH   4  27
TORSDOF 1
ENDMDL
MODEL       43
REMARK 921   NORMALIZED FREE ENERGY PREDICTED BY IDOCK:   -5.38 KCAL/MOL
REMARK 922        TOTAL FREE ENERGY PREDICTED BY IDOCK:   -5.79 KCAL/MOL
REMARK 923 INTER-LIGAND FREE ENERGY PREDICTED BY IDOCK:   -5.67 KCAL/MOL
REMARK 924 INTRA-LIGAND FREE ENERGY PREDICTED BY IDOCK:   -0.12 KCAL/MOL
REMARK 927      BINDING AFFINITY PREDICTED BY RF-SCORE:    0.00 PKD
ROOT
HETATM    1  C   UNL     1     -10.937  10.761  66.676  1.00  0.00    -0.173 C  
HETATM    2  C   UNL     1     -10.611  12.547  66.853  1.00  0.00    -0.255 C  
HETATM    3  C   UNL     1     -11.476  10.721  68.094  1.00  0.00    -0.346 C  
HETATM    4  C   UNL     1     -10.043  13.296  65.596  1.00  0.00    -0.281 C  
HETATM    5  C   UNL     1     -10.238  10.618  68.974  1.00  0.00    -0.231 C  
HETATM    6  C   UNL     1     -11.823  13.425  67.347  1.00  0.00    -0.418 C  
HETATM    7  C   UNL     1      -9.864   9.227  68.594  1.00  0.00    -0.173 C  
HETATM    8  C   UNL     1      -8.850   9.056  66.051  1.00  0.00    -0.208 C  
HETATM    9  C   UNL     1      -8.882   8.374  69.404  1.00  0.00    -0.142 C  
HETATM   10  C   UNL     1     -10.020   9.187  67.056  1.00  0.00    -0.294 C  
HETATM   11  C   UNL     1     -10.660   7.698  66.989  1.00  0.00    -0.406 C  
HETATM   12  C   UNL     1      -8.966   8.916  70.808  1.00  0.00    -0.209 C  
HETATM   13  C   UNL     1      -9.752   6.552  67.810  1.00  0.00    -0.131 C  
HETATM   14  C   UNL     1      -8.433   8.026  71.876  1.00  0.00    -0.176 C  
HETATM   15  O   UNL     1      -8.268  10.153  70.933  1.00  0.00    -0.220 OA 
HETATM   16  H   UNL     1      -8.320  10.494  71.818  1.00  0.00     0.000 HD 
HETATM   17  C   UNL     1      -9.002   6.602  71.839  1.00  0.00    -0.136 C  
HETATM   18  C   UNL     1      -8.493   5.917  73.118  1.00  0.00    -0.116 C  
HETATM   19  C   UNL     1      -7.061   5.412  73.126  1.00  0.00    -0.085 C  
HETATM   20  O   UNL     1      -6.146   6.356  73.686  1.00  0.00    -0.061 OA 
HETATM   21  C   UNL     1      -6.578   4.912  71.769  1.00  0.00    -0.032 C  
HETATM   22  C   UNL     1      -7.181   5.584  70.473  1.00  0.00    -0.070 C  
HETATM   23  H   UNL     1      -5.251   6.040  73.691  1.00  0.00     0.000 HD 
HETATM   24  C   UNL     1      -8.724   5.892  70.466  1.00  0.00    -0.140 C  
HETATM   25  C   UNL     1      -9.453   4.534  70.398  1.00  0.00    -0.252 C  
HETATM   26  C   UNL     1      -9.415   6.900  69.331  1.00  0.00    -0.148 C  
ENDROOT
BRANCH   4  27
HETATM   27  C   UNL     1      -9.806  14.818  65.843  1.00  0.00    -0.363 C  
HETATM   28  O   UNL     1      -8.421  16.481  66.805  1.00  0.00    -0.192 OA 
HETATM   29  C   UNL     1      -8.598  15.136  66.684  1.00  0.00    -0.243 C  
HETATM   30  O   UNL     1      -7.852  14.328  67.195  1.00  0.00    -0.170 OA 
ENDBRANCH   4  27
TORSDOF 1
ENDMDL
MODEL       44
REMARK 921   NORMALIZED FREE ENERGY PREDICTED BY IDOCK:   -5.30 KCAL/MOL
REMARK 922        TOTAL FREE ENERGY PREDICTED BY IDOCK:   -5.71 KCAL/MOL
REMARK 923 INTER-LIGAND FREE ENERGY PREDICTED BY IDOCK:   -5.61 KCAL/MOL
REMARK 924 INTRA-LIGAND FREE ENERGY PREDICTED BY IDOCK:   -0.10 KCAL/MOL
REMARK 927      BINDING AFFINITY PREDICTED BY RF-SCORE:    0.00 PKD
ROOT
HETATM    1  C   UNL     1     -10.190  11.106  68.926  1.00  0.00    -0.209 C  
HETATM    2  C   UNL     1     -10.224  11.523  67.151  1.00  0.00    -0.233 C  
HETATM    3  C   UNL     1      -8.766  10.606  68.780  1.00  0.00    -0.157 C  
HETATM    4  C   UNL     1     -11.528  12.203  66.602  1.00  0.00    -0.426 C  
HETATM    5  C   UNL     1      -8.908   9.190  68.240  1.00  0.00    -0.129 C  
HETATM    6  C   UNL     1      -9.038  12.420  66.628  1.00  0.00    -0.204 C  
HETATM    7  C   UNL     1      -9.475   8.583  69.476  1.00  0.00    -0.165 C  
HETATM    8  C   UNL     1     -12.067   9.346  69.943  1.00  0.00     0.419 C  
HETATM    9  C   UNL     1      -9.523   7.071  69.719  1.00  0.00    -0.145 C  
HETATM   10  C   UNL     1     -10.540   9.596  69.956  1.00  0.00    -0.300 C  
HETATM   11  C   UNL     1     -10.211   9.452  71.537  1.00  0.00    -0.223 C  
HETATM   12  C   UNL     1      -8.390   6.511  68.896  1.00  0.00    -0.122 C  
HETATM   13  C   UNL     1     -10.210   7.861  72.068  1.00  0.00    -0.270 C  
HETATM   14  C   UNL     1      -7.950   5.135  69.256  1.00  0.00    -0.080 C  
HETATM   15  O   UNL     1      -8.719   6.475  67.510  1.00  0.00    -0.115 OA 
HETATM   16  H   UNL     1      -8.005   6.122  66.992  1.00  0.00     0.000 HD 
HETATM   17  C   UNL     1      -7.643   4.951  70.748  1.00  0.00    -0.066 C  
HETATM   18  C   UNL     1      -7.023   3.550  70.876  1.00  0.00    -0.033 C  
HETATM   19  C   UNL     1      -7.962   2.358  70.859  1.00  0.00    -0.049 C  
HETATM   20  O   UNL     1      -8.111   1.791  69.555  1.00  0.00    -0.045 OA 
HETATM   21  C   UNL     1      -9.319   2.634  71.498  1.00  0.00    -0.199 C  
HETATM   22  C   UNL     1      -9.891   4.104  71.418  1.00  0.00    -0.254 C  
HETATM   23  H   UNL     1      -8.698   1.045  69.544  1.00  0.00     0.000 HD 
HETATM   24  C   UNL     1      -8.883   5.290  71.651  1.00  0.00    -0.144 C  
HETATM   25  C   UNL     1      -8.493   5.261  73.143  1.00  0.00    -0.114 C  
HETATM   26  C   UNL     1      -9.267   6.863  71.253  1.00  0.00    -0.157 C  
ENDROOT
BRANCH   4  27
HETATM   27  C   UNL     1     -11.457  12.528  65.079  1.00  0.00    -0.368 C  
HETATM   28  O   UNL     1     -12.338  13.782  63.273  1.00  0.00    -0.756 OA 
HETATM   29  C   UNL     1     -12.501  13.500  64.595  1.00  0.00    -0.323 C  
HETATM   30  O   UNL     1     -13.381  13.994  65.267  1.00  0.00    -0.741 OA 
ENDBRANCH   4  27
TORSDOF 1
ENDMDL
MODEL       45
REMARK 921   NORMALIZED FREE ENERGY PREDICTED BY IDOCK:   -5.27 KCAL/MOL
REMARK 922        TOTAL FREE ENERGY PREDICTED BY IDOCK:   -5.68 KCAL/MOL
REMARK 923 INTER-LIGAND FREE ENERGY PREDICTED BY IDOCK:   -5.79 KCAL/MOL
REMARK 924 INTRA-LIGAND FREE ENERGY PREDICTED BY IDOCK:    0.11 KCAL/MOL
REMARK 927      BINDING AFFINITY PREDICTED BY RF-SCORE:    0.00 PKD
ROOT
HETATM    1  C   UNL     1     -11.171  15.075  68.304  1.00  0.00    -0.309 C  
HETATM    2  C   UNL     1     -10.296  16.654  68.044  1.00  0.00    -0.303 C  
HETATM    3  C   UNL     1     -10.043  14.600  69.201  1.00  0.00    -0.178 C  
HETATM    4  C   UNL     1     -11.021  17.734  67.165  1.00  0.00     0.006 C  
HETATM    5  C   UNL     1      -8.977  14.089  68.242  1.00  0.00    -0.190 C  
HETATM    6  C   UNL     1      -9.844  17.416  69.347  1.00  0.00     0.042 C  
HETATM    7  C   UNL     1      -9.719  12.885  67.775  1.00  0.00    -0.214 C  
HETATM    8  C   UNL     1     -11.816  13.505  66.119  1.00  0.00    -0.426 C  
HETATM    9  C   UNL     1      -9.046  11.721  67.040  1.00  0.00    -0.187 C  
HETATM   10  C   UNL     1     -11.158  13.389  67.515  1.00  0.00    -0.294 C  
HETATM   11  C   UNL     1     -11.907  12.079  68.108  1.00  0.00    -0.352 C  
HETATM   12  C   UNL     1      -7.609  11.754  67.498  1.00  0.00    -0.135 C  
HETATM   13  C   UNL     1     -11.346  10.643  67.447  1.00  0.00    -0.185 C  
HETATM   14  C   UNL     1      -6.829  10.507  67.265  1.00  0.00    -0.082 C  
HETATM   15  O   UNL     1      -6.883  12.803  66.863  1.00  0.00    -0.398 OA 
HETATM   16  H   UNL     1      -5.978  12.824  67.151  1.00  0.00     0.000 HD 
HETATM   17  C   UNL     1      -7.511   9.240  67.798  1.00  0.00    -0.088 C  
HETATM   18  C   UNL     1      -6.475   8.114  67.645  1.00  0.00    -0.057 C  
HETATM   19  C   UNL     1      -6.288   7.509  66.266  1.00  0.00    -0.042 C  
HETATM   20  O   UNL     1      -5.219   8.117  65.537  1.00  0.00    -0.031 OA 
HETATM   21  C   UNL     1      -7.566   7.463  65.436  1.00  0.00    -0.096 C  
HETATM   22  C   UNL     1      -8.646   8.591  65.675  1.00  0.00    -0.200 C  
HETATM   23  H   UNL     1      -5.102   7.738  64.674  1.00  0.00     0.000 HD 
HETATM   24  C   UNL     1      -8.930   9.022  67.161  1.00  0.00    -0.144 C  
HETATM   25  C   UNL     1      -9.656   7.842  67.840  1.00  0.00    -0.167 C  
HETATM   26  C   UNL     1      -9.768  10.416  67.529  1.00  0.00    -0.195 C  
ENDROOT
BRANCH   4  27
HETATM   27  C   UNL     1     -10.199  19.050  67.009  1.00  0.00    -0.460 C  
HETATM   28  O   UNL     1      -8.236  20.077  66.172  1.00  0.00    -0.329 OA 
HETATM   29  C   UNL     1      -8.866  18.881  66.328  1.00  0.00    -0.252 C  
HETATM   30  O   UNL     1      -8.388  17.833  65.946  1.00  0.00    -0.524 OA 
ENDBRANCH   4  27
TORSDOF 1
ENDMDL
MODEL       46
REMARK 921   NORMALIZED FREE ENERGY PREDICTED BY IDOCK:   -5.20 KCAL/MOL
REMARK 922        TOTAL FREE ENERGY PREDICTED BY IDOCK:   -5.60 KCAL/MOL
REMARK 923 INTER-LIGAND FREE ENERGY PREDICTED BY IDOCK:   -5.41 KCAL/MOL
REMARK 924 INTRA-LIGAND FREE ENERGY PREDICTED BY IDOCK:   -0.19 KCAL/MOL
REMARK 927      BINDING AFFINITY PREDICTED BY RF-SCORE:    0.00 PKD
ROOT
HETATM    1  C   UNL     1      -8.233  11.730  67.976  1.00  0.00    -0.152 C  
HETATM    2  C   UNL     1      -8.805  10.616  66.651  1.00  0.00    -0.149 C  
HETATM    3  C   UNL     1      -9.628  12.317  68.082  1.00  0.00    -0.213 C  
HETATM    4  C   UNL     1      -7.759   9.596  66.075  1.00  0.00    -0.102 C  
HETATM    5  C   UNL     1      -9.699  13.347  66.964  1.00  0.00    -0.239 C  
HETATM    6  C   UNL     1     -10.086   9.756  66.975  1.00  0.00    -0.277 C  
HETATM    7  C   UNL     1      -8.751  14.327  67.563  1.00  0.00    -0.204 C  
HETATM    8  C   UNL     1      -6.145  13.475  67.475  1.00  0.00    -0.049 C  
HETATM    9  C   UNL     1      -8.643  15.781  67.092  1.00  0.00    -0.226 C  
HETATM   10  C   UNL     1      -7.572  13.467  68.075  1.00  0.00    -0.143 C  
HETATM   11  C   UNL     1      -7.340  14.297  69.449  1.00  0.00    -0.011 C  
HETATM   12  C   UNL     1      -9.997  16.101  66.511  1.00  0.00    -0.280 C  
HETATM   13  C   UNL     1      -7.181  15.949  69.202  1.00  0.00    -0.196 C  
HETATM   14  C   UNL     1     -10.306  17.549  66.352  1.00  0.00    -0.334 C  
HETATM   15  O   UNL     1     -10.164  15.513  65.223  1.00  0.00    -0.360 OA 
HETATM   16  H   UNL     1     -11.017  15.715  64.857  1.00  0.00     0.000 HD 
HETATM   17  C   UNL     1     -10.084  18.375  67.625  1.00  0.00    -0.378 C  
HETATM   18  C   UNL     1     -10.641  19.774  67.317  1.00  0.00    -0.565 C  
HETATM   19  C   UNL     1      -9.781  20.709  66.486  1.00  0.00    -0.071 C  
HETATM   20  O   UNL     1     -10.097  20.658  65.093  1.00  0.00    -0.228 OA 
HETATM   21  C   UNL     1      -8.284  20.538  66.720  1.00  0.00    -0.217 C  
HETATM   22  C   UNL     1      -7.755  19.103  67.114  1.00  0.00    -0.263 C  
HETATM   23  H   UNL     1      -9.559  21.243  64.574  1.00  0.00     0.000 HD 
HETATM   24  C   UNL     1      -8.605  18.272  68.144  1.00  0.00    -0.290 C  
HETATM   25  C   UNL     1      -8.459  18.970  69.513  1.00  0.00     0.351 C  
HETATM   26  C   UNL     1      -8.359  16.640  68.376  1.00  0.00    -0.208 C  
ENDROOT
BRANCH   4  27
HETATM   27  C   UNL     1      -8.345   8.682  64.955  1.00  0.00    -0.181 C  
HETATM   28  O   UNL     1      -8.619   8.319  62.631  1.00  0.00    -0.122 OA 
HETATM   29  C   UNL     1      -8.138   9.196  63.555  1.00  0.00    -0.159 C  
HETATM   30  O   UNL     1      -7.609  10.244  63.250  1.00  0.00    -0.149 OA 
ENDBRANCH   4  27
TORSDOF 1
ENDMDL
MODEL       47
REMARK 921   NORMALIZED FREE ENERGY PREDICTED BY IDOCK:   -5.18 KCAL/MOL
REMARK 922        TOTAL FREE ENERGY PREDICTED BY IDOCK:   -5.58 KCAL/MOL
REMARK 923 INTER-LIGAND FREE ENERGY PREDICTED BY IDOCK:   -5.47 KCAL/MOL
REMARK 924 INTRA-LIGAND FREE ENERGY PREDICTED BY IDOCK:   -0.11 KCAL/MOL
REMARK 927      BINDING AFFINITY PREDICTED BY RF-SCORE:    0.00 PKD
ROOT
HETATM    1  C   UNL     1      -8.884  12.644  68.516  1.00  0.00    -0.044 C  
HETATM    2  C   UNL     1      -8.452  13.950  67.319  1.00  0.00    -0.212 C  
HETATM    3  C   UNL     1      -7.604  11.907  68.172  1.00  0.00    -0.121 C  
HETATM    4  C   UNL     1      -9.432  15.172  67.210  1.00  0.00    -0.214 C  
HETATM    5  C   UNL     1      -7.933  11.137  66.901  1.00  0.00    -0.151 C  
HETATM    6  C   UNL     1      -7.016  14.583  67.474  1.00  0.00    -0.188 C  
HETATM    7  C   UNL     1      -8.866  10.156  67.522  1.00  0.00    -0.126 C  
HETATM    8  C   UNL     1     -11.270  11.273  68.226  1.00  0.00    -0.331 C  
HETATM    9  C   UNL     1      -9.291   8.854  66.834  1.00  0.00    -0.213 C  
HETATM   10  C   UNL     1      -9.762  11.005  68.453  1.00  0.00    -0.181 C  
HETATM   11  C   UNL     1      -9.814   9.930  69.666  1.00  0.00    -0.255 C  
HETATM   12  C   UNL     1      -8.159   8.527  65.893  1.00  0.00    -0.116 C  
HETATM   13  C   UNL     1     -10.269   8.395  69.168  1.00  0.00    -0.217 C  
HETATM   14  C   UNL     1      -8.114   7.122  65.401  1.00  0.00    -0.137 C  
HETATM   15  O   UNL     1      -8.188   9.355  64.733  1.00  0.00    -0.128 OA 
HETATM   16  H   UNL     1      -7.475   9.149  64.140  1.00  0.00     0.000 HD 
HETATM   17  C   UNL     1      -8.176   6.072  66.517  1.00  0.00    -0.107 C  
HETATM   18  C   UNL     1      -7.916   4.720  65.832  1.00  0.00    -0.103 C  
HETATM   19  C   UNL     1      -9.066   4.078  65.078  1.00  0.00    -0.140 C  
HETATM   20  O   UNL     1      -9.056   4.392  63.684  1.00  0.00    -0.141 OA 
HETATM   21  C   UNL     1     -10.434   4.350  65.695  1.00  0.00    -0.224 C  
HETATM   22  C   UNL     1     -10.644   5.715  66.462  1.00  0.00    -0.320 C  
HETATM   23  H   UNL     1      -9.775   3.989  63.212  1.00  0.00     0.000 HD 
HETATM   24  C   UNL     1      -9.475   6.214  67.389  1.00  0.00    -0.118 C  
HETATM   25  C   UNL     1      -9.424   5.260  68.601  1.00  0.00    -0.169 C  
HETATM   26  C   UNL     1      -9.416   7.777  67.968  1.00  0.00    -0.153 C  
ENDROOT
BRANCH   4  27
HETATM   27  C   UNL     1      -8.972  16.238  66.169  1.00  0.00    -0.374 C  
HETATM   28  O   UNL     1      -8.345  18.487  65.775  1.00  0.00    -0.471 OA 
HETATM   29  C   UNL     1      -8.806  17.628  66.724  1.00  0.00    -0.258 C  
HETATM   30  O   UNL     1      -9.034  17.972  67.865  1.00  0.00    -0.256 OA 
ENDBRANCH   4  27
TORSDOF 1
ENDMDL
MODEL       48
REMARK 921   NORMALIZED FREE ENERGY PREDICTED BY IDOCK:   -5.17 KCAL/MOL
REMARK 922        TOTAL FREE ENERGY PREDICTED BY IDOCK:   -5.58 KCAL/MOL
REMARK 923 INTER-LIGAND FREE ENERGY PREDICTED BY IDOCK:   -5.39 KCAL/MOL
REMARK 924 INTRA-LIGAND FREE ENERGY PREDICTED BY IDOCK:   -0.18 KCAL/MOL
REMARK 927      BINDING AFFINITY PREDICTED BY RF-SCORE:    0.00 PKD
ROOT
HETATM    1  C   UNL     1      -9.484  11.233  67.942  1.00  0.00    -0.179 C  
HETATM    2  C   UNL     1      -9.983  12.570  66.807  1.00  0.00    -0.234 C  
HETATM    3  C   UNL     1      -8.201  11.047  67.155  1.00  0.00    -0.133 C  
HETATM    4  C   UNL     1     -11.334  13.307  67.123  1.00  0.00    -0.351 C  
HETATM    5  C   UNL     1      -8.596  10.176  65.972  1.00  0.00    -0.150 C  
HETATM    6  C   UNL     1      -8.927  13.719  66.586  1.00  0.00    -0.149 C  
HETATM    7  C   UNL     1      -8.837   8.925  66.744  1.00  0.00    -0.142 C  
HETATM    8  C   UNL     1     -11.129   9.029  68.248  1.00  0.00     0.155 C  
HETATM    9  C   UNL     1      -8.930   7.543  66.089  1.00  0.00    -0.188 C  
HETATM   10  C   UNL     1      -9.644   9.379  67.982  1.00  0.00    -0.156 C  
HETATM   11  C   UNL     1      -8.897   8.403  69.040  1.00  0.00    -0.146 C  
HETATM   12  C   UNL     1      -8.120   7.659  64.822  1.00  0.00    -0.121 C  
HETATM   13  C   UNL     1      -8.867   6.799  68.551  1.00  0.00    -0.123 C  
HETATM   14  C   UNL     1      -7.702   6.372  64.202  1.00  0.00    -0.105 C  
HETATM   15  O   UNL     1      -8.827   8.378  63.815  1.00  0.00    -0.391 OA 
HETATM   16  H   UNL     1      -8.317   8.451  63.017  1.00  0.00     0.000 HD 
HETATM   17  C   UNL     1      -7.004   5.412  65.173  1.00  0.00    -0.057 C  
HETATM   18  C   UNL     1      -6.482   4.253  64.310  1.00  0.00    -0.042 C  
HETATM   19  C   UNL     1      -7.476   3.191  63.877  1.00  0.00    -0.067 C  
HETATM   20  O   UNL     1      -8.027   3.445  62.583  1.00  0.00    -0.069 OA 
HETATM   21  C   UNL     1      -8.573   2.922  64.901  1.00  0.00    -0.100 C  
HETATM   22  C   UNL     1      -9.031   4.115  65.828  1.00  0.00    -0.129 C  
HETATM   23  H   UNL     1      -8.649   2.780  62.312  1.00  0.00     0.000 HD 
HETATM   24  C   UNL     1      -7.911   5.058  66.406  1.00  0.00    -0.107 C  
HETATM   25  C   UNL     1      -7.121   4.233  67.444  1.00  0.00    -0.067 C  
HETATM   26  C   UNL     1      -8.270   6.533  67.094  1.00  0.00    -0.113 C  
ENDROOT
BRANCH   4  27
HETATM   27  C   UNL     1     -11.669  14.438  66.103  1.00  0.00    -0.384 C  
HETATM   28  O   UNL     1     -12.699  15.021  64.052  1.00  0.00    -0.772 OA 
HETATM   29  C   UNL     1     -12.386  13.973  64.863  1.00  0.00    -0.427 C  
HETATM   30  O   UNL     1     -12.673  12.826  64.593  1.00  0.00    -0.649 OA 
ENDBRANCH   4  27
TORSDOF 1
ENDMDL
MODEL       49
REMARK 921   NORMALIZED FREE ENERGY PREDICTED BY IDOCK:   -4.95 KCAL/MOL
REMARK 922        TOTAL FREE ENERGY PREDICTED BY IDOCK:   -5.34 KCAL/MOL
REMARK 923 INTER-LIGAND FREE ENERGY PREDICTED BY IDOCK:   -5.66 KCAL/MOL
REMARK 924 INTRA-LIGAND FREE ENERGY PREDICTED BY IDOCK:    0.32 KCAL/MOL
REMARK 927      BINDING AFFINITY PREDICTED BY RF-SCORE:    0.00 PKD
ROOT
HETATM    1  C   UNL     1     -11.253  13.941  68.958  1.00  0.00    -0.312 C  
HETATM    2  C   UNL     1     -11.910  14.697  70.483  1.00  0.00    -0.367 C  
HETATM    3  C   UNL     1     -12.370  12.915  68.988  1.00  0.00     0.116 C  
HETATM    4  C   UNL     1     -11.173  15.976  71.019  1.00  0.00    -0.347 C  
HETATM    5  C   UNL     1     -11.892  11.853  69.967  1.00  0.00    -0.407 C  
HETATM    6  C   UNL     1     -13.439  15.078  70.462  1.00  0.00    -0.088 C  
HETATM    7  C   UNL     1     -10.799  11.305  69.117  1.00  0.00    -0.269 C  
HETATM    8  C   UNL     1      -8.651  13.000  68.923  1.00  0.00     0.295 C  
HETATM    9  C   UNL     1     -10.133   9.950  69.381  1.00  0.00    -0.227 C  
HETATM   10  C   UNL     1     -10.085  12.552  68.547  1.00  0.00    -0.186 C  
HETATM   11  C   UNL     1      -9.845  11.947  67.061  1.00  0.00    -0.206 C  
HETATM   12  C   UNL     1     -11.175   9.142  70.113  1.00  0.00    -0.187 C  
HETATM   13  C   UNL     1      -9.107  10.441  67.074  1.00  0.00    -0.153 C  
HETATM   14  C   UNL     1     -10.953   7.670  70.134  1.00  0.00    -0.255 C  
HETATM   15  O   UNL     1     -11.290   9.549  71.474  1.00  0.00    -0.372 OA 
HETATM   16  H   UNL     1     -11.946   9.040  71.935  1.00  0.00     0.000 HD 
HETATM   17  C   UNL     1     -10.707   7.059  68.749  1.00  0.00    -0.226 C  
HETATM   18  C   UNL     1     -10.705   5.537  68.960  1.00  0.00    -0.231 C  
HETATM   19  C   UNL     1      -9.448   4.905  69.530  1.00  0.00    -0.148 C  
HETATM   20  O   UNL     1      -9.504   4.750  70.950  1.00  0.00    -0.145 OA 
HETATM   21  C   UNL     1      -8.161   5.600  69.101  1.00  0.00    -0.096 C  
HETATM   22  C   UNL     1      -8.216   7.152  68.814  1.00  0.00    -0.122 C  
HETATM   23  H   UNL     1      -8.717   4.355  71.307  1.00  0.00     0.000 HD 
HETATM   24  C   UNL     1      -9.466   7.703  68.033  1.00  0.00    -0.151 C  
HETATM   25  C   UNL     1      -9.349   7.191  66.581  1.00  0.00    -0.207 C  
HETATM   26  C   UNL     1      -9.820   9.331  67.973  1.00  0.00    -0.191 C  
ENDROOT
BRANCH   4  27
HETATM   27  C   UNL     1     -11.814  16.553  72.319  1.00  0.00    -0.396 C  
HETATM   28  O   UNL     1     -12.453  16.152  74.564  1.00  0.00    -0.705 OA 
HETATM   29  C   UNL     1     -11.945  15.563  73.446  1.00  0.00    -0.448 C  
HETATM   30  O   UNL     1     -11.640  14.390  73.405  1.00  0.00     0.375 OA 
ENDBRANCH   4  27
TORSDOF 1
ENDMDL
MODEL       50
REMARK 921   NORMALIZED FREE ENERGY PREDICTED BY IDOCK:   -4.90 KCAL/MOL
REMARK 922        TOTAL FREE ENERGY PREDICTED BY IDOCK:   -5.29 KCAL/MOL
REMARK 923 INTER-LIGAND FREE ENERGY PREDICTED BY IDOCK:   -5.19 KCAL/MOL
REMARK 924 INTRA-LIGAND FREE ENERGY PREDICTED BY IDOCK:   -0.10 KCAL/MOL
REMARK 927      BINDING AFFINITY PREDICTED BY RF-SCORE:    0.00 PKD
ROOT
HETATM    1  C   UNL     1      -9.811  12.812  65.445  1.00  0.00    -0.143 C  
HETATM    2  C   UNL     1     -10.640  13.995  66.558  1.00  0.00    -0.279 C  
HETATM    3  C   UNL     1     -11.048  11.934  65.458  1.00  0.00    -0.356 C  
HETATM    4  C   UNL     1      -9.847  15.297  66.934  1.00  0.00    -0.242 C  
HETATM    5  C   UNL     1     -10.932  11.125  66.741  1.00  0.00    -0.309 C  
HETATM    6  C   UNL     1     -12.063  14.494  66.100  1.00  0.00    -0.300 C  
HETATM    7  C   UNL     1      -9.783  10.278  66.316  1.00  0.00    -0.263 C  
HETATM    8  C   UNL     1      -7.418  11.663  66.225  1.00  0.00     0.198 C  
HETATM    9  C   UNL     1      -9.386   8.984  67.035  1.00  0.00    -0.190 C  
HETATM   10  C   UNL     1      -8.798  11.264  65.647  1.00  0.00    -0.124 C  
HETATM   11  C   UNL     1      -8.359  10.275  64.440  1.00  0.00    -0.166 C  
HETATM   12  C   UNL     1     -10.658   8.492  67.678  1.00  0.00    -0.198 C  
HETATM   13  C   UNL     1      -7.864   8.764  64.972  1.00  0.00    -0.111 C  
HETATM   14  C   UNL     1     -10.660   7.063  68.093  1.00  0.00    -0.250 C  
HETATM   15  O   UNL     1     -10.980   9.248  68.843  1.00  0.00    -0.405 OA 
HETATM   16  H   UNL     1     -11.781   8.937  69.248  1.00  0.00     0.000 HD 
HETATM   17  C   UNL     1     -10.235   6.092  66.983  1.00  0.00    -0.253 C  
HETATM   18  C   UNL     1     -10.495   4.684  67.540  1.00  0.00     0.115 C  
HETATM   19  C   UNL     1      -9.481   4.111  68.514  1.00  0.00    -0.153 C  
HETATM   20  O   UNL     1      -9.839   4.337  69.879  1.00  0.00    -0.214 OA 
HETATM   21  C   UNL     1      -8.048   4.551  68.238  1.00  0.00    -0.083 C  
HETATM   22  C   UNL     1      -7.820   5.974  67.591  1.00  0.00    -0.101 C  
HETATM   23  H   UNL     1      -9.204   3.979  70.488  1.00  0.00     0.000 HD 
HETATM   24  C   UNL     1      -8.797   6.413  66.439  1.00  0.00    -0.146 C  
HETATM   25  C   UNL     1      -8.471   5.533  65.214  1.00  0.00    -0.147 C  
HETATM   26  C   UNL     1      -8.893   7.995  65.920  1.00  0.00    -0.189 C  
ENDROOT
BRANCH   4  27
HETATM   27  C   UNL     1     -10.642  16.248  67.881  1.00  0.00    -0.318 C  
HETATM   28  O   UNL     1     -10.561  18.085  69.373  1.00  0.00     0.011 OA 
HETATM   29  C   UNL     1      -9.794  17.253  68.616  1.00  0.00    -0.313 C  
HETATM   30  O   UNL     1      -8.586  17.345  68.559  1.00  0.00    -0.259 OA 
ENDBRANCH   4  27
TORSDOF 1
ENDMDL
MODEL       51
REMARK 921   NORMALIZED FREE ENERGY PREDICTED BY IDOCK:   -4.83 KCAL/MOL
REMARK 922        TOTAL FREE ENERGY PREDICTED BY IDOCK:   -5.21 KCAL/MOL
REMARK 923 INTER-LIGAND FREE ENERGY PREDICTED BY IDOCK:   -5.02 KCAL/MOL
REMARK 924 INTRA-LIGAND FREE ENERGY PREDICTED BY IDOCK:   -0.19 KCAL/MOL
REMARK 927      BINDING AFFINITY PREDICTED BY RF-SCORE:    0.00 PKD
ROOT
HETATM    1  C   UNL     1      -7.043   6.481  67.726  1.00  0.00    -0.088 C  
HETATM    2  C   UNL     1      -7.374   6.111  69.481  1.00  0.00    -0.080 C  
HETATM    3  C   UNL     1      -6.714   7.916  68.093  1.00  0.00    -0.064 C  
HETATM    4  C   UNL     1      -7.748   4.628  69.840  1.00  0.00    -0.058 C  
HETATM    5  C   UNL     1      -8.065   8.607  68.198  1.00  0.00    -0.115 C  
HETATM    6  C   UNL     1      -6.236   6.508  70.498  1.00  0.00    -0.039 C  
HETATM    7  C   UNL     1      -8.395   8.576  66.745  1.00  0.00    -0.109 C  
HETATM    8  C   UNL     1      -9.036   6.063  65.853  1.00  0.00    -0.144 C  
HETATM    9  C   UNL     1      -9.492   9.443  66.118  1.00  0.00    -0.287 C  
HETATM   10  C   UNL     1      -8.020   7.147  66.289  1.00  0.00    -0.110 C  
HETATM   11  C   UNL     1      -7.392   7.583  64.860  1.00  0.00    -0.079 C  
HETATM   12  C   UNL     1      -9.605  10.641  67.027  1.00  0.00    -0.169 C  
HETATM   13  C   UNL     1      -8.420   8.552  63.956  1.00  0.00    -0.043 C  
HETATM   14  C   UNL     1     -10.294  11.828  66.448  1.00  0.00    -0.257 C  
HETATM   15  O   UNL     1     -10.301  10.321  68.229  1.00  0.00    -0.165 OA 
HETATM   16  H   UNL     1     -10.373  11.076  68.801  1.00  0.00     0.000 HD 
HETATM   17  C   UNL     1      -9.740  12.265  65.086  1.00  0.00    -0.106 C  
HETATM   18  C   UNL     1     -10.434  13.598  64.763  1.00  0.00    -0.436 C  
HETATM   19  C   UNL     1     -11.856  13.544  64.237  1.00  0.00    -0.428 C  
HETATM   20  O   UNL     1     -12.833  13.687  65.270  1.00  0.00    -0.672 OA 
HETATM   21  C   UNL     1     -12.145  12.323  63.369  1.00  0.00    -0.615 C  
HETATM   22  C   UNL     1     -11.356  10.991  63.678  1.00  0.00     0.343 C  
HETATM   23  H   UNL     1     -13.723  13.654  64.941  1.00  0.00     0.000 HD 
HETATM   24  C   UNL     1      -9.825  11.116  64.019  1.00  0.00    -0.349 C  
HETATM   25  C   UNL     1      -9.107  11.528  62.717  1.00  0.00    -0.141 C  
HETATM   26  C   UNL     1      -8.968   9.856  64.697  1.00  0.00    -0.260 C  
ENDROOT
BRANCH   4  27
HETATM   27  C   UNL     1      -8.003   4.410  71.363  1.00  0.00    -0.082 C  
HETATM   28  O   UNL     1      -9.598   4.254  73.106  1.00  0.00    -0.121 OA 
HETATM   29  C   UNL     1      -9.446   4.516  71.779  1.00  0.00    -0.149 C  
HETATM   30  O   UNL     1     -10.380   4.787  71.053  1.00  0.00    -0.199 OA 
ENDBRANCH   4  27
TORSDOF 1
ENDMDL
MODEL       52
REMARK 921   NORMALIZED FREE ENERGY PREDICTED BY IDOCK:   -4.78 KCAL/MOL
REMARK 922        TOTAL FREE ENERGY PREDICTED BY IDOCK:   -5.16 KCAL/MOL
REMARK 923 INTER-LIGAND FREE ENERGY PREDICTED BY IDOCK:   -5.08 KCAL/MOL
REMARK 924 INTRA-LIGAND FREE ENERGY PREDICTED BY IDOCK:   -0.09 KCAL/MOL
REMARK 927      BINDING AFFINITY PREDICTED BY RF-SCORE:    0.00 PKD
ROOT
HETATM    1  C   UNL     1     -10.658   6.609  70.541  1.00  0.00    -0.270 C  
HETATM    2  C   UNL     1      -9.440   5.558  69.681  1.00  0.00    -0.183 C  
HETATM    3  C   UNL     1     -11.304   6.946  69.210  1.00  0.00    -0.132 C  
HETATM    4  C   UNL     1      -8.405   4.787  70.575  1.00  0.00    -0.098 C  
HETATM    5  C   UNL     1     -10.442   8.059  68.634  1.00  0.00    -0.196 C  
HETATM    6  C   UNL     1     -10.032   4.472  68.704  1.00  0.00    -0.111 C  
HETATM    7  C   UNL     1     -10.838   9.114  69.608  1.00  0.00    -0.210 C  
HETATM    8  C   UNL     1      -9.770   8.714  72.102  1.00  0.00    -0.383 C  
HETATM    9  C   UNL     1     -10.585  10.607  69.372  1.00  0.00    -0.270 C  
HETATM   10  C   UNL     1     -10.797   8.411  70.984  1.00  0.00    -0.280 C  
HETATM   11  C   UNL     1     -12.127   9.122  71.578  1.00  0.00    -0.422 C  
HETATM   12  C   UNL     1     -10.536  10.760  67.872  1.00  0.00    -0.221 C  
HETATM   13  C   UNL     1     -12.097  10.794  71.445  1.00  0.00    -0.297 C  
HETATM   14  C   UNL     1     -10.710  12.146  67.358  1.00  0.00    -0.268 C  
HETATM   15  O   UNL     1      -9.302  10.287  67.340  1.00  0.00    -0.144 OA 
HETATM   16  H   UNL     1      -9.270  10.384  66.395  1.00  0.00     0.000 HD 
HETATM   17  C   UNL     1     -11.950  12.862  67.908  1.00  0.00    -0.333 C  
HETATM   18  C   UNL     1     -12.059  14.175  67.117  1.00  0.00    -0.432 C  
HETATM   19  C   UNL     1     -11.144  15.318  67.518  1.00  0.00    -0.324 C  
HETATM   20  O   UNL     1      -9.942  15.360  66.746  1.00  0.00    -0.239 OA 
HETATM   21  C   UNL     1     -10.844  15.371  69.012  1.00  0.00    -0.244 C  
HETATM   22  C   UNL     1     -10.819  14.009  69.812  1.00  0.00     0.064 C  
HETATM   23  H   UNL     1      -9.370  16.075  66.997  1.00  0.00     0.000 HD 
HETATM   24  C   UNL     1     -11.933  12.950  69.477  1.00  0.00    -0.346 C  
HETATM   25  C   UNL     1     -13.267  13.518  70.005  1.00  0.00     0.875 C  
HETATM   26  C   UNL     1     -11.819  11.364  69.980  1.00  0.00    -0.440 C  
ENDROOT
BRANCH   4  27
HETATM   27  C   UNL     1      -7.414   3.910  69.750  1.00  0.00    -0.052 C  
HETATM   28  O   UNL     1      -6.634   1.730  69.253  1.00  0.00    -0.028 OA 
HETATM   29  C   UNL     1      -7.480   2.436  70.052  1.00  0.00    -0.043 C  
HETATM   30  O   UNL     1      -8.188   1.910  70.885  1.00  0.00    -0.048 OA 
ENDBRANCH   4  27
TORSDOF 1
ENDMDL
MODEL       53
REMARK 921   NORMALIZED FREE ENERGY PREDICTED BY IDOCK:   -4.75 KCAL/MOL
REMARK 922        TOTAL FREE ENERGY PREDICTED BY IDOCK:   -5.12 KCAL/MOL
REMARK 923 INTER-LIGAND FREE ENERGY PREDICTED BY IDOCK:   -4.94 KCAL/MOL
REMARK 924 INTRA-LIGAND FREE ENERGY PREDICTED BY IDOCK:   -0.18 KCAL/MOL
REMARK 927      BINDING AFFINITY PREDICTED BY RF-SCORE:    0.00 PKD
ROOT
HETATM    1  C   UNL     1      -8.564   9.919  66.228  1.00  0.00    -0.137 C  
HETATM    2  C   UNL     1      -9.791  11.268  66.260  1.00  0.00    -0.248 C  
HETATM    3  C   UNL     1      -9.687   8.900  66.190  1.00  0.00    -0.338 C  
HETATM    4  C   UNL     1      -9.238  12.737  66.245  1.00  0.00    -0.096 C  
HETATM    5  C   UNL     1     -10.119   8.750  67.641  1.00  0.00    -0.273 C  
HETATM    6  C   UNL     1     -10.891  11.228  65.131  1.00  0.00    -0.268 C  
HETATM    7  C   UNL     1      -8.894   8.053  68.122  1.00  0.00    -0.132 C  
HETATM    8  C   UNL     1      -6.718   9.716  68.279  1.00  0.00    -0.061 C  
HETATM    9  C   UNL     1      -8.830   7.294  69.452  1.00  0.00    -0.137 C  
HETATM   10  C   UNL     1      -7.723   8.841  67.490  1.00  0.00    -0.101 C  
HETATM   11  C   UNL     1      -6.811   7.546  67.148  1.00  0.00    -0.071 C  
HETATM   12  C   UNL     1     -10.252   6.874  69.726  1.00  0.00    -0.196 C  
HETATM   13  C   UNL     1      -6.579   6.535  68.466  1.00  0.00    -0.051 C  
HETATM   14  C   UNL     1     -10.423   5.786  70.727  1.00  0.00    -0.324 C  
HETATM   15  O   UNL     1     -11.040   7.969  70.187  1.00  0.00    -0.295 OA 
HETATM   16  H   UNL     1     -11.936   7.705  70.361  1.00  0.00     0.000 HD 
HETATM   17  C   UNL     1      -9.564   4.545  70.449  1.00  0.00    -0.270 C  
HETATM   18  C   UNL     1     -10.028   3.483  71.458  1.00  0.00    -0.172 C  
HETATM   19  C   UNL     1      -9.517   3.593  72.883  1.00  0.00    -0.115 C  
HETATM   20  O   UNL     1     -10.418   4.297  73.740  1.00  0.00    -0.168 OA 
HETATM   21  C   UNL     1      -8.103   4.155  72.988  1.00  0.00    -0.090 C  
HETATM   22  C   UNL     1      -7.631   5.185  71.888  1.00  0.00    -0.096 C  
HETATM   23  H   UNL     1     -10.099   4.366  74.632  1.00  0.00     0.000 HD 
HETATM   24  C   UNL     1      -8.032   4.889  70.396  1.00  0.00    -0.070 C  
HETATM   25  C   UNL     1      -7.215   3.660  69.946  1.00  0.00    -0.042 C  
HETATM   26  C   UNL     1      -7.908   6.048  69.204  1.00  0.00    -0.099 C  
ENDROOT
BRANCH   4  27
HETATM   27  C   UNL     1     -10.363  13.817  66.265  1.00  0.00    -0.294 C  
HETATM   28  O   UNL     1     -11.528  15.447  67.529  1.00  0.00    -0.318 OA 
HETATM   29  C   UNL     1     -10.577  14.475  67.603  1.00  0.00    -0.251 C  
HETATM   30  O   UNL     1      -9.991  14.208  68.631  1.00  0.00    -0.232 OA 
ENDBRANCH   4  27
TORSDOF 1
ENDMDL
MODEL       54
REMARK 921   NORMALIZED FREE ENERGY PREDICTED BY IDOCK:   -4.73 KCAL/MOL
REMARK 922        TOTAL FREE ENERGY PREDICTED BY IDOCK:   -5.11 KCAL/MOL
REMARK 923 INTER-LIGAND FREE ENERGY PREDICTED BY IDOCK:   -4.94 KCAL/MOL
REMARK 924 INTRA-LIGAND FREE ENERGY PREDICTED BY IDOCK:   -0.16 KCAL/MOL
REMARK 927      BINDING AFFINITY PREDICTED BY RF-SCORE:    0.00 PKD
ROOT
HETATM    1  C   UNL     1      -7.834   6.542  68.597  1.00  0.00    -0.110 C  
HETATM    2  C   UNL     1      -6.680   6.367  69.998  1.00  0.00    -0.053 C  
HETATM    3  C   UNL     1      -6.914   7.572  67.970  1.00  0.00    -0.072 C  
HETATM    4  C   UNL     1      -7.046   5.306  71.096  1.00  0.00    -0.061 C  
HETATM    5  C   UNL     1      -7.253   8.875  68.679  1.00  0.00    -0.072 C  
HETATM    6  C   UNL     1      -5.177   6.075  69.624  1.00  0.00    -0.008 C  
HETATM    7  C   UNL     1      -8.606   9.056  68.082  1.00  0.00    -0.130 C  
HETATM    8  C   UNL     1     -10.453   7.291  69.081  1.00  0.00    -0.222 C  
HETATM    9  C   UNL     1      -9.364  10.388  68.116  1.00  0.00    -0.149 C  
HETATM   10  C   UNL     1      -9.260   7.657  68.165  1.00  0.00    -0.138 C  
HETATM   11  C   UNL     1      -9.985   7.722  66.716  1.00  0.00    -0.331 C  
HETATM   12  C   UNL     1      -8.290  11.442  68.211  1.00  0.00    -0.152 C  
HETATM   13  C   UNL     1     -10.902   9.109  66.499  1.00  0.00     0.231 C  
HETATM   14  C   UNL     1      -8.709  12.825  67.854  1.00  0.00    -0.185 C  
HETATM   15  O   UNL     1      -7.746  11.516  69.527  1.00  0.00    -0.352 OA 
HETATM   16  H   UNL     1      -7.070  12.181  69.587  1.00  0.00     0.000 HD 
HETATM   17  C   UNL     1      -9.414  12.928  66.495  1.00  0.00    -0.251 C  
HETATM   18  C   UNL     1      -9.580  14.432  66.226  1.00  0.00    -0.321 C  
HETATM   19  C   UNL     1     -10.709  15.157  66.936  1.00  0.00    -0.308 C  
HETATM   20  O   UNL     1     -10.287  15.776  68.153  1.00  0.00    -0.234 OA 
HETATM   21  C   UNL     1     -11.949  14.297  67.155  1.00  0.00    -0.449 C  
HETATM   22  C   UNL     1     -11.749  12.742  67.349  1.00  0.00    -0.425 C  
HETATM   23  H   UNL     1     -10.994  16.230  68.598  1.00  0.00     0.000 HD 
HETATM   24  C   UNL     1     -10.697  12.025  66.426  1.00  0.00    -0.294 C  
HETATM   25  C   UNL     1     -11.281  12.018  64.998  1.00  0.00    -0.374 C  
HETATM   26  C   UNL     1     -10.139  10.488  66.755  1.00  0.00    -0.270 C  
ENDROOT
BRANCH   4  27
HETATM   27  C   UNL     1      -5.995   5.225  72.246  1.00  0.00    -0.026 C  
HETATM   28  O   UNL     1      -5.531   5.588  74.539  1.00  0.00    -0.027 OA 
HETATM   29  C   UNL     1      -6.477   5.748  73.573  1.00  0.00    -0.073 C  
HETATM   30  O   UNL     1      -7.561   6.245  73.793  1.00  0.00    -0.090 OA 
ENDBRANCH   4  27
TORSDOF 1
ENDMDL
MODEL       55
REMARK 921   NORMALIZED FREE ENERGY PREDICTED BY IDOCK:   -4.71 KCAL/MOL
REMARK 922        TOTAL FREE ENERGY PREDICTED BY IDOCK:   -5.08 KCAL/MOL
REMARK 923 INTER-LIGAND FREE ENERGY PREDICTED BY IDOCK:   -4.91 KCAL/MOL
REMARK 924 INTRA-LIGAND FREE ENERGY PREDICTED BY IDOCK:   -0.17 KCAL/MOL
REMARK 927      BINDING AFFINITY PREDICTED BY RF-SCORE:    0.00 PKD
ROOT
HETATM    1  C   UNL     1      -8.844   8.997  69.137  1.00  0.00    -0.142 C  
HETATM    2  C   UNL     1     -10.525   9.326  69.763  1.00  0.00    -0.235 C  
HETATM    3  C   UNL     1      -9.345   9.153  67.714  1.00  0.00    -0.152 C  
HETATM    4  C   UNL     1     -10.710   9.371  71.322  1.00  0.00    -0.421 C  
HETATM    5  C   UNL     1      -9.960   7.804  67.371  1.00  0.00    -0.257 C  
HETATM    6  C   UNL     1     -11.219  10.635  69.225  1.00  0.00    -0.332 C  
HETATM    7  C   UNL     1      -8.685   7.035  67.319  1.00  0.00    -0.120 C  
HETATM    8  C   UNL     1      -7.590   6.622  69.799  1.00  0.00    -0.104 C  
HETATM    9  C   UNL     1      -8.568   5.653  66.667  1.00  0.00    -0.117 C  
HETATM   10  C   UNL     1      -7.895   7.502  68.563  1.00  0.00    -0.122 C  
HETATM   11  C   UNL     1      -6.445   7.542  67.840  1.00  0.00    -0.054 C  
HETATM   12  C   UNL     1      -9.666   5.618  65.635  1.00  0.00     0.171 C  
HETATM   13  C   UNL     1      -6.065   6.116  67.044  1.00  0.00    -0.022 C  
HETATM   14  C   UNL     1      -9.533   4.570  64.586  1.00  0.00    -0.108 C  
HETATM   15  O   UNL     1     -10.943   5.419  66.237  1.00  0.00    -0.666 OA 
HETATM   16  H   UNL     1     -11.635   5.396  65.587  1.00  0.00     0.000 HD 
HETATM   17  C   UNL     1      -8.167   4.563  63.885  1.00  0.00    -0.103 C  
HETATM   18  C   UNL     1      -8.301   3.566  62.723  1.00  0.00    -0.081 C  
HETATM   19  C   UNL     1      -8.211   2.086  63.049  1.00  0.00    -0.069 C  
HETATM   20  O   UNL     1      -9.493   1.486  63.250  1.00  0.00    -0.090 OA 
HETATM   21  C   UNL     1      -7.265   1.766  64.201  1.00  0.00    -0.055 C  
HETATM   22  C   UNL     1      -7.090   2.847  65.339  1.00  0.00    -0.058 C  
HETATM   23  H   UNL     1      -9.437   0.561  63.453  1.00  0.00     0.000 HD 
HETATM   24  C   UNL     1      -6.986   4.354  64.900  1.00  0.00    -0.057 C  
HETATM   25  C   UNL     1      -5.625   4.523  64.192  1.00  0.00    -0.014 C  
HETATM   26  C   UNL     1      -7.152   5.603  65.992  1.00  0.00    -0.068 C  
ENDROOT
BRANCH   4  27
HETATM   27  C   UNL     1     -12.178   9.667  71.757  1.00  0.00    -0.464 C  
HETATM   28  O   UNL     1     -14.326   8.786  72.224  1.00  0.00    -0.456 OA 
HETATM   29  C   UNL     1     -13.082   8.462  71.776  1.00  0.00    -0.351 C  
HETATM   30  O   UNL     1     -12.774   7.335  71.450  1.00  0.00    -0.362 OA 
ENDBRANCH   4  27
TORSDOF 1
ENDMDL
MODEL       56
REMARK 921   NORMALIZED FREE ENERGY PREDICTED BY IDOCK:   -4.58 KCAL/MOL
REMARK 922        TOTAL FREE ENERGY PREDICTED BY IDOCK:   -4.95 KCAL/MOL
REMARK 923 INTER-LIGAND FREE ENERGY PREDICTED BY IDOCK:   -5.08 KCAL/MOL
REMARK 924 INTRA-LIGAND FREE ENERGY PREDICTED BY IDOCK:    0.13 KCAL/MOL
REMARK 927      BINDING AFFINITY PREDICTED BY RF-SCORE:    0.00 PKD
ROOT
HETATM    1  C   UNL     1     -10.197  13.631  66.974  1.00  0.00    -0.250 C  
HETATM    2  C   UNL     1      -9.165  15.071  67.409  1.00  0.00    -0.200 C  
HETATM    3  C   UNL     1     -10.466  13.381  68.446  1.00  0.00    -0.257 C  
HETATM    4  C   UNL     1      -8.562  15.901  66.221  1.00  0.00    -0.348 C  
HETATM    5  C   UNL     1      -9.245  12.618  68.937  1.00  0.00     0.296 C  
HETATM    6  C   UNL     1      -9.830  16.135  68.363  1.00  0.00    -0.222 C  
HETATM    7  C   UNL     1      -9.522  11.349  68.206  1.00  0.00    -0.187 C  
HETATM    8  C   UNL     1      -9.092  11.563  65.506  1.00  0.00    -0.101 C  
HETATM    9  C   UNL     1      -8.840  10.021  68.549  1.00  0.00    -0.120 C  
HETATM   10  C   UNL     1      -9.931  11.799  66.785  1.00  0.00    -0.224 C  
HETATM   11  C   UNL     1     -11.111  10.703  66.593  1.00  0.00    -0.053 C  
HETATM   12  C   UNL     1      -8.469  10.141  70.006  1.00  0.00    -0.004 C  
HETATM   13  C   UNL     1     -10.611   9.134  66.907  1.00  0.00    -0.237 C  
HETATM   14  C   UNL     1      -8.166   8.860  70.702  1.00  0.00    -0.183 C  
HETATM   15  O   UNL     1      -7.328  10.975  70.187  1.00  0.00    -0.426 OA 
HETATM   16  H   UNL     1      -7.094  11.050  71.105  1.00  0.00     0.000 HD 
HETATM   17  C   UNL     1      -9.251   7.789  70.533  1.00  0.00    -0.162 C  
HETATM   18  C   UNL     1      -8.853   6.641  71.474  1.00  0.00    -0.138 C  
HETATM   19  C   UNL     1      -7.759   5.695  71.012  1.00  0.00    -0.104 C  
HETATM   20  O   UNL     1      -6.466   6.071  71.491  1.00  0.00    -0.047 OA 
HETATM   21  C   UNL     1      -7.744   5.463  69.505  1.00  0.00    -0.077 C  
HETATM   22  C   UNL     1      -8.235   6.636  68.569  1.00  0.00    -0.119 C  
HETATM   23  H   UNL     1      -5.782   5.479  71.202  1.00  0.00     0.000 HD 
HETATM   24  C   UNL     1      -9.507   7.443  69.022  1.00  0.00    -0.148 C  
HETATM   25  C   UNL     1     -10.716   6.495  68.879  1.00  0.00    -0.318 C  
HETATM   26  C   UNL     1      -9.918   8.902  68.327  1.00  0.00    -0.201 C  
ENDROOT
BRANCH   4  27
HETATM   27  C   UNL     1      -7.704  17.114  66.694  1.00  0.00    -0.300 C  
HETATM   28  O   UNL     1      -7.605  19.452  67.065  1.00  0.00    -0.236 OA 
HETATM   29  C   UNL     1      -8.389  18.451  66.578  1.00  0.00    -0.272 C  
HETATM   30  O   UNL     1      -9.497  18.647  66.124  1.00  0.00    -0.443 OA 
ENDBRANCH   4  27
TORSDOF 1
ENDMDL
MODEL       57
REMARK 921   NORMALIZED FREE ENERGY PREDICTED BY IDOCK:   -4.37 KCAL/MOL
REMARK 922        TOTAL FREE ENERGY PREDICTED BY IDOCK:   -4.73 KCAL/MOL
REMARK 923 INTER-LIGAND FREE ENERGY PREDICTED BY IDOCK:   -4.62 KCAL/MOL
REMARK 924 INTRA-LIGAND FREE ENERGY PREDICTED BY IDOCK:   -0.10 KCAL/MOL
REMARK 927      BINDING AFFINITY PREDICTED BY RF-SCORE:    0.00 PKD
ROOT
HETATM    1  C   UNL     1      -8.525  11.794  67.440  1.00  0.00    -0.158 C  
HETATM    2  C   UNL     1      -8.149  10.624  68.788  1.00  0.00    -0.139 C  
HETATM    3  C   UNL     1      -7.083  12.264  67.449  1.00  0.00    -0.151 C  
HETATM    4  C   UNL     1      -9.316   9.689  69.268  1.00  0.00    -0.184 C  
HETATM    5  C   UNL     1      -7.014  13.275  68.585  1.00  0.00    -0.101 C  
HETATM    6  C   UNL     1      -6.921   9.665  68.549  1.00  0.00    -0.065 C  
HETATM    7  C   UNL     1      -7.830  14.335  67.930  1.00  0.00    -0.156 C  
HETATM    8  C   UNL     1     -10.496  13.700  67.808  1.00  0.00    -0.241 C  
HETATM    9  C   UNL     1      -7.855  15.789  68.413  1.00  0.00    -0.136 C  
HETATM   10  C   UNL     1      -9.033  13.580  67.318  1.00  0.00    -0.222 C  
HETATM   11  C   UNL     1      -9.090  14.438  65.943  1.00  0.00     0.195 C  
HETATM   12  C   UNL     1      -6.528  15.991  69.100  1.00  0.00    -0.157 C  
HETATM   13  C   UNL     1      -9.133  16.095  66.202  1.00  0.00    -0.382 C  
HETATM   14  C   UNL     1      -6.115  17.407  69.304  1.00  0.00    -0.231 C  
HETATM   15  O   UNL     1      -6.508  15.380  70.388  1.00  0.00    -0.058 OA 
HETATM   16  H   UNL     1      -5.673  15.508  70.821  1.00  0.00     0.000 HD 
HETATM   17  C   UNL     1      -6.170  18.260  68.030  1.00  0.00    -0.181 C  
HETATM   18  C   UNL     1      -5.526  19.605  68.401  1.00  0.00    -0.220 C  
HETATM   19  C   UNL     1      -6.368  20.601  69.178  1.00  0.00    -0.150 C  
HETATM   20  O   UNL     1      -6.165  20.511  70.590  1.00  0.00    -0.536 OA 
HETATM   21  C   UNL     1      -7.852  20.555  68.829  1.00  0.00     0.490 C  
HETATM   22  C   UNL     1      -8.465  19.173  68.375  1.00  0.00    -0.384 C  
HETATM   23  H   UNL     1      -6.692  21.135  71.076  1.00  0.00     0.000 HD 
HETATM   24  C   UNL     1      -7.609  18.284  67.399  1.00  0.00    -0.219 C  
HETATM   25  C   UNL     1      -7.592  19.003  66.034  1.00  0.00    -0.273 C  
HETATM   26  C   UNL     1      -7.969  16.679  67.125  1.00  0.00    -0.212 C  
ENDROOT
BRANCH   4  27
HETATM   27  C   UNL     1      -8.894   8.720  70.415  1.00  0.00    -0.185 C  
HETATM   28  O   UNL     1      -9.599   7.327  72.196  1.00  0.00    -0.140 OA 
HETATM   29  C   UNL     1     -10.035   8.212  71.257  1.00  0.00    -0.181 C  
HETATM   30  O   UNL     1     -11.202   8.521  71.139  1.00  0.00    -0.249 OA 
ENDBRANCH   4  27
TORSDOF 1
ENDMDL
MODEL       58
REMARK 921   NORMALIZED FREE ENERGY PREDICTED BY IDOCK:   -4.29 KCAL/MOL
REMARK 922        TOTAL FREE ENERGY PREDICTED BY IDOCK:   -4.64 KCAL/MOL
REMARK 923 INTER-LIGAND FREE ENERGY PREDICTED BY IDOCK:   -4.70 KCAL/MOL
REMARK 924 INTRA-LIGAND FREE ENERGY PREDICTED BY IDOCK:    0.06 KCAL/MOL
REMARK 927      BINDING AFFINITY PREDICTED BY RF-SCORE:    0.00 PKD
ROOT
HETATM    1  C   UNL     1     -11.166   8.465  70.242  1.00  0.00    -0.175 C  
HETATM    2  C   UNL     1     -10.612   7.270  71.503  1.00  0.00    -0.223 C  
HETATM    3  C   UNL     1     -11.309   7.337  69.238  1.00  0.00     0.117 C  
HETATM    4  C   UNL     1     -10.322   7.832  72.940  1.00  0.00    -0.396 C  
HETATM    5  C   UNL     1      -9.901   7.114  68.706  1.00  0.00    -0.158 C  
HETATM    6  C   UNL     1     -11.546   6.020  71.728  1.00  0.00    -0.288 C  
HETATM    7  C   UNL     1      -9.795   8.388  67.941  1.00  0.00    -0.208 C  
HETATM    8  C   UNL     1      -9.520  10.582  69.563  1.00  0.00    -0.106 C  
HETATM    9  C   UNL     1      -8.731   8.632  66.865  1.00  0.00    -0.133 C  
HETATM   10  C   UNL     1     -10.358   9.465  68.896  1.00  0.00    -0.230 C  
HETATM   11  C   UNL     1     -11.151  10.305  67.758  1.00  0.00    -0.335 C  
HETATM   12  C   UNL     1      -8.378   7.259  66.352  1.00  0.00    -0.124 C  
HETATM   13  C   UNL     1     -10.187  10.711  66.447  1.00  0.00    -0.291 C  
HETATM   14  C   UNL     1      -7.681   7.221  65.037  1.00  0.00    -0.115 C  
HETATM   15  O   UNL     1      -7.542   6.557  67.268  1.00  0.00    -0.093 OA 
HETATM   16  H   UNL     1      -7.319   5.693  66.945  1.00  0.00     0.000 HD 
HETATM   17  C   UNL     1      -8.390   8.017  63.934  1.00  0.00     0.036 C  
HETATM   18  C   UNL     1      -7.637   7.691  62.635  1.00  0.00    -0.112 C  
HETATM   19  C   UNL     1      -6.319   8.401  62.385  1.00  0.00    -0.088 C  
HETATM   20  O   UNL     1      -5.190   7.639  62.820  1.00  0.00    -0.044 OA 
HETATM   21  C   UNL     1      -6.271   9.821  62.938  1.00  0.00    -0.109 C  
HETATM   22  C   UNL     1      -7.121  10.143  64.230  1.00  0.00    -0.102 C  
HETATM   23  H   UNL     1      -4.366   8.083  62.663  1.00  0.00     0.000 HD 
HETATM   24  C   UNL     1      -8.567   9.529  64.319  1.00  0.00    -0.215 C  
HETATM   25  C   UNL     1      -9.432  10.260  63.271  1.00  0.00    -0.342 C  
HETATM   26  C   UNL     1      -9.422   9.495  65.751  1.00  0.00    -0.314 C  
ENDROOT
BRANCH   4  27
HETATM   27  C   UNL     1      -9.864   6.734  73.948  1.00  0.00    -0.318 C  
HETATM   28  O   UNL     1      -8.188   5.176  74.560  1.00  0.00    -0.101 OA 
HETATM   29  C   UNL     1      -8.552   6.076  73.606  1.00  0.00    -0.125 C  
HETATM   30  O   UNL     1      -7.877   6.300  72.624  1.00  0.00    -0.104 OA 
ENDBRANCH   4  27
TORSDOF 1
ENDMDL
MODEL       59
REMARK 921   NORMALIZED FREE ENERGY PREDICTED BY IDOCK:   -4.26 KCAL/MOL
REMARK 922        TOTAL FREE ENERGY PREDICTED BY IDOCK:   -4.61 KCAL/MOL
REMARK 923 INTER-LIGAND FREE ENERGY PREDICTED BY IDOCK:   -4.46 KCAL/MOL
REMARK 924 INTRA-LIGAND FREE ENERGY PREDICTED BY IDOCK:   -0.15 KCAL/MOL
REMARK 927      BINDING AFFINITY PREDICTED BY RF-SCORE:    0.00 PKD
ROOT
HETATM    1  C   UNL     1      -8.913   8.046  71.972  1.00  0.00    -0.212 C  
HETATM    2  C   UNL     1     -10.215   6.844  72.402  1.00  0.00    -0.208 C  
HETATM    3  C   UNL     1      -9.929   8.869  71.203  1.00  0.00    -0.342 C  
HETATM    4  C   UNL     1      -9.803   5.646  73.330  1.00  0.00    -0.178 C  
HETATM    5  C   UNL     1     -10.032   8.185  69.848  1.00  0.00    -0.190 C  
HETATM    6  C   UNL     1     -11.521   7.441  73.053  1.00  0.00    -0.210 C  
HETATM    7  C   UNL     1      -8.679   8.562  69.353  1.00  0.00    -0.136 C  
HETATM    8  C   UNL     1      -6.666   7.184  70.607  1.00  0.00    -0.052 C  
HETATM    9  C   UNL     1      -8.273   8.477  67.878  1.00  0.00    -0.119 C  
HETATM   10  C   UNL     1      -7.738   8.300  70.552  1.00  0.00    -0.081 C  
HETATM   11  C   UNL     1      -6.812   9.613  70.333  1.00  0.00    -0.120 C  
HETATM   12  C   UNL     1      -9.566   8.614  67.113  1.00  0.00    -0.173 C  
HETATM   13  C   UNL     1      -6.224   9.752  68.768  1.00  0.00    -0.042 C  
HETATM   14  C   UNL     1      -9.429   8.973  65.674  1.00  0.00    -0.273 C  
HETATM   15  O   UNL     1     -10.328   7.411  67.154  1.00  0.00    -0.245 OA 
HETATM   16  H   UNL     1     -11.141   7.497  66.672  1.00  0.00     0.000 HD 
HETATM   17  C   UNL     1      -8.548  10.202  65.421  1.00  0.00    -0.165 C  
HETATM   18  C   UNL     1      -8.697  10.521  63.925  1.00  0.00    -0.176 C  
HETATM   19  C   UNL     1      -7.909   9.676  62.941  1.00  0.00    -0.125 C  
HETATM   20  O   UNL     1      -8.666   8.579  62.425  1.00  0.00    -0.380 OA 
HETATM   21  C   UNL     1      -6.557   9.213  63.473  1.00  0.00    -0.090 C  
HETATM   22  C   UNL     1      -6.415   8.971  65.027  1.00  0.00    -0.065 C  
HETATM   23  H   UNL     1      -8.172   8.050  61.809  1.00  0.00     0.000 HD 
HETATM   24  C   UNL     1      -7.095  10.013  65.990  1.00  0.00    -0.111 C  
HETATM   25  C   UNL     1      -6.291  11.325  65.873  1.00  0.00     0.151 C  
HETATM   26  C   UNL     1      -7.323   9.697  67.611  1.00  0.00    -0.090 C  
ENDROOT
BRANCH   4  27
HETATM   27  C   UNL     1     -10.985   4.680  73.647  1.00  0.00    -0.392 C  
HETATM   28  O   UNL     1     -11.848   2.480  73.488  1.00  0.00    -0.162 OA 
HETATM   29  C   UNL     1     -10.809   3.280  73.120  1.00  0.00    -0.139 C  
HETATM   30  O   UNL     1      -9.874   2.878  72.460  1.00  0.00    -0.131 OA 
ENDBRANCH   4  27
TORSDOF 1
ENDMDL
MODEL       60
REMARK 921   NORMALIZED FREE ENERGY PREDICTED BY IDOCK:   -4.21 KCAL/MOL
REMARK 922        TOTAL FREE ENERGY PREDICTED BY IDOCK:   -4.56 KCAL/MOL
REMARK 923 INTER-LIGAND FREE ENERGY PREDICTED BY IDOCK:   -4.43 KCAL/MOL
REMARK 924 INTRA-LIGAND FREE ENERGY PREDICTED BY IDOCK:   -0.13 KCAL/MOL
REMARK 927      BINDING AFFINITY PREDICTED BY RF-SCORE:    0.00 PKD
ROOT
HETATM    1  C   UNL     1      -9.437  10.374  68.857  1.00  0.00    -0.190 C  
HETATM    2  C   UNL     1     -11.142  10.899  69.236  1.00  0.00    -0.305 C  
HETATM    3  C   UNL     1      -9.837  10.124  67.415  1.00  0.00    -0.225 C  
HETATM    4  C   UNL     1     -11.429  11.392  70.699  1.00  0.00     0.162 C  
HETATM    5  C   UNL     1     -10.479   8.745  67.426  1.00  0.00    -0.349 C  
HETATM    6  C   UNL     1     -11.748  12.011  68.298  1.00  0.00    -0.396 C  
HETATM    7  C   UNL     1      -9.234   7.970  67.690  1.00  0.00    -0.145 C  
HETATM    8  C   UNL     1      -8.323   8.266  70.260  1.00  0.00    -0.123 C  
HETATM    9  C   UNL     1      -9.127   6.458  67.469  1.00  0.00    -0.114 C  
HETATM   10  C   UNL     1      -8.511   8.760  68.805  1.00  0.00    -0.129 C  
HETATM   11  C   UNL     1      -7.015   8.565  68.211  1.00  0.00    -0.070 C  
HETATM   12  C   UNL     1     -10.155   6.148  66.410  1.00  0.00    -0.060 C  
HETATM   13  C   UNL     1      -6.639   6.964  67.884  1.00  0.00    -0.059 C  
HETATM   14  C   UNL     1      -9.993   4.841  65.716  1.00  0.00    -0.225 C  
HETATM   15  O   UNL     1     -11.476   6.153  66.947  1.00  0.00    -0.556 OA 
HETATM   16  H   UNL     1     -12.123   5.957  66.281  1.00  0.00     0.000 HD 
HETATM   17  C   UNL     1      -8.585   4.609  65.151  1.00  0.00    -0.135 C  
HETATM   18  C   UNL     1      -8.679   3.323  64.314  1.00  0.00    -0.093 C  
HETATM   19  C   UNL     1      -8.669   1.997  65.053  1.00  0.00    -0.115 C  
HETATM   20  O   UNL     1      -9.983   1.504  65.320  1.00  0.00    -0.245 OA 
HETATM   21  C   UNL     1      -7.814   2.004  66.316  1.00  0.00    -0.076 C  
HETATM   22  C   UNL     1      -7.674   3.362  67.109  1.00  0.00    -0.079 C  
HETATM   23  H   UNL     1      -9.977   0.674  65.782  1.00  0.00     0.000 HD 
HETATM   24  C   UNL     1      -7.483   4.678  66.268  1.00  0.00    -0.082 C  
HETATM   25  C   UNL     1      -6.073   4.613  65.645  1.00  0.00    -0.027 C  
HETATM   26  C   UNL     1      -7.673   6.191  66.944  1.00  0.00    -0.103 C  
ENDROOT
BRANCH   4  27
HETATM   27  C   UNL     1     -12.910  11.827  70.922  1.00  0.00    -0.243 C  
HETATM   28  O   UNL     1     -14.390  13.503  71.699  1.00  0.00     0.014 OA 
HETATM   29  C   UNL     1     -13.076  13.164  71.595  1.00  0.00    -0.353 C  
HETATM   30  O   UNL     1     -12.181  13.876  71.997  1.00  0.00    -0.109 OA 
ENDBRANCH   4  27
TORSDOF 1
ENDMDL
MODEL       61
REMARK 921   NORMALIZED FREE ENERGY PREDICTED BY IDOCK:   -4.04 KCAL/MOL
REMARK 922        TOTAL FREE ENERGY PREDICTED BY IDOCK:   -4.38 KCAL/MOL
REMARK 923 INTER-LIGAND FREE ENERGY PREDICTED BY IDOCK:   -4.27 KCAL/MOL
REMARK 924 INTRA-LIGAND FREE ENERGY PREDICTED BY IDOCK:   -0.11 KCAL/MOL
REMARK 927      BINDING AFFINITY PREDICTED BY RF-SCORE:    0.00 PKD
ROOT
HETATM    1  C   UNL     1      -9.023  11.052  66.427  1.00  0.00    -0.190 C  
HETATM    2  C   UNL     1     -10.446  11.458  67.494  1.00  0.00    -0.233 C  
HETATM    3  C   UNL     1      -9.924  10.202  65.552  1.00  0.00    -0.363 C  
HETATM    4  C   UNL     1     -10.186  12.449  68.684  1.00  0.00    -0.169 C  
HETATM    5  C   UNL     1     -10.023   8.869  66.279  1.00  0.00    -0.337 C  
HETATM    6  C   UNL     1     -11.723  12.019  66.759  1.00  0.00    -0.339 C  
HETATM    7  C   UNL     1      -8.619   8.431  66.041  1.00  0.00    -0.164 C  
HETATM    8  C   UNL     1      -6.799   9.836  67.537  1.00  0.00    -0.082 C  
HETATM    9  C   UNL     1      -8.153   6.983  66.222  1.00  0.00    -0.115 C  
HETATM   10  C   UNL     1      -7.764   9.685  66.335  1.00  0.00    -0.101 C  
HETATM   11  C   UNL     1      -6.716   9.466  65.117  1.00  0.00    -0.080 C  
HETATM   12  C   UNL     1      -9.390   6.148  66.004  1.00  0.00    -0.057 C  
HETATM   13  C   UNL     1      -6.044   7.930  65.094  1.00  0.00    -0.041 C  
HETATM   14  C   UNL     1      -9.153   4.706  65.718  1.00  0.00    -0.139 C  
HETATM   15  O   UNL     1     -10.257   6.194  67.135  1.00  0.00    -0.154 OA 
HETATM   16  H   UNL     1     -11.035   5.668  66.998  1.00  0.00     0.000 HD 
HETATM   17  C   UNL     1      -8.155   4.454  64.581  1.00  0.00    -0.099 C  
HETATM   18  C   UNL     1      -8.204   2.941  64.312  1.00  0.00    -0.083 C  
HETATM   19  C   UNL     1      -7.447   2.030  65.262  1.00  0.00    -0.066 C  
HETATM   20  O   UNL     1      -8.273   1.517  66.309  1.00  0.00    -0.073 OA 
HETATM   21  C   UNL     1      -6.169   2.648  65.818  1.00  0.00    -0.024 C  
HETATM   22  C   UNL     1      -6.124   4.215  66.008  1.00  0.00    -0.031 C  
HETATM   23  H   UNL     1      -7.800   0.947  66.903  1.00  0.00     0.000 HD 
HETATM   24  C   UNL     1      -6.754   5.103  64.872  1.00  0.00    -0.048 C  
HETATM   25  C   UNL     1      -5.832   4.979  63.641  1.00  0.00    -0.017 C  
HETATM   26  C   UNL     1      -7.086   6.720  65.101  1.00  0.00    -0.067 C  
ENDROOT
BRANCH   4  27
HETATM   27  C   UNL     1     -11.463  12.740  69.530  1.00  0.00    -0.293 C  
HETATM   28  O   UNL     1     -12.974  11.957  71.178  1.00  0.00    -0.299 OA 
HETATM   29  C   UNL     1     -11.893  11.609  70.427  1.00  0.00    -0.293 C  
HETATM   30  O   UNL     1     -11.364  10.520  70.505  1.00  0.00    -0.312 OA 
ENDBRANCH   4  27
TORSDOF 1
ENDMDL
MODEL       62
REMARK 921   NORMALIZED FREE ENERGY PREDICTED BY IDOCK:   -4.01 KCAL/MOL
REMARK 922        TOTAL FREE ENERGY PREDICTED BY IDOCK:   -4.34 KCAL/MOL
REMARK 923 INTER-LIGAND FREE ENERGY PREDICTED BY IDOCK:   -4.30 KCAL/MOL
REMARK 924 INTRA-LIGAND FREE ENERGY PREDICTED BY IDOCK:   -0.04 KCAL/MOL
REMARK 927      BINDING AFFINITY PREDICTED BY RF-SCORE:    0.00 PKD
ROOT
HETATM    1  C   UNL     1      -8.719  11.168  68.392  1.00  0.00    -0.157 C  
HETATM    2  C   UNL     1      -8.433  12.645  67.360  1.00  0.00    -0.186 C  
HETATM    3  C   UNL     1      -7.443  10.548  67.854  1.00  0.00    -0.091 C  
HETATM    4  C   UNL     1      -9.465  13.820  67.496  1.00  0.00    -0.220 C  
HETATM    5  C   UNL     1      -7.841   9.944  66.516  1.00  0.00    -0.110 C  
HETATM    6  C   UNL     1      -7.016  13.320  67.497  1.00  0.00    -0.152 C  
HETATM    7  C   UNL     1      -8.683   8.843  67.060  1.00  0.00    -0.130 C  
HETATM    8  C   UNL     1     -11.065   9.734  68.088  1.00  0.00    -0.169 C  
HETATM    9  C   UNL     1      -9.111   7.628  66.230  1.00  0.00    -0.204 C  
HETATM   10  C   UNL     1      -9.535   9.511  68.164  1.00  0.00    -0.145 C  
HETATM   11  C   UNL     1      -9.449   8.280  69.216  1.00  0.00    -0.155 C  
HETATM   12  C   UNL     1      -8.046   7.488  65.172  1.00  0.00    -0.130 C  
HETATM   13  C   UNL     1      -9.883   6.806  68.542  1.00  0.00    -0.141 C  
HETATM   14  C   UNL     1      -7.986   6.167  64.487  1.00  0.00    -0.123 C  
HETATM   15  O   UNL     1      -8.199   8.464  64.145  1.00  0.00    -0.194 OA 
HETATM   16  H   UNL     1      -7.528   8.376  63.478  1.00  0.00     0.000 HD 
HETATM   17  C   UNL     1      -7.919   4.972  65.447  1.00  0.00    -0.108 C  
HETATM   18  C   UNL     1      -7.662   3.742  64.562  1.00  0.00    -0.081 C  
HETATM   19  C   UNL     1      -8.843   3.153  63.812  1.00  0.00    -0.092 C  
HETATM   20  O   UNL     1      -8.956   3.654  62.478  1.00  0.00    -0.088 OA 
HETATM   21  C   UNL     1     -10.167   3.271  64.560  1.00  0.00    -0.037 C  
HETATM   22  C   UNL     1     -10.368   4.506  65.523  1.00  0.00    -0.254 C  
HETATM   23  H   UNL     1      -9.694   3.285  62.009  1.00  0.00     0.000 HD 
HETATM   24  C   UNL     1      -9.149   4.931  66.423  1.00  0.00    -0.127 C  
HETATM   25  C   UNL     1      -8.965   3.824  67.482  1.00  0.00    -0.157 C  
HETATM   26  C   UNL     1      -9.104   6.401  67.209  1.00  0.00    -0.117 C  
ENDROOT
BRANCH   4  27
HETATM   27  C   UNL     1      -9.131  15.039  66.582  1.00  0.00    -0.309 C  
HETATM   28  O   UNL     1      -8.396  17.288  66.462  1.00  0.00    -0.237 OA 
HETATM   29  C   UNL     1      -8.731  16.288  67.324  1.00  0.00    -0.182 C  
HETATM   30  O   UNL     1      -8.693  16.420  68.529  1.00  0.00    -0.204 OA 
ENDBRANCH   4  27
TORSDOF 1
ENDMDL
MODEL       63
REMARK 921   NORMALIZED FREE ENERGY PREDICTED BY IDOCK:   -4.01 KCAL/MOL
REMARK 922        TOTAL FREE ENERGY PREDICTED BY IDOCK:   -4.34 KCAL/MOL
REMARK 923 INTER-LIGAND FREE ENERGY PREDICTED BY IDOCK:   -4.24 KCAL/MOL
REMARK 924 INTRA-LIGAND FREE ENERGY PREDICTED BY IDOCK:   -0.10 KCAL/MOL
REMARK 927      BINDING AFFINITY PREDICTED BY RF-SCORE:    0.00 PKD
ROOT
HETATM    1  C   UNL     1      -7.222  14.498  67.543  1.00  0.00    -0.210 C  
HETATM    2  C   UNL     1      -8.484  15.798  67.328  1.00  0.00    -0.212 C  
HETATM    3  C   UNL     1      -8.075  13.539  66.735  1.00  0.00     0.264 C  
HETATM    4  C   UNL     1      -8.165  17.209  67.938  1.00  0.00    -0.202 C  
HETATM    5  C   UNL     1      -9.095  13.001  67.727  1.00  0.00    -0.200 C  
HETATM    6  C   UNL     1      -8.941  16.080  65.847  1.00  0.00    -0.256 C  
HETATM    7  C   UNL     1      -8.145  12.187  68.536  1.00  0.00    -0.112 C  
HETATM    8  C   UNL     1      -6.492  13.723  70.096  1.00  0.00     0.009 C  
HETATM    9  C   UNL     1      -8.598  11.092  69.507  1.00  0.00     0.328 C  
HETATM   10  C   UNL     1      -6.920  13.108  68.742  1.00  0.00    -0.103 C  
HETATM   11  C   UNL     1      -5.802  11.947  68.557  1.00  0.00    -0.049 C  
HETATM   12  C   UNL     1      -9.929  10.626  68.971  1.00  0.00    -0.213 C  
HETATM   13  C   UNL     1      -6.071  10.611  69.535  1.00  0.00    -0.053 C  
HETATM   14  C   UNL     1     -10.401   9.307  69.474  1.00  0.00    -0.223 C  
HETATM   15  O   UNL     1     -10.965  11.560  69.265  1.00  0.00    -0.247 OA 
HETATM   16  H   UNL     1     -11.804  11.267  68.928  1.00  0.00     0.000 HD 
HETATM   17  C   UNL     1      -9.367   8.182  69.332  1.00  0.00    -0.155 C  
HETATM   18  C   UNL     1     -10.105   6.888  69.710  1.00  0.00    -0.196 C  
HETATM   19  C   UNL     1     -10.311   6.598  71.186  1.00  0.00    -0.206 C  
HETATM   20  O   UNL     1     -11.579   7.049  71.666  1.00  0.00    -0.260 OA 
HETATM   21  C   UNL     1      -9.176   7.096  72.075  1.00  0.00    -0.146 C  
HETATM   22  C   UNL     1      -8.385   8.384  71.616  1.00  0.00    -0.202 C  
HETATM   23  H   UNL     1     -11.708   6.867  72.589  1.00  0.00     0.000 HD 
HETATM   24  C   UNL     1      -8.030   8.512  70.088  1.00  0.00    -0.105 C  
HETATM   25  C   UNL     1      -6.957   7.447  69.785  1.00  0.00    -0.056 C  
HETATM   26  C   UNL     1      -7.522   9.953  69.420  1.00  0.00    -0.108 C  
ENDROOT
BRANCH   4  27
HETATM   27  C   UNL     1      -9.298  18.253  67.695  1.00  0.00    -0.271 C  
HETATM   28  O   UNL     1      -9.896  20.541  67.572  1.00  0.00    -0.433 OA 
HETATM   29  C   UNL     1      -8.874  19.689  67.859  1.00  0.00    -0.324 C  
HETATM   30  O   UNL     1      -7.773  20.074  68.192  1.00  0.00    -0.294 OA 
ENDBRANCH   4  27
TORSDOF 1
ENDMDL
MODEL       64
REMARK 921   NORMALIZED FREE ENERGY PREDICTED BY IDOCK:   -3.91 KCAL/MOL
REMARK 922        TOTAL FREE ENERGY PREDICTED BY IDOCK:   -4.24 KCAL/MOL
REMARK 923 INTER-LIGAND FREE ENERGY PREDICTED BY IDOCK:   -4.51 KCAL/MOL
REMARK 924 INTRA-LIGAND FREE ENERGY PREDICTED BY IDOCK:    0.27 KCAL/MOL
REMARK 927      BINDING AFFINITY PREDICTED BY RF-SCORE:    0.00 PKD
ROOT
HETATM    1  C   UNL     1      -9.145  11.521  65.743  1.00  0.00    -0.164 C  
HETATM    2  C   UNL     1      -9.721  12.822  66.884  1.00  0.00    -0.234 C  
HETATM    3  C   UNL     1     -10.310  10.643  66.157  1.00  0.00    -0.291 C  
HETATM    4  C   UNL     1      -8.908  14.165  66.906  1.00  0.00    -0.223 C  
HETATM    5  C   UNL     1      -9.859   9.992  67.456  1.00  0.00    -0.211 C  
HETATM    6  C   UNL     1     -11.230  13.254  66.735  1.00  0.00    -0.331 C  
HETATM    7  C   UNL     1      -8.818   9.108  66.861  1.00  0.00    -0.137 C  
HETATM    8  C   UNL     1      -6.595  10.489  66.040  1.00  0.00    -0.127 C  
HETATM    9  C   UNL     1      -8.213   7.911  67.603  1.00  0.00    -0.124 C  
HETATM   10  C   UNL     1      -8.058  10.015  65.866  1.00  0.00    -0.126 C  
HETATM   11  C   UNL     1      -7.890   8.893  64.707  1.00  0.00    -0.121 C  
HETATM   12  C   UNL     1      -9.275   7.490  68.588  1.00  0.00    -0.144 C  
HETATM   13  C   UNL     1      -7.228   7.459  65.270  1.00  0.00    -0.069 C  
HETATM   14  C   UNL     1      -9.126   6.120  69.150  1.00  0.00    -0.128 C  
HETATM   15  O   UNL     1      -9.332   8.375  69.703  1.00  0.00    -0.159 OA 
HETATM   16  H   UNL     1     -10.000   8.110  70.325  1.00  0.00     0.000 HD 
HETATM   17  C   UNL     1      -8.948   5.028  68.087  1.00  0.00    -0.119 C  
HETATM   18  C   UNL     1      -9.016   3.693  68.845  1.00  0.00    -0.182 C  
HETATM   19  C   UNL     1      -7.777   3.246  69.600  1.00  0.00    -0.043 C  
HETATM   20  O   UNL     1      -7.802   3.629  70.977  1.00  0.00    -0.050 OA 
HETATM   21  C   UNL     1      -6.469   3.660  68.936  1.00  0.00    -0.033 C  
HETATM   22  C   UNL     1      -6.454   4.998  68.097  1.00  0.00    -0.041 C  
HETATM   23  H   UNL     1      -7.027   3.349  71.450  1.00  0.00     0.000 HD 
HETATM   24  C   UNL     1      -7.696   5.291  67.176  1.00  0.00    -0.096 C  
HETATM   25  C   UNL     1      -7.645   4.275  66.015  1.00  0.00    -0.089 C  
HETATM   26  C   UNL     1      -7.970   6.800  66.521  1.00  0.00    -0.105 C  
ENDROOT
BRANCH   4  27
HETATM   27  C   UNL     1      -9.483  15.215  67.904  1.00  0.00    -0.194 C  
HETATM   28  O   UNL     1     -10.868  17.111  68.211  1.00  0.00    -0.369 OA 
HETATM   29  C   UNL     1     -10.354  16.269  67.273  1.00  0.00    -0.285 C  
HETATM   30  O   UNL     1     -10.597  16.380  66.090  1.00  0.00    -0.311 OA 
ENDBRANCH   4  27
TORSDOF 1
ENDMDL
MODEL       65
REMARK 921   NORMALIZED FREE ENERGY PREDICTED BY IDOCK:   -3.87 KCAL/MOL
REMARK 922        TOTAL FREE ENERGY PREDICTED BY IDOCK:   -4.20 KCAL/MOL
REMARK 923 INTER-LIGAND FREE ENERGY PREDICTED BY IDOCK:   -4.02 KCAL/MOL
REMARK 924 INTRA-LIGAND FREE ENERGY PREDICTED BY IDOCK:   -0.17 KCAL/MOL
REMARK 927      BINDING AFFINITY PREDICTED BY RF-SCORE:    0.00 PKD
ROOT
HETATM    1  C   UNL     1      -8.292  13.981  68.087  1.00  0.00    -0.164 C  
HETATM    2  C   UNL     1      -9.978  14.548  68.491  1.00  0.00    -0.238 C  
HETATM    3  C   UNL     1      -8.669  13.911  66.619  1.00  0.00    -0.038 C  
HETATM    4  C   UNL     1     -10.274  14.892  69.994  1.00  0.00     0.040 C  
HETATM    5  C   UNL     1      -9.378  12.573  66.467  1.00  0.00    -0.233 C  
HETATM    6  C   UNL     1     -10.507  15.785  67.670  1.00  0.00    -0.282 C  
HETATM    7  C   UNL     1      -8.179  11.712  66.666  1.00  0.00    -0.140 C  
HETATM    8  C   UNL     1      -7.314  11.679  69.269  1.00  0.00     0.025 C  
HETATM    9  C   UNL     1      -8.141  10.229  66.282  1.00  0.00    -0.129 C  
HETATM   10  C   UNL     1      -7.445  12.338  67.874  1.00  0.00    -0.121 C  
HETATM   11  C   UNL     1      -5.947  12.133  67.289  1.00  0.00    -0.152 C  
HETATM   12  C   UNL     1      -9.158  10.089  65.177  1.00  0.00    -0.204 C  
HETATM   13  C   UNL     1      -5.641  10.560  66.794  1.00  0.00    -0.051 C  
HETATM   14  C   UNL     1      -9.043   8.860  64.346  1.00  0.00     0.180 C  
HETATM   15  O   UNL     1     -10.488  10.103  65.688  1.00  0.00    -0.182 OA 
HETATM   16  H   UNL     1     -11.129  10.015  64.992  1.00  0.00     0.000 HD 
HETATM   17  C   UNL     1      -7.635   8.619  63.784  1.00  0.00    -0.127 C  
HETATM   18  C   UNL     1      -7.772   7.439  62.809  1.00  0.00    -0.128 C  
HETATM   19  C   UNL     1      -7.844   6.042  63.398  1.00  0.00    -0.107 C  
HETATM   20  O   UNL     1      -9.187   5.589  63.585  1.00  0.00    -0.241 OA 
HETATM   21  C   UNL     1      -7.019   5.867  64.669  1.00  0.00    -0.052 C  
HETATM   22  C   UNL     1      -6.832   7.122  65.609  1.00  0.00    -0.052 C  
HETATM   23  H   UNL     1      -9.231   4.715  63.953  1.00  0.00     0.000 HD 
HETATM   24  C   UNL     1      -6.557   8.510  64.921  1.00  0.00    -0.068 C  
HETATM   25  C   UNL     1      -5.138   8.442  64.320  1.00  0.00    -0.040 C  
HETATM   26  C   UNL     1      -6.689   9.947  65.756  1.00  0.00    -0.099 C  
ENDROOT
BRANCH   4  27
HETATM   27  C   UNL     1     -11.737  15.375  70.237  1.00  0.00    -0.355 C  
HETATM   28  O   UNL     1     -13.863  14.882  71.156  1.00  0.00    -0.406 OA 
HETATM   29  C   UNL     1     -12.623  14.370  70.923  1.00  0.00    -0.352 C  
HETATM   30  O   UNL     1     -12.307  13.245  71.249  1.00  0.00    -0.308 OA 
ENDBRANCH   4  27
TORSDOF 1
ENDMDL
MODEL       66
REMARK 921   NORMALIZED FREE ENERGY PREDICTED BY IDOCK:   -3.18 KCAL/MOL
REMARK 922        TOTAL FREE ENERGY PREDICTED BY IDOCK:   -3.47 KCAL/MOL
REMARK 923 INTER-LIGAND FREE ENERGY PREDICTED BY IDOCK:   -3.28 KCAL/MOL
REMARK 924 INTRA-LIGAND FREE ENERGY PREDICTED BY IDOCK:   -0.19 KCAL/MOL
REMARK 927      BINDING AFFINITY PREDICTED BY RF-SCORE:    0.00 PKD
ROOT
HETATM    1  C   UNL     1      -8.221   6.733  67.554  1.00  0.00    -0.122 C  
HETATM    2  C   UNL     1      -7.166   5.714  68.638  1.00  0.00    -0.078 C  
HETATM    3  C   UNL     1      -6.992   7.468  67.053  1.00  0.00    -0.083 C  
HETATM    4  C   UNL     1      -7.879   4.596  69.480  1.00  0.00    -0.062 C  
HETATM    5  C   UNL     1      -6.712   8.520  68.116  1.00  0.00    -0.065 C  
HETATM    6  C   UNL     1      -5.949   4.995  67.942  1.00  0.00    -0.022 C  
HETATM    7  C   UNL     1      -7.897   9.378  67.835  1.00  0.00    -0.091 C  
HETATM    8  C   UNL     1     -10.251   8.246  68.669  1.00  0.00    -0.223 C  
HETATM    9  C   UNL     1      -8.023  10.821  68.337  1.00  0.00    -0.124 C  
HETATM   10  C   UNL     1      -9.070   8.384  67.678  1.00  0.00    -0.144 C  
HETATM   11  C   UNL     1      -9.784   9.157  66.444  1.00  0.00    -0.330 C  
HETATM   12  C   UNL     1      -6.602  11.299  68.502  1.00  0.00    -0.060 C  
HETATM   13  C   UNL     1     -10.047  10.786  66.750  1.00  0.00    -0.267 C  
HETATM   14  C   UNL     1      -6.423  12.774  68.585  1.00  0.00    -0.079 C  
HETATM   15  O   UNL     1      -6.002  10.757  69.676  1.00  0.00    -0.045 OA 
HETATM   16  H   UNL     1      -5.107  11.059  69.780  1.00  0.00     0.000 HD 
HETATM   17  C   UNL     1      -7.098  13.547  67.443  1.00  0.00    -0.098 C  
HETATM   18  C   UNL     1      -6.633  15.004  67.595  1.00  0.00    -0.193 C  
HETATM   19  C   UNL     1      -7.311  15.854  68.654  1.00  0.00    -0.141 C  
HETATM   20  O   UNL     1      -6.599  15.865  69.893  1.00  0.00    -0.170 OA 
HETATM   21  C   UNL     1      -8.783  15.515  68.867  1.00  0.00    -0.206 C  
HETATM   22  C   UNL     1      -9.242  14.023  68.624  1.00  0.00    -0.119 C  
HETATM   23  H   UNL     1      -7.023  16.397  70.556  1.00  0.00     0.000 HD 
HETATM   24  C   UNL     1      -8.643  13.272  67.378  1.00  0.00    -0.204 C  
HETATM   25  C   UNL     1      -9.258  13.923  66.122  1.00  0.00    -0.040 C  
HETATM   26  C   UNL     1      -8.763  11.618  67.206  1.00  0.00    -0.159 C  
ENDROOT
BRANCH   4  27
HETATM   27  C   UNL     1      -6.894   3.774  70.367  1.00  0.00    -0.034 C  
HETATM   28  O   UNL     1      -5.857   3.532  72.483  1.00  0.00    -0.007 OA 
HETATM   29  C   UNL     1      -6.677   4.333  71.748  1.00  0.00    -0.030 C  
HETATM   30  O   UNL     1      -7.160   5.356  72.187  1.00  0.00    -0.080 OA 
ENDBRANCH   4  27
TORSDOF 1
ENDMDL
MODEL       67
REMARK 921   NORMALIZED FREE ENERGY PREDICTED BY IDOCK:   -3.08 KCAL/MOL
REMARK 922        TOTAL FREE ENERGY PREDICTED BY IDOCK:   -3.36 KCAL/MOL
REMARK 923 INTER-LIGAND FREE ENERGY PREDICTED BY IDOCK:   -3.39 KCAL/MOL
REMARK 924 INTRA-LIGAND FREE ENERGY PREDICTED BY IDOCK:    0.03 KCAL/MOL
REMARK 927      BINDING AFFINITY PREDICTED BY RF-SCORE:    0.00 PKD
ROOT
HETATM    1  C   UNL     1     -10.377   7.477  70.326  1.00  0.00    -0.215 C  
HETATM    2  C   UNL     1     -10.753   6.189  71.561  1.00  0.00    -0.303 C  
HETATM    3  C   UNL     1     -11.253   6.762  69.315  1.00  0.00    -0.261 C  
HETATM    4  C   UNL     1     -10.141   6.375  72.995  1.00  0.00    -0.203 C  
HETATM    5  C   UNL     1     -10.366   5.665  68.744  1.00  0.00    -0.288 C  
HETATM    6  C   UNL     1     -12.281   5.883  71.798  1.00  0.00     0.219 C  
HETATM    7  C   UNL     1      -9.442   6.557  67.989  1.00  0.00    -0.120 C  
HETATM    8  C   UNL     1      -7.744   7.958  69.625  1.00  0.00    -0.103 C  
HETATM    9  C   UNL     1      -8.504   6.050  66.888  1.00  0.00    -0.109 C  
HETATM   10  C   UNL     1      -9.124   7.710  68.969  1.00  0.00    -0.144 C  
HETATM   11  C   UNL     1      -9.163   8.892  67.860  1.00  0.00    -0.148 C  
HETATM   12  C   UNL     1      -9.171   4.809  66.352  1.00  0.00    -0.135 C  
HETATM   13  C   UNL     1      -8.193   8.578  66.528  1.00  0.00    -0.108 C  
HETATM   14  C   UNL     1      -8.696   4.345  65.020  1.00  0.00    -0.133 C  
HETATM   15  O   UNL     1      -9.010   3.705  67.240  1.00  0.00    -0.118 OA 
HETATM   16  H   UNL     1      -9.430   2.923  66.902  1.00  0.00     0.000 HD 
HETATM   17  C   UNL     1      -8.702   5.438  63.943  1.00  0.00     0.057 C  
HETATM   18  C   UNL     1      -8.379   4.723  62.622  1.00  0.00    -0.100 C  
HETATM   19  C   UNL     1      -6.929   4.371  62.345  1.00  0.00    -0.031 C  
HETATM   20  O   UNL     1      -6.599   3.038  62.742  1.00  0.00    -0.024 OA 
HETATM   21  C   UNL     1      -5.933   5.378  62.910  1.00  0.00    -0.018 C  
HETATM   22  C   UNL     1      -6.330   6.155  64.226  1.00  0.00    -0.030 C  
HETATM   23  H   UNL     1      -5.691   2.818  62.569  1.00  0.00     0.000 HD 
HETATM   24  C   UNL     1      -7.812   6.668  64.348  1.00  0.00    -0.114 C  
HETATM   25  C   UNL     1      -7.976   7.816  63.330  1.00  0.00    -0.111 C  
HETATM   26  C   UNL     1      -8.450   7.181  65.801  1.00  0.00    -0.151 C  
ENDROOT
BRANCH   4  27
HETATM   27  C   UNL     1     -10.526   5.229  73.980  1.00  0.00    -0.318 C  
HETATM   28  O   UNL     1     -10.296   2.942  74.551  1.00  0.00    -0.150 OA 
HETATM   29  C   UNL     1      -9.971   3.876  73.616  1.00  0.00    -0.123 C  
HETATM   30  O   UNL     1      -9.310   3.618  72.633  1.00  0.00    -0.105 OA 
ENDBRANCH   4  27
TORSDOF 1
ENDMDL
MODEL       68
REMARK 921   NORMALIZED FREE ENERGY PREDICTED BY IDOCK:   -2.89 KCAL/MOL
REMARK 922        TOTAL FREE ENERGY PREDICTED BY IDOCK:   -3.16 KCAL/MOL
REMARK 923 INTER-LIGAND FREE ENERGY PREDICTED BY IDOCK:   -3.02 KCAL/MOL
REMARK 924 INTRA-LIGAND FREE ENERGY PREDICTED BY IDOCK:   -0.15 KCAL/MOL
REMARK 927      BINDING AFFINITY PREDICTED BY RF-SCORE:    0.00 PKD
ROOT
HETATM    1  C   UNL     1      -6.413  10.713  68.441  1.00  0.00    -0.054 C  
HETATM    2  C   UNL     1      -7.481  11.953  67.637  1.00  0.00    -0.127 C  
HETATM    3  C   UNL     1      -7.202   9.602  67.774  1.00  0.00    -0.085 C  
HETATM    4  C   UNL     1      -7.135  13.463  67.888  1.00  0.00    -0.137 C  
HETATM    5  C   UNL     1      -8.429   9.419  68.655  1.00  0.00    -0.119 C  
HETATM    6  C   UNL     1      -7.641  11.818  66.074  1.00  0.00     0.528 C  
HETATM    7  C   UNL     1      -7.722   8.829  69.826  1.00  0.00    -0.084 C  
HETATM    8  C   UNL     1      -6.224  10.670  71.201  1.00  0.00     0.330 C  
HETATM    9  C   UNL     1      -8.446   8.080  70.950  1.00  0.00    -0.126 C  
HETATM   10  C   UNL     1      -6.466   9.712  70.009  1.00  0.00    -0.067 C  
HETATM   11  C   UNL     1      -5.455   8.497  70.372  1.00  0.00    -0.021 C  
HETATM   12  C   UNL     1      -9.701   7.542  70.311  1.00  0.00    -0.179 C  
HETATM   13  C   UNL     1      -6.023   7.512  71.605  1.00  0.00    -0.036 C  
HETATM   14  C   UNL     1     -10.383   6.445  71.051  1.00  0.00    -0.247 C  
HETATM   15  O   UNL     1     -10.675   8.567  70.129  1.00  0.00    -0.230 OA 
HETATM   16  H   UNL     1     -11.466   8.228  69.727  1.00  0.00     0.000 HD 
HETATM   17  C   UNL     1      -9.458   5.281  71.428  1.00  0.00    -0.194 C  
HETATM   18  C   UNL     1     -10.376   4.185  71.992  1.00  0.00    -0.145 C  
HETATM   19  C   UNL     1     -10.865   4.340  73.421  1.00  0.00    -0.253 C  
HETATM   20  O   UNL     1     -12.147   4.967  73.500  1.00  0.00    -0.331 OA 
HETATM   21  C   UNL     1      -9.861   5.020  74.345  1.00  0.00    -0.206 C  
HETATM   22  C   UNL     1      -8.877   6.084  73.716  1.00  0.00    -0.123 C  
HETATM   23  H   UNL     1     -12.454   5.064  74.394  1.00  0.00     0.000 HD 
HETATM   24  C   UNL     1      -8.248   5.752  72.313  1.00  0.00    -0.108 C  
HETATM   25  C   UNL     1      -7.250   4.596  72.529  1.00  0.00    -0.081 C  
HETATM   26  C   UNL     1      -7.489   6.916  71.391  1.00  0.00    -0.082 C  
ENDROOT
BRANCH   4  27
HETATM   27  C   UNL     1      -8.099  14.444  67.152  1.00  0.00    -0.171 C  
HETATM   28  O   UNL     1     -10.202  15.532  67.149  1.00  0.00    -0.251 OA 
HETATM   29  C   UNL     1      -9.441  14.618  67.811  1.00  0.00    -0.205 C  
HETATM   30  O   UNL     1      -9.826  14.043  68.808  1.00  0.00    -0.213 OA 
ENDBRANCH   4  27
TORSDOF 1
ENDMDL
MODEL       69
REMARK 921   NORMALIZED FREE ENERGY PREDICTED BY IDOCK:   -2.78 KCAL/MOL
REMARK 922        TOTAL FREE ENERGY PREDICTED BY IDOCK:   -3.04 KCAL/MOL
REMARK 923 INTER-LIGAND FREE ENERGY PREDICTED BY IDOCK:   -3.05 KCAL/MOL
REMARK 924 INTRA-LIGAND FREE ENERGY PREDICTED BY IDOCK:    0.00 KCAL/MOL
REMARK 927      BINDING AFFINITY PREDICTED BY RF-SCORE:    0.00 PKD
ROOT
HETATM    1  C   UNL     1     -11.241  16.072  70.042  1.00  0.00    -0.362 C  
HETATM    2  C   UNL     1     -10.413  16.667  68.530  1.00  0.00    -0.319 C  
HETATM    3  C   UNL     1     -10.059  15.166  70.331  1.00  0.00     0.155 C  
HETATM    4  C   UNL     1     -11.151  17.780  67.703  1.00  0.00     0.070 C  
HETATM    5  C   UNL     1     -10.299  13.935  69.468  1.00  0.00     0.287 C  
HETATM    6  C   UNL     1      -8.938  17.193  68.710  1.00  0.00    -0.233 C  
HETATM    7  C   UNL     1     -11.467  13.409  70.228  1.00  0.00     0.015 C  
HETATM    8  C   UNL     1     -13.739  14.898  69.851  1.00  0.00     1.490 C  
HETATM    9  C   UNL     1     -11.981  11.972  70.083  1.00  0.00    -0.401 C  
HETATM   10  C   UNL     1     -12.352  14.649  70.492  1.00  0.00    -0.400 C  
HETATM   11  C   UNL     1     -12.774  14.239  72.003  1.00  0.00    -0.404 C  
HETATM   12  C   UNL     1     -10.780  11.175  69.641  1.00  0.00    -0.089 C  
HETATM   13  C   UNL     1     -13.386  12.682  72.117  1.00  0.00    -0.570 C  
HETATM   14  C   UNL     1     -10.885   9.700  69.814  1.00  0.00    -0.274 C  
HETATM   15  O   UNL     1     -10.485  11.395  68.263  1.00  0.00    -0.184 OA 
HETATM   16  H   UNL     1      -9.730  10.892  67.984  1.00  0.00     0.000 HD 
HETATM   17  C   UNL     1     -11.298   9.269  71.228  1.00  0.00    -0.423 C  
HETATM   18  C   UNL     1     -11.154   7.739  71.255  1.00  0.00    -0.271 C  
HETATM   19  C   UNL     1     -12.256   6.914  70.615  1.00  0.00    -0.258 C  
HETATM   20  O   UNL     1     -11.968   6.567  69.259  1.00  0.00    -0.519 OA 
HETATM   21  C   UNL     1     -13.642   7.535  70.745  1.00  0.00     0.236 C  
HETATM   22  C   UNL     1     -13.748   9.110  70.794  1.00  0.00     0.245 C  
HETATM   23  H   UNL     1     -12.658   6.051  68.858  1.00  0.00     0.000 HD 
HETATM   24  C   UNL     1     -12.680   9.883  71.652  1.00  0.00    -0.527 C  
HETATM   25  C   UNL     1     -12.982   9.573  73.133  1.00  0.00     1.314 C  
HETATM   26  C   UNL     1     -12.462  11.530  71.510  1.00  0.00    -0.266 C  
ENDROOT
BRANCH   4  27
HETATM   27  C   UNL     1     -10.361  18.227  66.435  1.00  0.00    -0.418 C  
HETATM   28  O   UNL     1      -9.048  19.908  65.405  1.00  0.00    -0.116 OA 
HETATM   29  C   UNL     1      -9.772  19.611  66.519  1.00  0.00    -0.399 C  
HETATM   30  O   UNL     1      -9.898  20.385  67.444  1.00  0.00    -0.425 OA 
ENDBRANCH   4  27
TORSDOF 1
ENDMDL
MODEL       70
REMARK 921   NORMALIZED FREE ENERGY PREDICTED BY IDOCK:   -2.49 KCAL/MOL
REMARK 922        TOTAL FREE ENERGY PREDICTED BY IDOCK:   -2.74 KCAL/MOL
REMARK 923 INTER-LIGAND FREE ENERGY PREDICTED BY IDOCK:   -2.54 KCAL/MOL
REMARK 924 INTRA-LIGAND FREE ENERGY PREDICTED BY IDOCK:   -0.19 KCAL/MOL
REMARK 927      BINDING AFFINITY PREDICTED BY RF-SCORE:    0.00 PKD
ROOT
HETATM    1  C   UNL     1      -8.842   7.959  66.656  1.00  0.00    -0.166 C  
HETATM    2  C   UNL     1      -8.629   6.499  67.730  1.00  0.00    -0.117 C  
HETATM    3  C   UNL     1      -7.368   8.285  66.811  1.00  0.00    -0.083 C  
HETATM    4  C   UNL     1      -9.891   5.593  67.959  1.00  0.00    -0.162 C  
HETATM    5  C   UNL     1      -7.273   9.019  68.140  1.00  0.00    -0.079 C  
HETATM    6  C   UNL     1      -7.474   5.506  67.326  1.00  0.00    -0.084 C  
HETATM    7  C   UNL     1      -7.967  10.264  67.707  1.00  0.00    -0.102 C  
HETATM    8  C   UNL     1     -10.666   9.913  67.369  1.00  0.00    -0.323 C  
HETATM    9  C   UNL     1      -7.896  11.578  68.492  1.00  0.00    -0.140 C  
HETATM   10  C   UNL     1      -9.195   9.768  66.909  1.00  0.00    -0.174 C  
HETATM   11  C   UNL     1      -9.115  10.902  65.752  1.00  0.00    -0.214 C  
HETATM   12  C   UNL     1      -6.593  11.508  69.247  1.00  0.00    -0.113 C  
HETATM   13  C   UNL     1      -9.035  12.462  66.361  1.00  0.00    -0.101 C  
HETATM   14  C   UNL     1      -6.076  12.804  69.765  1.00  0.00    -0.131 C  
HETATM   15  O   UNL     1      -6.686  10.637  70.371  1.00  0.00    -0.263 OA 
HETATM   16  H   UNL     1      -5.865  10.593  70.847  1.00  0.00     0.000 HD 
HETATM   17  C   UNL     1      -5.999  13.910  68.705  1.00  0.00    -0.088 C  
HETATM   18  C   UNL     1      -5.266  15.082  69.377  1.00  0.00    -0.091 C  
HETATM   19  C   UNL     1      -6.061  15.961  70.326  1.00  0.00    -0.042 C  
HETATM   20  O   UNL     1      -5.936  15.555  71.691  1.00  0.00     0.544 OA 
HETATM   21  C   UNL     1      -7.525  16.125  69.931  1.00  0.00     0.415 C  
HETATM   22  C   UNL     1      -8.226  14.932  69.169  1.00  0.00    -0.151 C  
HETATM   23  H   UNL     1      -6.433  16.105  72.284  1.00  0.00     0.000 HD 
HETATM   24  C   UNL     1      -7.398  14.199  68.050  1.00  0.00    -0.142 C  
HETATM   25  C   UNL     1      -7.255  15.188  66.875  1.00  0.00     0.275 C  
HETATM   26  C   UNL     1      -7.874  12.728  67.425  1.00  0.00    -0.172 C  
ENDROOT
BRANCH   4  27
HETATM   27  C   UNL     1      -9.607   4.368  68.882  1.00  0.00    -0.233 C  
HETATM   28  O   UNL     1      -9.662   3.481  71.077  1.00  0.00    -0.170 OA 
HETATM   29  C   UNL     1      -9.872   4.609  70.345  1.00  0.00    -0.236 C  
HETATM   30  O   UNL     1     -10.236   5.655  70.841  1.00  0.00    -0.201 OA 
ENDBRANCH   4  27
TORSDOF 1
ENDMDL
MODEL       71
REMARK 921   NORMALIZED FREE ENERGY PREDICTED BY IDOCK:   -1.74 KCAL/MOL
REMARK 922        TOTAL FREE ENERGY PREDICTED BY IDOCK:   -1.94 KCAL/MOL
REMARK 923 INTER-LIGAND FREE ENERGY PREDICTED BY IDOCK:   -1.75 KCAL/MOL
REMARK 924 INTRA-LIGAND FREE ENERGY PREDICTED BY IDOCK:   -0.19 KCAL/MOL
REMARK 927      BINDING AFFINITY PREDICTED BY RF-SCORE:    0.00 PKD
ROOT
HETATM    1  C   UNL     1      -8.394  10.004  64.696  1.00  0.00    -0.167 C  
HETATM    2  C   UNL     1      -7.974   8.342  65.316  1.00  0.00    -0.128 C  
HETATM    3  C   UNL     1      -7.542  10.625  65.786  1.00  0.00    -0.120 C  
HETATM    4  C   UNL     1      -8.547   7.116  64.518  1.00  0.00     0.321 C  
HETATM    5  C   UNL     1      -8.436  10.633  67.017  1.00  0.00    -0.129 C  
HETATM    6  C   UNL     1      -6.438   8.038  65.495  1.00  0.00    -0.045 C  
HETATM    7  C   UNL     1      -9.387  11.675  66.540  1.00  0.00    -0.216 C  
HETATM    8  C   UNL     1     -11.050  10.770  64.556  1.00  0.00     0.353 C  
HETATM    9  C   UNL     1     -10.352  12.416  67.472  1.00  0.00    -0.223 C  
HETATM   10  C   UNL     1      -9.686  11.289  65.073  1.00  0.00    -0.293 C  
HETATM   11  C   UNL     1      -9.688  12.804  64.495  1.00  0.00     0.091 C  
HETATM   12  C   UNL     1      -9.691  12.374  68.827  1.00  0.00     0.044 C  
HETATM   13  C   UNL     1     -10.693  13.837  65.355  1.00  0.00    -0.320 C  
HETATM   14  C   UNL     1     -10.199  13.356  69.824  1.00  0.00     1.091 C  
HETATM   15  O   UNL     1      -9.818  11.089  69.430  1.00  0.00    -0.412 OA 
HETATM   16  H   UNL     1      -9.402  11.062  70.283  1.00  0.00     0.000 HD 
HETATM   17  C   UNL     1     -10.232  14.801  69.312  1.00  0.00    -0.193 C  
HETATM   18  C   UNL     1     -10.586  15.667  70.532  1.00  0.00    -0.217 C  
HETATM   19  C   UNL     1     -12.041  15.721  70.961  1.00  0.00    -0.418 C  
HETATM   20  O   UNL     1     -12.349  14.771  71.984  1.00  0.00    -0.329 OA 
HETATM   21  C   UNL     1     -13.028  15.625  69.803  1.00  0.00     0.415 C  
HETATM   22  C   UNL     1     -12.600  14.793  68.531  1.00  0.00     0.421 C  
HETATM   23  H   UNL     1     -13.259  14.805  72.253  1.00  0.00     0.000 HD 
HETATM   24  C   UNL     1     -11.119  14.950  68.024  1.00  0.00    -0.301 C  
HETATM   25  C   UNL     1     -10.993  16.372  67.438  1.00  0.00    -0.145 C  
HETATM   26  C   UNL     1     -10.445  13.887  66.931  1.00  0.00    -0.276 C  
ENDROOT
BRANCH   4  27
HETATM   27  C   UNL     1      -8.125   5.741  65.120  1.00  0.00    -0.133 C  
HETATM   28  O   UNL     1      -8.712   3.924  66.521  1.00  0.00    -0.109 OA 
HETATM   29  C   UNL     1      -9.118   5.149  66.086  1.00  0.00    -0.144 C  
HETATM   30  O   UNL     1     -10.156   5.662  66.446  1.00  0.00    -0.172 OA 
ENDBRANCH   4  27
TORSDOF 1
ENDMDL
MODEL       72
REMARK 921   NORMALIZED FREE ENERGY PREDICTED BY IDOCK:   -1.45 KCAL/MOL
REMARK 922        TOTAL FREE ENERGY PREDICTED BY IDOCK:   -1.64 KCAL/MOL
REMARK 923 INTER-LIGAND FREE ENERGY PREDICTED BY IDOCK:   -1.56 KCAL/MOL
REMARK 924 INTRA-LIGAND FREE ENERGY PREDICTED BY IDOCK:   -0.08 KCAL/MOL
REMARK 927      BINDING AFFINITY PREDICTED BY RF-SCORE:    0.00 PKD
ROOT
HETATM    1  C   UNL     1      -6.370  12.558  69.481  1.00  0.00    -0.112 C  
HETATM    2  C   UNL     1      -7.281  11.026  69.094  1.00  0.00    -0.121 C  
HETATM    3  C   UNL     1      -7.615  13.133  70.128  1.00  0.00     2.034 C  
HETATM    4  C   UNL     1      -6.474   9.872  68.399  1.00  0.00    -0.054 C  
HETATM    5  C   UNL     1      -8.440  13.671  68.968  1.00  0.00     0.295 C  
HETATM    6  C   UNL     1      -8.026  10.341  70.303  1.00  0.00     0.251 C  
HETATM    7  C   UNL     1      -7.543  14.810  68.625  1.00  0.00    -0.126 C  
HETATM    8  C   UNL     1      -5.212  14.004  67.425  1.00  0.00     0.371 C  
HETATM    9  C   UNL     1      -7.983  15.985  67.745  1.00  0.00    -0.152 C  
HETATM   10  C   UNL     1      -6.118  14.211  68.663  1.00  0.00    -0.088 C  
HETATM   11  C   UNL     1      -5.412  15.494  69.358  1.00  0.00    -0.107 C  
HETATM   12  C   UNL     1      -9.480  16.056  67.914  1.00  0.00    -0.210 C  
HETATM   13  C   UNL     1      -5.738  16.936  68.565  1.00  0.00    -0.131 C  
HETATM   14  C   UNL     1     -10.115  17.339  67.504  1.00  0.00    -0.315 C  
HETATM   15  O   UNL     1     -10.138  15.030  67.177  1.00  0.00    -0.237 OA 
HETATM   16  H   UNL     1     -11.081  15.075  67.283  1.00  0.00     0.000 HD 
HETATM   17  C   UNL     1      -9.467  18.581  68.127  1.00  0.00    -0.341 C  
HETATM   18  C   UNL     1     -10.376  19.761  67.748  1.00  0.00    -0.573 C  
HETATM   19  C   UNL     1     -10.253  20.325  66.344  1.00  0.00    -0.338 C  
HETATM   20  O   UNL     1     -11.199  19.756  65.436  1.00  0.00    -0.312 OA 
HETATM   21  C   UNL     1      -8.838  20.262  65.779  1.00  0.00     0.110 C  
HETATM   22  C   UNL     1      -7.902  19.081  66.251  1.00  0.00    -0.303 C  
HETATM   23  H   UNL     1     -11.122  20.109  64.558  1.00  0.00     0.000 HD 
HETATM   24  C   UNL     1      -7.940  18.689  67.774  1.00  0.00    -0.267 C  
HETATM   25  C   UNL     1      -7.282  19.847  68.553  1.00  0.00    -0.331 C  
HETATM   26  C   UNL     1      -7.283  17.261  68.332  1.00  0.00    -0.220 C  
ENDROOT
BRANCH   4  27
HETATM   27  C   UNL     1      -7.336   8.603  68.119  1.00  0.00    -0.091 C  
HETATM   28  O   UNL     1      -7.720   6.317  68.604  1.00  0.00    -0.097 OA 
HETATM   29  C   UNL     1      -6.887   7.365  68.849  1.00  0.00    -0.072 C  
HETATM   30  O   UNL     1      -5.920   7.278  69.577  1.00  0.00    -0.025 OA 
ENDBRANCH   4  27
TORSDOF 1
ENDMDL
MODEL       73
REMARK 921   NORMALIZED FREE ENERGY PREDICTED BY IDOCK:   -1.44 KCAL/MOL
REMARK 922        TOTAL FREE ENERGY PREDICTED BY IDOCK:   -1.62 KCAL/MOL
REMARK 923 INTER-LIGAND FREE ENERGY PREDICTED BY IDOCK:   -1.46 KCAL/MOL
REMARK 924 INTRA-LIGAND FREE ENERGY PREDICTED BY IDOCK:   -0.16 KCAL/MOL
REMARK 927      BINDING AFFINITY PREDICTED BY RF-SCORE:    0.00 PKD
ROOT
HETATM    1  C   UNL     1      -9.590  18.615  67.877  1.00  0.00    -0.340 C  
HETATM    2  C   UNL     1      -8.092  19.280  67.078  1.00  0.00    -0.284 C  
HETATM    3  C   UNL     1      -8.728  17.924  68.916  1.00  0.00    -0.123 C  
HETATM    4  C   UNL     1      -8.302  20.227  65.843  1.00  0.00    -0.026 C  
HETATM    5  C   UNL     1      -8.266  16.640  68.243  1.00  0.00    -0.200 C  
HETATM    6  C   UNL     1      -7.088  20.047  68.021  1.00  0.00    -0.322 C  
HETATM    7  C   UNL     1      -9.591  15.959  68.231  1.00  0.00    -0.205 C  
HETATM    8  C   UNL     1     -11.328  17.042  66.406  1.00  0.00     0.869 C  
HETATM    9  C   UNL     1      -9.755  14.453  67.995  1.00  0.00    -0.221 C  
HETATM   10  C   UNL     1     -10.586  17.046  67.764  1.00  0.00    -0.350 C  
HETATM   11  C   UNL     1     -11.781  16.629  68.777  1.00  0.00     0.236 C  
HETATM   12  C   UNL     1      -8.450  13.846  68.448  1.00  0.00    -0.159 C  
HETATM   13  C   UNL     1     -12.166  14.998  68.706  1.00  0.00    -0.117 C  
HETATM   14  C   UNL     1      -8.478  12.382  68.713  1.00  0.00     0.133 C  
HETATM   15  O   UNL     1      -7.415  14.061  67.492  1.00  0.00    -0.163 OA 
HETATM   16  H   UNL     1      -6.594  13.678  67.777  1.00  0.00     0.000 HD 
HETATM   17  C   UNL     1      -9.605  11.941  69.655  1.00  0.00     1.353 C  
HETATM   18  C   UNL     1      -9.341  10.458  69.956  1.00  0.00     0.210 C  
HETATM   19  C   UNL     1      -9.741   9.441  68.902  1.00  0.00    -0.164 C  
HETATM   20  O   UNL     1      -8.662   9.096  68.030  1.00  0.00    -0.128 OA 
HETATM   21  C   UNL     1     -10.986   9.831  68.112  1.00  0.00    -0.228 C  
HETATM   22  C   UNL     1     -11.271  11.369  67.889  1.00  0.00    -0.352 C  
HETATM   23  H   UNL     1      -8.912   8.460  67.371  1.00  0.00     0.000 HD 
HETATM   24  C   UNL     1     -11.022  12.337  69.104  1.00  0.00    -0.217 C  
HETATM   25  C   UNL     1     -12.116  12.036  70.150  1.00  0.00    -0.377 C  
HETATM   26  C   UNL     1     -10.944  13.992  68.910  1.00  0.00    -0.283 C  
ENDROOT
BRANCH   4  27
HETATM   27  C   UNL     1      -6.964  20.750  65.236  1.00  0.00    -0.029 C  
HETATM   28  O   UNL     1      -5.128  20.313  63.805  1.00  0.00    -0.165 OA 
HETATM   29  C   UNL     1      -6.251  19.766  64.345  1.00  0.00    -0.194 C  
HETATM   30  O   UNL     1      -6.606  18.631  64.110  1.00  0.00     0.380 OA 
ENDBRANCH   4  27
TORSDOF 1
ENDMDL
MODEL       74
REMARK 921   NORMALIZED FREE ENERGY PREDICTED BY IDOCK:   -1.18 KCAL/MOL
REMARK 922        TOTAL FREE ENERGY PREDICTED BY IDOCK:   -1.35 KCAL/MOL
REMARK 923 INTER-LIGAND FREE ENERGY PREDICTED BY IDOCK:   -1.27 KCAL/MOL
REMARK 924 INTRA-LIGAND FREE ENERGY PREDICTED BY IDOCK:   -0.08 KCAL/MOL
REMARK 927      BINDING AFFINITY PREDICTED BY RF-SCORE:    0.00 PKD
ROOT
HETATM    1  C   UNL     1     -11.317   7.953  71.215  1.00  0.00    -0.289 C  
HETATM    2  C   UNL     1     -10.173   6.740  71.955  1.00  0.00    -0.206 C  
HETATM    3  C   UNL     1     -11.412   7.099  69.965  1.00  0.00    -0.200 C  
HETATM    4  C   UNL     1      -9.684   7.022  73.420  1.00  0.00    -0.253 C  
HETATM    5  C   UNL     1     -10.176   7.461  69.156  1.00  0.00    -0.196 C  
HETATM    6  C   UNL     1     -10.663   5.242  71.962  1.00  0.00    -0.261 C  
HETATM    7  C   UNL     1     -10.600   8.842  68.791  1.00  0.00    -0.185 C  
HETATM    8  C   UNL     1     -10.501  10.579  70.912  1.00  0.00     0.928 C  
HETATM    9  C   UNL     1      -9.943   9.650  67.667  1.00  0.00    -0.218 C  
HETATM   10  C   UNL     1     -11.162   9.437  70.103  1.00  0.00    -0.253 C  
HETATM   11  C   UNL     1     -12.406  10.218  69.417  1.00  0.00     0.229 C  
HETATM   12  C   UNL     1      -9.389   8.615  66.720  1.00  0.00    -0.179 C  
HETATM   13  C   UNL     1     -11.944  11.197  68.136  1.00  0.00    -0.131 C  
HETATM   14  C   UNL     1      -9.061   9.102  65.352  1.00  0.00    -0.271 C  
HETATM   15  O   UNL     1      -8.196   8.025  67.231  1.00  0.00    -0.119 OA 
HETATM   16  H   UNL     1      -7.847   7.374  66.635  1.00  0.00     0.000 HD 
HETATM   17  C   UNL     1     -10.207   9.861  64.671  1.00  0.00     0.322 C  
HETATM   18  C   UNL     1      -9.749  10.097  63.223  1.00  0.00    -0.112 C  
HETATM   19  C   UNL     1      -8.767  11.226  62.968  1.00  0.00    -0.025 C  
HETATM   20  O   UNL     1      -7.408  10.783  62.957  1.00  0.00    -0.345 OA 
HETATM   21  C   UNL     1      -8.950  12.422  63.896  1.00  0.00     1.366 C  
HETATM   22  C   UNL     1      -9.499  12.153  65.352  1.00  0.00    -0.035 C  
HETATM   23  H   UNL     1      -6.793  11.489  62.797  1.00  0.00     0.000 HD 
HETATM   24  C   UNL     1     -10.666  11.109  65.508  1.00  0.00    -0.251 C  
HETATM   25  C   UNL     1     -11.926  11.747  64.886  1.00  0.00    -0.069 C  
HETATM   26  C   UNL     1     -11.092  10.480  66.992  1.00  0.00    -0.183 C  
ENDROOT
BRANCH   4  27
HETATM   27  C   UNL     1      -8.718   5.926  73.966  1.00  0.00    -0.119 C  
HETATM   28  O   UNL     1      -6.542   4.992  73.912  1.00  0.00    -0.064 OA 
HETATM   29  C   UNL     1      -7.346   5.932  73.344  1.00  0.00    -0.086 C  
HETATM   30  O   UNL     1      -6.968   6.669  72.458  1.00  0.00    -0.067 OA 
ENDBRANCH   4  27
TORSDOF 1
ENDMDL
MODEL       75
REMARK 921   NORMALIZED FREE ENERGY PREDICTED BY IDOCK:   -1.10 KCAL/MOL
REMARK 922        TOTAL FREE ENERGY PREDICTED BY IDOCK:   -1.26 KCAL/MOL
REMARK 923 INTER-LIGAND FREE ENERGY PREDICTED BY IDOCK:   -1.44 KCAL/MOL
REMARK 924 INTRA-LIGAND FREE ENERGY PREDICTED BY IDOCK:    0.18 KCAL/MOL
REMARK 927      BINDING AFFINITY PREDICTED BY RF-SCORE:    0.00 PKD
ROOT
HETATM    1  C   UNL     1     -11.782  13.971  68.497  1.00  0.00    -0.387 C  
HETATM    2  C   UNL     1     -10.762  15.373  67.932  1.00  0.00    -0.286 C  
HETATM    3  C   UNL     1     -11.018  13.945  69.807  1.00  0.00     0.020 C  
HETATM    4  C   UNL     1     -11.107  15.985  66.527  1.00  0.00     0.024 C  
HETATM    5  C   UNL     1      -9.749  13.165  69.498  1.00  0.00     1.189 C  
HETATM    6  C   UNL     1     -10.677  16.605  68.911  1.00  0.00    -0.337 C  
HETATM    7  C   UNL     1     -10.395  11.833  69.327  1.00  0.00     0.084 C  
HETATM    8  C   UNL     1     -11.838  11.643  67.003  1.00  0.00    -0.038 C  
HETATM    9  C   UNL     1      -9.613  10.516  69.344  1.00  0.00    -0.170 C  
HETATM   10  C   UNL     1     -11.647  12.115  68.464  1.00  0.00    -0.366 C  
HETATM   11  C   UNL     1     -12.630  11.096  69.255  1.00  0.00     0.201 C  
HETATM   12  C   UNL     1      -8.385  10.805  70.171  1.00  0.00     1.077 C  
HETATM   13  C   UNL     1     -11.996   9.551  69.405  1.00  0.00     0.649 C  
HETATM   14  C   UNL     1      -7.661   9.612  70.689  1.00  0.00    -0.104 C  
HETATM   15  O   UNL     1      -7.429  11.566  69.438  1.00  0.00    -0.321 OA 
HETATM   16  H   UNL     1      -6.656  11.748  69.958  1.00  0.00     0.000 HD 
HETATM   17  C   UNL     1      -8.558   8.613  71.431  1.00  0.00    -0.247 C  
HETATM   18  C   UNL     1      -7.606   7.578  72.050  1.00  0.00    -0.084 C  
HETATM   19  C   UNL     1      -7.050   6.497  71.141  1.00  0.00    -0.077 C  
HETATM   20  O   UNL     1      -5.770   6.835  70.601  1.00  0.00    -0.023 OA 
HETATM   21  C   UNL     1      -8.015   6.061  70.043  1.00  0.00    -0.109 C  
HETATM   22  C   UNL     1      -9.035   7.129  69.484  1.00  0.00    -0.140 C  
HETATM   23  H   UNL     1      -5.423   6.158  70.032  1.00  0.00     0.000 HD 
HETATM   24  C   UNL     1      -9.727   8.086  70.524  1.00  0.00    -0.179 C  
HETATM   25  C   UNL     1     -10.706   7.222  71.347  1.00  0.00    -0.247 C  
HETATM   26  C   UNL     1     -10.538   9.463  70.050  1.00  0.00    -0.267 C  
ENDROOT
BRANCH   4  27
HETATM   27  C   UNL     1     -10.187  17.182  66.137  1.00  0.00    -0.343 C  
HETATM   28  O   UNL     1      -7.987  17.926  65.673  1.00  0.00    -0.527 OA 
HETATM   29  C   UNL     1      -8.719  16.852  66.079  1.00  0.00    -0.158 C  
HETATM   30  O   UNL     1      -8.218  15.780  66.343  1.00  0.00    -0.272 OA 
ENDBRANCH   4  27
TORSDOF 1
ENDMDL
MODEL       76
REMARK 921   NORMALIZED FREE ENERGY PREDICTED BY IDOCK:   -0.90 KCAL/MOL
REMARK 922        TOTAL FREE ENERGY PREDICTED BY IDOCK:   -1.05 KCAL/MOL
REMARK 923 INTER-LIGAND FREE ENERGY PREDICTED BY IDOCK:   -1.32 KCAL/MOL
REMARK 924 INTRA-LIGAND FREE ENERGY PREDICTED BY IDOCK:    0.27 KCAL/MOL
REMARK 927      BINDING AFFINITY PREDICTED BY RF-SCORE:    0.00 PKD
ROOT
HETATM    1  C   UNL     1      -7.913  14.926  69.575  1.00  0.00    -0.084 C  
HETATM    2  C   UNL     1      -6.968  16.322  68.880  1.00  0.00    -0.170 C  
HETATM    3  C   UNL     1      -6.628  14.133  69.726  1.00  0.00    -0.104 C  
HETATM    4  C   UNL     1      -7.773  17.623  68.525  1.00  0.00    -0.281 C  
HETATM    5  C   UNL     1      -6.375  13.544  68.346  1.00  0.00    -0.093 C  
HETATM    6  C   UNL     1      -5.738  16.817  69.733  1.00  0.00    -0.206 C  
HETATM    7  C   UNL     1      -7.506  12.575  68.355  1.00  0.00    -0.127 C  
HETATM    8  C   UNL     1      -9.949  13.791  68.085  1.00  0.00    -0.242 C  
HETATM    9  C   UNL     1      -7.608  11.399  67.377  1.00  0.00    -0.124 C  
HETATM   10  C   UNL     1      -8.705  13.379  68.908  1.00  0.00     0.250 C  
HETATM   11  C   UNL     1      -9.311  12.179  69.815  1.00  0.00     2.146 C  
HETATM   12  C   UNL     1      -6.183  11.094  66.990  1.00  0.00    -0.093 C  
HETATM   13  C   UNL     1      -9.529  10.753  68.961  1.00  0.00    -0.179 C  
HETATM   14  C   UNL     1      -5.953   9.756  66.378  1.00  0.00    -0.063 C  
HETATM   15  O   UNL     1      -5.678  12.050  66.061  1.00  0.00    -0.374 OA 
HETATM   16  H   UNL     1      -4.781  11.857  65.816  1.00  0.00     0.000 HD 
HETATM   17  C   UNL     1      -6.525   8.592  67.197  1.00  0.00    -0.058 C  
HETATM   18  C   UNL     1      -6.016   7.312  66.515  1.00  0.00    -0.036 C  
HETATM   19  C   UNL     1      -6.725   6.855  65.253  1.00  0.00    -0.051 C  
HETATM   20  O   UNL     1      -6.091   7.325  64.062  1.00  0.00    -0.043 OA 
HETATM   21  C   UNL     1      -8.219   7.162  65.242  1.00  0.00    -0.128 C  
HETATM   22  C   UNL     1      -8.719   8.442  66.021  1.00  0.00    -0.183 C  
HETATM   23  H   UNL     1      -6.535   7.038  63.273  1.00  0.00     0.000 HD 
HETATM   24  C   UNL     1      -8.073   8.736  67.425  1.00  0.00    -0.105 C  
HETATM   25  C   UNL     1      -8.584   7.647  68.392  1.00  0.00    -0.124 C  
HETATM   26  C   UNL     1      -8.245  10.212  68.181  1.00  0.00    -0.113 C  
ENDROOT
BRANCH   4  27
HETATM   27  C   UNL     1      -6.878  18.761  67.948  1.00  0.00    -0.226 C  
HETATM   28  O   UNL     1      -5.370  19.432  66.248  1.00  0.00    -0.154 OA 
HETATM   29  C   UNL     1      -6.078  18.374  66.732  1.00  0.00    -0.155 C  
HETATM   30  O   UNL     1      -6.049  17.276  66.216  1.00  0.00    -0.206 OA 
ENDBRANCH   4  27
TORSDOF 1
ENDMDL
MODEL       77
REMARK 921   NORMALIZED FREE ENERGY PREDICTED BY IDOCK:   -0.74 KCAL/MOL
REMARK 922        TOTAL FREE ENERGY PREDICTED BY IDOCK:   -0.89 KCAL/MOL
REMARK 923 INTER-LIGAND FREE ENERGY PREDICTED BY IDOCK:   -1.47 KCAL/MOL
REMARK 924 INTRA-LIGAND FREE ENERGY PREDICTED BY IDOCK:    0.59 KCAL/MOL
REMARK 927      BINDING AFFINITY PREDICTED BY RF-SCORE:    0.00 PKD
ROOT
HETATM    1  C   UNL     1     -11.670  15.160  68.412  1.00  0.00    -0.338 C  
HETATM    2  C   UNL     1     -12.251  15.081  70.139  1.00  0.00    -0.392 C  
HETATM    3  C   UNL     1     -12.431  13.886  68.100  1.00  0.00     0.250 C  
HETATM    4  C   UNL     1     -11.826  16.257  71.089  1.00  0.00    -0.298 C  
HETATM    5  C   UNL     1     -11.517  12.765  68.572  1.00  0.00    -0.344 C  
HETATM    6  C   UNL     1     -13.807  14.928  70.339  1.00  0.00     0.523 C  
HETATM    7  C   UNL     1     -10.471  12.934  67.525  1.00  0.00    -0.226 C  
HETATM    8  C   UNL     1      -8.953  15.188  67.894  1.00  0.00    -0.174 C  
HETATM    9  C   UNL     1      -9.416  11.867  67.218  1.00  0.00    -0.176 C  
HETATM   10  C   UNL     1     -10.243  14.461  67.444  1.00  0.00    -0.247 C  
HETATM   11  C   UNL     1     -10.094  14.525  65.830  1.00  0.00    -0.346 C  
HETATM   12  C   UNL     1     -10.051  10.563  67.633  1.00  0.00    -0.179 C  
HETATM   13  C   UNL     1      -8.969  13.436  65.229  1.00  0.00     1.388 C  
HETATM   14  C   UNL     1      -9.422   9.334  67.077  1.00  0.00    -0.205 C  
HETATM   15  O   UNL     1     -10.047  10.409  69.050  1.00  0.00    -0.192 OA 
HETATM   16  H   UNL     1     -10.447   9.588  69.311  1.00  0.00     0.000 HD 
HETATM   17  C   UNL     1      -9.248   9.359  65.553  1.00  0.00    -0.292 C  
HETATM   18  C   UNL     1      -8.781   7.948  65.164  1.00  0.00     0.015 C  
HETATM   19  C   UNL     1      -7.320   7.600  65.388  1.00  0.00    -0.071 C  
HETATM   20  O   UNL     1      -7.093   6.951  66.641  1.00  0.00    -0.068 OA 
HETATM   21  C   UNL     1      -6.371   8.779  65.196  1.00  0.00    -0.060 C  
HETATM   22  C   UNL     1      -6.909  10.226  65.530  1.00  0.00    -0.134 C  
HETATM   23  H   UNL     1      -6.179   6.734  66.780  1.00  0.00     0.000 HD 
HETATM   24  C   UNL     1      -8.376  10.577  65.080  1.00  0.00    -0.150 C  
HETATM   25  C   UNL     1      -8.363  10.671  63.540  1.00  0.00    -0.053 C  
HETATM   26  C   UNL     1      -9.179  11.915  65.667  1.00  0.00    -0.060 C  
ENDROOT
BRANCH   4  27
HETATM   27  C   UNL     1     -12.378  16.104  72.540  1.00  0.00    -0.564 C  
HETATM   28  O   UNL     1     -12.612  14.705  74.437  1.00  0.00    -0.368 OA 
HETATM   29  C   UNL     1     -12.161  14.745  73.153  1.00  0.00    -0.255 C  
HETATM   30  O   UNL     1     -11.648  13.790  72.609  1.00  0.00     1.541 OA 
ENDBRANCH   4  27
TORSDOF 1
ENDMDL
MODEL       78
REMARK 921   NORMALIZED FREE ENERGY PREDICTED BY IDOCK:   -0.50 KCAL/MOL
REMARK 922        TOTAL FREE ENERGY PREDICTED BY IDOCK:   -0.63 KCAL/MOL
REMARK 923 INTER-LIGAND FREE ENERGY PREDICTED BY IDOCK:   -0.49 KCAL/MOL
REMARK 924 INTRA-LIGAND FREE ENERGY PREDICTED BY IDOCK:   -0.14 KCAL/MOL
REMARK 927      BINDING AFFINITY PREDICTED BY RF-SCORE:    0.00 PKD
ROOT
HETATM    1  C   UNL     1     -12.444  13.143  70.560  1.00  0.00    -0.322 C  
HETATM    2  C   UNL     1     -12.133  11.406  70.099  1.00  0.00    -0.439 C  
HETATM    3  C   UNL     1     -12.751  13.471  69.111  1.00  0.00     0.677 C  
HETATM    4  C   UNL     1     -11.787  10.410  71.262  1.00  0.00    -0.381 C  
HETATM    5  C   UNL     1     -11.388  13.671  68.465  1.00  0.00    -0.325 C  
HETATM    6  C   UNL     1     -13.270  10.696  69.270  1.00  0.00     1.892 C  
HETATM    7  C   UNL     1     -11.049  14.947  69.154  1.00  0.00    -0.279 C  
HETATM    8  C   UNL     1     -10.446  14.595  71.806  1.00  0.00     2.152 C  
HETATM    9  C   UNL     1      -9.932  15.884  68.679  1.00  0.00    -0.214 C  
HETATM   10  C   UNL     1     -11.445  14.711  70.630  1.00  0.00    -0.256 C  
HETATM   11  C   UNL     1     -12.055  16.192  70.881  1.00  0.00    -0.194 C  
HETATM   12  C   UNL     1      -9.805  15.615  67.201  1.00  0.00    -0.229 C  
HETATM   13  C   UNL     1     -11.004  17.423  70.440  1.00  0.00     1.113 C  
HETATM   14  C   UNL     1      -9.091  16.658  66.414  1.00  0.00    -0.325 C  
HETATM   15  O   UNL     1      -9.123  14.389  66.950  1.00  0.00    -0.230 OA 
HETATM   16  H   UNL     1      -9.042  14.219  66.019  1.00  0.00     0.000 HD 
HETATM   17  C   UNL     1      -9.627  18.078  66.635  1.00  0.00    -0.315 C  
HETATM   18  C   UNL     1      -8.908  18.960  65.602  1.00  0.00     0.664 C  
HETATM   19  C   UNL     1      -7.483  19.385  65.906  1.00  0.00    -0.279 C  
HETATM   20  O   UNL     1      -6.511  18.514  65.322  1.00  0.00    -0.380 OA 
HETATM   21  C   UNL     1      -7.209  19.601  67.391  1.00  0.00    -0.256 C  
HETATM   22  C   UNL     1      -8.024  18.733  68.429  1.00  0.00    -0.365 C  
HETATM   23  H   UNL     1      -5.620  18.780  65.512  1.00  0.00     0.000 HD 
HETATM   24  C   UNL     1      -9.555  18.508  68.144  1.00  0.00    -0.353 C  
HETATM   25  C   UNL     1     -10.257  19.865  68.358  1.00  0.00    -0.557 C  
HETATM   26  C   UNL     1     -10.438  17.345  68.949  1.00  0.00    -0.312 C  
ENDROOT
BRANCH   4  27
HETATM   27  C   UNL     1     -11.547   8.950  70.769  1.00  0.00    -0.301 C  
HETATM   28  O   UNL     1     -10.064   7.106  70.672  1.00  0.00    -0.191 OA 
HETATM   29  C   UNL     1     -10.178   8.401  71.076  1.00  0.00    -0.199 C  
HETATM   30  O   UNL     1      -9.274   9.001  71.618  1.00  0.00    -0.288 OA 
ENDBRANCH   4  27
TORSDOF 1
ENDMDL
MODEL       79
REMARK 921   NORMALIZED FREE ENERGY PREDICTED BY IDOCK:   -0.11 KCAL/MOL
REMARK 922        TOTAL FREE ENERGY PREDICTED BY IDOCK:   -0.21 KCAL/MOL
REMARK 923 INTER-LIGAND FREE ENERGY PREDICTED BY IDOCK:   -0.11 KCAL/MOL
REMARK 924 INTRA-LIGAND FREE ENERGY PREDICTED BY IDOCK:   -0.11 KCAL/MOL
REMARK 927      BINDING AFFINITY PREDICTED BY RF-SCORE:    0.00 PKD
ROOT
HETATM    1  C   UNL     1      -5.367  12.967  69.394  1.00  0.00    -0.077 C  
HETATM    2  C   UNL     1      -6.093  11.659  70.438  1.00  0.00    -0.074 C  
HETATM    3  C   UNL     1      -5.726  14.001  70.444  1.00  0.00    -0.147 C  
HETATM    4  C   UNL     1      -5.993  10.184  69.906  1.00  0.00    -0.052 C  
HETATM    5  C   UNL     1      -7.191  14.321  70.186  1.00  0.00     0.346 C  
HETATM    6  C   UNL     1      -5.579  11.598  71.927  1.00  0.00     0.675 C  
HETATM    7  C   UNL     1      -6.993  15.038  68.896  1.00  0.00    -0.114 C  
HETATM    8  C   UNL     1      -6.339  13.354  66.833  1.00  0.00     1.159 C  
HETATM    9  C   UNL     1      -8.062  15.938  68.267  1.00  0.00    -0.144 C  
HETATM   10  C   UNL     1      -5.994  14.158  68.109  1.00  0.00    -0.133 C  
HETATM   11  C   UNL     1      -5.140  15.387  67.485  1.00  0.00     0.059 C  
HETATM   12  C   UNL     1      -8.896  16.418  69.428  1.00  0.00     0.003 C  
HETATM   13  C   UNL     1      -6.096  16.532  66.717  1.00  0.00    -0.025 C  
HETATM   14  C   UNL     1      -9.742  17.614  69.164  1.00  0.00    -0.098 C  
HETATM   15  O   UNL     1      -9.777  15.400  69.894  1.00  0.00    -0.394 OA 
HETATM   16  H   UNL     1     -10.303  15.702  70.625  1.00  0.00     0.000 HD 
HETATM   17  C   UNL     1      -8.975  18.796  68.557  1.00  0.00    -0.375 C  
HETATM   18  C   UNL     1      -9.962  19.974  68.551  1.00  0.00    -0.454 C  
HETATM   19  C   UNL     1     -11.010  20.011  67.454  1.00  0.00     0.017 C  
HETATM   20  O   UNL     1     -12.251  19.427  67.856  1.00  0.00     1.707 OA 
HETATM   21  C   UNL     1     -10.532  19.432  66.127  1.00  0.00    -0.600 C  
HETATM   22  C   UNL     1      -9.457  18.276  66.167  1.00  0.00    -0.165 C  
HETATM   23  H   UNL     1     -12.907  19.450  67.170  1.00  0.00     0.000 HD 
HETATM   24  C   UNL     1      -8.280  18.414  67.202  1.00  0.00    -0.248 C  
HETATM   25  C   UNL     1      -7.380  19.567  66.708  1.00  0.00    -0.242 C  
HETATM   26  C   UNL     1      -7.293  17.128  67.590  1.00  0.00    -0.179 C  
ENDROOT
BRANCH   4  27
HETATM   27  C   UNL     1      -6.632   9.139  70.871  1.00  0.00    -0.082 C  
HETATM   28  O   UNL     1      -8.623   8.167  71.707  1.00  0.00    -0.121 OA 
HETATM   29  C   UNL     1      -8.138   9.143  70.892  1.00  0.00    -0.162 C  
HETATM   30  O   UNL     1      -8.858   9.896  70.270  1.00  0.00    -0.187 OA 
ENDBRANCH   4  27
TORSDOF 1
ENDMDL
MODEL       80
REMARK 921   NORMALIZED FREE ENERGY PREDICTED BY IDOCK:   -0.01 KCAL/MOL
REMARK 922        TOTAL FREE ENERGY PREDICTED BY IDOCK:   -0.12 KCAL/MOL
REMARK 923 INTER-LIGAND FREE ENERGY PREDICTED BY IDOCK:   -0.26 KCAL/MOL
REMARK 924 INTRA-LIGAND FREE ENERGY PREDICTED BY IDOCK:    0.14 KCAL/MOL
REMARK 927      BINDING AFFINITY PREDICTED BY RF-SCORE:    0.00 PKD
ROOT
HETATM    1  C   UNL     1      -6.348  10.498  68.348  1.00  0.00    -0.054 C  
HETATM    2  C   UNL     1      -7.579   9.265  68.887  1.00  0.00    -0.075 C  
HETATM    3  C   UNL     1      -6.658  11.341  69.570  1.00  0.00    -0.129 C  
HETATM    4  C   UNL     1      -7.732   7.976  68.004  1.00  0.00    -0.118 C  
HETATM    5  C   UNL     1      -7.909  12.120  69.193  1.00  0.00     0.281 C  
HETATM    6  C   UNL     1      -7.428   8.739  70.366  1.00  0.00    -0.072 C  
HETATM    7  C   UNL     1      -7.268  13.009  68.184  1.00  0.00    -0.116 C  
HETATM    8  C   UNL     1      -6.621  11.692  65.867  1.00  0.00     0.743 C  
HETATM    9  C   UNL     1      -7.922  14.294  67.666  1.00  0.00    -0.191 C  
HETATM   10  C   UNL     1      -6.371  12.067  67.348  1.00  0.00    -0.138 C  
HETATM   11  C   UNL     1      -5.128  13.098  67.205  1.00  0.00     0.233 C  
HETATM   12  C   UNL     1      -8.842  14.735  68.776  1.00  0.00    -0.179 C  
HETATM   13  C   UNL     1      -5.585  14.608  66.638  1.00  0.00     2.647 C  
HETATM   14  C   UNL     1      -9.292  16.153  68.718  1.00  0.00    -0.229 C  
HETATM   15  O   UNL     1     -10.026  13.942  68.819  1.00  0.00    -0.312 OA 
HETATM   16  H   UNL     1     -10.606  14.220  69.518  1.00  0.00     0.000 HD 
HETATM   17  C   UNL     1      -8.146  17.162  68.567  1.00  0.00    -0.260 C  
HETATM   18  C   UNL     1      -8.789  18.549  68.728  1.00  0.00    -0.268 C  
HETATM   19  C   UNL     1      -9.534  19.124  67.538  1.00  0.00    -0.307 C  
HETATM   20  O   UNL     1     -10.937  18.855  67.583  1.00  0.00    -0.392 OA 
HETATM   21  C   UNL     1      -8.939  18.731  66.191  1.00  0.00    -0.150 C  
HETATM   22  C   UNL     1      -8.215  17.331  66.080  1.00  0.00    -0.258 C  
HETATM   23  H   UNL     1     -11.404  19.215  66.838  1.00  0.00     0.000 HD 
HETATM   24  C   UNL     1      -7.291  16.895  67.277  1.00  0.00    -0.199 C  
HETATM   25  C   UNL     1      -6.052  17.814  67.246  1.00  0.00    -0.165 C  
HETATM   26  C   UNL     1      -6.758  15.325  67.450  1.00  0.00    -0.157 C  
ENDROOT
BRANCH   4  27
HETATM   27  C   UNL     1      -8.800   6.980  68.552  1.00  0.00    -0.124 C  
HETATM   28  O   UNL     1      -9.222   4.994  69.771  1.00  0.00    -0.108 OA 
HETATM   29  C   UNL     1      -8.233   5.784  69.269  1.00  0.00    -0.105 C  
HETATM   30  O   UNL     1      -7.056   5.528  69.410  1.00  0.00    -0.060 OA 
ENDBRANCH   4  27
TORSDOF 1
ENDMDL
MODEL       81
REMARK 921   NORMALIZED FREE ENERGY PREDICTED BY IDOCK:    2.99 KCAL/MOL
REMARK 922        TOTAL FREE ENERGY PREDICTED BY IDOCK:    3.06 KCAL/MOL
REMARK 923 INTER-LIGAND FREE ENERGY PREDICTED BY IDOCK:    3.17 KCAL/MOL
REMARK 924 INTRA-LIGAND FREE ENERGY PREDICTED BY IDOCK:   -0.11 KCAL/MOL
REMARK 927      BINDING AFFINITY PREDICTED BY RF-SCORE:    0.00 PKD
ROOT
HETATM    1  C   UNL     1     -11.884  15.482  66.182  1.00  0.00     0.474 C  
HETATM    2  C   UNL     1     -11.255  16.769  67.312  1.00  0.00     0.204 C  
HETATM    3  C   UNL     1     -11.743  14.449  67.284  1.00  0.00    -0.429 C  
HETATM    4  C   UNL     1     -11.195  18.237  66.758  1.00  0.00     0.595 C  
HETATM    5  C   UNL     1     -10.276  14.050  67.254  1.00  0.00    -0.260 C  
HETATM    6  C   UNL     1     -11.984  16.881  68.705  1.00  0.00     1.125 C  
HETATM    7  C   UNL     1     -10.315  13.322  65.955  1.00  0.00    -0.293 C  
HETATM    8  C   UNL     1     -10.559  15.002  63.801  1.00  0.00     2.540 C  
HETATM    9  C   UNL     1      -9.213  12.357  65.503  1.00  0.00     0.211 C  
HETATM   10  C   UNL     1     -11.135  14.238  65.018  1.00  0.00    -0.377 C  
HETATM   11  C   UNL     1     -11.950  13.045  64.283  1.00  0.00    -0.466 C  
HETATM   12  C   UNL     1      -8.591  11.855  66.781  1.00  0.00    -0.181 C  
HETATM   13  C   UNL     1     -10.952  11.839  63.679  1.00  0.00    -0.513 C  
HETATM   14  C   UNL     1      -7.779  10.612  66.659  1.00  0.00    -0.132 C  
HETATM   15  O   UNL     1      -7.736  12.834  67.366  1.00  0.00    -0.160 OA 
HETATM   16  H   UNL     1      -7.343  12.518  68.171  1.00  0.00     0.000 HD 
HETATM   17  C   UNL     1      -8.508   9.461  65.954  1.00  0.00    -0.135 C  
HETATM   18  C   UNL     1      -7.596   8.234  66.108  1.00  0.00    -0.085 C  
HETATM   19  C   UNL     1      -6.398   8.125  65.183  1.00  0.00    -0.048 C  
HETATM   20  O   UNL     1      -5.202   8.651  65.763  1.00  0.00    -0.033 OA 
HETATM   21  C   UNL     1      -6.639   8.705  63.793  1.00  0.00    -0.084 C  
HETATM   22  C   UNL     1      -7.645   9.915  63.659  1.00  0.00    -0.134 C  
HETATM   23  H   UNL     1      -4.453   8.582  65.184  1.00  0.00     0.000 HD 
HETATM   24  C   UNL     1      -8.970   9.855  64.506  1.00  0.00    -0.272 C  
HETATM   25  C   UNL     1      -9.845   8.742  63.892  1.00  0.00     2.740 C  
HETATM   26  C   UNL     1      -9.934  11.198  64.728  1.00  0.00    -0.339 C  
ENDROOT
BRANCH   4  27
HETATM   27  C   UNL     1     -10.654  19.264  67.800  1.00  0.00    -0.516 C  
HETATM   28  O   UNL     1      -9.480  21.289  68.166  1.00  0.00     0.389 OA 
HETATM   29  C   UNL     1      -9.866  20.403  67.206  1.00  0.00    -0.456 C  
HETATM   30  O   UNL     1      -9.599  20.550  66.033  1.00  0.00    -0.198 OA 
ENDBRANCH   4  27
TORSDOF 1
ENDMDL
MODEL       82
REMARK 921   NORMALIZED FREE ENERGY PREDICTED BY IDOCK:    3.71 KCAL/MOL
REMARK 922        TOTAL FREE ENERGY PREDICTED BY IDOCK:    3.83 KCAL/MOL
REMARK 923 INTER-LIGAND FREE ENERGY PREDICTED BY IDOCK:    4.01 KCAL/MOL
REMARK 924 INTRA-LIGAND FREE ENERGY PREDICTED BY IDOCK:   -0.18 KCAL/MOL
REMARK 927      BINDING AFFINITY PREDICTED BY RF-SCORE:    0.00 PKD
ROOT
HETATM    1  C   UNL     1     -11.818  11.647  69.475  1.00  0.00    -0.414 C  
HETATM    2  C   UNL     1     -10.549  12.950  69.340  1.00  0.00     0.240 C  
HETATM    3  C   UNL     1     -11.631  11.623  70.980  1.00  0.00     0.748 C  
HETATM    4  C   UNL     1     -10.267  13.525  67.906  1.00  0.00    -0.247 C  
HETATM    5  C   UNL     1     -10.409  10.744  71.203  1.00  0.00     2.597 C  
HETATM    6  C   UNL     1     -10.754  14.213  70.260  1.00  0.00     0.532 C  
HETATM    7  C   UNL     1     -11.042   9.455  70.806  1.00  0.00    -0.365 C  
HETATM    8  C   UNL     1     -11.473   9.269  68.104  1.00  0.00     0.715 C  
HETATM    9  C   UNL     1     -10.438   8.088  71.143  1.00  0.00    -0.230 C  
HETATM   10  C   UNL     1     -11.831   9.787  69.518  1.00  0.00     0.204 C  
HETATM   11  C   UNL     1     -13.123   8.873  69.870  1.00  0.00     2.252 C  
HETATM   12  C   UNL     1      -9.612   8.325  72.383  1.00  0.00    -0.294 C  
HETATM   13  C   UNL     1     -12.725   7.295  70.274  1.00  0.00     0.485 C  
HETATM   14  C   UNL     1      -9.246   7.107  73.157  1.00  0.00    -0.179 C  
HETATM   15  O   UNL     1      -8.387   8.986  72.076  1.00  0.00    -0.366 OA 
HETATM   16  H   UNL     1      -7.867   9.135  72.856  1.00  0.00     0.000 HD 
HETATM   17  C   UNL     1     -10.439   6.205  73.498  1.00  0.00    -0.279 C  
HETATM   18  C   UNL     1      -9.892   5.133  74.453  1.00  0.00    -0.211 C  
HETATM   19  C   UNL     1      -9.114   3.979  73.847  1.00  0.00    -0.093 C  
HETATM   20  O   UNL     1      -7.702   4.203  73.849  1.00  0.00    -0.078 OA 
HETATM   21  C   UNL     1      -9.605   3.565  72.463  1.00  0.00    -0.194 C  
HETATM   22  C   UNL     1     -10.236   4.678  71.537  1.00  0.00    -0.224 C  
HETATM   23  H   UNL     1      -7.215   3.481  73.470  1.00  0.00     0.000 HD 
HETATM   24  C   UNL     1     -11.200   5.723  72.211  1.00  0.00    -0.333 C  
HETATM   25  C   UNL     1     -12.488   4.964  72.593  1.00  0.00     0.736 C  
HETATM   26  C   UNL     1     -11.647   7.132  71.441  1.00  0.00    -0.316 C  
ENDROOT
BRANCH   4  27
HETATM   27  C   UNL     1      -9.175  14.638  67.895  1.00  0.00    -0.197 C  
HETATM   28  O   UNL     1      -6.934  15.216  67.389  1.00  0.00    -0.187 OA 
HETATM   29  C   UNL     1      -7.817  14.180  67.431  1.00  0.00    -0.177 C  
HETATM   30  O   UNL     1      -7.515  13.048  67.117  1.00  0.00    -0.115 OA 
ENDBRANCH   4  27
TORSDOF 1
ENDMDL
MODEL       83
REMARK 921   NORMALIZED FREE ENERGY PREDICTED BY IDOCK:    4.82 KCAL/MOL
REMARK 922        TOTAL FREE ENERGY PREDICTED BY IDOCK:    5.00 KCAL/MOL
REMARK 923 INTER-LIGAND FREE ENERGY PREDICTED BY IDOCK:    5.14 KCAL/MOL
REMARK 924 INTRA-LIGAND FREE ENERGY PREDICTED BY IDOCK:   -0.14 KCAL/MOL
REMARK 927      BINDING AFFINITY PREDICTED BY RF-SCORE:    0.00 PKD
ROOT
HETATM    1  C   UNL     1      -8.915  10.345  69.223  1.00  0.00    -0.176 C  
HETATM    2  C   UNL     1     -10.251  11.583  69.132  1.00  0.00    -0.038 C  
HETATM    3  C   UNL     1      -9.782   9.356  68.467  1.00  0.00    -0.160 C  
HETATM    4  C   UNL     1      -9.954  13.000  69.740  1.00  0.00     1.647 C  
HETATM    5  C   UNL     1     -10.693   8.754  69.526  1.00  0.00    -0.196 C  
HETATM    6  C   UNL     1     -10.837  11.863  67.696  1.00  0.00    -0.271 C  
HETATM    7  C   UNL     1      -9.644   7.977  70.244  1.00  0.00    -0.171 C  
HETATM    8  C   UNL     1      -7.950   9.570  71.697  1.00  0.00     0.824 C  
HETATM    9  C   UNL     1      -9.966   6.846  71.227  1.00  0.00    -0.189 C  
HETATM   10  C   UNL     1      -8.452   8.954  70.369  1.00  0.00    -0.181 C  
HETATM   11  C   UNL     1      -7.298   7.853  70.077  1.00  0.00    -0.070 C  
HETATM   12  C   UNL     1     -11.311   6.323  70.788  1.00  0.00    -0.332 C  
HETATM   13  C   UNL     1      -7.424   6.492  71.048  1.00  0.00    -0.085 C  
HETATM   14  C   UNL     1     -11.677   4.975  71.302  1.00  0.00     1.607 C  
HETATM   15  O   UNL     1     -12.365   7.200  71.179  1.00  0.00    -0.347 OA 
HETATM   16  H   UNL     1     -13.212   6.870  70.904  1.00  0.00     0.000 HD 
HETATM   17  C   UNL     1     -10.605   3.905  71.059  1.00  0.00     0.795 C  
HETATM   18  C   UNL     1     -11.247   2.571  71.470  1.00  0.00     2.546 C  
HETATM   19  C   UNL     1     -11.321   2.249  72.952  1.00  0.00     0.168 C  
HETATM   20  O   UNL     1     -12.568   2.630  73.538  1.00  0.00     0.302 OA 
HETATM   21  C   UNL     1     -10.145   2.790  73.758  1.00  0.00    -0.176 C  
HETATM   22  C   UNL     1      -9.456   4.123  73.262  1.00  0.00    -0.130 C  
HETATM   23  H   UNL     1     -12.614   2.428  74.465  1.00  0.00     0.000 HD 
HETATM   24  C   UNL     1      -9.230   4.290  71.714  1.00  0.00    -0.178 C  
HETATM   25  C   UNL     1      -8.133   3.283  71.309  1.00  0.00    -0.066 C  
HETATM   26  C   UNL     1      -8.846   5.764  71.035  1.00  0.00    -0.143 C  
ENDROOT
BRANCH   4  27
HETATM   27  C   UNL     1     -11.152  13.989  69.606  1.00  0.00    -0.154 C  
HETATM   28  O   UNL     1     -12.653  15.450  70.711  1.00  0.00    -0.381 OA 
HETATM   29  C   UNL     1     -11.651  14.551  70.911  1.00  0.00    -0.189 C  
HETATM   30  O   UNL     1     -11.234  14.269  72.015  1.00  0.00     0.881 OA 
ENDBRANCH   4  27
TORSDOF 1
ENDMDL
MODEL       84
REMARK 921   NORMALIZED FREE ENERGY PREDICTED BY IDOCK:    5.75 KCAL/MOL
REMARK 922        TOTAL FREE ENERGY PREDICTED BY IDOCK:    5.98 KCAL/MOL
REMARK 923 INTER-LIGAND FREE ENERGY PREDICTED BY IDOCK:    5.75 KCAL/MOL
REMARK 924 INTRA-LIGAND FREE ENERGY PREDICTED BY IDOCK:    0.23 KCAL/MOL
REMARK 927      BINDING AFFINITY PREDICTED BY RF-SCORE:    0.00 PKD
ROOT
HETATM    1  C   UNL     1      -7.631  15.417  70.153  1.00  0.00     0.330 C  
HETATM    2  C   UNL     1      -6.798  17.010  69.844  1.00  0.00     0.350 C  
HETATM    3  C   UNL     1      -6.987  14.841  68.906  1.00  0.00    -0.110 C  
HETATM    4  C   UNL     1      -7.017  18.147  70.905  1.00  0.00     2.883 C  
HETATM    5  C   UNL     1      -7.870  15.317  67.761  1.00  0.00    -0.161 C  
HETATM    6  C   UNL     1      -5.239  16.944  69.624  1.00  0.00    -0.157 C  
HETATM    7  C   UNL     1      -9.055  14.475  68.087  1.00  0.00    -0.191 C  
HETATM    8  C   UNL     1     -10.392  15.340  70.320  1.00  0.00    -0.162 C  
HETATM    9  C   UNL     1     -10.194  14.214  67.096  1.00  0.00    -0.258 C  
HETATM   10  C   UNL     1      -9.221  14.610  69.619  1.00  0.00     0.315 C  
HETATM   11  C   UNL     1      -9.612  13.060  69.886  1.00  0.00     2.534 C  
HETATM   12  C   UNL     1      -9.564  14.367  65.734  1.00  0.00    -0.181 C  
HETATM   13  C   UNL     1     -10.865  12.518  68.911  1.00  0.00    -0.238 C  
HETATM   14  C   UNL     1     -10.327  13.777  64.601  1.00  0.00    -0.393 C  
HETATM   15  O   UNL     1      -9.358  15.739  65.406  1.00  0.00    -0.290 OA 
HETATM   16  H   UNL     1      -8.963  15.836  64.548  1.00  0.00     0.000 HD 
HETATM   17  C   UNL     1     -10.731  12.313  64.819  1.00  0.00    -0.338 C  
HETATM   18  C   UNL     1     -11.318  11.838  63.480  1.00  0.00    -0.496 C  
HETATM   19  C   UNL     1     -12.742  12.247  63.149  1.00  0.00    -0.063 C  
HETATM   20  O   UNL     1     -12.805  13.435  62.356  1.00  0.00     0.180 OA 
HETATM   21  C   UNL     1     -13.652  12.347  64.368  1.00  0.00     1.166 C  
HETATM   22  C   UNL     1     -13.002  12.760  65.747  1.00  0.00     0.708 C  
HETATM   23  H   UNL     1     -13.696  13.690  62.149  1.00  0.00     0.000 HD 
HETATM   24  C   UNL     1     -11.607  12.130  66.110  1.00  0.00    -0.418 C  
HETATM   25  C   UNL     1     -11.851  10.633  66.394  1.00  0.00     1.803 C  
HETATM   26  C   UNL     1     -10.662  12.736  67.342  1.00  0.00    -0.248 C  
ENDROOT
BRANCH   4  27
HETATM   27  C   UNL     1      -6.258  19.465  70.559  1.00  0.00    -0.076 C  
HETATM   28  O   UNL     1      -5.949  21.228  69.008  1.00  0.00    -0.139 OA 
HETATM   29  C   UNL     1      -6.601  20.051  69.214  1.00  0.00    -0.311 C  
HETATM   30  O   UNL     1      -7.360  19.571  68.400  1.00  0.00    -0.293 OA 
ENDBRANCH   4  27
TORSDOF 1
ENDMDL
MODEL       85
REMARK 921   NORMALIZED FREE ENERGY PREDICTED BY IDOCK:    6.02 KCAL/MOL
REMARK 922        TOTAL FREE ENERGY PREDICTED BY IDOCK:    6.27 KCAL/MOL
REMARK 923 INTER-LIGAND FREE ENERGY PREDICTED BY IDOCK:    3.13 KCAL/MOL
REMARK 924 INTRA-LIGAND FREE ENERGY PREDICTED BY IDOCK:    3.14 KCAL/MOL
REMARK 927      BINDING AFFINITY PREDICTED BY RF-SCORE:    0.00 PKD
ROOT
HETATM    1  C   UNL     1      -8.635  10.219  63.651  1.00  0.00    -0.196 C  
HETATM    2  C   UNL     1      -9.262  11.673  64.557  1.00  0.00     0.138 C  
HETATM    3  C   UNL     1      -9.700   9.357  64.301  1.00  0.00     0.588 C  
HETATM    4  C   UNL     1      -8.564  13.050  64.268  1.00  0.00     4.212 C  
HETATM    5  C   UNL     1      -9.133   9.007  65.668  1.00  0.00    -0.278 C  
HETATM    6  C   UNL     1     -10.807  11.956  64.425  1.00  0.00    -0.384 C  
HETATM    7  C   UNL     1      -8.051   8.103  65.187  1.00  0.00    -0.139 C  
HETATM    8  C   UNL     1      -5.996   9.454  63.975  1.00  0.00    -0.082 C  
HETATM    9  C   UNL     1      -7.312   7.122  66.104  1.00  0.00    -0.075 C  
HETATM   10  C   UNL     1      -7.421   8.850  63.990  1.00  0.00    -0.112 C  
HETATM   11  C   UNL     1      -7.216   7.538  63.059  1.00  0.00    -0.083 C  
HETATM   12  C   UNL     1      -8.284   6.826  67.218  1.00  0.00    -0.121 C  
HETATM   13  C   UNL     1      -6.408   6.294  63.842  1.00  0.00    -0.030 C  
HETATM   14  C   UNL     1      -7.993   5.607  68.022  1.00  0.00    -0.097 C  
HETATM   15  O   UNL     1      -8.361   7.906  68.145  1.00  0.00    -0.122 OA 
HETATM   16  H   UNL     1      -8.972   7.720  68.847  1.00  0.00     0.000 HD 
HETATM   17  C   UNL     1      -7.777   4.344  67.178  1.00  0.00    -0.089 C  
HETATM   18  C   UNL     1      -7.694   3.182  68.181  1.00  0.00    -0.059 C  
HETATM   19  C   UNL     1      -6.386   2.984  68.926  1.00  0.00    -0.029 C  
HETATM   20  O   UNL     1      -6.375   3.627  70.202  1.00  0.00    -0.026 OA 
HETATM   21  C   UNL     1      -5.152   3.354  68.111  1.00  0.00    -0.008 C  
HETATM   22  C   UNL     1      -5.292   4.499  67.032  1.00  0.00    -0.013 C  
HETATM   23  H   UNL     1      -5.557   3.502  70.668  1.00  0.00     0.000 HD 
HETATM   24  C   UNL     1      -6.598   4.514  66.154  1.00  0.00    -0.042 C  
HETATM   25  C   UNL     1      -6.518   3.297  65.209  1.00  0.00    -0.035 C  
HETATM   26  C   UNL     1      -7.030   5.841  65.241  1.00  0.00    -0.063 C  
ENDROOT
BRANCH   4  27
HETATM   27  C   UNL     1      -9.176  14.231  65.082  1.00  0.00     1.151 C  
HETATM   28  O   UNL     1     -11.103  15.519  65.567  1.00  0.00    -0.320 OA 
HETATM   29  C   UNL     1     -10.622  14.520  64.777  1.00  0.00    -0.377 C  
HETATM   30  O   UNL     1     -11.304  13.952  63.950  1.00  0.00    -0.182 OA 
ENDBRANCH   4  27
TORSDOF 1
ENDMDL
MODEL       86
REMARK 921   NORMALIZED FREE ENERGY PREDICTED BY IDOCK:    8.95 KCAL/MOL
REMARK 922        TOTAL FREE ENERGY PREDICTED BY IDOCK:    9.38 KCAL/MOL
REMARK 923 INTER-LIGAND FREE ENERGY PREDICTED BY IDOCK:    9.57 KCAL/MOL
REMARK 924 INTRA-LIGAND FREE ENERGY PREDICTED BY IDOCK:   -0.19 KCAL/MOL
REMARK 927      BINDING AFFINITY PREDICTED BY RF-SCORE:    0.00 PKD
ROOT
HETATM    1  C   UNL     1     -11.644  11.770  70.133  1.00  0.00    -0.281 C  
HETATM    2  C   UNL     1     -10.810  13.383  69.955  1.00  0.00     0.458 C  
HETATM    3  C   UNL     1     -10.456  11.245  70.917  1.00  0.00     2.937 C  
HETATM    4  C   UNL     1     -11.604  14.518  69.215  1.00  0.00    -0.339 C  
HETATM    5  C   UNL     1      -9.444  10.837  69.856  1.00  0.00     0.508 C  
HETATM    6  C   UNL     1     -10.289  14.043  71.288  1.00  0.00     3.722 C  
HETATM    7  C   UNL     1     -10.196   9.661  69.335  1.00  0.00    -0.220 C  
HETATM    8  C   UNL     1     -12.400  10.375  67.867  1.00  0.00     2.576 C  
HETATM    9  C   UNL     1      -9.553   8.576  68.465  1.00  0.00    -0.158 C  
HETATM   10  C   UNL     1     -11.655  10.157  69.206  1.00  0.00    -0.120 C  
HETATM   11  C   UNL     1     -12.347   8.787  69.730  1.00  0.00     1.425 C  
HETATM   12  C   UNL     1      -8.091   8.599  68.836  1.00  0.00    -0.118 C  
HETATM   13  C   UNL     1     -11.807   7.423  68.918  1.00  0.00     1.242 C  
HETATM   14  C   UNL     1      -7.309   7.391  68.453  1.00  0.00    -0.103 C  
HETATM   15  O   UNL     1      -7.421   9.712  68.250  1.00  0.00    -0.077 OA 
HETATM   16  H   UNL     1      -6.500   9.726  68.483  1.00  0.00     0.000 HD 
HETATM   17  C   UNL     1      -7.937   6.071  68.917  1.00  0.00    -0.100 C  
HETATM   18  C   UNL     1      -6.897   4.983  68.608  1.00  0.00    -0.052 C  
HETATM   19  C   UNL     1      -6.786   4.498  67.174  1.00  0.00    -0.055 C  
HETATM   20  O   UNL     1      -5.774   5.186  66.435  1.00  0.00    -0.017 OA 
HETATM   21  C   UNL     1      -8.113   4.496  66.422  1.00  0.00    -0.103 C  
HETATM   22  C   UNL     1      -9.193   5.579  66.819  1.00  0.00    -0.129 C  
HETATM   23  H   UNL     1      -5.705   4.882  65.538  1.00  0.00     0.000 HD 
HETATM   24  C   UNL     1      -9.390   5.879  68.351  1.00  0.00    -0.124 C  
HETATM   25  C   UNL     1     -10.055   4.632  68.972  1.00  0.00    -0.117 C  
HETATM   26  C   UNL     1     -10.224   7.220  68.885  1.00  0.00    -0.196 C  
ENDROOT
BRANCH   4  27
HETATM   27  C   UNL     1     -10.813  15.858  69.121  1.00  0.00    -0.268 C  
HETATM   28  O   UNL     1      -9.436  17.262  67.801  1.00  0.00    -0.249 OA 
HETATM   29  C   UNL     1     -10.049  16.047  67.836  1.00  0.00    -0.241 C  
HETATM   30  O   UNL     1      -9.974  15.248  66.927  1.00  0.00    -0.234 OA 
ENDBRANCH   4  27
TORSDOF 1
ENDMDL
MODEL       87
REMARK 921   NORMALIZED FREE ENERGY PREDICTED BY IDOCK:    9.39 KCAL/MOL
REMARK 922        TOTAL FREE ENERGY PREDICTED BY IDOCK:    9.83 KCAL/MOL
REMARK 923 INTER-LIGAND FREE ENERGY PREDICTED BY IDOCK:    8.56 KCAL/MOL
REMARK 924 INTRA-LIGAND FREE ENERGY PREDICTED BY IDOCK:    1.27 KCAL/MOL
REMARK 927      BINDING AFFINITY PREDICTED BY RF-SCORE:    0.00 PKD
ROOT
HETATM    1  C   UNL     1      -7.179  16.701  67.022  1.00  0.00    -0.236 C  
HETATM    2  C   UNL     1      -7.778  18.046  68.098  1.00  0.00    -0.274 C  
HETATM    3  C   UNL     1      -8.612  16.307  66.719  1.00  0.00    -0.273 C  
HETATM    4  C   UNL     1      -6.693  18.974  68.752  1.00  0.00    -0.316 C  
HETATM    5  C   UNL     1      -9.036  15.451  67.902  1.00  0.00    -0.178 C  
HETATM    6  C   UNL     1      -8.830  19.029  67.455  1.00  0.00    -0.316 C  
HETATM    7  C   UNL     1      -8.172  14.278  67.593  1.00  0.00    -0.193 C  
HETATM    8  C   UNL     1      -5.515  14.758  68.079  1.00  0.00    -0.130 C  
HETATM    9  C   UNL     1      -8.382  12.896  68.221  1.00  0.00    -0.157 C  
HETATM   10  C   UNL     1      -6.800  14.890  67.225  1.00  0.00    -0.000 C  
HETATM   11  C   UNL     1      -6.477  13.865  66.011  1.00  0.00     6.168 C  
HETATM   12  C   UNL     1      -9.848  12.848  68.570  1.00  0.00    -0.144 C  
HETATM   13  C   UNL     1      -6.631  12.254  66.449  1.00  0.00     0.962 C  
HETATM   14  C   UNL     1     -10.409  11.491  68.814  1.00  0.00    -0.213 C  
HETATM   15  O   UNL     1     -10.133  13.614  69.737  1.00  0.00     0.054 OA 
HETATM   16  H   UNL     1     -11.056  13.584  69.957  1.00  0.00     0.000 HD 
HETATM   17  C   UNL     1     -10.112  10.484  67.695  1.00  0.00    -0.211 C  
HETATM   18  C   UNL     1     -10.933   9.230  68.035  1.00  0.00    -0.076 C  
HETATM   19  C   UNL     1     -10.388   8.297  69.101  1.00  0.00    -0.217 C  
HETATM   20  O   UNL     1     -10.922   8.571  70.399  1.00  0.00    -0.237 OA 
HETATM   21  C   UNL     1      -8.865   8.224  69.135  1.00  0.00    -0.143 C  
HETATM   22  C   UNL     1      -8.051   9.507  68.703  1.00  0.00    -0.097 C  
HETATM   23  H   UNL     1     -10.581   7.988  71.066  1.00  0.00     0.000 HD 
HETATM   24  C   UNL     1      -8.570  10.310  67.453  1.00  0.00    -0.125 C  
HETATM   25  C   UNL     1      -8.311   9.428  66.213  1.00  0.00    -0.117 C  
HETATM   26  C   UNL     1      -8.028  11.848  67.107  1.00  0.00    -0.172 C  
ENDROOT
BRANCH   4  27
HETATM   27  C   UNL     1      -7.304  20.097  69.645  1.00  0.00     0.156 C  
HETATM   28  O   UNL     1      -8.951  20.690  71.240  1.00  0.00     1.292 OA 
HETATM   29  C   UNL     1      -8.512  19.679  70.441  1.00  0.00     1.594 C  
HETATM   30  O   UNL     1      -9.046  18.591  70.407  1.00  0.00     2.160 OA 
ENDBRANCH   4  27
TORSDOF 1
ENDMDL
MODEL       88
REMARK 921   NORMALIZED FREE ENERGY PREDICTED BY IDOCK:   10.04 KCAL/MOL
REMARK 922        TOTAL FREE ENERGY PREDICTED BY IDOCK:   10.53 KCAL/MOL
REMARK 923 INTER-LIGAND FREE ENERGY PREDICTED BY IDOCK:   10.59 KCAL/MOL
REMARK 924 INTRA-LIGAND FREE ENERGY PREDICTED BY IDOCK:   -0.06 KCAL/MOL
REMARK 927      BINDING AFFINITY PREDICTED BY RF-SCORE:    0.00 PKD
ROOT
HETATM    1  C   UNL     1      -9.772  10.144  70.626  1.00  0.00     0.412 C  
HETATM    2  C   UNL     1      -8.832  11.549  69.943  1.00  0.00     1.871 C  
HETATM    3  C   UNL     1      -8.473   9.409  70.897  1.00  0.00    -0.124 C  
HETATM    4  C   UNL     1      -9.657  12.803  69.480  1.00  0.00     1.392 C  
HETATM    5  C   UNL     1      -8.100   8.779  69.563  1.00  0.00    -0.105 C  
HETATM    6  C   UNL     1      -7.684  12.124  70.858  1.00  0.00     6.068 C  
HETATM    7  C   UNL     1      -9.193   7.767  69.532  1.00  0.00    -0.149 C  
HETATM    8  C   UNL     1     -11.654   8.874  69.045  1.00  0.00     0.840 C  
HETATM    9  C   UNL     1      -9.182   6.552  68.598  1.00  0.00    -0.127 C  
HETATM   10  C   UNL     1     -10.457   8.543  69.968  1.00  0.00    -0.226 C  
HETATM   11  C   UNL     1     -11.082   7.355  70.878  1.00  0.00    -0.283 C  
HETATM   12  C   UNL     1      -7.723   6.288  68.323  1.00  0.00    -0.104 C  
HETATM   13  C   UNL     1     -11.186   5.890  70.069  1.00  0.00    -0.341 C  
HETATM   14  C   UNL     1      -7.402   4.939  67.784  1.00  0.00    -0.074 C  
HETATM   15  O   UNL     1      -7.189   7.228  67.394  1.00  0.00    -0.084 OA 
HETATM   16  H   UNL     1      -6.270   7.061  67.221  1.00  0.00     0.000 HD 
HETATM   17  C   UNL     1      -7.988   3.784  68.607  1.00  0.00    -0.068 C  
HETATM   18  C   UNL     1      -7.384   2.501  68.014  1.00  0.00    -0.048 C  
HETATM   19  C   UNL     1      -7.985   1.969  66.726  1.00  0.00    -0.075 C  
HETATM   20  O   UNL     1      -7.285   2.418  65.564  1.00  0.00    -0.058 OA 
HETATM   21  C   UNL     1      -9.484   2.216  66.598  1.00  0.00     0.183 C  
HETATM   22  C   UNL     1     -10.085   3.504  67.288  1.00  0.00     0.618 C  
HETATM   23  H   UNL     1      -7.661   2.085  64.758  1.00  0.00     0.000 HD 
HETATM   24  C   UNL     1      -9.552   3.876  68.721  1.00  0.00    -0.187 C  
HETATM   25  C   UNL     1     -10.090   2.805  69.693  1.00  0.00     0.886 C  
HETATM   26  C   UNL     1      -9.831   5.371  69.403  1.00  0.00    -0.252 C  
ENDROOT
BRANCH   4  27
HETATM   27  C   UNL     1      -8.765  13.953  68.921  1.00  0.00     0.106 C  
HETATM   28  O   UNL     1      -7.946  16.155  69.221  1.00  0.00    -0.235 OA 
HETATM   29  C   UNL     1      -8.793  15.221  69.734  1.00  0.00     0.009 C  
HETATM   30  O   UNL     1      -9.463  15.417  70.726  1.00  0.00     0.747 OA 
ENDBRANCH   4  27
TORSDOF 1
ENDMDL
MODEL       89
REMARK 921   NORMALIZED FREE ENERGY PREDICTED BY IDOCK:   10.35 KCAL/MOL
REMARK 922        TOTAL FREE ENERGY PREDICTED BY IDOCK:   10.85 KCAL/MOL
REMARK 923 INTER-LIGAND FREE ENERGY PREDICTED BY IDOCK:    8.15 KCAL/MOL
REMARK 924 INTRA-LIGAND FREE ENERGY PREDICTED BY IDOCK:    2.70 KCAL/MOL
REMARK 927      BINDING AFFINITY PREDICTED BY RF-SCORE:    0.00 PKD
ROOT
HETATM    1  C   UNL     1      -6.877   5.956  67.526  1.00  0.00    -0.060 C  
HETATM    2  C   UNL     1      -7.619   4.577  68.461  1.00  0.00    -0.064 C  
HETATM    3  C   UNL     1      -5.899   6.196  68.661  1.00  0.00    -0.016 C  
HETATM    4  C   UNL     1      -8.772   3.776  67.756  1.00  0.00    -0.122 C  
HETATM    5  C   UNL     1      -6.677   7.027  69.670  1.00  0.00    -0.049 C  
HETATM    6  C   UNL     1      -6.617   3.481  68.990  1.00  0.00    -0.037 C  
HETATM    7  C   UNL     1      -6.744   8.276  68.860  1.00  0.00    -0.053 C  
HETATM    8  C   UNL     1      -8.472   8.076  66.739  1.00  0.00    -0.128 C  
HETATM    9  C   UNL     1      -7.103   9.641  69.456  1.00  0.00    -0.072 C  
HETATM   10  C   UNL     1      -7.118   7.799  67.438  1.00  0.00    -0.086 C  
HETATM   11  C   UNL     1      -6.143   8.828  66.651  1.00  0.00    -0.057 C  
HETATM   12  C   UNL     1      -6.704   9.547  70.907  1.00  0.00    -0.083 C  
HETATM   13  C   UNL     1      -6.348  10.424  67.125  1.00  0.00    -0.067 C  
HETATM   14  C   UNL     1      -6.561  10.845  71.623  1.00  0.00     2.259 C  
HETATM   15  O   UNL     1      -7.640   8.778  71.658  1.00  0.00    -0.179 OA 
HETATM   16  H   UNL     1      -7.388   8.719  72.572  1.00  0.00     0.000 HD 
HETATM   17  C   UNL     1      -5.658  11.855  70.904  1.00  0.00    -0.071 C  
HETATM   18  C   UNL     1      -5.481  13.027  71.883  1.00  0.00     0.110 C  
HETATM   19  C   UNL     1      -6.615  14.029  71.997  1.00  0.00     1.877 C  
HETATM   20  O   UNL     1      -7.513  13.726  73.067  1.00  0.00     3.852 OA 
HETATM   21  C   UNL     1      -7.369  14.256  70.691  1.00  0.00     1.218 C  
HETATM   22  C   UNL     1      -7.463  13.054  69.670  1.00  0.00     0.763 C  
HETATM   23  H   UNL     1      -8.223  14.354  73.138  1.00  0.00     0.000 HD 
HETATM   24  C   UNL     1      -6.173  12.180  69.456  1.00  0.00    -0.124 C  
HETATM   25  C   UNL     1      -5.154  13.060  68.701  1.00  0.00    -0.064 C  
HETATM   26  C   UNL     1      -6.229  10.698  68.693  1.00  0.00    -0.046 C  
ENDROOT
BRANCH   4  27
HETATM   27  C   UNL     1      -9.334   2.613  68.630  1.00  0.00    -0.244 C  
HETATM   28  O   UNL     1      -9.651   1.742  70.809  1.00  0.00    -0.119 OA 
HETATM   29  C   UNL     1      -9.079   2.758  70.107  1.00  0.00    -0.118 C  
HETATM   30  O   UNL     1      -8.458   3.655  70.639  1.00  0.00    -0.067 OA 
ENDBRANCH   4  27
TORSDOF 1
ENDMDL
MODEL       90
REMARK 921   NORMALIZED FREE ENERGY PREDICTED BY IDOCK:   11.35 KCAL/MOL
REMARK 922        TOTAL FREE ENERGY PREDICTED BY IDOCK:   11.91 KCAL/MOL
REMARK 923 INTER-LIGAND FREE ENERGY PREDICTED BY IDOCK:   12.04 KCAL/MOL
REMARK 924 INTRA-LIGAND FREE ENERGY PREDICTED BY IDOCK:   -0.13 KCAL/MOL
REMARK 927      BINDING AFFINITY PREDICTED BY RF-SCORE:    0.00 PKD
ROOT
HETATM    1  C   UNL     1      -9.764  15.994  67.035  1.00  0.00    -0.235 C  
HETATM    2  C   UNL     1     -10.600  16.868  68.400  1.00  0.00    -0.365 C  
HETATM    3  C   UNL     1     -11.033  15.209  66.763  1.00  0.00    -0.321 C  
HETATM    4  C   UNL     1      -9.777  17.978  69.147  1.00  0.00    -0.114 C  
HETATM    5  C   UNL     1     -11.010  14.075  67.777  1.00  0.00    -0.271 C  
HETATM    6  C   UNL     1     -11.979  17.544  68.046  1.00  0.00     1.984 C  
HETATM    7  C   UNL     1      -9.875  13.321  67.176  1.00  0.00    -0.237 C  
HETATM    8  C   UNL     1      -7.457  14.558  67.554  1.00  0.00    -0.216 C  
HETATM    9  C   UNL     1      -9.562  11.862  67.526  1.00  0.00    -0.175 C  
HETATM   10  C   UNL     1      -8.821  14.401  66.841  1.00  0.00    -0.246 C  
HETATM   11  C   UNL     1      -8.363  13.758  65.424  1.00  0.00     3.500 C  
HETATM   12  C   UNL     1     -10.882  11.277  67.963  1.00  0.00    -0.218 C  
HETATM   13  C   UNL     1      -7.952  12.136  65.539  1.00  0.00     1.607 C  
HETATM   14  C   UNL     1     -10.959   9.791  67.970  1.00  0.00    -0.236 C  
HETATM   15  O   UNL     1     -11.230  11.701  69.279  1.00  0.00    -0.244 OA 
HETATM   16  H   UNL     1     -12.061  11.333  69.554  1.00  0.00     0.000 HD 
HETATM   17  C   UNL     1     -10.518   9.140  66.652  1.00  0.00    -0.237 C  
HETATM   18  C   UNL     1     -10.858   7.647  66.790  1.00  0.00     0.027 C  
HETATM   19  C   UNL     1      -9.915   6.781  67.605  1.00  0.00    -0.137 C  
HETATM   20  O   UNL     1     -10.329   6.643  68.966  1.00  0.00    -0.171 OA 
HETATM   21  C   UNL     1      -8.454   7.208  67.513  1.00  0.00    -0.123 C  
HETATM   22  C   UNL     1      -8.141   8.740  67.290  1.00  0.00    -0.101 C  
HETATM   23  H   UNL     1      -9.739   6.101  69.476  1.00  0.00     0.000 HD 
HETATM   24  C   UNL     1      -9.044   9.524  66.268  1.00  0.00    -0.202 C  
HETATM   25  C   UNL     1      -8.693   8.997  64.861  1.00  0.00    -0.200 C  
HETATM   26  C   UNL     1      -9.055  11.190  66.201  1.00  0.00    -0.214 C  
ENDROOT
BRANCH   4  27
HETATM   27  C   UNL     1     -10.579  18.672  70.290  1.00  0.00     1.849 C  
HETATM   28  O   UNL     1     -11.340  20.711  71.225  1.00  0.00     5.307 OA 
HETATM   29  C   UNL     1     -10.571  20.177  70.236  1.00  0.00     1.322 C  
HETATM   30  O   UNL     1      -9.977  20.859  69.428  1.00  0.00     0.705 OA 
ENDBRANCH   4  27
TORSDOF 1
ENDMDL
MODEL       91
REMARK 921   NORMALIZED FREE ENERGY PREDICTED BY IDOCK:   12.55 KCAL/MOL
REMARK 922        TOTAL FREE ENERGY PREDICTED BY IDOCK:   13.19 KCAL/MOL
REMARK 923 INTER-LIGAND FREE ENERGY PREDICTED BY IDOCK:   10.57 KCAL/MOL
REMARK 924 INTRA-LIGAND FREE ENERGY PREDICTED BY IDOCK:    2.62 KCAL/MOL
REMARK 927      BINDING AFFINITY PREDICTED BY RF-SCORE:    0.00 PKD
ROOT
HETATM    1  C   UNL     1      -8.240   9.035  70.531  1.00  0.00    -0.187 C  
HETATM    2  C   UNL     1      -7.287   7.606  69.916  1.00  0.00    -0.081 C  
HETATM    3  C   UNL     1      -9.377   8.679  69.591  1.00  0.00    -0.161 C  
HETATM    4  C   UNL     1      -5.892   7.339  70.583  1.00  0.00    -0.027 C  
HETATM    5  C   UNL     1      -8.966   9.268  68.250  1.00  0.00    -0.129 C  
HETATM    6  C   UNL     1      -8.031   6.217  69.940  1.00  0.00    -0.114 C  
HETATM    7  C   UNL     1      -9.125  10.700  68.627  1.00  0.00    -0.170 C  
HETATM    8  C   UNL     1      -7.160  11.574  70.330  1.00  0.00     1.011 C  
HETATM    9  C   UNL     1      -9.203  11.833  67.598  1.00  0.00    -0.180 C  
HETATM   10  C   UNL     1      -8.472  10.811  70.024  1.00  0.00     0.790 C  
HETATM   11  C   UNL     1      -9.576  11.820  70.649  1.00  0.00     5.574 C  
HETATM   12  C   UNL     1      -9.738  11.182  66.347  1.00  0.00    -0.204 C  
HETATM   13  C   UNL     1      -9.846  13.173  69.697  1.00  0.00     1.392 C  
HETATM   14  C   UNL     1     -10.294  12.110  65.324  1.00  0.00    -0.310 C  
HETATM   15  O   UNL     1      -8.734  10.416  65.687  1.00  0.00    -0.158 OA 
HETATM   16  H   UNL     1      -9.070  10.006  64.898  1.00  0.00     0.000 HD 
HETATM   17  C   UNL     1     -11.333  13.094  65.877  1.00  0.00    -0.338 C  
HETATM   18  C   UNL     1     -11.922  13.811  64.652  1.00  0.00    -0.445 C  
HETATM   19  C   UNL     1     -11.105  14.928  64.028  1.00  0.00     0.586 C  
HETATM   20  O   UNL     1     -10.296  14.478  62.939  1.00  0.00     5.095 OA 
HETATM   21  C   UNL     1     -10.283  15.725  65.034  1.00  0.00    -0.146 C  
HETATM   22  C   UNL     1      -9.760  14.977  66.323  1.00  0.00    -0.316 C  
HETATM   23  H   UNL     1      -9.785  15.177  62.548  1.00  0.00     0.000 HD 
HETATM   24  C   UNL     1     -10.748  13.980  67.035  1.00  0.00    -0.284 C  
HETATM   25  C   UNL     1     -11.859  14.833  67.682  1.00  0.00    -0.319 C  
HETATM   26  C   UNL     1     -10.221  12.881  68.172  1.00  0.00    -0.239 C  
ENDROOT
BRANCH   4  27
HETATM   27  C   UNL     1      -5.159   6.093  69.997  1.00  0.00    -0.012 C  
HETATM   28  O   UNL     1      -5.166   3.743  69.703  1.00  0.00    -0.007 OA 
HETATM   29  C   UNL     1      -5.825   4.776  70.297  1.00  0.00    -0.017 C  
HETATM   30  O   UNL     1      -6.823   4.617  70.967  1.00  0.00    -0.034 OA 
ENDBRANCH   4  27
TORSDOF 1
ENDMDL
MODEL       92
REMARK 921   NORMALIZED FREE ENERGY PREDICTED BY IDOCK:   20.91 KCAL/MOL
REMARK 922        TOTAL FREE ENERGY PREDICTED BY IDOCK:   22.03 KCAL/MOL
REMARK 923 INTER-LIGAND FREE ENERGY PREDICTED BY IDOCK:   22.17 KCAL/MOL
REMARK 924 INTRA-LIGAND FREE ENERGY PREDICTED BY IDOCK:   -0.14 KCAL/MOL
REMARK 927      BINDING AFFINITY PREDICTED BY RF-SCORE:    0.00 PKD
ROOT
HETATM    1  C   UNL     1     -12.893   9.311  72.113  1.00  0.00    -0.485 C  
HETATM    2  C   UNL     1     -11.763   7.992  72.672  1.00  0.00    -0.418 C  
HETATM    3  C   UNL     1     -13.201   8.513  70.860  1.00  0.00     0.238 C  
HETATM    4  C   UNL     1     -11.082   8.183  74.074  1.00  0.00     3.296 C  
HETATM    5  C   UNL     1     -12.047   8.817  69.916  1.00  0.00     0.798 C  
HETATM    6  C   UNL     1     -12.360   6.534  72.696  1.00  0.00     0.256 C  
HETATM    7  C   UNL     1     -12.406  10.237  69.646  1.00  0.00     0.043 C  
HETATM    8  C   UNL     1     -11.923  11.881  71.787  1.00  0.00     1.344 C  
HETATM    9  C   UNL     1     -11.829  11.037  68.473  1.00  0.00    -0.286 C  
HETATM   10  C   UNL     1     -12.761  10.821  71.033  1.00  0.00    -0.513 C  
HETATM   11  C   UNL     1     -14.016  11.714  70.526  1.00  0.00     3.258 C  
HETATM   12  C   UNL     1     -11.472  10.002  67.437  1.00  0.00     0.641 C  
HETATM   13  C   UNL     1     -13.638  12.705  69.227  1.00  0.00     4.527 C  
HETATM   14  C   UNL     1     -11.274  10.515  66.053  1.00  0.00     0.435 C  
HETATM   15  O   UNL     1     -10.275   9.310  67.781  1.00  0.00    -0.191 OA 
HETATM   16  H   UNL     1     -10.049   8.658  67.128  1.00  0.00     0.000 HD 
HETATM   17  C   UNL     1     -12.433  11.380  65.540  1.00  0.00     2.198 C  
HETATM   18  C   UNL     1     -12.135  11.636  64.054  1.00  0.00    -0.252 C  
HETATM   19  C   UNL     1     -11.108  12.701  63.713  1.00  0.00    -0.453 C  
HETATM   20  O   UNL     1      -9.797  12.163  63.524  1.00  0.00    -0.536 OA 
HETATM   21  C   UNL     1     -11.089  13.871  64.690  1.00  0.00    -0.389 C  
HETATM   22  C   UNL     1     -11.478  13.588  66.194  1.00  0.00    -0.348 C  
HETATM   23  H   UNL     1      -9.155  12.829  63.310  1.00  0.00     0.000 HD 
HETATM   24  C   UNL     1     -12.693  12.625  66.461  1.00  0.00     1.073 C  
HETATM   25  C   UNL     1     -13.967  13.374  66.017  1.00  0.00     4.834 C  
HETATM   26  C   UNL     1     -12.985  11.972  67.968  1.00  0.00     3.434 C  
ENDROOT
BRANCH   4  27
HETATM   27  C   UNL     1     -10.144   7.001  74.467  1.00  0.00     0.062 C  
HETATM   28  O   UNL     1      -8.022   5.982  74.208  1.00  0.00    -0.103 OA 
HETATM   29  C   UNL     1      -8.808   7.004  73.771  1.00  0.00    -0.167 C  
HETATM   30  O   UNL     1      -8.442   7.800  72.932  1.00  0.00    -0.127 OA 
ENDBRANCH   4  27
TORSDOF 1
ENDMDL
MODEL       93
REMARK 921   NORMALIZED FREE ENERGY PREDICTED BY IDOCK:   21.02 KCAL/MOL
REMARK 922        TOTAL FREE ENERGY PREDICTED BY IDOCK:   22.15 KCAL/MOL
REMARK 923 INTER-LIGAND FREE ENERGY PREDICTED BY IDOCK:   19.21 KCAL/MOL
REMARK 924 INTRA-LIGAND FREE ENERGY PREDICTED BY IDOCK:    2.94 KCAL/MOL
REMARK 927      BINDING AFFINITY PREDICTED BY RF-SCORE:    0.00 PKD
ROOT
HETATM    1  C   UNL     1      -7.472  13.032  70.409  1.00  0.00     2.666 C  
HETATM    2  C   UNL     1      -6.688  14.628  70.817  1.00  0.00     0.322 C  
HETATM    3  C   UNL     1      -6.844  13.078  69.029  1.00  0.00    -0.081 C  
HETATM    4  C   UNL     1      -6.910  15.182  72.269  1.00  0.00     2.709 C  
HETATM    5  C   UNL     1      -7.766  13.974  68.216  1.00  0.00    -0.141 C  
HETATM    6  C   UNL     1      -5.133  14.717  70.573  1.00  0.00    -0.110 C  
HETATM    7  C   UNL     1      -8.920  13.035  68.155  1.00  0.00    -0.198 C  
HETATM    8  C   UNL     1     -10.225  12.796  70.556  1.00  0.00     4.141 C  
HETATM    9  C   UNL     1     -10.076  13.192  67.161  1.00  0.00    -0.242 C  
HETATM   10  C   UNL     1      -9.053  12.485  69.594  1.00  0.00     2.004 C  
HETATM   11  C   UNL     1      -9.397  10.960  69.163  1.00  0.00    -0.096 C  
HETATM   12  C   UNL     1      -9.484  13.944  65.995  1.00  0.00    -0.118 C  
HETATM   13  C   UNL     1     -10.658  10.855  68.063  1.00  0.00    -0.239 C  
HETATM   14  C   UNL     1     -10.259  13.880  64.726  1.00  0.00    -0.353 C  
HETATM   15  O   UNL     1      -9.322  15.328  66.296  1.00  0.00    -0.268 OA 
HETATM   16  H   UNL     1      -8.949  15.802  65.561  1.00  0.00     0.000 HD 
HETATM   17  C   UNL     1     -10.619  12.455  64.289  1.00  0.00    -0.391 C  
HETATM   18  C   UNL     1     -11.225  12.590  62.883  1.00  0.00     0.544 C  
HETATM   19  C   UNL     1     -12.667  13.054  62.778  1.00  0.00     1.072 C  
HETATM   20  O   UNL     1     -12.780  14.465  62.583  1.00  0.00    -0.006 OA 
HETATM   21  C   UNL     1     -13.550  12.583  63.928  1.00  0.00     1.203 C  
HETATM   22  C   UNL     1     -12.878  12.376  65.343  1.00  0.00     0.490 C  
HETATM   23  H   UNL     1     -13.682  14.755  62.517  1.00  0.00     0.000 HD 
HETATM   24  C   UNL     1     -11.459  11.698  65.380  1.00  0.00    -0.170 C  
HETATM   25  C   UNL     1     -11.656  10.220  64.987  1.00  0.00     2.897 C  
HETATM   26  C   UNL     1     -10.499  11.740  66.743  1.00  0.00    -0.260 C  
ENDROOT
BRANCH   4  27
HETATM   27  C   UNL     1      -6.195  16.544  72.523  1.00  0.00     3.562 C  
HETATM   28  O   UNL     1      -5.258  18.501  71.574  1.00  0.00    -0.435 OA 
HETATM   29  C   UNL     1      -5.821  17.298  71.275  1.00  0.00     0.934 C  
HETATM   30  O   UNL     1      -5.991  16.920  70.135  1.00  0.00    -0.225 OA 
ENDBRANCH   4  27
TORSDOF 1
ENDMDL
MODEL       94
REMARK 921   NORMALIZED FREE ENERGY PREDICTED BY IDOCK:   23.21 KCAL/MOL
REMARK 922        TOTAL FREE ENERGY PREDICTED BY IDOCK:   24.46 KCAL/MOL
REMARK 923 INTER-LIGAND FREE ENERGY PREDICTED BY IDOCK:   21.02 KCAL/MOL
REMARK 924 INTRA-LIGAND FREE ENERGY PREDICTED BY IDOCK:    3.44 KCAL/MOL
REMARK 927      BINDING AFFINITY PREDICTED BY RF-SCORE:    0.00 PKD
ROOT
HETATM    1  C   UNL     1      -9.279  20.599  67.075  1.00  0.00    -0.390 C  
HETATM    2  C   UNL     1      -8.076  20.658  65.705  1.00  0.00     0.387 C  
HETATM    3  C   UNL     1      -8.248  19.908  67.948  1.00  0.00    -0.318 C  
HETATM    4  C   UNL     1      -8.535  21.371  64.384  1.00  0.00     2.969 C  
HETATM    5  C   UNL     1      -8.323  18.442  67.546  1.00  0.00    -0.259 C  
HETATM    6  C   UNL     1      -6.670  21.281  66.047  1.00  0.00     0.074 C  
HETATM    7  C   UNL     1      -9.666  18.165  68.128  1.00  0.00    -0.331 C  
HETATM    8  C   UNL     1     -11.703  19.318  66.699  1.00  0.00     1.463 C  
HETATM    9  C   UNL     1     -10.193  16.748  68.378  1.00  0.00    -0.296 C  
HETATM   10  C   UNL     1     -10.531  19.376  67.709  1.00  0.00    -0.556 C  
HETATM   11  C   UNL     1     -11.332  19.508  69.113  1.00  0.00     2.750 C  
HETATM   12  C   UNL     1      -8.958  15.902  68.558  1.00  0.00    -0.199 C  
HETATM   13  C   UNL     1     -12.024  18.065  69.614  1.00  0.00     6.089 C  
HETATM   14  C   UNL     1      -9.170  14.580  69.210  1.00  0.00     0.102 C  
HETATM   15  O   UNL     1      -8.322  15.634  67.310  1.00  0.00    -0.157 OA 
HETATM   16  H   UNL     1      -7.544  15.101  67.424  1.00  0.00     0.000 HD 
HETATM   17  C   UNL     1      -9.939  14.658  70.535  1.00  0.00     1.022 C  
HETATM   18  C   UNL     1      -9.876  13.245  71.136  1.00  0.00     8.218 C  
HETATM   19  C   UNL     1     -10.822  12.197  70.578  1.00  0.00     2.096 C  
HETATM   20  O   UNL     1     -10.224  11.407  69.547  1.00  0.00    -0.430 OA 
HETATM   21  C   UNL     1     -12.168  12.759  70.132  1.00  0.00    -0.320 C  
HETATM   22  C   UNL     1     -12.210  14.243  69.593  1.00  0.00    -0.371 C  
HETATM   23  H   UNL     1     -10.816  10.752  69.198  1.00  0.00     0.000 HD 
HETATM   24  C   UNL     1     -11.353  15.318  70.358  1.00  0.00    -0.325 C  
HETATM   25  C   UNL     1     -12.027  15.537  71.729  1.00  0.00    -0.494 C  
HETATM   26  C   UNL     1     -11.032  16.817  69.702  1.00  0.00    -0.122 C  
ENDROOT
BRANCH   4  27
HETATM   27  C   UNL     1      -7.436  21.378  63.277  1.00  0.00     0.842 C  
HETATM   28  O   UNL     1      -5.406  20.446  62.490  1.00  0.00    -0.192 OA 
HETATM   29  C   UNL     1      -6.292  20.430  63.524  1.00  0.00     0.015 C  
HETATM   30  O   UNL     1      -6.148  19.723  64.499  1.00  0.00    -0.247 OA 
ENDBRANCH   4  27
TORSDOF 1
ENDMDL
MODEL       95
REMARK 921   NORMALIZED FREE ENERGY PREDICTED BY IDOCK:   25.78 KCAL/MOL
REMARK 922        TOTAL FREE ENERGY PREDICTED BY IDOCK:   27.19 KCAL/MOL
REMARK 923 INTER-LIGAND FREE ENERGY PREDICTED BY IDOCK:   27.34 KCAL/MOL
REMARK 924 INTRA-LIGAND FREE ENERGY PREDICTED BY IDOCK:   -0.15 KCAL/MOL
REMARK 927      BINDING AFFINITY PREDICTED BY RF-SCORE:    0.00 PKD
ROOT
HETATM    1  C   UNL     1     -11.149   7.210  72.255  1.00  0.00    -0.289 C  
HETATM    2  C   UNL     1     -11.025   5.537  71.539  1.00  0.00    -0.220 C  
HETATM    3  C   UNL     1     -12.034   7.638  71.099  1.00  0.00    -0.319 C  
HETATM    4  C   UNL     1     -10.211   4.471  72.355  1.00  0.00    -0.253 C  
HETATM    5  C   UNL     1     -11.065   7.967  69.973  1.00  0.00    -0.165 C  
HETATM    6  C   UNL     1     -12.391   4.834  71.185  1.00  0.00     5.258 C  
HETATM    7  C   UNL     1     -10.494   9.200  70.584  1.00  0.00    -0.305 C  
HETATM    8  C   UNL     1      -8.841   8.667  72.707  1.00  0.00    -0.055 C  
HETATM    9  C   UNL     1      -9.691  10.234  69.787  1.00  0.00    -0.183 C  
HETATM   10  C   UNL     1     -10.239   8.822  72.062  1.00  0.00    -0.401 C  
HETATM   11  C   UNL     1     -10.718  10.240  72.685  1.00  0.00     5.821 C  
HETATM   12  C   UNL     1     -10.182  10.094  68.368  1.00  0.00    -0.169 C  
HETATM   13  C   UNL     1      -9.966  11.560  71.974  1.00  0.00    13.038 C  
HETATM   14  C   UNL     1      -9.876  11.237  67.464  1.00  0.00    -0.195 C  
HETATM   15  O   UNL     1      -9.642   8.933  67.741  1.00  0.00    -0.142 OA 
HETATM   16  H   UNL     1      -9.951   8.845  66.847  1.00  0.00     0.000 HD 
HETATM   17  C   UNL     1     -10.299  12.601  68.023  1.00  0.00    -0.231 C  
HETATM   18  C   UNL     1     -10.087  13.604  66.878  1.00  0.00    -0.260 C  
HETATM   19  C   UNL     1      -8.672  14.083  66.611  1.00  0.00    -0.028 C  
HETATM   20  O   UNL     1      -8.013  13.319  65.597  1.00  0.00     1.796 OA 
HETATM   21  C   UNL     1      -7.812  14.192  67.865  1.00  0.00    -0.157 C  
HETATM   22  C   UNL     1      -8.109  13.198  69.056  1.00  0.00     0.323 C  
HETATM   23  H   UNL     1      -7.128  13.619  65.430  1.00  0.00     0.000 HD 
HETATM   24  C   UNL     1      -9.616  12.910  69.404  1.00  0.00     1.058 C  
HETATM   25  C   UNL     1     -10.191  14.203  70.018  1.00  0.00     0.800 C  
HETATM   26  C   UNL     1     -10.066  11.637  70.382  1.00  0.00     2.834 C  
ENDROOT
BRANCH   4  27
HETATM   27  C   UNL     1     -10.171   3.072  71.667  1.00  0.00     0.070 C  
HETATM   28  O   UNL     1      -9.166   1.699  70.019  1.00  0.00    -0.086 OA 
HETATM   29  C   UNL     1      -9.190   2.961  70.529  1.00  0.00    -0.139 C  
HETATM   30  O   UNL     1      -8.490   3.854  70.101  1.00  0.00    -0.059 OA 
ENDBRANCH   4  27
TORSDOF 1
ENDMDL
MODEL       96
REMARK 921   NORMALIZED FREE ENERGY PREDICTED BY IDOCK:   26.05 KCAL/MOL
REMARK 922        TOTAL FREE ENERGY PREDICTED BY IDOCK:   27.48 KCAL/MOL
REMARK 923 INTER-LIGAND FREE ENERGY PREDICTED BY IDOCK:   21.70 KCAL/MOL
REMARK 924 INTRA-LIGAND FREE ENERGY PREDICTED BY IDOCK:    5.78 KCAL/MOL
REMARK 927      BINDING AFFINITY PREDICTED BY RF-SCORE:    0.00 PKD
ROOT
HETATM    1  C   UNL     1      -9.430   6.569  69.158  1.00  0.00    -0.136 C  
HETATM    2  C   UNL     1     -10.203   5.632  70.518  1.00  0.00    -0.297 C  
HETATM    3  C   UNL     1      -8.155   6.696  69.971  1.00  0.00    -0.121 C  
HETATM    4  C   UNL     1     -11.659   5.097  70.278  1.00  0.00     2.321 C  
HETATM    5  C   UNL     1      -8.411   7.867  70.908  1.00  0.00    -0.115 C  
HETATM    6  C   UNL     1      -9.389   4.394  71.054  1.00  0.00    -0.216 C  
HETATM    7  C   UNL     1      -8.391   8.935  69.870  1.00  0.00    -0.128 C  
HETATM    8  C   UNL     1     -10.619   8.905  68.271  1.00  0.00    -0.203 C  
HETATM    9  C   UNL     1      -8.238  10.422  70.203  1.00  0.00     0.332 C  
HETATM   10  C   UNL     1      -9.236   8.365  68.707  1.00  0.00    -0.143 C  
HETATM   11  C   UNL     1      -8.290   8.928  67.517  1.00  0.00    -0.109 C  
HETATM   12  C   UNL     1      -7.498  10.451  71.516  1.00  0.00     2.911 C  
HETATM   13  C   UNL     1      -7.970  10.569  67.648  1.00  0.00    -0.106 C  
HETATM   14  C   UNL     1      -6.862  11.749  71.871  1.00  0.00     5.727 C  
HETATM   15  O   UNL     1      -8.355  10.115  72.605  1.00  0.00     3.728 OA 
HETATM   16  H   UNL     1      -7.889  10.134  73.433  1.00  0.00     0.000 HD 
HETATM   17  C   UNL     1      -5.969  12.326  70.764  1.00  0.00     0.144 C  
HETATM   18  C   UNL     1      -5.260  13.538  71.390  1.00  0.00    -0.184 C  
HETATM   19  C   UNL     1      -6.047  14.830  71.514  1.00  0.00     0.311 C  
HETATM   20  O   UNL     1      -6.670  14.976  72.792  1.00  0.00     1.767 OA 
HETATM   21  C   UNL     1      -7.046  15.052  70.384  1.00  0.00     0.296 C  
HETATM   22  C   UNL     1      -7.696  13.782  69.708  1.00  0.00     0.828 C  
HETATM   23  H   UNL     1      -7.162  15.784  72.870  1.00  0.00     0.000 HD 
HETATM   24  C   UNL     1      -6.760  12.550  69.426  1.00  0.00    -0.022 C  
HETATM   25  C   UNL     1      -5.801  12.965  68.290  1.00  0.00    -0.079 C  
HETATM   26  C   UNL     1      -7.373  11.045  69.050  1.00  0.00    -0.123 C  
ENDROOT
BRANCH   4  27
HETATM   27  C   UNL     1     -12.229   4.302  71.493  1.00  0.00     5.109 C  
HETATM   28  O   UNL     1     -11.806   3.366  73.628  1.00  0.00    -0.012 OA 
HETATM   29  C   UNL     1     -11.224   4.006  72.576  1.00  0.00     0.378 C  
HETATM   30  O   UNL     1     -10.046   4.292  72.553  1.00  0.00    -0.160 OA 
ENDBRANCH   4  27
TORSDOF 1
ENDMDL
MODEL       97
REMARK 921   NORMALIZED FREE ENERGY PREDICTED BY IDOCK:   27.40 KCAL/MOL
REMARK 922        TOTAL FREE ENERGY PREDICTED BY IDOCK:   28.90 KCAL/MOL
REMARK 923 INTER-LIGAND FREE ENERGY PREDICTED BY IDOCK:   29.02 KCAL/MOL
REMARK 924 INTRA-LIGAND FREE ENERGY PREDICTED BY IDOCK:   -0.12 KCAL/MOL
REMARK 927      BINDING AFFINITY PREDICTED BY RF-SCORE:    0.00 PKD
ROOT
HETATM    1  C   UNL     1     -12.544  14.430  71.440  1.00  0.00    -0.426 C  
HETATM    2  C   UNL     1     -11.371  15.242  70.305  1.00  0.00    -0.318 C  
HETATM    3  C   UNL     1     -11.381  13.878  72.244  1.00  0.00     2.515 C  
HETATM    4  C   UNL     1     -11.983  16.119  69.154  1.00  0.00    -0.085 C  
HETATM    5  C   UNL     1     -10.940  12.637  71.481  1.00  0.00     5.347 C  
HETATM    6  C   UNL     1     -10.273  16.150  70.978  1.00  0.00     1.335 C  
HETATM    7  C   UNL     1     -12.136  11.804  71.788  1.00  0.00     0.868 C  
HETATM    8  C   UNL     1     -14.376  12.619  70.431  1.00  0.00     5.519 C  
HETATM    9  C   UNL     1     -12.167  10.284  71.601  1.00  0.00    -0.384 C  
HETATM   10  C   UNL     1     -13.339  12.752  71.572  1.00  0.00    -0.232 C  
HETATM   11  C   UNL     1     -14.199  12.228  72.843  1.00  0.00     1.643 C  
HETATM   12  C   UNL     1     -10.728   9.849  71.729  1.00  0.00     0.833 C  
HETATM   13  C   UNL     1     -14.388  10.562  72.869  1.00  0.00     1.832 C  
HETATM   14  C   UNL     1     -10.513   8.400  71.994  1.00  0.00    -0.384 C  
HETATM   15  O   UNL     1      -9.984  10.155  70.552  1.00  0.00    -0.377 OA 
HETATM   16  H   UNL     1      -9.079   9.880  70.632  1.00  0.00     0.000 HD 
HETATM   17  C   UNL     1     -11.322   7.859  73.180  1.00  0.00    -0.136 C  
HETATM   18  C   UNL     1     -10.815   6.426  73.411  1.00  0.00    -0.243 C  
HETATM   19  C   UNL     1     -11.327   5.338  72.485  1.00  0.00    -0.179 C  
HETATM   20  O   UNL     1     -10.453   5.096  71.381  1.00  0.00    -0.218 OA 
HETATM   21  C   UNL     1     -12.762   5.555  72.017  1.00  0.00     1.137 C  
HETATM   22  C   UNL     1     -13.277   7.040  71.866  1.00  0.00    -0.252 C  
HETATM   23  H   UNL     1     -10.773   4.415  70.802  1.00  0.00     0.000 HD 
HETATM   24  C   UNL     1     -12.867   8.068  72.985  1.00  0.00     0.671 C  
HETATM   25  C   UNL     1     -13.635   7.672  74.263  1.00  0.00     8.319 C  
HETATM   26  C   UNL     1     -13.039   9.713  72.775  1.00  0.00     0.119 C  
ENDROOT
BRANCH   4  27
HETATM   27  C   UNL     1     -10.902  16.778  68.244  1.00  0.00    -0.366 C  
HETATM   28  O   UNL     1     -10.232  18.698  67.029  1.00  0.00    -0.340 OA 
HETATM   29  C   UNL     1     -11.245  18.164  67.764  1.00  0.00     0.324 C  
HETATM   30  O   UNL     1     -12.276  18.762  67.992  1.00  0.00     2.499 OA 
ENDBRANCH   4  27
TORSDOF 1
ENDMDL
MODEL       98
REMARK 921   NORMALIZED FREE ENERGY PREDICTED BY IDOCK:   35.44 KCAL/MOL
REMARK 922        TOTAL FREE ENERGY PREDICTED BY IDOCK:   37.41 KCAL/MOL
REMARK 923 INTER-LIGAND FREE ENERGY PREDICTED BY IDOCK:   36.65 KCAL/MOL
REMARK 924 INTRA-LIGAND FREE ENERGY PREDICTED BY IDOCK:    0.76 KCAL/MOL
REMARK 927      BINDING AFFINITY PREDICTED BY RF-SCORE:    0.00 PKD
ROOT
HETATM    1  C   UNL     1      -9.544  19.019  69.220  1.00  0.00    -0.170 C  
HETATM    2  C   UNL     1     -10.524  19.071  70.757  1.00  0.00     2.178 C  
HETATM    3  C   UNL     1     -10.815  18.812  68.418  1.00  0.00     0.233 C  
HETATM    4  C   UNL     1      -9.742  19.342  72.092  1.00  0.00     4.040 C  
HETATM    5  C   UNL     1     -11.104  17.323  68.530  1.00  0.00    -0.008 C  
HETATM    6  C   UNL     1     -11.733  20.082  70.772  1.00  0.00     8.482 C  
HETATM    7  C   UNL     1      -9.963  16.857  67.693  1.00  0.00    -0.271 C  
HETATM    8  C   UNL     1      -7.541  17.129  68.951  1.00  0.00    -0.234 C  
HETATM    9  C   UNL     1      -9.878  15.444  67.106  1.00  0.00    -0.221 C  
HETATM   10  C   UNL     1      -8.756  17.694  68.176  1.00  0.00    -0.265 C  
HETATM   11  C   UNL     1      -8.111  17.928  66.707  1.00  0.00    -0.262 C  
HETATM   12  C   UNL     1     -11.310  14.989  66.982  1.00  0.00    -0.318 C  
HETATM   13  C   UNL     1      -7.903  16.505  65.844  1.00  0.00     0.364 C  
HETATM   14  C   UNL     1     -11.544  13.832  66.075  1.00  0.00    -0.361 C  
HETATM   15  O   UNL     1     -11.852  14.621  68.248  1.00  0.00    -0.375 OA 
HETATM   16  H   UNL     1     -12.755  14.334  68.170  1.00  0.00     0.000 HD 
HETATM   17  C   UNL     1     -10.936  14.006  64.677  1.00  0.00    -0.401 C  
HETATM   18  C   UNL     1     -11.452  12.819  63.848  1.00  0.00    -0.505 C  
HETATM   19  C   UNL     1     -10.776  11.474  64.043  1.00  0.00    -0.384 C  
HETATM   20  O   UNL     1     -11.450  10.651  64.997  1.00  0.00     0.591 OA 
HETATM   21  C   UNL     1      -9.287  11.575  64.355  1.00  0.00    -0.023 C  
HETATM   22  C   UNL     1      -8.777  12.847  65.139  1.00  0.00     1.874 C  
HETATM   23  H   UNL     1     -11.027   9.809  65.119  1.00  0.00     0.000 HD 
HETATM   24  C   UNL     1      -9.384  14.241  64.735  1.00  0.00     1.581 C  
HETATM   25  C   UNL     1      -8.833  14.582  63.334  1.00  0.00    13.313 C  
HETATM   26  C   UNL     1      -9.205  15.592  65.696  1.00  0.00    -0.085 C  
ENDROOT
BRANCH   4  27
HETATM   27  C   UNL     1     -10.667  19.377  73.348  1.00  0.00     3.843 C  
HETATM   28  O   UNL     1     -12.405  18.324  74.563  1.00  0.00     0.969 OA 
HETATM   29  C   UNL     1     -11.678  18.264  73.413  1.00  0.00     2.415 C  
HETATM   30  O   UNL     1     -11.847  17.403  72.576  1.00  0.00     0.651 OA 
ENDBRANCH   4  27
TORSDOF 1
ENDMDL
MODEL       99
REMARK 921   NORMALIZED FREE ENERGY PREDICTED BY IDOCK:   36.32 KCAL/MOL
REMARK 922        TOTAL FREE ENERGY PREDICTED BY IDOCK:   38.34 KCAL/MOL
REMARK 923 INTER-LIGAND FREE ENERGY PREDICTED BY IDOCK:   37.83 KCAL/MOL
REMARK 924 INTRA-LIGAND FREE ENERGY PREDICTED BY IDOCK:    0.51 KCAL/MOL
REMARK 927      BINDING AFFINITY PREDICTED BY RF-SCORE:    0.00 PKD
ROOT
HETATM    1  C   UNL     1      -6.540  10.899  69.546  1.00  0.00    -0.109 C  
HETATM    2  C   UNL     1      -6.977   9.594  68.348  1.00  0.00    -0.065 C  
HETATM    3  C   UNL     1      -7.654  10.429  70.462  1.00  0.00     0.613 C  
HETATM    4  C   UNL     1      -6.083   9.478  67.062  1.00  0.00    -0.063 C  
HETATM    5  C   UNL     1      -8.912  11.076  69.902  1.00  0.00     1.018 C  
HETATM    6  C   UNL     1      -7.067   8.130  68.923  1.00  0.00    -0.066 C  
HETATM    7  C   UNL     1      -8.577  12.477  70.283  1.00  0.00     4.811 C  
HETATM    8  C   UNL     1      -6.575  13.546  68.742  1.00  0.00    -0.102 C  
HETATM    9  C   UNL     1      -9.612  13.605  70.316  1.00  0.00     3.113 C  
HETATM   10  C   UNL     1      -7.091  12.643  69.889  1.00  0.00     0.701 C  
HETATM   11  C   UNL     1      -6.666  13.513  71.189  1.00  0.00     1.656 C  
HETATM   12  C   UNL     1     -10.931  12.914  70.557  1.00  0.00     1.811 C  
HETATM   13  C   UNL     1      -7.660  14.839  71.448  1.00  0.00     2.774 C  
HETATM   14  C   UNL     1     -12.038  13.785  71.036  1.00  0.00    -0.324 C  
HETATM   15  O   UNL     1     -11.408  12.273  69.376  1.00  0.00    -0.315 OA 
HETATM   16  H   UNL     1     -12.239  11.838  69.528  1.00  0.00     0.000 HD 
HETATM   17  C   UNL     1     -11.674  14.639  72.257  1.00  0.00    -0.062 C  
HETATM   18  C   UNL     1     -12.985  15.300  72.710  1.00  0.00    -0.535 C  
HETATM   19  C   UNL     1     -13.472  16.509  71.933  1.00  0.00     2.234 C  
HETATM   20  O   UNL     1     -14.407  16.166  70.907  1.00  0.00     0.280 OA 
HETATM   21  C   UNL     1     -12.348  17.382  71.386  1.00  0.00     5.232 C  
HETATM   22  C   UNL     1     -10.984  16.682  71.005  1.00  0.00     0.399 C  
HETATM   23  H   UNL     1     -14.711  16.923  70.421  1.00  0.00     0.000 HD 
HETATM   24  C   UNL     1     -10.441  15.571  71.978  1.00  0.00     1.399 C  
HETATM   25  C   UNL     1      -9.994  16.286  73.271  1.00  0.00     8.893 C  
HETATM   26  C   UNL     1      -9.223  14.525  71.527  1.00  0.00     4.932 C  
ENDROOT
BRANCH   4  27
HETATM   27  C   UNL     1      -6.530   8.330  66.106  1.00  0.00    -0.050 C  
HETATM   28  O   UNL     1      -8.302   7.338  64.888  1.00  0.00    -0.111 OA 
HETATM   29  C   UNL     1      -7.999   8.327  65.773  1.00  0.00    -0.099 C  
HETATM   30  O   UNL     1      -8.830   9.095  66.208  1.00  0.00    -0.136 OA 
ENDBRANCH   4  27
TORSDOF 1
ENDMDL
MODEL      100
REMARK 921   NORMALIZED FREE ENERGY PREDICTED BY IDOCK:   43.17 KCAL/MOL
REMARK 922        TOTAL FREE ENERGY PREDICTED BY IDOCK:   45.59 KCAL/MOL
REMARK 923 INTER-LIGAND FREE ENERGY PREDICTED BY IDOCK:   45.72 KCAL/MOL
REMARK 924 INTRA-LIGAND FREE ENERGY PREDICTED BY IDOCK:   -0.13 KCAL/MOL
REMARK 927      BINDING AFFINITY PREDICTED BY RF-SCORE:    0.00 PKD
ROOT
HETATM    1  C   UNL     1     -12.450  14.088  72.260  1.00  0.00    -0.183 C  
HETATM    2  C   UNL     1     -11.206  15.409  72.069  1.00  0.00    -0.362 C  
HETATM    3  C   UNL     1     -11.412  13.212  72.936  1.00  0.00     5.706 C  
HETATM    4  C   UNL     1     -11.691  16.757  71.425  1.00  0.00     0.422 C  
HETATM    5  C   UNL     1     -10.627  12.591  71.790  1.00  0.00     9.133 C  
HETATM    6  C   UNL     1     -10.437  15.829  73.379  1.00  0.00     4.572 C  
HETATM    7  C   UNL     1     -11.712  11.701  71.291  1.00  0.00     0.901 C  
HETATM    8  C   UNL     1     -13.712  13.078  70.014  1.00  0.00     2.887 C  
HETATM    9  C   UNL     1     -11.459  10.524  70.343  1.00  0.00    -0.427 C  
HETATM   10  C   UNL     1     -12.976  12.592  71.287  1.00  0.00    -0.301 C  
HETATM   11  C   UNL     1     -13.993  11.447  71.819  1.00  0.00     0.778 C  
HETATM   12  C   UNL     1     -10.031  10.117  70.604  1.00  0.00     0.325 C  
HETATM   13  C   UNL     1     -13.915  10.029  70.927  1.00  0.00     0.449 C  
HETATM   14  C   UNL     1      -9.648   8.760  70.126  1.00  0.00    -0.187 C  
HETATM   15  O   UNL     1      -9.111  11.026  70.003  1.00  0.00     0.202 OA 
HETATM   16  H   UNL     1      -8.211  10.770  70.167  1.00  0.00     0.000 HD 
HETATM   17  C   UNL     1     -10.595   7.647  70.595  1.00  0.00    -0.225 C  
HETATM   18  C   UNL     1      -9.927   6.328  70.176  1.00  0.00    -0.209 C  
HETATM   19  C   UNL     1     -10.049   5.905  68.723  1.00  0.00    -0.172 C  
HETATM   20  O   UNL     1      -8.932   6.317  67.933  1.00  0.00    -0.116 OA 
HETATM   21  C   UNL     1     -11.367   6.313  68.073  1.00  0.00    -0.006 C  
HETATM   22  C   UNL     1     -12.068   7.633  68.584  1.00  0.00     2.614 C  
HETATM   23  H   UNL     1      -9.009   6.052  67.024  1.00  0.00     0.000 HD 
HETATM   24  C   UNL     1     -12.075   7.899  70.134  1.00  0.00     0.488 C  
HETATM   25  C   UNL     1     -13.025   6.859  70.764  1.00  0.00     0.045 C  
HETATM   26  C   UNL     1     -12.459   9.392  70.770  1.00  0.00    -0.144 C  
ENDROOT
BRANCH   4  27
HETATM   27  C   UNL     1     -10.560  17.825  71.313  1.00  0.00     2.650 C  
HETATM   28  O   UNL     1      -9.902  20.068  71.698  1.00  0.00     1.739 OA 
HETATM   29  C   UNL     1     -10.954  19.206  71.766  1.00  0.00     4.588 C  
HETATM   30  O   UNL     1     -12.053  19.543  72.155  1.00  0.00    10.549 OA 
ENDBRANCH   4  27
TORSDOF 1
ENDMDL
MODEL      101
REMARK 921   NORMALIZED FREE ENERGY PREDICTED BY IDOCK:   45.03 KCAL/MOL
REMARK 922        TOTAL FREE ENERGY PREDICTED BY IDOCK:   47.56 KCAL/MOL
REMARK 923 INTER-LIGAND FREE ENERGY PREDICTED BY IDOCK:   47.66 KCAL/MOL
REMARK 924 INTRA-LIGAND FREE ENERGY PREDICTED BY IDOCK:   -0.10 KCAL/MOL
REMARK 927      BINDING AFFINITY PREDICTED BY RF-SCORE:    0.00 PKD
ROOT
HETATM    1  C   UNL     1     -10.010   8.904  71.877  1.00  0.00    -0.384 C  
HETATM    2  C   UNL     1     -10.536   7.362  71.058  1.00  0.00    -0.223 C  
HETATM    3  C   UNL     1     -11.442   9.405  71.849  1.00  0.00    -0.308 C  
HETATM    4  C   UNL     1      -9.433   6.270  70.818  1.00  0.00    -0.185 C  
HETATM    5  C   UNL     1     -11.625   9.968  70.447  1.00  0.00    -0.379 C  
HETATM    6  C   UNL     1     -11.737   6.595  71.733  1.00  0.00    -0.363 C  
HETATM    7  C   UNL     1     -10.737  11.152  70.613  1.00  0.00     1.285 C  
HETATM    8  C   UNL     1      -8.078  10.484  70.683  1.00  0.00     1.613 C  
HETATM    9  C   UNL     1     -10.755  12.352  69.659  1.00  0.00     0.384 C  
HETATM   10  C   UNL     1      -9.481  10.601  71.327  1.00  0.00     4.430 C  
HETATM   11  C   UNL     1      -9.271  11.874  72.309  1.00  0.00    20.777 C  
HETATM   12  C   UNL     1     -12.146  12.363  69.078  1.00  0.00    -0.136 C  
HETATM   13  C   UNL     1      -9.245  13.340  71.493  1.00  0.00    13.338 C  
HETATM   14  C   UNL     1     -12.569  13.641  68.441  1.00  0.00     0.609 C  
HETATM   15  O   UNL     1     -12.307  11.350  68.088  1.00  0.00    -0.502 OA 
HETATM   16  H   UNL     1     -13.184  11.358  67.722  1.00  0.00     0.000 HD 
HETATM   17  C   UNL     1     -12.372  14.874  69.332  1.00  0.00    -0.168 C  
HETATM   18  C   UNL     1     -13.044  16.038  68.586  1.00  0.00     2.732 C  
HETATM   19  C   UNL     1     -12.284  16.671  67.435  1.00  0.00     2.019 C  
HETATM   20  O   UNL     1     -12.637  16.114  66.167  1.00  0.00     2.198 OA 
HETATM   21  C   UNL     1     -10.772  16.684  67.630  1.00  0.00    -0.306 C  
HETATM   22  C   UNL     1     -10.122  15.515  68.470  1.00  0.00    -0.211 C  
HETATM   23  H   UNL     1     -12.162  16.510  65.447  1.00  0.00     0.000 HD 
HETATM   24  C   UNL     1     -10.875  15.051  69.771  1.00  0.00    -0.277 C  
HETATM   25  C   UNL     1     -10.741  16.193  70.800  1.00  0.00     0.125 C  
HETATM   26  C   UNL     1     -10.498  13.622  70.544  1.00  0.00     2.231 C  
ENDROOT
BRANCH   4  27
HETATM   27  C   UNL     1      -9.981   4.987  70.121  1.00  0.00    -0.328 C  
HETATM   28  O   UNL     1      -9.471   2.917  69.089  1.00  0.00    -0.153 OA 
HETATM   29  C   UNL     1      -8.919   4.039  69.628  1.00  0.00    -0.101 C  
HETATM   30  O   UNL     1      -7.721   4.214  69.693  1.00  0.00    -0.053 OA 
ENDBRANCH   4  27
TORSDOF 1
ENDMDL
MODEL      102
REMARK 921   NORMALIZED FREE ENERGY PREDICTED BY IDOCK:   49.50 KCAL/MOL
REMARK 922        TOTAL FREE ENERGY PREDICTED BY IDOCK:   52.30 KCAL/MOL
REMARK 923 INTER-LIGAND FREE ENERGY PREDICTED BY IDOCK:   52.48 KCAL/MOL
REMARK 924 INTRA-LIGAND FREE ENERGY PREDICTED BY IDOCK:   -0.18 KCAL/MOL
REMARK 927      BINDING AFFINITY PREDICTED BY RF-SCORE:    0.00 PKD
ROOT
HETATM    1  C   UNL     1      -6.566  14.601  68.329  1.00  0.00    -0.118 C  
HETATM    2  C   UNL     1      -7.203  13.093  69.133  1.00  0.00     0.077 C  
HETATM    3  C   UNL     1      -7.380  15.452  69.286  1.00  0.00    -0.197 C  
HETATM    4  C   UNL     1      -6.656  11.718  68.605  1.00  0.00    -0.065 C  
HETATM    5  C   UNL     1      -8.779  15.475  68.687  1.00  0.00    -0.188 C  
HETATM    6  C   UNL     1      -7.049  13.026  70.700  1.00  0.00     2.356 C  
HETATM    7  C   UNL     1      -8.452  16.316  67.502  1.00  0.00    -0.183 C  
HETATM    8  C   UNL     1      -6.979  14.972  65.619  1.00  0.00     7.227 C  
HETATM    9  C   UNL     1      -9.519  17.017  66.654  1.00  0.00    -0.279 C  
HETATM   10  C   UNL     1      -7.128  15.730  66.960  1.00  0.00    -0.169 C  
HETATM   11  C   UNL     1      -6.448  17.156  66.593  1.00  0.00    -0.267 C  
HETATM   12  C   UNL     1     -10.685  17.218  67.588  1.00  0.00    -0.307 C  
HETATM   13  C   UNL     1      -7.431  18.129  65.644  1.00  0.00     0.007 C  
HETATM   14  C   UNL     1     -11.692  18.226  67.156  1.00  0.00     1.886 C  
HETATM   15  O   UNL     1     -11.400  16.004  67.800  1.00  0.00    -0.282 OA 
HETATM   16  H   UNL     1     -12.135  16.131  68.388  1.00  0.00     0.000 HD 
HETATM   17  C   UNL     1     -11.089  19.587  66.783  1.00  0.00    -0.224 C  
HETATM   18  C   UNL     1     -12.285  20.527  66.566  1.00  0.00     4.241 C  
HETATM   19  C   UNL     1     -13.031  20.427  65.247  1.00  0.00     9.783 C  
HETATM   20  O   UNL     1     -14.169  19.565  65.321  1.00  0.00    16.432 OA 
HETATM   21  C   UNL     1     -12.141  20.067  64.063  1.00  0.00     8.070 C  
HETATM   22  C   UNL     1     -10.874  19.164  64.335  1.00  0.00     4.365 C  
HETATM   23  H   UNL     1     -14.636  19.503  64.496  1.00  0.00     0.000 HD 
HETATM   24  C   UNL     1     -10.031  19.466  65.628  1.00  0.00     0.005 C  
HETATM   25  C   UNL     1      -9.322  20.817  65.397  1.00  0.00     1.043 C  
HETATM   26  C   UNL     1      -8.899  18.390  66.214  1.00  0.00    -0.204 C  
ENDROOT
BRANCH   4  27
HETATM   27  C   UNL     1      -7.252  10.491  69.360  1.00  0.00    -0.117 C  
HETATM   28  O   UNL     1      -9.012   8.913  69.505  1.00  0.00    -0.140 OA 
HETATM   29  C   UNL     1      -8.585  10.022  68.840  1.00  0.00    -0.138 C  
HETATM   30  O   UNL     1      -9.221  10.533  67.943  1.00  0.00    -0.138 OA 
ENDBRANCH   4  27
TORSDOF 1
ENDMDL
MODEL      103
REMARK 921   NORMALIZED FREE ENERGY PREDICTED BY IDOCK:  103.84 KCAL/MOL
REMARK 922        TOTAL FREE ENERGY PREDICTED BY IDOCK:  109.81 KCAL/MOL
REMARK 923 INTER-LIGAND FREE ENERGY PREDICTED BY IDOCK:  109.93 KCAL/MOL
REMARK 924 INTRA-LIGAND FREE ENERGY PREDICTED BY IDOCK:   -0.12 KCAL/MOL
REMARK 927      BINDING AFFINITY PREDICTED BY RF-SCORE:    0.00 PKD
ROOT
HETATM    1  C   UNL     1      -9.637   9.001  69.700  1.00  0.00    -0.175 C  
HETATM    2  C   UNL     1      -8.276   7.817  69.431  1.00  0.00    -0.131 C  
HETATM    3  C   UNL     1      -8.893  10.039  68.882  1.00  0.00    -0.148 C  
HETATM    4  C   UNL     1      -8.455   6.376  70.029  1.00  0.00    -0.135 C  
HETATM    5  C   UNL     1      -7.894  10.651  69.852  1.00  0.00     0.143 C  
HETATM    6  C   UNL     1      -7.840   7.593  67.933  1.00  0.00    -0.117 C  
HETATM    7  C   UNL     1      -8.885  11.371  70.700  1.00  0.00     5.018 C  
HETATM    8  C   UNL     1     -10.354   9.681  72.284  1.00  0.00     1.740 C  
HETATM    9  C   UNL     1      -8.498  12.489  71.673  1.00  0.00    16.023 C  
HETATM   10  C   UNL     1     -10.021  10.346  70.927  1.00  0.00     1.293 C  
HETATM   11  C   UNL     1     -11.238  11.409  70.792  1.00  0.00     0.878 C  
HETATM   12  C   UNL     1      -7.229  13.073  71.106  1.00  0.00     4.552 C  
HETATM   13  C   UNL     1     -11.055  12.751  71.781  1.00  0.00     5.487 C  
HETATM   14  C   UNL     1      -6.857  14.423  71.614  1.00  0.00     1.687 C  
HETATM   15  O   UNL     1      -6.108  12.229  71.357  1.00  0.00    -0.299 OA 
HETATM   16  H   UNL     1      -5.309  12.597  71.000  1.00  0.00     0.000 HD 
HETATM   17  C   UNL     1      -7.986  15.456  71.518  1.00  0.00     4.277 C  
HETATM   18  C   UNL     1      -7.351  16.804  71.894  1.00  0.00     8.391 C  
HETATM   19  C   UNL     1      -7.127  17.093  73.367  1.00  0.00    10.672 C  
HETATM   20  O   UNL     1      -5.811  16.747  73.804  1.00  0.00     2.488 OA 
HETATM   21  C   UNL     1      -8.188  16.489  74.280  1.00  0.00    18.514 C  
HETATM   22  C   UNL     1      -8.879  15.143  73.826  1.00  0.00    11.445 C  
HETATM   23  H   UNL     1      -5.671  16.928  74.725  1.00  0.00     0.000 HD 
HETATM   24  C   UNL     1      -9.267  15.003  72.307  1.00  0.00     6.115 C  
HETATM   25  C   UNL     1     -10.437  15.977  72.050  1.00  0.00     2.179 C  
HETATM   26  C   UNL     1      -9.671  13.532  71.634  1.00  0.00    10.243 C  
ENDROOT
BRANCH   4  27
HETATM   27  C   UNL     1      -7.244   5.437  69.739  1.00  0.00    -0.064 C  
HETATM   28  O   UNL     1      -6.516   3.254  69.176  1.00  0.00    -0.029 OA 
HETATM   29  C   UNL     1      -7.614   3.999  69.482  1.00  0.00    -0.053 C  
HETATM   30  O   UNL     1      -8.732   3.532  69.523  1.00  0.00    -0.065 OA 
ENDBRANCH   4  27
TORSDOF 1
ENDMDL
