MODEL        1
REMARK 921   NORMALIZED FREE ENERGY PREDICTED BY IDOCK:   -5.38 KCAL/MOL
REMARK 922        TOTAL FREE ENERGY PREDICTED BY IDOCK:   -6.82 KCAL/MOL
REMARK 923 INTER-LIGAND FREE ENERGY PREDICTED BY IDOCK:   -6.63 KCAL/MOL
REMARK 924 INTRA-LIGAND FREE ENERGY PREDICTED BY IDOCK:   -0.19 KCAL/MOL
REMARK 927      BINDING AFFINITY PREDICTED BY RF-SCORE:    0.00 PKD
ROOT
HETATM    1  O   UNL     1     -11.591  16.404  63.819  1.00  0.00    -1.605 OA 
HETATM    2  H   UNL     1     -10.888  17.019  63.655  1.00  0.00     0.000 HD 
HETATM    3  C   UNL     1     -11.200  15.428  64.775  1.00  0.00    -0.395 C  
ENDROOT
BRANCH   3   4
HETATM    4  C   UNL     1     -12.334  14.436  65.041  1.00  0.00    -0.396 C  
HETATM    5  H   UNL     1     -13.263  13.028  64.036  1.00  0.00     0.000 HD 
HETATM    6  O   UNL     1     -12.559  13.643  63.871  1.00  0.00    -0.687 OA 
BRANCH   4   7
HETATM    7  C   UNL     1     -12.066  13.533  66.254  1.00  0.00    -0.428 C  
BRANCH   7   8
HETATM    8  O   UNL     1     -11.214  14.205  67.196  1.00  0.00    -0.298 OA 
BRANCH   8   9
HETATM    9  C   UNL     1     -11.691  14.291  68.479  1.00  0.00    -0.341 A  
HETATM   10  C   UNL     1     -12.025  15.475  69.145  1.00  0.00    -0.331 A  
HETATM   11  C   UNL     1     -12.506  15.441  70.456  1.00  0.00    -0.468 A  
HETATM   12  C   UNL     1     -12.658  14.223  71.108  1.00  0.00    -0.362 A  
HETATM   13  C   UNL     1     -12.330  13.035  70.460  1.00  0.00    -0.365 A  
HETATM   14 CL   UNL     1     -13.253  14.186  72.722  1.00  0.00    -0.598 Cl 
HETATM   15  C   UNL     1     -11.846  13.071  69.146  1.00  0.00    -0.360 A  
ENDBRANCH   8   9
ENDBRANCH   7   8
ENDBRANCH   4   7
ENDBRANCH   3   4
TORSDOF 4
ENDMDL
MODEL        2
REMARK 921   NORMALIZED FREE ENERGY PREDICTED BY IDOCK:   -5.24 KCAL/MOL
REMARK 922        TOTAL FREE ENERGY PREDICTED BY IDOCK:   -6.66 KCAL/MOL
REMARK 923 INTER-LIGAND FREE ENERGY PREDICTED BY IDOCK:   -6.48 KCAL/MOL
REMARK 924 INTRA-LIGAND FREE ENERGY PREDICTED BY IDOCK:   -0.18 KCAL/MOL
REMARK 927      BINDING AFFINITY PREDICTED BY RF-SCORE:    0.00 PKD
ROOT
HETATM    1  O   UNL     1     -11.600  16.362  63.679  1.00  0.00    -1.514 OA 
HETATM    2  H   UNL     1     -10.939  17.033  63.561  1.00  0.00     0.000 HD 
HETATM    3  C   UNL     1     -11.294  15.537  64.794  1.00  0.00    -0.357 C  
ENDROOT
BRANCH   3   4
HETATM    4  C   UNL     1     -12.361  14.456  64.984  1.00  0.00    -0.396 C  
HETATM    5  H   UNL     1     -13.099  12.977  63.923  1.00  0.00     0.000 HD 
HETATM    6  O   UNL     1     -12.437  13.647  63.805  1.00  0.00    -0.703 OA 
BRANCH   4   7
HETATM    7  C   UNL     1     -12.108  13.578  66.218  1.00  0.00    -0.428 C  
BRANCH   7   8
HETATM    8  O   UNL     1     -11.277  14.273  67.162  1.00  0.00    -0.301 OA 
BRANCH   8   9
HETATM    9  C   UNL     1     -11.693  14.233  68.468  1.00  0.00    -0.341 A  
HETATM   10  C   UNL     1     -11.943  13.072  69.207  1.00  0.00    -0.331 A  
HETATM   11  C   UNL     1     -12.363  13.153  70.537  1.00  0.00    -0.380 A  
HETATM   12  C   UNL     1     -12.532  14.396  71.136  1.00  0.00    -0.359 A  
HETATM   13  C   UNL     1     -12.287  15.562  70.415  1.00  0.00    -0.451 A  
HETATM   14 CL   UNL     1     -13.046  14.491  72.775  1.00  0.00    -0.542 Cl 
HETATM   15  C   UNL     1     -11.869  15.478  69.081  1.00  0.00    -0.373 A  
ENDBRANCH   8   9
ENDBRANCH   7   8
ENDBRANCH   4   7
ENDBRANCH   3   4
TORSDOF 4
ENDMDL
MODEL        3
REMARK 921   NORMALIZED FREE ENERGY PREDICTED BY IDOCK:   -5.11 KCAL/MOL
REMARK 922        TOTAL FREE ENERGY PREDICTED BY IDOCK:   -6.50 KCAL/MOL
REMARK 923 INTER-LIGAND FREE ENERGY PREDICTED BY IDOCK:   -6.30 KCAL/MOL
REMARK 924 INTRA-LIGAND FREE ENERGY PREDICTED BY IDOCK:   -0.19 KCAL/MOL
REMARK 927      BINDING AFFINITY PREDICTED BY RF-SCORE:    0.00 PKD
ROOT
HETATM    1  O   UNL     1     -11.599  16.460  63.740  1.00  0.00    -1.605 OA 
HETATM    2  H   UNL     1     -11.142  17.292  63.781  1.00  0.00     0.000 HD 
HETATM    3  C   UNL     1     -11.398  15.711  64.931  1.00  0.00    -0.315 C  
ENDROOT
BRANCH   3   4
HETATM    4  C   UNL     1     -12.135  14.371  64.865  1.00  0.00    -0.436 C  
HETATM    5  H   UNL     1     -12.893  13.227  63.460  1.00  0.00     0.000 HD 
HETATM    6  O   UNL     1     -12.435  14.058  63.501  1.00  0.00    -0.826 OA 
BRANCH   4   7
HETATM    7  C   UNL     1     -11.347  13.224  65.515  1.00  0.00    -0.294 C  
BRANCH   7   8
HETATM    8  O   UNL     1     -10.778  13.655  66.762  1.00  0.00    -0.271 OA 
BRANCH   8   9
HETATM    9  C   UNL     1     -11.284  13.058  67.888  1.00  0.00    -0.271 A  
HETATM   10  C   UNL     1     -11.526  11.689  68.044  1.00  0.00    -0.385 A  
HETATM   11  C   UNL     1     -12.043  11.190  69.242  1.00  0.00    -0.377 A  
HETATM   12  C   UNL     1     -12.319  12.059  70.293  1.00  0.00    -0.195 A  
HETATM   13  C   UNL     1     -12.084  13.424  70.154  1.00  0.00    -0.415 A  
HETATM   14 CL   UNL     1     -12.953  11.440  71.767  1.00  0.00    -0.561 Cl 
HETATM   15  C   UNL     1     -11.568  13.922  68.951  1.00  0.00    -0.353 A  
ENDBRANCH   8   9
ENDBRANCH   7   8
ENDBRANCH   4   7
ENDBRANCH   3   4
TORSDOF 4
ENDMDL
MODEL        4
REMARK 921   NORMALIZED FREE ENERGY PREDICTED BY IDOCK:   -5.10 KCAL/MOL
REMARK 922        TOTAL FREE ENERGY PREDICTED BY IDOCK:   -6.48 KCAL/MOL
REMARK 923 INTER-LIGAND FREE ENERGY PREDICTED BY IDOCK:   -6.31 KCAL/MOL
REMARK 924 INTRA-LIGAND FREE ENERGY PREDICTED BY IDOCK:   -0.17 KCAL/MOL
REMARK 927      BINDING AFFINITY PREDICTED BY RF-SCORE:    0.00 PKD
ROOT
HETATM    1  O   UNL     1     -12.305  13.964  63.060  1.00  0.00    -1.101 OA 
HETATM    2  H   UNL     1     -13.117  13.520  62.847  1.00  0.00     0.000 HD 
HETATM    3  C   UNL     1     -12.371  14.552  64.351  1.00  0.00    -0.413 C  
ENDROOT
BRANCH   3   4
HETATM    4  C   UNL     1     -11.063  15.268  64.694  1.00  0.00    -0.332 C  
HETATM    5  H   UNL     1     -10.378  17.107  64.606  1.00  0.00     0.000 HD 
HETATM    6  O   UNL     1     -11.189  16.663  64.394  1.00  0.00    -1.033 OA 
BRANCH   4   7
HETATM    7  C   UNL     1     -10.642  15.075  66.158  1.00  0.00    -0.310 C  
BRANCH   7   8
HETATM    8  O   UNL     1     -11.747  14.579  66.932  1.00  0.00    -0.372 OA 
BRANCH   8   9
HETATM    9  C   UNL     1     -11.702  14.844  68.277  1.00  0.00    -0.315 A  
HETATM   10  C   UNL     1     -11.260  16.038  68.857  1.00  0.00    -0.353 A  
HETATM   11  C   UNL     1     -11.261  16.197  70.244  1.00  0.00    -0.389 A  
HETATM   12  C   UNL     1     -11.707  15.164  71.061  1.00  0.00    -0.340 A  
HETATM   13  C   UNL     1     -12.150  13.969  70.500  1.00  0.00    -0.424 A  
HETATM   14 CL   UNL     1     -11.709  15.366  72.769  1.00  0.00    -0.555 Cl 
HETATM   15  C   UNL     1     -12.146  13.811  69.109  1.00  0.00    -0.374 A  
ENDBRANCH   8   9
ENDBRANCH   7   8
ENDBRANCH   4   7
ENDBRANCH   3   4
TORSDOF 4
ENDMDL
MODEL        5
REMARK 921   NORMALIZED FREE ENERGY PREDICTED BY IDOCK:   -5.04 KCAL/MOL
REMARK 922        TOTAL FREE ENERGY PREDICTED BY IDOCK:   -6.41 KCAL/MOL
REMARK 923 INTER-LIGAND FREE ENERGY PREDICTED BY IDOCK:   -6.24 KCAL/MOL
REMARK 924 INTRA-LIGAND FREE ENERGY PREDICTED BY IDOCK:   -0.17 KCAL/MOL
REMARK 927      BINDING AFFINITY PREDICTED BY RF-SCORE:    0.00 PKD
ROOT
HETATM    1  O   UNL     1     -11.649  16.430  63.714  1.00  0.00    -1.605 OA 
HETATM    2  H   UNL     1     -12.441  16.335  63.198  1.00  0.00     0.000 HD 
HETATM    3  C   UNL     1     -11.634  15.508  64.795  1.00  0.00    -0.256 C  
ENDROOT
BRANCH   3   4
HETATM    4  C   UNL     1     -10.357  15.660  65.625  1.00  0.00    -0.385 C  
HETATM    5  H   UNL     1      -9.112  17.112  66.076  1.00  0.00     0.000 HD 
HETATM    6  O   UNL     1      -9.905  17.017  65.561  1.00  0.00    -0.551 OA 
BRANCH   4   7
HETATM    7  C   UNL     1     -10.541  15.229  67.088  1.00  0.00    -0.302 C  
BRANCH   7   8
HETATM    8  O   UNL     1     -11.834  14.629  67.270  1.00  0.00    -0.392 OA 
BRANCH   8   9
HETATM    9  C   UNL     1     -11.904  13.632  68.210  1.00  0.00    -0.369 A  
HETATM   10  C   UNL     1     -11.760  12.263  67.956  1.00  0.00    -0.417 A  
HETATM   11  C   UNL     1     -11.849  11.335  68.996  1.00  0.00    -0.421 A  
HETATM   12  C   UNL     1     -12.079  11.770  70.296  1.00  0.00    -0.342 A  
HETATM   13  C   UNL     1     -12.223  13.129  70.566  1.00  0.00    -0.405 A  
HETATM   14 CL   UNL     1     -12.184  10.623  71.574  1.00  0.00    -0.400 Cl 
HETATM   15  C   UNL     1     -12.137  14.057  69.522  1.00  0.00    -0.397 A  
ENDBRANCH   8   9
ENDBRANCH   7   8
ENDBRANCH   4   7
ENDBRANCH   3   4
TORSDOF 4
ENDMDL
MODEL        6
REMARK 921   NORMALIZED FREE ENERGY PREDICTED BY IDOCK:   -5.01 KCAL/MOL
REMARK 922        TOTAL FREE ENERGY PREDICTED BY IDOCK:   -6.37 KCAL/MOL
REMARK 923 INTER-LIGAND FREE ENERGY PREDICTED BY IDOCK:   -6.17 KCAL/MOL
REMARK 924 INTRA-LIGAND FREE ENERGY PREDICTED BY IDOCK:   -0.20 KCAL/MOL
REMARK 927      BINDING AFFINITY PREDICTED BY RF-SCORE:    0.00 PKD
ROOT
HETATM    1  O   UNL     1     -12.433  14.206  63.161  1.00  0.00    -1.126 OA 
HETATM    2  H   UNL     1     -13.257  13.788  62.940  1.00  0.00     0.000 HD 
HETATM    3  C   UNL     1     -12.273  14.302  64.569  1.00  0.00    -0.455 C  
ENDROOT
BRANCH   3   4
HETATM    4  C   UNL     1     -10.946  14.976  64.924  1.00  0.00    -0.413 C  
HETATM    5  H   UNL     1     -10.171  16.775  64.767  1.00  0.00     0.000 HD 
HETATM    6  O   UNL     1     -10.995  16.356  64.547  1.00  0.00    -0.750 OA 
BRANCH   4   7
HETATM    7  C   UNL     1     -10.588  14.843  66.412  1.00  0.00    -0.307 C  
BRANCH   7   8
HETATM    8  O   UNL     1     -11.779  14.878  67.215  1.00  0.00    -0.362 OA 
BRANCH   8   9
HETATM    9  C   UNL     1     -11.861  13.933  68.205  1.00  0.00    -0.376 A  
HETATM   10  C   UNL     1     -12.032  14.196  69.569  1.00  0.00    -0.389 A  
HETATM   11  C   UNL     1     -12.104  13.149  70.491  1.00  0.00    -0.385 A  
HETATM   12  C   UNL     1     -12.008  11.832  70.054  1.00  0.00    -0.344 A  
HETATM   13  C   UNL     1     -11.837  11.553  68.701  1.00  0.00    -0.382 A  
HETATM   14 CL   UNL     1     -12.100  10.547  71.193  1.00  0.00    -0.470 Cl 
HETATM   15  C   UNL     1     -11.763  12.604  67.779  1.00  0.00    -0.412 A  
ENDBRANCH   8   9
ENDBRANCH   7   8
ENDBRANCH   4   7
ENDBRANCH   3   4
TORSDOF 4
ENDMDL
MODEL        7
REMARK 921   NORMALIZED FREE ENERGY PREDICTED BY IDOCK:   -4.98 KCAL/MOL
REMARK 922        TOTAL FREE ENERGY PREDICTED BY IDOCK:   -6.33 KCAL/MOL
REMARK 923 INTER-LIGAND FREE ENERGY PREDICTED BY IDOCK:   -5.90 KCAL/MOL
REMARK 924 INTRA-LIGAND FREE ENERGY PREDICTED BY IDOCK:   -0.44 KCAL/MOL
REMARK 927      BINDING AFFINITY PREDICTED BY RF-SCORE:    0.00 PKD
ROOT
HETATM    1  O   UNL     1     -11.606  16.346  63.718  1.00  0.00    -1.605 OA 
HETATM    2  H   UNL     1     -12.262  16.757  63.168  1.00  0.00     0.000 HD 
HETATM    3  C   UNL     1     -12.086  15.118  64.247  1.00  0.00    -0.261 C  
ENDROOT
BRANCH   3   4
HETATM    4  C   UNL     1     -11.029  14.455  65.134  1.00  0.00    -0.373 C  
HETATM    5  H   UNL     1      -9.742  12.980  64.961  1.00  0.00     0.000 HD 
HETATM    6  O   UNL     1     -10.398  13.392  64.411  1.00  0.00    -0.425 OA 
BRANCH   4   7
HETATM    7  C   UNL     1      -9.976  15.446  65.651  1.00  0.00    -0.362 C  
BRANCH   7   8
HETATM    8  O   UNL     1     -10.605  16.484  66.419  1.00  0.00    -0.295 OA 
BRANCH   8   9
HETATM    9  C   UNL     1      -9.872  17.631  66.589  1.00  0.00    -0.309 A  
HETATM   10  C   UNL     1     -10.393  18.889  66.912  1.00  0.00    -0.469 A  
HETATM   11  C   UNL     1      -9.547  19.991  67.062  1.00  0.00    -0.542 A  
HETATM   12  C   UNL     1      -8.176  19.840  66.894  1.00  0.00    -0.307 A  
HETATM   13  C   UNL     1      -7.641  18.595  66.572  1.00  0.00    -0.273 A  
HETATM   14 CL   UNL     1      -7.138  21.199  67.084  1.00  0.00    -0.389 Cl 
HETATM   15  C   UNL     1      -8.491  17.493  66.419  1.00  0.00    -0.287 A  
ENDBRANCH   8   9
ENDBRANCH   7   8
ENDBRANCH   4   7
ENDBRANCH   3   4
TORSDOF 4
ENDMDL
MODEL        8
REMARK 921   NORMALIZED FREE ENERGY PREDICTED BY IDOCK:   -4.94 KCAL/MOL
REMARK 922        TOTAL FREE ENERGY PREDICTED BY IDOCK:   -6.29 KCAL/MOL
REMARK 923 INTER-LIGAND FREE ENERGY PREDICTED BY IDOCK:   -6.07 KCAL/MOL
REMARK 924 INTRA-LIGAND FREE ENERGY PREDICTED BY IDOCK:   -0.22 KCAL/MOL
REMARK 927      BINDING AFFINITY PREDICTED BY RF-SCORE:    0.00 PKD
ROOT
HETATM    1  O   UNL     1     -12.470  13.925  62.869  1.00  0.00    -1.034 OA 
HETATM    2  H   UNL     1     -12.449  13.626  61.968  1.00  0.00     0.000 HD 
HETATM    3  C   UNL     1     -12.005  12.912  63.751  1.00  0.00    -0.512 C  
ENDROOT
BRANCH   3   4
HETATM    4  C   UNL     1     -12.038  13.395  65.203  1.00  0.00    -0.409 C  
HETATM    5  H   UNL     1     -13.295  14.371  66.355  1.00  0.00     0.000 HD 
HETATM    6  O   UNL     1     -13.275  14.072  65.454  1.00  0.00    -0.761 OA 
BRANCH   4   7
HETATM    7  C   UNL     1     -11.840  12.256  66.215  1.00  0.00    -0.317 C  
BRANCH   7   8
HETATM    8  O   UNL     1     -10.942  12.669  67.259  1.00  0.00    -0.242 OA 
BRANCH   8   9
HETATM    9  C   UNL     1     -11.523  12.968  68.464  1.00  0.00    -0.304 A  
HETATM   10  C   UNL     1     -11.867  14.250  68.906  1.00  0.00    -0.372 A  
HETATM   11  C   UNL     1     -12.458  14.436  70.158  1.00  0.00    -0.395 A  
HETATM   12  C   UNL     1     -12.712  13.339  70.975  1.00  0.00    -0.293 A  
HETATM   13  C   UNL     1     -12.376  12.056  70.550  1.00  0.00    -0.369 A  
HETATM   14 CL   UNL     1     -13.443  13.573  72.514  1.00  0.00    -0.671 Cl 
HETATM   15  C   UNL     1     -11.782  11.873  69.296  1.00  0.00    -0.389 A  
ENDBRANCH   8   9
ENDBRANCH   7   8
ENDBRANCH   4   7
ENDBRANCH   3   4
TORSDOF 4
ENDMDL
MODEL        9
REMARK 921   NORMALIZED FREE ENERGY PREDICTED BY IDOCK:   -4.91 KCAL/MOL
REMARK 922        TOTAL FREE ENERGY PREDICTED BY IDOCK:   -6.24 KCAL/MOL
REMARK 923 INTER-LIGAND FREE ENERGY PREDICTED BY IDOCK:   -6.04 KCAL/MOL
REMARK 924 INTRA-LIGAND FREE ENERGY PREDICTED BY IDOCK:   -0.21 KCAL/MOL
REMARK 927      BINDING AFFINITY PREDICTED BY RF-SCORE:    0.00 PKD
ROOT
HETATM    1  O   UNL     1     -12.533  11.544  62.955  1.00  0.00    -0.982 OA 
HETATM    2  H   UNL     1     -12.384  10.624  62.775  1.00  0.00     0.000 HD 
HETATM    3  C   UNL     1     -11.622  12.025  63.933  1.00  0.00    -0.449 C  
ENDROOT
BRANCH   3   4
HETATM    4  C   UNL     1     -11.863  13.508  64.224  1.00  0.00    -0.428 C  
HETATM    5  H   UNL     1     -12.758  15.010  63.329  1.00  0.00     0.000 HD 
HETATM    6  O   UNL     1     -12.608  14.090  63.149  1.00  0.00    -0.733 OA 
BRANCH   4   7
HETATM    7  C   UNL     1     -12.581  13.746  65.560  1.00  0.00    -0.512 C  
BRANCH   7   8
HETATM    8  O   UNL     1     -11.622  13.931  66.614  1.00  0.00    -0.339 OA 
BRANCH   8   9
HETATM    9  C   UNL     1     -11.726  13.069  67.677  1.00  0.00    -0.366 A  
HETATM   10  C   UNL     1     -11.621  11.676  67.608  1.00  0.00    -0.349 A  
HETATM   11  C   UNL     1     -11.743  10.896  68.760  1.00  0.00    -0.355 A  
HETATM   12  C   UNL     1     -11.968  11.506  69.989  1.00  0.00    -0.357 A  
HETATM   13  C   UNL     1     -12.075  12.892  70.076  1.00  0.00    -0.357 A  
HETATM   14 CL   UNL     1     -12.114  10.542  71.406  1.00  0.00    -0.418 Cl 
HETATM   15  C   UNL     1     -11.955  13.671  68.918  1.00  0.00    -0.392 A  
ENDBRANCH   8   9
ENDBRANCH   7   8
ENDBRANCH   4   7
ENDBRANCH   3   4
TORSDOF 4
ENDMDL
MODEL       10
REMARK 921   NORMALIZED FREE ENERGY PREDICTED BY IDOCK:   -4.89 KCAL/MOL
REMARK 922        TOTAL FREE ENERGY PREDICTED BY IDOCK:   -6.23 KCAL/MOL
REMARK 923 INTER-LIGAND FREE ENERGY PREDICTED BY IDOCK:   -6.07 KCAL/MOL
REMARK 924 INTRA-LIGAND FREE ENERGY PREDICTED BY IDOCK:   -0.16 KCAL/MOL
REMARK 927      BINDING AFFINITY PREDICTED BY RF-SCORE:    0.00 PKD
ROOT
HETATM    1  O   UNL     1     -12.761  11.464  62.846  1.00  0.00    -0.951 OA 
HETATM    2  H   UNL     1     -12.632  10.573  62.543  1.00  0.00     0.000 HD 
HETATM    3  C   UNL     1     -11.687  11.877  63.678  1.00  0.00    -0.474 C  
ENDROOT
BRANCH   3   4
HETATM    4  C   UNL     1     -11.894  13.313  64.166  1.00  0.00    -0.443 C  
HETATM    5  H   UNL     1     -12.853  14.909  63.540  1.00  0.00     0.000 HD 
HETATM    6  O   UNL     1     -12.725  14.018  63.237  1.00  0.00    -0.750 OA 
BRANCH   4   7
HETATM    7  C   UNL     1     -12.495  13.383  65.578  1.00  0.00    -0.483 C  
BRANCH   7   8
HETATM    8  O   UNL     1     -11.494  13.074  66.561  1.00  0.00    -0.309 OA 
BRANCH   8   9
HETATM    9  C   UNL     1     -11.614  13.724  67.763  1.00  0.00    -0.346 A  
HETATM   10  C   UNL     1     -11.847  13.111  68.999  1.00  0.00    -0.358 A  
HETATM   11  C   UNL     1     -11.951  13.876  70.163  1.00  0.00    -0.402 A  
HETATM   12  C   UNL     1     -11.819  15.259  70.098  1.00  0.00    -0.323 A  
HETATM   13  C   UNL     1     -11.587  15.885  68.876  1.00  0.00    -0.392 A  
HETATM   14 CL   UNL     1     -11.944  16.197  71.534  1.00  0.00    -0.514 Cl 
HETATM   15  C   UNL     1     -11.486  15.116  67.710  1.00  0.00    -0.329 A  
ENDBRANCH   8   9
ENDBRANCH   7   8
ENDBRANCH   4   7
ENDBRANCH   3   4
TORSDOF 4
ENDMDL
MODEL       11
REMARK 921   NORMALIZED FREE ENERGY PREDICTED BY IDOCK:   -4.88 KCAL/MOL
REMARK 922        TOTAL FREE ENERGY PREDICTED BY IDOCK:   -6.21 KCAL/MOL
REMARK 923 INTER-LIGAND FREE ENERGY PREDICTED BY IDOCK:   -5.81 KCAL/MOL
REMARK 924 INTRA-LIGAND FREE ENERGY PREDICTED BY IDOCK:   -0.40 KCAL/MOL
REMARK 927      BINDING AFFINITY PREDICTED BY RF-SCORE:    0.00 PKD
ROOT
HETATM    1  O   UNL     1     -14.096   8.966  73.416  1.00  0.00    -1.256 OA 
HETATM    2  H   UNL     1     -15.013   8.935  73.661  1.00  0.00     0.000 HD 
HETATM    3  C   UNL     1     -13.900   8.432  72.114  1.00  0.00    -0.347 C  
ENDROOT
BRANCH   3   4
HETATM    4  C   UNL     1     -12.422   8.482  71.720  1.00  0.00    -0.342 C  
HETATM    5  H   UNL     1     -11.163   7.325  70.751  1.00  0.00     0.000 HD 
HETATM    6  O   UNL     1     -12.080   7.295  70.996  1.00  0.00    -0.321 OA 
BRANCH   4   7
HETATM    7  C   UNL     1     -12.065   9.729  70.897  1.00  0.00    -0.321 C  
BRANCH   7   8
HETATM    8  O   UNL     1     -13.164  10.654  70.894  1.00  0.00    -0.317 OA 
BRANCH   8   9
HETATM    9  C   UNL     1     -12.837  11.973  71.083  1.00  0.00    -0.235 A  
HETATM   10  C   UNL     1     -11.982  12.723  70.268  1.00  0.00    -0.358 A  
HETATM   11  C   UNL     1     -11.723  14.065  70.557  1.00  0.00    -0.262 A  
HETATM   12  C   UNL     1     -12.319  14.665  71.661  1.00  0.00    -0.351 A  
HETATM   13  C   UNL     1     -13.172  13.932  72.482  1.00  0.00    -0.601 A  
HETATM   14 CL   UNL     1     -11.999  16.318  72.011  1.00  0.00    -0.576 Cl 
HETATM   15  C   UNL     1     -13.429  12.586  72.191  1.00  0.00    -0.523 A  
ENDBRANCH   8   9
ENDBRANCH   7   8
ENDBRANCH   4   7
ENDBRANCH   3   4
TORSDOF 4
ENDMDL
MODEL       12
REMARK 921   NORMALIZED FREE ENERGY PREDICTED BY IDOCK:   -4.87 KCAL/MOL
REMARK 922        TOTAL FREE ENERGY PREDICTED BY IDOCK:   -6.20 KCAL/MOL
REMARK 923 INTER-LIGAND FREE ENERGY PREDICTED BY IDOCK:   -5.83 KCAL/MOL
REMARK 924 INTRA-LIGAND FREE ENERGY PREDICTED BY IDOCK:   -0.37 KCAL/MOL
REMARK 927      BINDING AFFINITY PREDICTED BY RF-SCORE:    0.00 PKD
ROOT
HETATM    1  O   UNL     1     -14.284   8.891  73.357  1.00  0.00    -1.241 OA 
HETATM    2  H   UNL     1     -15.225   9.018  73.385  1.00  0.00     0.000 HD 
HETATM    3  C   UNL     1     -13.865   8.471  72.066  1.00  0.00    -0.419 C  
ENDROOT
BRANCH   3   4
HETATM    4  C   UNL     1     -12.349   8.268  72.022  1.00  0.00    -0.349 C  
HETATM    5  H   UNL     1     -11.102   7.008  71.175  1.00  0.00     0.000 HD 
HETATM    6  O   UNL     1     -12.043   7.135  71.202  1.00  0.00    -0.325 OA 
BRANCH   4   7
HETATM    7  C   UNL     1     -11.594   9.508  71.522  1.00  0.00    -0.395 C  
BRANCH   7   8
HETATM    8  O   UNL     1     -12.471  10.645  71.491  1.00  0.00    -0.377 OA 
BRANCH   8   9
HETATM    9  C   UNL     1     -12.263  11.534  70.467  1.00  0.00    -0.377 A  
HETATM   10  C   UNL     1     -11.936  11.195  69.150  1.00  0.00    -0.413 A  
HETATM   11  C   UNL     1     -11.748  12.189  68.186  1.00  0.00    -0.402 A  
HETATM   12  C   UNL     1     -11.891  13.528  68.533  1.00  0.00    -0.362 A  
HETATM   13  C   UNL     1     -12.217  13.882  69.840  1.00  0.00    -0.393 A  
HETATM   14 CL   UNL     1     -11.663  14.748  67.343  1.00  0.00    -0.392 Cl 
HETATM   15  C   UNL     1     -12.402  12.884  70.805  1.00  0.00    -0.385 A  
ENDBRANCH   8   9
ENDBRANCH   7   8
ENDBRANCH   4   7
ENDBRANCH   3   4
TORSDOF 4
ENDMDL
MODEL       13
REMARK 921   NORMALIZED FREE ENERGY PREDICTED BY IDOCK:   -4.87 KCAL/MOL
REMARK 922        TOTAL FREE ENERGY PREDICTED BY IDOCK:   -6.20 KCAL/MOL
REMARK 923 INTER-LIGAND FREE ENERGY PREDICTED BY IDOCK:   -6.02 KCAL/MOL
REMARK 924 INTRA-LIGAND FREE ENERGY PREDICTED BY IDOCK:   -0.18 KCAL/MOL
REMARK 927      BINDING AFFINITY PREDICTED BY RF-SCORE:    0.00 PKD
ROOT
HETATM    1  O   UNL     1     -13.006  16.014  74.429  1.00  0.00    -0.919 OA 
HETATM    2  H   UNL     1     -12.287  16.426  74.893  1.00  0.00     0.000 HD 
HETATM    3  C   UNL     1     -12.653  15.751  73.078  1.00  0.00    -0.483 C  
ENDROOT
BRANCH   3   4
HETATM    4  C   UNL     1     -13.811  15.087  72.329  1.00  0.00    -0.492 C  
HETATM    5  H   UNL     1     -14.586  15.182  70.527  1.00  0.00     0.000 HD 
HETATM    6  O   UNL     1     -13.867  15.593  70.991  1.00  0.00    -0.567 OA 
BRANCH   4   7
HETATM    7  C   UNL     1     -13.714  13.555  72.316  1.00  0.00    -0.602 C  
BRANCH   7   8
HETATM    8  O   UNL     1     -12.952  13.114  71.181  1.00  0.00    -0.288 OA 
BRANCH   8   9
HETATM    9  C   UNL     1     -12.652  11.777  71.144  1.00  0.00    -0.309 A  
HETATM   10  C   UNL     1     -11.690  11.181  70.320  1.00  0.00    -0.431 A  
HETATM   11  C   UNL     1     -11.468   9.803  70.369  1.00  0.00    -0.347 A  
HETATM   12  C   UNL     1     -12.204   9.012  71.244  1.00  0.00    -0.312 A  
HETATM   13  C   UNL     1     -13.165   9.589  72.071  1.00  0.00    -0.539 A  
HETATM   14 CL   UNL     1     -11.924   7.316  71.303  1.00  0.00    -0.339 Cl 
HETATM   15  C   UNL     1     -13.388  10.970  72.018  1.00  0.00    -0.393 A  
ENDBRANCH   8   9
ENDBRANCH   7   8
ENDBRANCH   4   7
ENDBRANCH   3   4
TORSDOF 4
ENDMDL
MODEL       14
REMARK 921   NORMALIZED FREE ENERGY PREDICTED BY IDOCK:   -4.87 KCAL/MOL
REMARK 922        TOTAL FREE ENERGY PREDICTED BY IDOCK:   -6.20 KCAL/MOL
REMARK 923 INTER-LIGAND FREE ENERGY PREDICTED BY IDOCK:   -5.99 KCAL/MOL
REMARK 924 INTRA-LIGAND FREE ENERGY PREDICTED BY IDOCK:   -0.21 KCAL/MOL
REMARK 927      BINDING AFFINITY PREDICTED BY RF-SCORE:    0.00 PKD
ROOT
HETATM    1  O   UNL     1     -12.438  14.263  63.152  1.00  0.00    -1.102 OA 
HETATM    2  H   UNL     1     -12.103  14.882  62.514  1.00  0.00     0.000 HD 
HETATM    3  C   UNL     1     -12.129  14.680  64.475  1.00  0.00    -0.475 C  
ENDROOT
BRANCH   3   4
HETATM    4  C   UNL     1     -12.669  13.682  65.502  1.00  0.00    -0.466 C  
HETATM    5  H   UNL     1     -13.536  11.920  65.462  1.00  0.00     0.000 HD 
HETATM    6  O   UNL     1     -13.201  12.539  64.825  1.00  0.00    -0.839 OA 
BRANCH   4   7
HETATM    7  C   UNL     1     -11.611  13.250  66.528  1.00  0.00    -0.350 C  
BRANCH   7   8
HETATM    8  O   UNL     1     -11.378  11.835  66.437  1.00  0.00    -0.329 OA 
BRANCH   8   9
HETATM    9  C   UNL     1     -11.278  11.166  67.630  1.00  0.00    -0.297 A  
HETATM   10  C   UNL     1     -10.666   9.922  67.816  1.00  0.00    -0.332 A  
HETATM   11  C   UNL     1     -10.621   9.334  69.082  1.00  0.00    -0.228 A  
HETATM   12  C   UNL     1     -11.185   9.990  70.171  1.00  0.00    -0.304 A  
HETATM   13  C   UNL     1     -11.798  11.229  70.003  1.00  0.00    -0.448 A  
HETATM   14 CL   UNL     1     -11.125   9.264  71.730  1.00  0.00    -0.439 Cl 
HETATM   15  C   UNL     1     -11.844  11.815  68.732  1.00  0.00    -0.380 A  
ENDBRANCH   8   9
ENDBRANCH   7   8
ENDBRANCH   4   7
ENDBRANCH   3   4
TORSDOF 4
ENDMDL
MODEL       15
REMARK 921   NORMALIZED FREE ENERGY PREDICTED BY IDOCK:   -4.83 KCAL/MOL
REMARK 922        TOTAL FREE ENERGY PREDICTED BY IDOCK:   -6.15 KCAL/MOL
REMARK 923 INTER-LIGAND FREE ENERGY PREDICTED BY IDOCK:   -5.73 KCAL/MOL
REMARK 924 INTRA-LIGAND FREE ENERGY PREDICTED BY IDOCK:   -0.42 KCAL/MOL
REMARK 927      BINDING AFFINITY PREDICTED BY RF-SCORE:    0.00 PKD
ROOT
HETATM    1  O   UNL     1     -11.665  11.153  62.901  1.00  0.00    -0.749 OA 
HETATM    2  H   UNL     1     -12.116  10.327  62.772  1.00  0.00     0.000 HD 
HETATM    3  C   UNL     1     -12.527  12.114  63.496  1.00  0.00    -0.555 C  
ENDROOT
BRANCH   3   4
HETATM    4  C   UNL     1     -11.801  13.445  63.705  1.00  0.00    -0.431 C  
HETATM    5  H   UNL     1     -12.312  15.318  64.001  1.00  0.00     0.000 HD 
HETATM    6  O   UNL     1     -12.762  14.492  63.871  1.00  0.00    -0.782 OA 
BRANCH   4   7
HETATM    7  C   UNL     1     -10.833  13.415  64.898  1.00  0.00    -0.352 C  
BRANCH   7   8
HETATM    8  O   UNL     1     -11.188  12.356  65.801  1.00  0.00    -0.305 OA 
BRANCH   8   9
HETATM    9  C   UNL     1     -11.471  12.735  67.088  1.00  0.00    -0.337 A  
HETATM   10  C   UNL     1     -11.775  14.035  67.504  1.00  0.00    -0.421 A  
HETATM   11  C   UNL     1     -12.049  14.305  68.847  1.00  0.00    -0.314 A  
HETATM   12  C   UNL     1     -12.024  13.276  69.781  1.00  0.00    -0.324 A  
HETATM   13  C   UNL     1     -11.722  11.975  69.383  1.00  0.00    -0.402 A  
HETATM   14 CL   UNL     1     -12.365  13.612  71.433  1.00  0.00    -0.370 Cl 
HETATM   15  C   UNL     1     -11.445  11.707  68.037  1.00  0.00    -0.385 A  
ENDBRANCH   8   9
ENDBRANCH   7   8
ENDBRANCH   4   7
ENDBRANCH   3   4
TORSDOF 4
ENDMDL
MODEL       16
REMARK 921   NORMALIZED FREE ENERGY PREDICTED BY IDOCK:   -4.83 KCAL/MOL
REMARK 922        TOTAL FREE ENERGY PREDICTED BY IDOCK:   -6.14 KCAL/MOL
REMARK 923 INTER-LIGAND FREE ENERGY PREDICTED BY IDOCK:   -6.00 KCAL/MOL
REMARK 924 INTRA-LIGAND FREE ENERGY PREDICTED BY IDOCK:   -0.15 KCAL/MOL
REMARK 927      BINDING AFFINITY PREDICTED BY RF-SCORE:    0.00 PKD
ROOT
HETATM    1  O   UNL     1     -13.140  12.697  64.898  1.00  0.00    -0.850 OA 
HETATM    2  H   UNL     1     -13.681  13.006  64.181  1.00  0.00     0.000 HD 
HETATM    3  C   UNL     1     -12.582  13.787  65.618  1.00  0.00    -0.509 C  
ENDROOT
BRANCH   3   4
HETATM    4  C   UNL     1     -11.709  13.290  66.773  1.00  0.00    -0.385 C  
HETATM    5  H   UNL     1      -9.794  12.987  67.086  1.00  0.00     0.000 HD 
HETATM    6  O   UNL     1     -10.335  13.296  66.370  1.00  0.00    -0.275 OA 
BRANCH   4   7
HETATM    7  C   UNL     1     -11.891  14.114  68.056  1.00  0.00    -0.365 C  
BRANCH   7   8
HETATM    8  O   UNL     1     -12.110  13.245  69.179  1.00  0.00    -0.306 OA 
BRANCH   8   9
HETATM    9  C   UNL     1     -12.265  13.863  70.393  1.00  0.00    -0.368 A  
HETATM   10  C   UNL     1     -13.092  13.421  71.431  1.00  0.00    -0.373 A  
HETATM   11  C   UNL     1     -13.170  14.133  72.630  1.00  0.00    -0.612 A  
HETATM   12  C   UNL     1     -12.419  15.290  72.799  1.00  0.00    -0.391 A  
HETATM   13  C   UNL     1     -11.590  15.744  71.777  1.00  0.00    -0.541 A  
HETATM   14 CL   UNL     1     -12.516  16.162  74.279  1.00  0.00    -0.690 Cl 
HETATM   15  C   UNL     1     -11.516  15.030  70.574  1.00  0.00    -0.333 A  
ENDBRANCH   8   9
ENDBRANCH   7   8
ENDBRANCH   4   7
ENDBRANCH   3   4
TORSDOF 4
ENDMDL
MODEL       17
REMARK 921   NORMALIZED FREE ENERGY PREDICTED BY IDOCK:   -4.83 KCAL/MOL
REMARK 922        TOTAL FREE ENERGY PREDICTED BY IDOCK:   -6.14 KCAL/MOL
REMARK 923 INTER-LIGAND FREE ENERGY PREDICTED BY IDOCK:   -6.00 KCAL/MOL
REMARK 924 INTRA-LIGAND FREE ENERGY PREDICTED BY IDOCK:   -0.14 KCAL/MOL
REMARK 927      BINDING AFFINITY PREDICTED BY RF-SCORE:    0.00 PKD
ROOT
HETATM    1  O   UNL     1     -12.453  13.830  63.268  1.00  0.00    -1.065 OA 
HETATM    2  H   UNL     1     -12.974  13.038  63.324  1.00  0.00     0.000 HD 
HETATM    3  C   UNL     1     -11.947  14.196  64.544  1.00  0.00    -0.458 C  
ENDROOT
BRANCH   3   4
HETATM    4  C   UNL     1     -11.107  15.472  64.455  1.00  0.00    -0.274 C  
HETATM    5  H   UNL     1     -11.355  17.298  63.774  1.00  0.00     0.000 HD 
HETATM    6  O   UNL     1     -11.876  16.506  63.830  1.00  0.00    -1.059 OA 
BRANCH   4   7
HETATM    7  C   UNL     1     -10.591  15.944  65.822  1.00  0.00    -0.355 C  
BRANCH   7   8
HETATM    8  O   UNL     1     -10.412  17.370  65.821  1.00  0.00    -0.518 OA 
BRANCH   8   9
HETATM    9  C   UNL     1      -9.470  17.855  66.692  1.00  0.00    -0.298 A  
HETATM   10  C   UNL     1      -8.153  17.397  66.804  1.00  0.00    -0.282 A  
HETATM   11  C   UNL     1      -7.278  17.971  67.729  1.00  0.00    -0.211 A  
HETATM   12  C   UNL     1      -7.714  19.008  68.546  1.00  0.00    -0.333 A  
HETATM   13  C   UNL     1      -9.022  19.476  68.447  1.00  0.00    -0.397 A  
HETATM   14 CL   UNL     1      -6.631  19.714  69.681  1.00  0.00    -0.372 Cl 
HETATM   15  C   UNL     1      -9.898  18.898  67.521  1.00  0.00    -0.377 A  
ENDBRANCH   8   9
ENDBRANCH   7   8
ENDBRANCH   4   7
ENDBRANCH   3   4
TORSDOF 4
ENDMDL
MODEL       18
REMARK 921   NORMALIZED FREE ENERGY PREDICTED BY IDOCK:   -4.79 KCAL/MOL
REMARK 922        TOTAL FREE ENERGY PREDICTED BY IDOCK:   -6.11 KCAL/MOL
REMARK 923 INTER-LIGAND FREE ENERGY PREDICTED BY IDOCK:   -5.72 KCAL/MOL
REMARK 924 INTRA-LIGAND FREE ENERGY PREDICTED BY IDOCK:   -0.39 KCAL/MOL
REMARK 927      BINDING AFFINITY PREDICTED BY RF-SCORE:    0.00 PKD
ROOT
HETATM    1  O   UNL     1     -14.322   8.778  73.382  1.00  0.00    -1.155 OA 
HETATM    2  H   UNL     1     -15.238   8.988  73.517  1.00  0.00     0.000 HD 
HETATM    3  C   UNL     1     -14.066   8.477  72.017  1.00  0.00    -0.444 C  
ENDROOT
BRANCH   3   4
HETATM    4  C   UNL     1     -12.589   8.139  71.799  1.00  0.00    -0.330 C  
HETATM    5  H   UNL     1     -11.564   6.837  70.745  1.00  0.00     0.000 HD 
HETATM    6  O   UNL     1     -12.480   7.047  70.880  1.00  0.00    -0.366 OA 
BRANCH   4   7
HETATM    7  C   UNL     1     -11.769   9.338  71.302  1.00  0.00    -0.346 C  
BRANCH   7   8
HETATM    8  O   UNL     1     -12.487  10.562  71.532  1.00  0.00    -0.380 OA 
BRANCH   8   9
HETATM    9  C   UNL     1     -12.280  11.559  70.614  1.00  0.00    -0.378 A  
HETATM   10  C   UNL     1     -12.330  12.932  70.878  1.00  0.00    -0.365 A  
HETATM   11  C   UNL     1     -12.101  13.861  69.860  1.00  0.00    -0.406 A  
HETATM   12  C   UNL     1     -11.817  13.422  68.572  1.00  0.00    -0.366 A  
HETATM   13  C   UNL     1     -11.763  12.058  68.291  1.00  0.00    -0.396 A  
HETATM   14 CL   UNL     1     -11.532  14.569  67.323  1.00  0.00    -0.363 Cl 
HETATM   15  C   UNL     1     -11.996  11.129  69.313  1.00  0.00    -0.421 A  
ENDBRANCH   8   9
ENDBRANCH   7   8
ENDBRANCH   4   7
ENDBRANCH   3   4
TORSDOF 4
ENDMDL
MODEL       19
REMARK 921   NORMALIZED FREE ENERGY PREDICTED BY IDOCK:   -4.79 KCAL/MOL
REMARK 922        TOTAL FREE ENERGY PREDICTED BY IDOCK:   -6.10 KCAL/MOL
REMARK 923 INTER-LIGAND FREE ENERGY PREDICTED BY IDOCK:   -5.56 KCAL/MOL
REMARK 924 INTRA-LIGAND FREE ENERGY PREDICTED BY IDOCK:   -0.54 KCAL/MOL
REMARK 927      BINDING AFFINITY PREDICTED BY RF-SCORE:    0.00 PKD
ROOT
HETATM    1  O   UNL     1     -12.495  13.617  63.025  1.00  0.00    -1.020 OA 
HETATM    2  H   UNL     1     -13.318  13.859  62.617  1.00  0.00     0.000 HD 
HETATM    3  C   UNL     1     -12.487  12.241  63.376  1.00  0.00    -0.481 C  
ENDROOT
BRANCH   3   4
HETATM    4  C   UNL     1     -11.161  11.851  64.034  1.00  0.00    -0.396 C  
HETATM    5  H   UNL     1      -9.265  12.309  63.804  1.00  0.00     0.000 HD 
HETATM    6  O   UNL     1     -10.088  12.551  63.396  1.00  0.00    -0.396 OA 
BRANCH   4   7
HETATM    7  C   UNL     1     -11.145  12.116  65.547  1.00  0.00    -0.316 C  
BRANCH   7   8
HETATM    8  O   UNL     1     -12.101  13.135  65.884  1.00  0.00    -0.406 OA 
BRANCH   8   9
HETATM    9  C   UNL     1     -11.583  14.292  66.407  1.00  0.00    -0.372 A  
HETATM   10  C   UNL     1     -10.892  15.273  65.687  1.00  0.00    -0.371 A  
HETATM   11  C   UNL     1     -10.410  16.417  66.327  1.00  0.00    -0.337 A  
HETATM   12  C   UNL     1     -10.617  16.588  67.691  1.00  0.00    -0.321 A  
HETATM   13  C   UNL     1     -11.303  15.621  68.423  1.00  0.00    -0.365 A  
HETATM   14 CL   UNL     1     -10.024  17.999  68.475  1.00  0.00    -0.371 Cl 
HETATM   15  C   UNL     1     -11.784  14.474  67.779  1.00  0.00    -0.403 A  
ENDBRANCH   8   9
ENDBRANCH   7   8
ENDBRANCH   4   7
ENDBRANCH   3   4
TORSDOF 4
ENDMDL
MODEL       20
REMARK 921   NORMALIZED FREE ENERGY PREDICTED BY IDOCK:   -4.79 KCAL/MOL
REMARK 922        TOTAL FREE ENERGY PREDICTED BY IDOCK:   -6.10 KCAL/MOL
REMARK 923 INTER-LIGAND FREE ENERGY PREDICTED BY IDOCK:   -5.92 KCAL/MOL
REMARK 924 INTRA-LIGAND FREE ENERGY PREDICTED BY IDOCK:   -0.17 KCAL/MOL
REMARK 927      BINDING AFFINITY PREDICTED BY RF-SCORE:    0.00 PKD
ROOT
HETATM    1  O   UNL     1     -13.187  16.224  74.317  1.00  0.00    -0.934 OA 
HETATM    2  H   UNL     1     -12.504  16.281  74.975  1.00  0.00     0.000 HD 
HETATM    3  C   UNL     1     -12.783  15.396  73.236  1.00  0.00    -0.508 C  
ENDROOT
BRANCH   3   4
HETATM    4  C   UNL     1     -13.883  15.303  72.176  1.00  0.00    -0.522 C  
HETATM    5  H   UNL     1     -14.081  15.773  70.279  1.00  0.00     0.000 HD 
HETATM    6  O   UNL     1     -13.398  15.830  70.937  1.00  0.00    -0.576 OA 
BRANCH   4   7
HETATM    7  C   UNL     1     -14.405  13.872  71.981  1.00  0.00    -0.388 C  
BRANCH   7   8
HETATM    8  O   UNL     1     -13.469  12.924  72.518  1.00  0.00    -0.540 OA 
BRANCH   8   9
HETATM    9  C   UNL     1     -12.908  12.058  71.614  1.00  0.00    -0.294 A  
HETATM   10  C   UNL     1     -12.916  10.663  71.711  1.00  0.00    -0.577 A  
HETATM   11  C   UNL     1     -12.312   9.878  70.726  1.00  0.00    -0.363 A  
HETATM   12  C   UNL     1     -11.699  10.485  69.636  1.00  0.00    -0.256 A  
HETATM   13  C   UNL     1     -11.682  11.873  69.523  1.00  0.00    -0.410 A  
HETATM   14 CL   UNL     1     -10.959   9.515  68.423  1.00  0.00    -0.172 Cl 
HETATM   15  C   UNL     1     -12.286  12.657  70.514  1.00  0.00    -0.383 A  
ENDBRANCH   8   9
ENDBRANCH   7   8
ENDBRANCH   4   7
ENDBRANCH   3   4
TORSDOF 4
ENDMDL
MODEL       21
REMARK 921   NORMALIZED FREE ENERGY PREDICTED BY IDOCK:   -4.77 KCAL/MOL
REMARK 922        TOTAL FREE ENERGY PREDICTED BY IDOCK:   -6.08 KCAL/MOL
REMARK 923 INTER-LIGAND FREE ENERGY PREDICTED BY IDOCK:   -5.88 KCAL/MOL
REMARK 924 INTRA-LIGAND FREE ENERGY PREDICTED BY IDOCK:   -0.20 KCAL/MOL
REMARK 927      BINDING AFFINITY PREDICTED BY RF-SCORE:    0.00 PKD
ROOT
HETATM    1  O   UNL     1     -12.733  11.409  62.920  1.00  0.00    -0.951 OA 
HETATM    2  H   UNL     1     -12.550  10.544  62.574  1.00  0.00     0.000 HD 
HETATM    3  C   UNL     1     -11.559  11.998  63.462  1.00  0.00    -0.461 C  
ENDROOT
BRANCH   3   4
HETATM    4  C   UNL     1     -11.854  13.392  64.020  1.00  0.00    -0.445 C  
HETATM    5  H   UNL     1     -13.208  14.204  65.189  1.00  0.00     0.000 HD 
HETATM    6  O   UNL     1     -13.025  13.339  64.842  1.00  0.00    -0.727 OA 
BRANCH   4   7
HETATM    7  C   UNL     1     -10.675  13.982  64.807  1.00  0.00    -0.427 C  
BRANCH   7   8
HETATM    8  O   UNL     1     -11.001  14.065  66.204  1.00  0.00    -0.292 OA 
BRANCH   8   9
HETATM    9  C   UNL     1     -10.845  15.298  66.783  1.00  0.00    -0.312 A  
HETATM   10  C   UNL     1     -10.978  15.579  68.147  1.00  0.00    -0.312 A  
HETATM   11  C   UNL     1     -10.794  16.878  68.626  1.00  0.00    -0.314 A  
HETATM   12  C   UNL     1     -10.473  17.904  67.744  1.00  0.00    -0.400 A  
HETATM   13  C   UNL     1     -10.336  17.641  66.383  1.00  0.00    -0.345 A  
HETATM   14 CL   UNL     1     -10.243  19.501  68.339  1.00  0.00    -0.531 Cl 
HETATM   15  C   UNL     1     -10.524  16.339  65.905  1.00  0.00    -0.359 A  
ENDBRANCH   8   9
ENDBRANCH   7   8
ENDBRANCH   4   7
ENDBRANCH   3   4
TORSDOF 4
ENDMDL
MODEL       22
REMARK 921   NORMALIZED FREE ENERGY PREDICTED BY IDOCK:   -4.68 KCAL/MOL
REMARK 922        TOTAL FREE ENERGY PREDICTED BY IDOCK:   -5.96 KCAL/MOL
REMARK 923 INTER-LIGAND FREE ENERGY PREDICTED BY IDOCK:   -5.55 KCAL/MOL
REMARK 924 INTRA-LIGAND FREE ENERGY PREDICTED BY IDOCK:   -0.41 KCAL/MOL
REMARK 927      BINDING AFFINITY PREDICTED BY RF-SCORE:    0.00 PKD
ROOT
HETATM    1  O   UNL     1     -10.289  19.766  69.237  1.00  0.00    -0.636 OA 
HETATM    2  H   UNL     1      -9.700  20.268  69.786  1.00  0.00     0.000 HD 
HETATM    3  C   UNL     1      -9.571  19.048  68.244  1.00  0.00    -0.355 C  
ENDROOT
BRANCH   3   4
HETATM    4  C   UNL     1     -10.521  18.238  67.359  1.00  0.00    -0.409 C  
HETATM    5  H   UNL     1     -10.512  17.535  65.524  1.00  0.00     0.000 HD 
HETATM    6  O   UNL     1      -9.922  18.037  66.074  1.00  0.00    -0.499 OA 
BRANCH   4   7
HETATM    7  C   UNL     1     -10.914  16.890  67.980  1.00  0.00    -0.271 C  
BRANCH   7   8
HETATM    8  O   UNL     1     -10.585  16.873  69.379  1.00  0.00    -0.337 OA 
BRANCH   8   9
HETATM    9  C   UNL     1     -11.281  15.974  70.146  1.00  0.00    -0.373 A  
HETATM   10  C   UNL     1     -11.762  16.209  71.439  1.00  0.00    -0.506 A  
HETATM   11  C   UNL     1     -12.463  15.216  72.128  1.00  0.00    -0.420 A  
HETATM   12  C   UNL     1     -12.690  13.983  71.527  1.00  0.00    -0.363 A  
HETATM   13  C   UNL     1     -12.219  13.733  70.240  1.00  0.00    -0.429 A  
HETATM   14 CL   UNL     1     -13.556  12.765  72.377  1.00  0.00    -0.622 Cl 
HETATM   15  C   UNL     1     -11.514  14.729  69.552  1.00  0.00    -0.331 A  
ENDBRANCH   8   9
ENDBRANCH   7   8
ENDBRANCH   4   7
ENDBRANCH   3   4
TORSDOF 4
ENDMDL
MODEL       23
REMARK 921   NORMALIZED FREE ENERGY PREDICTED BY IDOCK:   -4.65 KCAL/MOL
REMARK 922        TOTAL FREE ENERGY PREDICTED BY IDOCK:   -5.93 KCAL/MOL
REMARK 923 INTER-LIGAND FREE ENERGY PREDICTED BY IDOCK:   -5.72 KCAL/MOL
REMARK 924 INTRA-LIGAND FREE ENERGY PREDICTED BY IDOCK:   -0.21 KCAL/MOL
REMARK 927      BINDING AFFINITY PREDICTED BY RF-SCORE:    0.00 PKD
ROOT
HETATM    1  O   UNL     1     -11.540  16.499  63.795  1.00  0.00    -1.617 OA 
HETATM    2  H   UNL     1     -10.769  17.053  63.791  1.00  0.00     0.000 HD 
HETATM    3  C   UNL     1     -11.385  15.421  64.707  1.00  0.00    -0.376 C  
ENDROOT
BRANCH   3   4
HETATM    4  C   UNL     1     -12.628  14.527  64.713  1.00  0.00    -0.217 C  
HETATM    5  H   UNL     1     -13.496  13.281  63.468  1.00  0.00     0.000 HD 
HETATM    6  O   UNL     1     -12.725  13.835  63.464  1.00  0.00    -0.774 OA 
BRANCH   4   7
HETATM    7  C   UNL     1     -12.639  13.528  65.879  1.00  0.00    -0.396 C  
BRANCH   7   8
HETATM    8  O   UNL     1     -11.302  13.304  66.355  1.00  0.00    -0.296 OA 
BRANCH   8   9
HETATM    9  C   UNL     1     -10.987  12.007  66.669  1.00  0.00    -0.287 A  
HETATM   10  C   UNL     1     -11.171  11.405  67.919  1.00  0.00    -0.352 A  
HETATM   11  C   UNL     1     -10.814  10.070  68.124  1.00  0.00    -0.303 A  
HETATM   12  C   UNL     1     -10.273   9.328  67.080  1.00  0.00    -0.262 A  
HETATM   13  C   UNL     1     -10.084   9.912  65.829  1.00  0.00    -0.317 A  
HETATM   14 CL   UNL     1      -9.839   7.684  67.336  1.00  0.00    -0.205 Cl 
HETATM   15  C   UNL     1     -10.441  11.251  65.627  1.00  0.00    -0.317 A  
ENDBRANCH   8   9
ENDBRANCH   7   8
ENDBRANCH   4   7
ENDBRANCH   3   4
TORSDOF 4
ENDMDL
MODEL       24
REMARK 921   NORMALIZED FREE ENERGY PREDICTED BY IDOCK:   -4.65 KCAL/MOL
REMARK 922        TOTAL FREE ENERGY PREDICTED BY IDOCK:   -5.92 KCAL/MOL
REMARK 923 INTER-LIGAND FREE ENERGY PREDICTED BY IDOCK:   -5.51 KCAL/MOL
REMARK 924 INTRA-LIGAND FREE ENERGY PREDICTED BY IDOCK:   -0.42 KCAL/MOL
REMARK 927      BINDING AFFINITY PREDICTED BY RF-SCORE:    0.00 PKD
ROOT
HETATM    1  O   UNL     1     -11.032  15.066  70.946  1.00  0.00    -0.508 OA 
HETATM    2  H   UNL     1     -10.622  15.418  70.165  1.00  0.00     0.000 HD 
HETATM    3  C   UNL     1     -12.414  15.392  70.987  1.00  0.00    -0.411 C  
ENDROOT
BRANCH   3   4
HETATM    4  C   UNL     1     -13.073  14.825  72.246  1.00  0.00    -0.356 C  
HETATM    5  H   UNL     1     -14.642  15.248  73.350  1.00  0.00     0.000 HD 
HETATM    6  O   UNL     1     -14.233  15.600  72.568  1.00  0.00    -0.557 OA 
BRANCH   4   7
HETATM    7  C   UNL     1     -13.446  13.341  72.107  1.00  0.00    -0.562 C  
BRANCH   7   8
HETATM    8  O   UNL     1     -12.670  12.729  71.065  1.00  0.00    -0.333 OA 
BRANCH   8   9
HETATM    9  C   UNL     1     -12.525  11.367  71.147  1.00  0.00    -0.360 A  
HETATM   10  C   UNL     1     -11.591  10.604  70.437  1.00  0.00    -0.441 A  
HETATM   11  C   UNL     1     -11.533   9.219  70.603  1.00  0.00    -0.327 A  
HETATM   12  C   UNL     1     -12.406   8.588  71.483  1.00  0.00    -0.314 A  
HETATM   13  C   UNL     1     -13.341   9.333  72.198  1.00  0.00    -0.537 A  
HETATM   14 CL   UNL     1     -12.327   6.882  71.687  1.00  0.00    -0.396 Cl 
HETATM   15  C   UNL     1     -13.399  10.722  72.028  1.00  0.00    -0.403 A  
ENDBRANCH   8   9
ENDBRANCH   7   8
ENDBRANCH   4   7
ENDBRANCH   3   4
TORSDOF 4
ENDMDL
MODEL       25
REMARK 921   NORMALIZED FREE ENERGY PREDICTED BY IDOCK:   -4.62 KCAL/MOL
REMARK 922        TOTAL FREE ENERGY PREDICTED BY IDOCK:   -5.89 KCAL/MOL
REMARK 923 INTER-LIGAND FREE ENERGY PREDICTED BY IDOCK:   -5.51 KCAL/MOL
REMARK 924 INTRA-LIGAND FREE ENERGY PREDICTED BY IDOCK:   -0.38 KCAL/MOL
REMARK 927      BINDING AFFINITY PREDICTED BY RF-SCORE:    0.00 PKD
ROOT
HETATM    1  O   UNL     1     -12.109  16.453  73.113  1.00  0.00    -0.518 OA 
HETATM    2  H   UNL     1     -12.026  17.059  73.840  1.00  0.00     0.000 HD 
HETATM    3  C   UNL     1     -13.029  15.415  73.420  1.00  0.00    -0.538 C  
ENDROOT
BRANCH   3   4
HETATM    4  C   UNL     1     -13.163  14.438  72.249  1.00  0.00    -0.406 C  
HETATM    5  H   UNL     1     -14.307  12.909  71.790  1.00  0.00     0.000 HD 
HETATM    6  O   UNL     1     -14.223  13.515  72.516  1.00  0.00    -0.734 OA 
BRANCH   4   7
HETATM    7  C   UNL     1     -13.397  15.145  70.906  1.00  0.00    -0.408 C  
BRANCH   7   8
HETATM    8  O   UNL     1     -12.165  15.692  70.409  1.00  0.00    -0.381 OA 
BRANCH   8   9
HETATM    9  C   UNL     1     -11.786  15.274  69.159  1.00  0.00    -0.321 A  
HETATM   10  C   UNL     1     -12.034  14.010  68.614  1.00  0.00    -0.389 A  
HETATM   11  C   UNL     1     -11.601  13.695  67.323  1.00  0.00    -0.387 A  
HETATM   12  C   UNL     1     -10.919  14.644  66.570  1.00  0.00    -0.318 A  
HETATM   13  C   UNL     1     -10.664  15.908  67.098  1.00  0.00    -0.301 A  
HETATM   14 CL   UNL     1     -10.391  14.254  64.980  1.00  0.00    -0.443 Cl 
HETATM   15  C   UNL     1     -11.097  16.220  68.392  1.00  0.00    -0.362 A  
ENDBRANCH   8   9
ENDBRANCH   7   8
ENDBRANCH   4   7
ENDBRANCH   3   4
TORSDOF 4
ENDMDL
MODEL       26
REMARK 921   NORMALIZED FREE ENERGY PREDICTED BY IDOCK:   -4.62 KCAL/MOL
REMARK 922        TOTAL FREE ENERGY PREDICTED BY IDOCK:   -5.88 KCAL/MOL
REMARK 923 INTER-LIGAND FREE ENERGY PREDICTED BY IDOCK:   -5.52 KCAL/MOL
REMARK 924 INTRA-LIGAND FREE ENERGY PREDICTED BY IDOCK:   -0.36 KCAL/MOL
REMARK 927      BINDING AFFINITY PREDICTED BY RF-SCORE:    0.00 PKD
ROOT
HETATM    1  O   UNL     1     -13.949  15.543  70.390  1.00  0.00    -0.633 OA 
HETATM    2  H   UNL     1     -14.261  16.425  70.229  1.00  0.00     0.000 HD 
HETATM    3  C   UNL     1     -13.355  15.442  71.677  1.00  0.00    -0.490 C  
ENDROOT
BRANCH   3   4
HETATM    4  C   UNL     1     -12.853  14.020  71.938  1.00  0.00    -0.335 C  
HETATM    5  H   UNL     1     -13.524  12.414  72.847  1.00  0.00     0.000 HD 
HETATM    6  O   UNL     1     -13.836  13.296  72.685  1.00  0.00    -0.712 OA 
BRANCH   4   7
HETATM    7  C   UNL     1     -12.502  13.265  70.647  1.00  0.00    -0.298 C  
BRANCH   7   8
HETATM    8  O   UNL     1     -11.757  14.115  69.760  1.00  0.00    -0.276 OA 
BRANCH   8   9
HETATM    9  C   UNL     1     -11.810  13.785  68.430  1.00  0.00    -0.376 A  
HETATM   10  C   UNL     1     -12.031  14.681  67.378  1.00  0.00    -0.309 A  
HETATM   11  C   UNL     1     -12.064  14.230  66.056  1.00  0.00    -0.423 A  
HETATM   12  C   UNL     1     -11.872  12.882  65.778  1.00  0.00    -0.419 A  
HETATM   13  C   UNL     1     -11.650  11.977  66.813  1.00  0.00    -0.391 A  
HETATM   14 CL   UNL     1     -11.908  12.333  64.149  1.00  0.00    -0.467 Cl 
HETATM   15  C   UNL     1     -11.621  12.430  68.138  1.00  0.00    -0.395 A  
ENDBRANCH   8   9
ENDBRANCH   7   8
ENDBRANCH   4   7
ENDBRANCH   3   4
TORSDOF 4
ENDMDL
MODEL       27
REMARK 921   NORMALIZED FREE ENERGY PREDICTED BY IDOCK:   -4.61 KCAL/MOL
REMARK 922        TOTAL FREE ENERGY PREDICTED BY IDOCK:   -5.88 KCAL/MOL
REMARK 923 INTER-LIGAND FREE ENERGY PREDICTED BY IDOCK:   -5.73 KCAL/MOL
REMARK 924 INTRA-LIGAND FREE ENERGY PREDICTED BY IDOCK:   -0.15 KCAL/MOL
REMARK 927      BINDING AFFINITY PREDICTED BY RF-SCORE:    0.00 PKD
ROOT
HETATM    1  O   UNL     1     -11.717  16.488  63.800  1.00  0.00    -1.548 OA 
HETATM    2  H   UNL     1     -11.157  17.254  63.827  1.00  0.00     0.000 HD 
HETATM    3  C   UNL     1     -11.274  15.502  64.722  1.00  0.00    -0.390 C  
ENDROOT
BRANCH   3   4
HETATM    4  C   UNL     1     -12.177  14.267  64.679  1.00  0.00    -0.454 C  
HETATM    5  H   UNL     1     -13.340  13.395  63.358  1.00  0.00     0.000 HD 
HETATM    6  O   UNL     1     -12.779  14.161  63.385  1.00  0.00    -0.767 OA 
BRANCH   4   7
HETATM    7  C   UNL     1     -11.432  12.970  65.028  1.00  0.00    -0.313 C  
BRANCH   7   8
HETATM    8  O   UNL     1     -11.051  12.277  63.828  1.00  0.00    -0.367 OA 
BRANCH   8   9
HETATM    9  C   UNL     1     -10.234  11.189  63.999  1.00  0.00    -0.361 A  
HETATM   10  C   UNL     1     -10.023  10.512  65.205  1.00  0.00    -0.375 A  
HETATM   11  C   UNL     1      -9.167   9.409  65.260  1.00  0.00    -0.299 A  
HETATM   12  C   UNL     1      -8.519   8.976  64.109  1.00  0.00    -0.170 A  
HETATM   13  C   UNL     1      -8.718   9.639  62.900  1.00  0.00    -0.227 A  
HETATM   14 CL   UNL     1      -7.468   7.616  64.182  1.00  0.00    -0.094 Cl 
HETATM   15  C   UNL     1      -9.575  10.745  62.848  1.00  0.00    -0.366 A  
ENDBRANCH   8   9
ENDBRANCH   7   8
ENDBRANCH   4   7
ENDBRANCH   3   4
TORSDOF 4
ENDMDL
MODEL       28
REMARK 921   NORMALIZED FREE ENERGY PREDICTED BY IDOCK:   -4.60 KCAL/MOL
REMARK 922        TOTAL FREE ENERGY PREDICTED BY IDOCK:   -5.87 KCAL/MOL
REMARK 923 INTER-LIGAND FREE ENERGY PREDICTED BY IDOCK:   -5.50 KCAL/MOL
REMARK 924 INTRA-LIGAND FREE ENERGY PREDICTED BY IDOCK:   -0.37 KCAL/MOL
REMARK 927      BINDING AFFINITY PREDICTED BY RF-SCORE:    0.00 PKD
ROOT
HETATM    1  O   UNL     1     -12.372   6.926  70.156  1.00  0.00    -0.628 OA 
HETATM    2  H   UNL     1     -12.400   6.148  69.612  1.00  0.00     0.000 HD 
HETATM    3  C   UNL     1     -11.722   6.659  71.391  1.00  0.00    -0.324 C  
ENDROOT
BRANCH   3   4
HETATM    4  C   UNL     1     -11.676   7.912  72.267  1.00  0.00    -0.355 C  
HETATM    5  H   UNL     1     -10.742   8.479  73.900  1.00  0.00     0.000 HD 
HETATM    6  O   UNL     1     -10.770   7.701  73.356  1.00  0.00    -0.379 OA 
BRANCH   4   7
HETATM    7  C   UNL     1     -11.284   9.174  71.485  1.00  0.00    -0.360 C  
BRANCH   7   8
HETATM    8  O   UNL     1     -12.438   9.740  70.842  1.00  0.00    -0.306 OA 
BRANCH   8   9
HETATM    9  C   UNL     1     -12.615  11.090  71.008  1.00  0.00    -0.411 A  
HETATM   10  C   UNL     1     -13.340  11.695  72.039  1.00  0.00    -0.405 A  
HETATM   11  C   UNL     1     -13.451  13.086  72.109  1.00  0.00    -0.638 A  
HETATM   12  C   UNL     1     -12.835  13.880  71.148  1.00  0.00    -0.351 A  
HETATM   13  C   UNL     1     -12.109  13.293  70.114  1.00  0.00    -0.403 A  
HETATM   14 CL   UNL     1     -12.972  15.592  71.239  1.00  0.00    -0.532 Cl 
HETATM   15  C   UNL     1     -12.001  11.899  70.045  1.00  0.00    -0.409 A  
ENDBRANCH   8   9
ENDBRANCH   7   8
ENDBRANCH   4   7
ENDBRANCH   3   4
TORSDOF 4
ENDMDL
MODEL       29
REMARK 921   NORMALIZED FREE ENERGY PREDICTED BY IDOCK:   -4.60 KCAL/MOL
REMARK 922        TOTAL FREE ENERGY PREDICTED BY IDOCK:   -5.87 KCAL/MOL
REMARK 923 INTER-LIGAND FREE ENERGY PREDICTED BY IDOCK:   -5.42 KCAL/MOL
REMARK 924 INTRA-LIGAND FREE ENERGY PREDICTED BY IDOCK:   -0.44 KCAL/MOL
REMARK 927      BINDING AFFINITY PREDICTED BY RF-SCORE:    0.00 PKD
ROOT
HETATM    1  O   UNL     1     -12.402   6.956  70.383  1.00  0.00    -0.613 OA 
HETATM    2  H   UNL     1     -12.336   6.193  69.823  1.00  0.00     0.000 HD 
HETATM    3  C   UNL     1     -11.406   6.932  71.396  1.00  0.00    -0.270 C  
ENDROOT
BRANCH   3   4
HETATM    4  C   UNL     1     -11.513   8.163  72.299  1.00  0.00    -0.371 C  
HETATM    5  H   UNL     1     -10.331   9.626  72.864  1.00  0.00     0.000 HD 
HETATM    6  O   UNL     1     -10.264   8.862  72.304  1.00  0.00    -0.296 OA 
BRANCH   4   7
HETATM    7  C   UNL     1     -12.652   9.108  71.887  1.00  0.00    -0.388 C  
BRANCH   7   8
HETATM    8  O   UNL     1     -12.265   9.883  70.741  1.00  0.00    -0.293 OA 
BRANCH   8   9
HETATM    9  C   UNL     1     -12.473  11.235  70.834  1.00  0.00    -0.394 A  
HETATM   10  C   UNL     1     -11.998  12.195  69.934  1.00  0.00    -0.380 A  
HETATM   11  C   UNL     1     -12.274  13.551  70.130  1.00  0.00    -0.400 A  
HETATM   12  C   UNL     1     -13.028  13.954  71.226  1.00  0.00    -0.341 A  
HETATM   13  C   UNL     1     -13.509  13.011  72.132  1.00  0.00    -0.638 A  
HETATM   14 CL   UNL     1     -13.369  15.623  71.461  1.00  0.00    -0.565 Cl 
HETATM   15  C   UNL     1     -13.229  11.653  71.935  1.00  0.00    -0.475 A  
ENDBRANCH   8   9
ENDBRANCH   7   8
ENDBRANCH   4   7
ENDBRANCH   3   4
TORSDOF 4
ENDMDL
MODEL       30
REMARK 921   NORMALIZED FREE ENERGY PREDICTED BY IDOCK:   -4.58 KCAL/MOL
REMARK 922        TOTAL FREE ENERGY PREDICTED BY IDOCK:   -5.84 KCAL/MOL
REMARK 923 INTER-LIGAND FREE ENERGY PREDICTED BY IDOCK:   -5.51 KCAL/MOL
REMARK 924 INTRA-LIGAND FREE ENERGY PREDICTED BY IDOCK:   -0.33 KCAL/MOL
REMARK 927      BINDING AFFINITY PREDICTED BY RF-SCORE:    0.00 PKD
ROOT
HETATM    1  O   UNL     1     -11.901  16.173  63.724  1.00  0.00    -1.408 OA 
HETATM    2  H   UNL     1     -12.088  16.965  63.235  1.00  0.00     0.000 HD 
HETATM    3  C   UNL     1     -11.139  16.462  64.888  1.00  0.00    -0.239 C  
ENDROOT
BRANCH   3   4
HETATM    4  C   UNL     1     -10.838  15.185  65.676  1.00  0.00    -0.360 C  
HETATM    5  H   UNL     1      -9.713  14.684  67.206  1.00  0.00     0.000 HD 
HETATM    6  O   UNL     1      -9.900  15.477  66.717  1.00  0.00    -0.231 OA 
BRANCH   4   7
HETATM    7  C   UNL     1     -12.100  14.533  66.261  1.00  0.00    -0.294 C  
BRANCH   7   8
HETATM    8  O   UNL     1     -12.605  13.532  65.363  1.00  0.00    -0.470 OA 
BRANCH   8   9
HETATM    9  C   UNL     1     -11.737  12.517  65.049  1.00  0.00    -0.362 A  
HETATM   10  C   UNL     1     -11.286  12.203  63.763  1.00  0.00    -0.509 A  
HETATM   11  C   UNL     1     -10.397  11.144  63.561  1.00  0.00    -0.446 A  
HETATM   12  C   UNL     1      -9.953  10.395  64.645  1.00  0.00    -0.338 A  
HETATM   13  C   UNL     1     -10.392  10.695  65.932  1.00  0.00    -0.291 A  
HETATM   14 CL   UNL     1      -8.856   9.094  64.392  1.00  0.00    -0.196 Cl 
HETATM   15  C   UNL     1     -11.285  11.755  66.131  1.00  0.00    -0.363 A  
ENDBRANCH   8   9
ENDBRANCH   7   8
ENDBRANCH   4   7
ENDBRANCH   3   4
TORSDOF 4
ENDMDL
MODEL       31
REMARK 921   NORMALIZED FREE ENERGY PREDICTED BY IDOCK:   -4.57 KCAL/MOL
REMARK 922        TOTAL FREE ENERGY PREDICTED BY IDOCK:   -5.82 KCAL/MOL
REMARK 923 INTER-LIGAND FREE ENERGY PREDICTED BY IDOCK:   -5.41 KCAL/MOL
REMARK 924 INTRA-LIGAND FREE ENERGY PREDICTED BY IDOCK:   -0.41 KCAL/MOL
REMARK 927      BINDING AFFINITY PREDICTED BY RF-SCORE:    0.00 PKD
ROOT
HETATM    1  O   UNL     1     -13.278  12.083  63.405  1.00  0.00    -0.687 OA 
HETATM    2  H   UNL     1     -13.967  12.688  63.160  1.00  0.00     0.000 HD 
HETATM    3  C   UNL     1     -12.027  12.748  63.499  1.00  0.00    -0.555 C  
ENDROOT
BRANCH   3   4
HETATM    4  C   UNL     1     -10.916  11.772  63.894  1.00  0.00    -0.407 C  
HETATM    5  H   UNL     1      -8.995  11.575  63.536  1.00  0.00     0.000 HD 
HETATM    6  O   UNL     1      -9.684  12.181  63.291  1.00  0.00    -0.370 OA 
BRANCH   4   7
HETATM    7  C   UNL     1     -10.748  11.644  65.415  1.00  0.00    -0.287 C  
BRANCH   7   8
HETATM    8  O   UNL     1     -11.963  12.019  66.084  1.00  0.00    -0.581 OA 
BRANCH   8   9
HETATM    9  C   UNL     1     -11.827  12.915  67.114  1.00  0.00    -0.362 A  
HETATM   10  C   UNL     1     -11.655  14.296  66.973  1.00  0.00    -0.406 A  
HETATM   11  C   UNL     1     -11.529  15.115  68.098  1.00  0.00    -0.356 A  
HETATM   12  C   UNL     1     -11.578  14.557  69.371  1.00  0.00    -0.303 A  
HETATM   13  C   UNL     1     -11.750  13.184  69.528  1.00  0.00    -0.382 A  
HETATM   14 CL   UNL     1     -11.427  15.569  70.753  1.00  0.00    -0.354 Cl 
HETATM   15  C   UNL     1     -11.873  12.365  68.399  1.00  0.00    -0.361 A  
ENDBRANCH   8   9
ENDBRANCH   7   8
ENDBRANCH   4   7
ENDBRANCH   3   4
TORSDOF 4
ENDMDL
MODEL       32
REMARK 921   NORMALIZED FREE ENERGY PREDICTED BY IDOCK:   -4.49 KCAL/MOL
REMARK 922        TOTAL FREE ENERGY PREDICTED BY IDOCK:   -5.73 KCAL/MOL
REMARK 923 INTER-LIGAND FREE ENERGY PREDICTED BY IDOCK:   -5.47 KCAL/MOL
REMARK 924 INTRA-LIGAND FREE ENERGY PREDICTED BY IDOCK:   -0.27 KCAL/MOL
REMARK 927      BINDING AFFINITY PREDICTED BY RF-SCORE:    0.00 PKD
ROOT
HETATM    1  O   UNL     1     -14.168   8.844  73.438  1.00  0.00    -1.241 OA 
HETATM    2  H   UNL     1     -15.046   9.186  73.558  1.00  0.00     0.000 HD 
HETATM    3  C   UNL     1     -13.726   9.041  72.102  1.00  0.00    -0.480 C  
ENDROOT
BRANCH   3   4
HETATM    4  C   UNL     1     -12.310   8.491  71.908  1.00  0.00    -0.352 C  
HETATM    5  H   UNL     1     -11.453   7.118  70.795  1.00  0.00     0.000 HD 
HETATM    6  O   UNL     1     -12.331   7.460  70.915  1.00  0.00    -0.285 OA 
BRANCH   4   7
HETATM    7  C   UNL     1     -11.294   9.577  71.528  1.00  0.00    -0.385 C  
BRANCH   7   8
HETATM    8  O   UNL     1     -11.976  10.781  71.139  1.00  0.00    -0.329 OA 
BRANCH   8   9
HETATM    9  C   UNL     1     -11.755  11.205  69.853  1.00  0.00    -0.355 A  
HETATM   10  C   UNL     1     -11.403  10.385  68.776  1.00  0.00    -0.275 A  
HETATM   11  C   UNL     1     -11.205  10.928  67.504  1.00  0.00    -0.364 A  
HETATM   12  C   UNL     1     -11.361  12.295  67.302  1.00  0.00    -0.328 A  
HETATM   13  C   UNL     1     -11.711  13.125  68.364  1.00  0.00    -0.386 A  
HETATM   14 CL   UNL     1     -11.120  12.959  65.734  1.00  0.00    -0.304 Cl 
HETATM   15  C   UNL     1     -11.907  12.578  69.638  1.00  0.00    -0.382 A  
ENDBRANCH   8   9
ENDBRANCH   7   8
ENDBRANCH   4   7
ENDBRANCH   3   4
TORSDOF 4
ENDMDL
MODEL       33
REMARK 921   NORMALIZED FREE ENERGY PREDICTED BY IDOCK:   -4.47 KCAL/MOL
REMARK 922        TOTAL FREE ENERGY PREDICTED BY IDOCK:   -5.71 KCAL/MOL
REMARK 923 INTER-LIGAND FREE ENERGY PREDICTED BY IDOCK:   -5.56 KCAL/MOL
REMARK 924 INTRA-LIGAND FREE ENERGY PREDICTED BY IDOCK:   -0.15 KCAL/MOL
REMARK 927      BINDING AFFINITY PREDICTED BY RF-SCORE:    0.00 PKD
ROOT
HETATM    1  O   UNL     1     -14.346   8.855  73.332  1.00  0.00    -1.192 OA 
HETATM    2  H   UNL     1     -15.178   8.419  73.475  1.00  0.00     0.000 HD 
HETATM    3  C   UNL     1     -13.948   8.757  71.972  1.00  0.00    -0.451 C  
ENDROOT
BRANCH   3   4
HETATM    4  C   UNL     1     -12.608   9.459  71.742  1.00  0.00    -0.387 C  
HETATM    5  H   UNL     1     -10.795   8.931  71.199  1.00  0.00     0.000 HD 
HETATM    6  O   UNL     1     -11.627   8.496  71.341  1.00  0.00    -0.266 OA 
BRANCH   4   7
HETATM    7  C   UNL     1     -12.696  10.592  70.709  1.00  0.00    -0.381 C  
BRANCH   7   8
HETATM    8  O   UNL     1     -12.772  11.865  71.371  1.00  0.00    -0.366 OA 
BRANCH   8   9
HETATM    9  C   UNL     1     -12.354  12.946  70.639  1.00  0.00    -0.302 A  
HETATM   10  C   UNL     1     -11.698  12.888  69.404  1.00  0.00    -0.382 A  
HETATM   11  C   UNL     1     -11.319  14.060  68.745  1.00  0.00    -0.309 A  
HETATM   12  C   UNL     1     -11.595  15.297  69.317  1.00  0.00    -0.332 A  
HETATM   13  C   UNL     1     -12.247  15.373  70.545  1.00  0.00    -0.436 A  
HETATM   14 CL   UNL     1     -11.129  16.738  68.500  1.00  0.00    -0.317 Cl 
HETATM   15  C   UNL     1     -12.625  14.196  71.204  1.00  0.00    -0.439 A  
ENDBRANCH   8   9
ENDBRANCH   7   8
ENDBRANCH   4   7
ENDBRANCH   3   4
TORSDOF 4
ENDMDL
MODEL       34
REMARK 921   NORMALIZED FREE ENERGY PREDICTED BY IDOCK:   -4.41 KCAL/MOL
REMARK 922        TOTAL FREE ENERGY PREDICTED BY IDOCK:   -5.63 KCAL/MOL
REMARK 923 INTER-LIGAND FREE ENERGY PREDICTED BY IDOCK:   -5.41 KCAL/MOL
REMARK 924 INTRA-LIGAND FREE ENERGY PREDICTED BY IDOCK:   -0.21 KCAL/MOL
REMARK 927      BINDING AFFINITY PREDICTED BY RF-SCORE:    0.00 PKD
ROOT
HETATM    1  O   UNL     1     -12.501  13.898  63.167  1.00  0.00    -1.121 OA 
HETATM    2  H   UNL     1     -12.538  14.429  62.380  1.00  0.00     0.000 HD 
HETATM    3  C   UNL     1     -12.277  14.704  64.314  1.00  0.00    -0.408 C  
ENDROOT
BRANCH   3   4
HETATM    4  C   UNL     1     -12.218  13.848  65.582  1.00  0.00    -0.452 C  
HETATM    5  H   UNL     1     -12.556  11.971  66.053  1.00  0.00     0.000 HD 
HETATM    6  O   UNL     1     -12.592  12.503  65.267  1.00  0.00    -0.645 OA 
BRANCH   4   7
HETATM    7  C   UNL     1     -10.838  13.874  66.256  1.00  0.00    -0.290 C  
BRANCH   7   8
HETATM    8  O   UNL     1     -10.826  14.831  67.328  1.00  0.00    -0.294 OA 
BRANCH   8   9
HETATM    9  C   UNL     1     -10.078  15.960  67.114  1.00  0.00    -0.264 A  
HETATM   10  C   UNL     1      -8.819  15.998  66.506  1.00  0.00    -0.340 A  
HETATM   11  C   UNL     1      -8.147  17.212  66.338  1.00  0.00    -0.337 A  
HETATM   12  C   UNL     1      -8.733  18.395  66.775  1.00  0.00    -0.277 A  
HETATM   13  C   UNL     1      -9.986  18.374  67.382  1.00  0.00    -0.347 A  
HETATM   14 CL   UNL     1      -7.904  19.887  66.563  1.00  0.00    -0.313 Cl 
HETATM   15  C   UNL     1     -10.656  17.156  67.551  1.00  0.00    -0.323 A  
ENDBRANCH   8   9
ENDBRANCH   7   8
ENDBRANCH   4   7
ENDBRANCH   3   4
TORSDOF 4
ENDMDL
MODEL       35
REMARK 921   NORMALIZED FREE ENERGY PREDICTED BY IDOCK:   -4.39 KCAL/MOL
REMARK 922        TOTAL FREE ENERGY PREDICTED BY IDOCK:   -5.61 KCAL/MOL
REMARK 923 INTER-LIGAND FREE ENERGY PREDICTED BY IDOCK:   -5.18 KCAL/MOL
REMARK 924 INTRA-LIGAND FREE ENERGY PREDICTED BY IDOCK:   -0.43 KCAL/MOL
REMARK 927      BINDING AFFINITY PREDICTED BY RF-SCORE:    0.00 PKD
ROOT
HETATM    1  O   UNL     1     -13.995  13.725  72.738  1.00  0.00    -0.714 OA 
HETATM    2  H   UNL     1     -14.748  13.166  72.889  1.00  0.00     0.000 HD 
HETATM    3  C   UNL     1     -14.222  14.598  71.641  1.00  0.00    -0.506 C  
ENDROOT
BRANCH   3   4
HETATM    4  C   UNL     1     -13.009  15.499  71.398  1.00  0.00    -0.483 C  
HETATM    5  H   UNL     1     -11.676  16.425  72.504  1.00  0.00     0.000 HD 
HETATM    6  O   UNL     1     -12.428  15.866  72.654  1.00  0.00    -0.402 OA 
BRANCH   4   7
HETATM    7  C   UNL     1     -11.954  14.848  70.492  1.00  0.00    -0.309 C  
BRANCH   7   8
HETATM    8  O   UNL     1     -12.186  13.434  70.394  1.00  0.00    -0.343 OA 
BRANCH   8   9
HETATM    9  C   UNL     1     -11.814  12.846  69.212  1.00  0.00    -0.309 A  
HETATM   10  C   UNL     1     -11.251  11.573  69.078  1.00  0.00    -0.324 A  
HETATM   11  C   UNL     1     -10.912  11.075  67.818  1.00  0.00    -0.323 A  
HETATM   12  C   UNL     1     -11.138  11.846  66.683  1.00  0.00    -0.310 A  
HETATM   13  C   UNL     1     -11.699  13.116  66.799  1.00  0.00    -0.439 A  
HETATM   14 CL   UNL     1     -10.723  11.227  65.133  1.00  0.00    -0.336 Cl 
HETATM   15  C   UNL     1     -12.035  13.614  68.064  1.00  0.00    -0.385 A  
ENDBRANCH   8   9
ENDBRANCH   7   8
ENDBRANCH   4   7
ENDBRANCH   3   4
TORSDOF 4
ENDMDL
MODEL       36
REMARK 921   NORMALIZED FREE ENERGY PREDICTED BY IDOCK:   -4.38 KCAL/MOL
REMARK 922        TOTAL FREE ENERGY PREDICTED BY IDOCK:   -5.60 KCAL/MOL
REMARK 923 INTER-LIGAND FREE ENERGY PREDICTED BY IDOCK:   -5.13 KCAL/MOL
REMARK 924 INTRA-LIGAND FREE ENERGY PREDICTED BY IDOCK:   -0.47 KCAL/MOL
REMARK 927      BINDING AFFINITY PREDICTED BY RF-SCORE:    0.00 PKD
ROOT
HETATM    1  O   UNL     1     -10.109  11.438  68.193  1.00  0.00    -0.178 OA 
HETATM    2  H   UNL     1     -10.036  10.667  68.743  1.00  0.00     0.000 HD 
HETATM    3  C   UNL     1     -11.372  11.481  67.544  1.00  0.00    -0.299 C  
ENDROOT
BRANCH   3   4
HETATM    4  C   UNL     1     -11.490  12.724  66.658  1.00  0.00    -0.350 C  
HETATM    5  H   UNL     1     -12.552  13.268  65.097  1.00  0.00     0.000 HD 
HETATM    6  O   UNL     1     -12.478  12.498  65.647  1.00  0.00    -0.648 OA 
BRANCH   4   7
HETATM    7  C   UNL     1     -11.822  13.995  67.453  1.00  0.00    -0.409 C  
BRANCH   7   8
HETATM    8  O   UNL     1     -10.822  14.229  68.458  1.00  0.00    -0.238 OA 
BRANCH   8   9
HETATM    9  C   UNL     1     -11.290  14.576  69.699  1.00  0.00    -0.273 A  
HETATM   10  C   UNL     1     -11.001  15.768  70.373  1.00  0.00    -0.369 A  
HETATM   11  C   UNL     1     -11.538  16.017  71.639  1.00  0.00    -0.538 A  
HETATM   12  C   UNL     1     -12.369  15.076  72.236  1.00  0.00    -0.353 A  
HETATM   13  C   UNL     1     -12.668  13.885  71.579  1.00  0.00    -0.440 A  
HETATM   14 CL   UNL     1     -13.031  15.389  73.793  1.00  0.00    -0.611 Cl 
HETATM   15  C   UNL     1     -12.126  13.637  70.312  1.00  0.00    -0.427 A  
ENDBRANCH   8   9
ENDBRANCH   7   8
ENDBRANCH   4   7
ENDBRANCH   3   4
TORSDOF 4
ENDMDL
MODEL       37
REMARK 921   NORMALIZED FREE ENERGY PREDICTED BY IDOCK:   -4.35 KCAL/MOL
REMARK 922        TOTAL FREE ENERGY PREDICTED BY IDOCK:   -5.55 KCAL/MOL
REMARK 923 INTER-LIGAND FREE ENERGY PREDICTED BY IDOCK:   -5.40 KCAL/MOL
REMARK 924 INTRA-LIGAND FREE ENERGY PREDICTED BY IDOCK:   -0.15 KCAL/MOL
REMARK 927      BINDING AFFINITY PREDICTED BY RF-SCORE:    0.00 PKD
ROOT
HETATM    1  O   UNL     1     -13.841  15.593  70.543  1.00  0.00    -0.818 OA 
HETATM    2  H   UNL     1     -14.075  16.494  70.358  1.00  0.00     0.000 HD 
HETATM    3  C   UNL     1     -13.558  15.415  71.924  1.00  0.00    -0.491 C  
ENDROOT
BRANCH   3   4
HETATM    4  C   UNL     1     -13.181  13.962  72.223  1.00  0.00    -0.473 C  
HETATM    5  H   UNL     1     -14.123  12.327  72.770  1.00  0.00     0.000 HD 
HETATM    6  O   UNL     1     -14.357  13.229  72.584  1.00  0.00    -0.679 OA 
BRANCH   4   7
HETATM    7  C   UNL     1     -12.465  13.277  71.049  1.00  0.00    -0.336 C  
BRANCH   7   8
HETATM    8  O   UNL     1     -12.620  11.852  71.136  1.00  0.00    -0.372 OA 
BRANCH   8   9
HETATM    9  C   UNL     1     -11.965  11.119  70.179  1.00  0.00    -0.365 A  
HETATM   10  C   UNL     1     -11.908  11.428  68.816  1.00  0.00    -0.388 A  
HETATM   11  C   UNL     1     -11.207  10.607  67.930  1.00  0.00    -0.376 A  
HETATM   12  C   UNL     1     -10.556   9.473  68.403  1.00  0.00    -0.219 A  
HETATM   13  C   UNL     1     -10.602   9.151  69.757  1.00  0.00    -0.240 A  
HETATM   14 CL   UNL     1      -9.690   8.466  67.309  1.00  0.00    -0.219 Cl 
HETATM   15  C   UNL     1     -11.308   9.974  70.643  1.00  0.00    -0.425 A  
ENDBRANCH   8   9
ENDBRANCH   7   8
ENDBRANCH   4   7
ENDBRANCH   3   4
TORSDOF 4
ENDMDL
MODEL       38
REMARK 921   NORMALIZED FREE ENERGY PREDICTED BY IDOCK:   -4.34 KCAL/MOL
REMARK 922        TOTAL FREE ENERGY PREDICTED BY IDOCK:   -5.54 KCAL/MOL
REMARK 923 INTER-LIGAND FREE ENERGY PREDICTED BY IDOCK:   -5.33 KCAL/MOL
REMARK 924 INTRA-LIGAND FREE ENERGY PREDICTED BY IDOCK:   -0.21 KCAL/MOL
REMARK 927      BINDING AFFINITY PREDICTED BY RF-SCORE:    0.00 PKD
ROOT
HETATM    1  O   UNL     1     -12.642  11.270  62.895  1.00  0.00    -0.917 OA 
HETATM    2  H   UNL     1     -12.480  10.445  62.452  1.00  0.00     0.000 HD 
HETATM    3  C   UNL     1     -11.427  11.853  63.345  1.00  0.00    -0.376 C  
ENDROOT
BRANCH   3   4
HETATM    4  C   UNL     1     -11.689  13.182  64.058  1.00  0.00    -0.439 C  
HETATM    5  H   UNL     1     -12.936  14.686  63.858  1.00  0.00     0.000 HD 
HETATM    6  O   UNL     1     -12.774  13.862  63.416  1.00  0.00    -0.806 OA 
BRANCH   4   7
HETATM    7  C   UNL     1     -11.980  13.008  65.556  1.00  0.00    -0.424 C  
BRANCH   7   8
HETATM    8  O   UNL     1     -11.987  14.286  66.212  1.00  0.00    -0.396 OA 
BRANCH   8   9
HETATM    9  C   UNL     1     -10.764  14.884  66.373  1.00  0.00    -0.316 A  
HETATM   10  C   UNL     1     -10.435  16.185  65.977  1.00  0.00    -0.349 A  
HETATM   11  C   UNL     1      -9.151  16.691  66.194  1.00  0.00    -0.318 A  
HETATM   12  C   UNL     1      -8.189  15.899  66.811  1.00  0.00    -0.272 A  
HETATM   13  C   UNL     1      -8.499  14.602  67.211  1.00  0.00    -0.234 A  
HETATM   14 CL   UNL     1      -6.611  16.528  67.079  1.00  0.00    -0.225 Cl 
HETATM   15  C   UNL     1      -9.786  14.096  66.990  1.00  0.00    -0.258 A  
ENDBRANCH   8   9
ENDBRANCH   7   8
ENDBRANCH   4   7
ENDBRANCH   3   4
TORSDOF 4
ENDMDL
MODEL       39
REMARK 921   NORMALIZED FREE ENERGY PREDICTED BY IDOCK:   -4.33 KCAL/MOL
REMARK 922        TOTAL FREE ENERGY PREDICTED BY IDOCK:   -5.53 KCAL/MOL
REMARK 923 INTER-LIGAND FREE ENERGY PREDICTED BY IDOCK:   -5.36 KCAL/MOL
REMARK 924 INTRA-LIGAND FREE ENERGY PREDICTED BY IDOCK:   -0.17 KCAL/MOL
REMARK 927      BINDING AFFINITY PREDICTED BY RF-SCORE:    0.00 PKD
ROOT
HETATM    1  O   UNL     1     -10.366  17.798  65.503  1.00  0.00    -0.623 OA 
HETATM    2  H   UNL     1      -9.767  18.281  66.059  1.00  0.00     0.000 HD 
HETATM    3  C   UNL     1     -10.388  16.422  65.854  1.00  0.00    -0.362 C  
ENDROOT
BRANCH   3   4
HETATM    4  C   UNL     1     -11.354  15.643  64.957  1.00  0.00    -0.253 C  
HETATM    5  H   UNL     1     -12.153  15.878  63.178  1.00  0.00     0.000 HD 
HETATM    6  O   UNL     1     -11.553  16.361  63.735  1.00  0.00    -1.055 OA 
BRANCH   4   7
HETATM    7  C   UNL     1     -10.876  14.213  64.665  1.00  0.00    -0.386 C  
BRANCH   7   8
HETATM    8  O   UNL     1     -11.867  13.262  65.085  1.00  0.00    -0.320 OA 
BRANCH   8   9
HETATM    9  C   UNL     1     -11.648  12.668  66.302  1.00  0.00    -0.386 A  
HETATM   10  C   UNL     1     -11.911  13.247  67.548  1.00  0.00    -0.403 A  
HETATM   11  C   UNL     1     -11.649  12.545  68.727  1.00  0.00    -0.366 A  
HETATM   12  C   UNL     1     -11.126  11.258  68.667  1.00  0.00    -0.232 A  
HETATM   13  C   UNL     1     -10.859  10.667  67.434  1.00  0.00    -0.353 A  
HETATM   14 CL   UNL     1     -10.809  10.396  70.121  1.00  0.00    -0.343 Cl 
HETATM   15  C   UNL     1     -11.120  11.374  66.254  1.00  0.00    -0.281 A  
ENDBRANCH   8   9
ENDBRANCH   7   8
ENDBRANCH   4   7
ENDBRANCH   3   4
TORSDOF 4
ENDMDL
MODEL       40
REMARK 921   NORMALIZED FREE ENERGY PREDICTED BY IDOCK:   -4.32 KCAL/MOL
REMARK 922        TOTAL FREE ENERGY PREDICTED BY IDOCK:   -5.52 KCAL/MOL
REMARK 923 INTER-LIGAND FREE ENERGY PREDICTED BY IDOCK:   -5.16 KCAL/MOL
REMARK 924 INTRA-LIGAND FREE ENERGY PREDICTED BY IDOCK:   -0.36 KCAL/MOL
REMARK 927      BINDING AFFINITY PREDICTED BY RF-SCORE:    0.00 PKD
ROOT
HETATM    1  O   UNL     1     -11.409   8.752  69.756  1.00  0.00    -0.443 OA 
HETATM    2  H   UNL     1     -10.869   7.983  69.892  1.00  0.00     0.000 HD 
HETATM    3  C   UNL     1     -11.882   9.266  70.993  1.00  0.00    -0.307 C  
ENDROOT
BRANCH   3   4
HETATM    4  C   UNL     1     -12.752  10.506  70.773  1.00  0.00    -0.381 C  
HETATM    5  H   UNL     1     -13.732  11.780  71.902  1.00  0.00     0.000 HD 
HETATM    6  O   UNL     1     -13.192  11.011  72.038  1.00  0.00    -0.499 OA 
BRANCH   4   7
HETATM    7  C   UNL     1     -12.034  11.607  69.979  1.00  0.00    -0.351 C  
BRANCH   7   8
HETATM    8  O   UNL     1     -12.151  11.361  68.569  1.00  0.00    -0.550 OA 
BRANCH   8   9
HETATM    9  C   UNL     1     -11.898  12.433  67.751  1.00  0.00    -0.298 A  
HETATM   10  C   UNL     1     -11.898  13.775  68.146  1.00  0.00    -0.411 A  
HETATM   11  C   UNL     1     -11.624  14.787  67.223  1.00  0.00    -0.385 A  
HETATM   12  C   UNL     1     -11.346  14.462  65.900  1.00  0.00    -0.332 A  
HETATM   13  C   UNL     1     -11.342  13.131  65.490  1.00  0.00    -0.325 A  
HETATM   14 CL   UNL     1     -11.005  15.712  64.768  1.00  0.00    -0.450 Cl 
HETATM   15  C   UNL     1     -11.620  12.119  66.417  1.00  0.00    -0.429 A  
ENDBRANCH   8   9
ENDBRANCH   7   8
ENDBRANCH   4   7
ENDBRANCH   3   4
TORSDOF 4
ENDMDL
MODEL       41
REMARK 921   NORMALIZED FREE ENERGY PREDICTED BY IDOCK:   -4.31 KCAL/MOL
REMARK 922        TOTAL FREE ENERGY PREDICTED BY IDOCK:   -5.51 KCAL/MOL
REMARK 923 INTER-LIGAND FREE ENERGY PREDICTED BY IDOCK:   -5.34 KCAL/MOL
REMARK 924 INTRA-LIGAND FREE ENERGY PREDICTED BY IDOCK:   -0.17 KCAL/MOL
REMARK 927      BINDING AFFINITY PREDICTED BY RF-SCORE:    0.00 PKD
ROOT
HETATM    1  O   UNL     1      -9.191  20.137  67.240  1.00  0.00    -0.346 OA 
HETATM    2  H   UNL     1      -8.932  20.947  67.662  1.00  0.00     0.000 HD 
HETATM    3  C   UNL     1     -10.292  19.543  67.912  1.00  0.00    -0.444 C  
ENDROOT
BRANCH   3   4
HETATM    4  C   UNL     1     -10.709  18.237  67.231  1.00  0.00    -0.337 C  
HETATM    5  H   UNL     1     -10.422  17.383  65.486  1.00  0.00     0.000 HD 
HETATM    6  O   UNL     1     -10.163  18.193  65.909  1.00  0.00    -0.548 OA 
BRANCH   4   7
HETATM    7  C   UNL     1     -10.289  16.990  68.023  1.00  0.00    -0.341 C  
BRANCH   7   8
HETATM    8  O   UNL     1     -10.657  17.130  69.405  1.00  0.00    -0.321 OA 
BRANCH   8   9
HETATM    9  C   UNL     1     -11.291  16.052  69.968  1.00  0.00    -0.352 A  
HETATM   10  C   UNL     1     -11.665  14.885  69.293  1.00  0.00    -0.344 A  
HETATM   11  C   UNL     1     -12.307  13.846  69.972  1.00  0.00    -0.378 A  
HETATM   12  C   UNL     1     -12.576  13.968  71.331  1.00  0.00    -0.372 A  
HETATM   13  C   UNL     1     -12.211  15.124  72.017  1.00  0.00    -0.438 A  
HETATM   14 CL   UNL     1     -13.363  12.686  72.163  1.00  0.00    -0.623 Cl 
HETATM   15  C   UNL     1     -11.570  16.164  71.334  1.00  0.00    -0.495 A  
ENDBRANCH   8   9
ENDBRANCH   7   8
ENDBRANCH   4   7
ENDBRANCH   3   4
TORSDOF 4
ENDMDL
MODEL       42
REMARK 921   NORMALIZED FREE ENERGY PREDICTED BY IDOCK:   -4.31 KCAL/MOL
REMARK 922        TOTAL FREE ENERGY PREDICTED BY IDOCK:   -5.50 KCAL/MOL
REMARK 923 INTER-LIGAND FREE ENERGY PREDICTED BY IDOCK:   -5.31 KCAL/MOL
REMARK 924 INTRA-LIGAND FREE ENERGY PREDICTED BY IDOCK:   -0.20 KCAL/MOL
REMARK 927      BINDING AFFINITY PREDICTED BY RF-SCORE:    0.00 PKD
ROOT
HETATM    1  O   UNL     1     -11.022  19.696  65.278  1.00  0.00    -0.422 OA 
HETATM    2  H   UNL     1     -11.213  20.618  65.403  1.00  0.00     0.000 HD 
HETATM    3  C   UNL     1     -10.571  19.103  66.487  1.00  0.00    -0.435 C  
ENDROOT
BRANCH   3   4
HETATM    4  C   UNL     1     -10.262  17.617  66.285  1.00  0.00    -0.362 C  
HETATM    5  H   UNL     1      -8.693  16.538  65.807  1.00  0.00     0.000 HD 
HETATM    6  O   UNL     1      -8.884  17.459  65.932  1.00  0.00    -0.526 OA 
BRANCH   4   7
HETATM    7  C   UNL     1     -10.598  16.765  67.518  1.00  0.00    -0.309 C  
BRANCH   7   8
HETATM    8  O   UNL     1     -10.071  15.437  67.364  1.00  0.00    -0.230 OA 
BRANCH   8   9
HETATM    9  C   UNL     1     -10.746  14.623  66.491  1.00  0.00    -0.312 A  
HETATM   10  C   UNL     1     -12.103  14.292  66.571  1.00  0.00    -0.454 A  
HETATM   11  C   UNL     1     -12.687  13.451  65.621  1.00  0.00    -0.432 A  
HETATM   12  C   UNL     1     -11.917  12.939  64.582  1.00  0.00    -0.392 A  
HETATM   13  C   UNL     1     -10.565  13.259  64.487  1.00  0.00    -0.437 A  
HETATM   14 CL   UNL     1     -12.641  11.907  63.412  1.00  0.00    -0.674 Cl 
HETATM   15  C   UNL     1      -9.981  14.100  65.443  1.00  0.00    -0.321 A  
ENDBRANCH   8   9
ENDBRANCH   7   8
ENDBRANCH   4   7
ENDBRANCH   3   4
TORSDOF 4
ENDMDL
MODEL       43
REMARK 921   NORMALIZED FREE ENERGY PREDICTED BY IDOCK:   -4.30 KCAL/MOL
REMARK 922        TOTAL FREE ENERGY PREDICTED BY IDOCK:   -5.49 KCAL/MOL
REMARK 923 INTER-LIGAND FREE ENERGY PREDICTED BY IDOCK:   -5.02 KCAL/MOL
REMARK 924 INTRA-LIGAND FREE ENERGY PREDICTED BY IDOCK:   -0.47 KCAL/MOL
REMARK 927      BINDING AFFINITY PREDICTED BY RF-SCORE:    0.00 PKD
ROOT
HETATM    1  O   UNL     1     -11.286  11.959  63.067  1.00  0.00    -0.665 OA 
HETATM    2  H   UNL     1     -11.545  11.236  62.509  1.00  0.00     0.000 HD 
HETATM    3  C   UNL     1     -12.385  12.823  63.323  1.00  0.00    -0.341 C  
ENDROOT
BRANCH   3   4
HETATM    4  C   UNL     1     -11.966  13.989  64.221  1.00  0.00    -0.435 C  
HETATM    5  H   UNL     1     -12.414  15.894  64.388  1.00  0.00     0.000 HD 
HETATM    6  O   UNL     1     -12.674  15.170  63.831  1.00  0.00    -0.759 OA 
BRANCH   4   7
HETATM    7  C   UNL     1     -12.188  13.703  65.713  1.00  0.00    -0.464 C  
BRANCH   7   8
HETATM    8  O   UNL     1     -12.339  12.291  65.932  1.00  0.00    -0.618 OA 
BRANCH   8   9
HETATM    9  C   UNL     1     -11.412  11.711  66.760  1.00  0.00    -0.225 A  
HETATM   10  C   UNL     1     -10.291  10.985  66.344  1.00  0.00    -0.302 A  
HETATM   11  C   UNL     1      -9.410  10.439  67.280  1.00  0.00    -0.164 A  
HETATM   12  C   UNL     1      -9.645  10.617  68.639  1.00  0.00    -0.179 A  
HETATM   13  C   UNL     1     -10.756  11.337  69.070  1.00  0.00    -0.257 A  
HETATM   14 CL   UNL     1      -8.555   9.945  69.788  1.00  0.00    -0.211 Cl 
HETATM   15  C   UNL     1     -11.639  11.882  68.130  1.00  0.00    -0.400 A  
ENDBRANCH   8   9
ENDBRANCH   7   8
ENDBRANCH   4   7
ENDBRANCH   3   4
TORSDOF 4
ENDMDL
MODEL       44
REMARK 921   NORMALIZED FREE ENERGY PREDICTED BY IDOCK:   -4.28 KCAL/MOL
REMARK 922        TOTAL FREE ENERGY PREDICTED BY IDOCK:   -5.47 KCAL/MOL
REMARK 923 INTER-LIGAND FREE ENERGY PREDICTED BY IDOCK:   -5.37 KCAL/MOL
REMARK 924 INTRA-LIGAND FREE ENERGY PREDICTED BY IDOCK:   -0.10 KCAL/MOL
REMARK 927      BINDING AFFINITY PREDICTED BY RF-SCORE:    0.00 PKD
ROOT
HETATM    1  O   UNL     1     -10.224  19.622  69.337  1.00  0.00    -0.636 OA 
HETATM    2  H   UNL     1      -9.701  20.277  69.782  1.00  0.00     0.000 HD 
HETATM    3  C   UNL     1      -9.888  19.555  67.958  1.00  0.00    -0.398 C  
ENDROOT
BRANCH   3   4
HETATM    4  C   UNL     1     -10.732  18.500  67.240  1.00  0.00    -0.374 C  
HETATM    5  H   UNL     1     -10.799  17.705  65.444  1.00  0.00     0.000 HD 
HETATM    6  O   UNL     1     -10.275  18.360  65.890  1.00  0.00    -0.544 OA 
BRANCH   4   7
HETATM    7  C   UNL     1     -10.718  17.139  67.951  1.00  0.00    -0.355 C  
BRANCH   7   8
HETATM    8  O   UNL     1      -9.918  16.200  67.213  1.00  0.00    -0.239 OA 
BRANCH   8   9
HETATM    9  C   UNL     1     -10.609  15.232  66.530  1.00  0.00    -0.304 A  
HETATM   10  C   UNL     1     -11.766  14.587  66.981  1.00  0.00    -0.412 A  
HETATM   11  C   UNL     1     -12.388  13.613  66.196  1.00  0.00    -0.476 A  
HETATM   12  C   UNL     1     -11.860  13.282  64.954  1.00  0.00    -0.362 A  
HETATM   13  C   UNL     1     -10.710  13.915  64.489  1.00  0.00    -0.382 A  
HETATM   14 CL   UNL     1     -12.632  12.085  63.989  1.00  0.00    -0.511 Cl 
HETATM   15  C   UNL     1     -10.086  14.889  65.279  1.00  0.00    -0.380 A  
ENDBRANCH   8   9
ENDBRANCH   7   8
ENDBRANCH   4   7
ENDBRANCH   3   4
TORSDOF 4
ENDMDL
MODEL       45
REMARK 921   NORMALIZED FREE ENERGY PREDICTED BY IDOCK:   -4.26 KCAL/MOL
REMARK 922        TOTAL FREE ENERGY PREDICTED BY IDOCK:   -5.45 KCAL/MOL
REMARK 923 INTER-LIGAND FREE ENERGY PREDICTED BY IDOCK:   -5.24 KCAL/MOL
REMARK 924 INTRA-LIGAND FREE ENERGY PREDICTED BY IDOCK:   -0.21 KCAL/MOL
REMARK 927      BINDING AFFINITY PREDICTED BY RF-SCORE:    0.00 PKD
ROOT
HETATM    1  O   UNL     1      -9.708  20.413  66.208  1.00  0.00    -0.619 OA 
HETATM    2  H   UNL     1     -10.139  20.768  65.440  1.00  0.00     0.000 HD 
HETATM    3  C   UNL     1     -10.619  19.672  67.006  1.00  0.00    -0.480 C  
ENDROOT
BRANCH   3   4
HETATM    4  C   UNL     1      -9.923  19.098  68.243  1.00  0.00    -0.403 C  
HETATM    5  H   UNL     1      -9.848  19.516  70.161  1.00  0.00     0.000 HD 
HETATM    6  O   UNL     1     -10.280  19.872  69.394  1.00  0.00    -0.334 OA 
BRANCH   4   7
HETATM    7  C   UNL     1     -10.246  17.615  68.476  1.00  0.00    -0.386 C  
BRANCH   7   8
HETATM    8  O   UNL     1      -9.482  16.793  67.579  1.00  0.00    -0.233 OA 
BRANCH   8   9
HETATM    9  C   UNL     1     -10.190  15.842  66.889  1.00  0.00    -0.280 A  
HETATM   10  C   UNL     1     -10.026  15.529  65.536  1.00  0.00    -0.377 A  
HETATM   11  C   UNL     1     -10.805  14.536  64.937  1.00  0.00    -0.436 A  
HETATM   12  C   UNL     1     -11.751  13.849  65.689  1.00  0.00    -0.354 A  
HETATM   13  C   UNL     1     -11.927  14.147  67.037  1.00  0.00    -0.471 A  
HETATM   14 CL   UNL     1     -12.705  12.624  64.947  1.00  0.00    -0.549 Cl 
HETATM   15  C   UNL     1     -11.146  15.145  67.635  1.00  0.00    -0.318 A  
ENDBRANCH   8   9
ENDBRANCH   7   8
ENDBRANCH   4   7
ENDBRANCH   3   4
TORSDOF 4
ENDMDL
MODEL       46
REMARK 921   NORMALIZED FREE ENERGY PREDICTED BY IDOCK:   -4.23 KCAL/MOL
REMARK 922        TOTAL FREE ENERGY PREDICTED BY IDOCK:   -5.40 KCAL/MOL
REMARK 923 INTER-LIGAND FREE ENERGY PREDICTED BY IDOCK:   -5.22 KCAL/MOL
REMARK 924 INTRA-LIGAND FREE ENERGY PREDICTED BY IDOCK:   -0.19 KCAL/MOL
REMARK 927      BINDING AFFINITY PREDICTED BY RF-SCORE:    0.00 PKD
ROOT
HETATM    1  O   UNL     1      -9.904  20.831  66.943  1.00  0.00    -0.618 OA 
HETATM    2  H   UNL     1      -9.425  21.630  66.759  1.00  0.00     0.000 HD 
HETATM    3  C   UNL     1      -9.850  19.940  65.838  1.00  0.00    -0.352 C  
ENDROOT
BRANCH   3   4
HETATM    4  C   UNL     1     -10.621  18.651  66.136  1.00  0.00    -0.363 C  
HETATM    5  H   UNL     1     -11.457  17.214  65.090  1.00  0.00     0.000 HD 
HETATM    6  O   UNL     1     -10.978  18.013  64.905  1.00  0.00    -0.776 OA 
BRANCH   4   7
HETATM    7  C   UNL     1      -9.838  17.681  67.032  1.00  0.00    -0.307 C  
BRANCH   7   8
HETATM    8  O   UNL     1     -10.321  16.339  66.854  1.00  0.00    -0.290 OA 
BRANCH   8   9
HETATM    9  C   UNL     1     -10.903  15.761  67.953  1.00  0.00    -0.314 A  
HETATM   10  C   UNL     1     -11.065  16.370  69.202  1.00  0.00    -0.303 A  
HETATM   11  C   UNL     1     -11.677  15.683  70.253  1.00  0.00    -0.375 A  
HETATM   12  C   UNL     1     -12.133  14.384  70.060  1.00  0.00    -0.343 A  
HETATM   13  C   UNL     1     -11.980  13.763  68.823  1.00  0.00    -0.400 A  
HETATM   14 CL   UNL     1     -12.889  13.543  71.356  1.00  0.00    -0.445 Cl 
HETATM   15  C   UNL     1     -11.364  14.453  67.771  1.00  0.00    -0.331 A  
ENDBRANCH   8   9
ENDBRANCH   7   8
ENDBRANCH   4   7
ENDBRANCH   3   4
TORSDOF 4
ENDMDL
MODEL       47
REMARK 921   NORMALIZED FREE ENERGY PREDICTED BY IDOCK:   -4.22 KCAL/MOL
REMARK 922        TOTAL FREE ENERGY PREDICTED BY IDOCK:   -5.39 KCAL/MOL
REMARK 923 INTER-LIGAND FREE ENERGY PREDICTED BY IDOCK:   -5.25 KCAL/MOL
REMARK 924 INTRA-LIGAND FREE ENERGY PREDICTED BY IDOCK:   -0.15 KCAL/MOL
REMARK 927      BINDING AFFINITY PREDICTED BY RF-SCORE:    0.00 PKD
ROOT
HETATM    1  O   UNL     1     -13.120  11.983  63.675  1.00  0.00    -0.756 OA 
HETATM    2  H   UNL     1     -13.020  11.143  63.243  1.00  0.00     0.000 HD 
HETATM    3  C   UNL     1     -11.877  12.667  63.749  1.00  0.00    -0.498 C  
ENDROOT
BRANCH   3   4
HETATM    4  C   UNL     1     -12.039  14.020  64.446  1.00  0.00    -0.458 C  
HETATM    5  H   UNL     1     -13.350  14.862  65.643  1.00  0.00     0.000 HD 
HETATM    6  O   UNL     1     -13.249  14.022  65.211  1.00  0.00    -0.782 OA 
BRANCH   4   7
HETATM    7  C   UNL     1     -10.843  14.378  65.340  1.00  0.00    -0.344 C  
BRANCH   7   8
HETATM    8  O   UNL     1     -10.210  15.578  64.868  1.00  0.00    -0.374 OA 
BRANCH   8   9
HETATM    9  C   UNL     1      -9.714  16.414  65.835  1.00  0.00    -0.294 A  
HETATM   10  C   UNL     1      -8.371  16.510  66.217  1.00  0.00    -0.364 A  
HETATM   11  C   UNL     1      -7.979  17.402  67.218  1.00  0.00    -0.218 A  
HETATM   12  C   UNL     1      -8.927  18.205  67.841  1.00  0.00    -0.269 A  
HETATM   13  C   UNL     1     -10.268  18.123  67.473  1.00  0.00    -0.382 A  
HETATM   14 CL   UNL     1      -8.439  19.305  69.071  1.00  0.00    -0.328 Cl 
HETATM   15  C   UNL     1     -10.659  17.226  66.471  1.00  0.00    -0.178 A  
ENDBRANCH   8   9
ENDBRANCH   7   8
ENDBRANCH   4   7
ENDBRANCH   3   4
TORSDOF 4
ENDMDL
MODEL       48
REMARK 921   NORMALIZED FREE ENERGY PREDICTED BY IDOCK:   -4.19 KCAL/MOL
REMARK 922        TOTAL FREE ENERGY PREDICTED BY IDOCK:   -5.36 KCAL/MOL
REMARK 923 INTER-LIGAND FREE ENERGY PREDICTED BY IDOCK:   -5.22 KCAL/MOL
REMARK 924 INTRA-LIGAND FREE ENERGY PREDICTED BY IDOCK:   -0.15 KCAL/MOL
REMARK 927      BINDING AFFINITY PREDICTED BY RF-SCORE:    0.00 PKD
ROOT
HETATM    1  O   UNL     1     -12.728  11.384  62.889  1.00  0.00    -0.951 OA 
HETATM    2  H   UNL     1     -12.529  10.575  62.432  1.00  0.00     0.000 HD 
HETATM    3  C   UNL     1     -11.538  12.085  63.223  1.00  0.00    -0.319 C  
ENDROOT
BRANCH   3   4
HETATM    4  C   UNL     1     -11.859  13.388  63.959  1.00  0.00    -0.445 C  
HETATM    5  H   UNL     1     -12.964  14.978  63.629  1.00  0.00     0.000 HD 
HETATM    6  O   UNL     1     -12.765  14.170  63.173  1.00  0.00    -0.627 OA 
BRANCH   4   7
HETATM    7  C   UNL     1     -12.437  13.154  65.362  1.00  0.00    -0.481 C  
BRANCH   7   8
HETATM    8  O   UNL     1     -12.218  14.309  66.189  1.00  0.00    -0.431 OA 
BRANCH   8   9
HETATM    9  C   UNL     1     -10.908  14.662  66.391  1.00  0.00    -0.315 A  
HETATM   10  C   UNL     1      -9.920  13.840  66.944  1.00  0.00    -0.264 A  
HETATM   11  C   UNL     1      -8.613  14.308  67.101  1.00  0.00    -0.234 A  
HETATM   12  C   UNL     1      -8.286  15.599  66.702  1.00  0.00    -0.275 A  
HETATM   13  C   UNL     1      -9.257  16.430  66.149  1.00  0.00    -0.365 A  
HETATM   14 CL   UNL     1      -6.675  16.169  66.894  1.00  0.00    -0.180 Cl 
HETATM   15  C   UNL     1     -10.568  15.960  65.995  1.00  0.00    -0.331 A  
ENDBRANCH   8   9
ENDBRANCH   7   8
ENDBRANCH   4   7
ENDBRANCH   3   4
TORSDOF 4
ENDMDL
MODEL       49
REMARK 921   NORMALIZED FREE ENERGY PREDICTED BY IDOCK:   -4.18 KCAL/MOL
REMARK 922        TOTAL FREE ENERGY PREDICTED BY IDOCK:   -5.35 KCAL/MOL
REMARK 923 INTER-LIGAND FREE ENERGY PREDICTED BY IDOCK:   -5.13 KCAL/MOL
REMARK 924 INTRA-LIGAND FREE ENERGY PREDICTED BY IDOCK:   -0.22 KCAL/MOL
REMARK 927      BINDING AFFINITY PREDICTED BY RF-SCORE:    0.00 PKD
ROOT
HETATM    1  O   UNL     1     -14.106  15.633  71.397  1.00  0.00    -0.541 OA 
HETATM    2  H   UNL     1     -14.643  16.104  72.022  1.00  0.00     0.000 HD 
HETATM    3  C   UNL     1     -12.738  15.664  71.777  1.00  0.00    -0.451 C  
ENDROOT
BRANCH   3   4
HETATM    4  C   UNL     1     -11.872  14.905  70.768  1.00  0.00    -0.312 C  
HETATM    5  H   UNL     1     -11.774  13.073  70.066  1.00  0.00     0.000 HD 
HETATM    6  O   UNL     1     -12.311  13.544  70.692  1.00  0.00    -0.345 OA 
BRANCH   4   7
HETATM    7  C   UNL     1     -11.880  15.546  69.373  1.00  0.00    -0.374 C  
BRANCH   7   8
HETATM    8  O   UNL     1     -10.789  15.041  68.587  1.00  0.00    -0.235 OA 
BRANCH   8   9
HETATM    9  C   UNL     1     -11.126  14.501  67.372  1.00  0.00    -0.314 A  
HETATM   10  C   UNL     1     -11.820  13.302  67.180  1.00  0.00    -0.424 A  
HETATM   11  C   UNL     1     -12.111  12.848  65.891  1.00  0.00    -0.503 A  
HETATM   12  C   UNL     1     -11.711  13.593  64.787  1.00  0.00    -0.377 A  
HETATM   13  C   UNL     1     -11.019  14.789  64.961  1.00  0.00    -0.426 A  
HETATM   14 CL   UNL     1     -12.075  13.032  63.202  1.00  0.00    -0.518 Cl 
HETATM   15  C   UNL     1     -10.727  15.240  66.254  1.00  0.00    -0.315 A  
ENDBRANCH   8   9
ENDBRANCH   7   8
ENDBRANCH   4   7
ENDBRANCH   3   4
TORSDOF 4
ENDMDL
MODEL       50
REMARK 921   NORMALIZED FREE ENERGY PREDICTED BY IDOCK:   -4.16 KCAL/MOL
REMARK 922        TOTAL FREE ENERGY PREDICTED BY IDOCK:   -5.32 KCAL/MOL
REMARK 923 INTER-LIGAND FREE ENERGY PREDICTED BY IDOCK:   -4.95 KCAL/MOL
REMARK 924 INTRA-LIGAND FREE ENERGY PREDICTED BY IDOCK:   -0.36 KCAL/MOL
REMARK 927      BINDING AFFINITY PREDICTED BY RF-SCORE:    0.00 PKD
ROOT
HETATM    1  O   UNL     1     -13.438   7.372  70.833  1.00  0.00    -0.613 OA 
HETATM    2  H   UNL     1     -13.715   6.668  70.259  1.00  0.00     0.000 HD 
HETATM    3  C   UNL     1     -12.229   7.039  71.500  1.00  0.00    -0.368 C  
ENDROOT
BRANCH   3   4
HETATM    4  C   UNL     1     -11.783   8.174  72.425  1.00  0.00    -0.399 C  
HETATM    5  H   UNL     1     -10.453   8.415  73.850  1.00  0.00     0.000 HD 
HETATM    6  O   UNL     1     -10.730   7.710  73.277  1.00  0.00    -0.386 OA 
BRANCH   4   7
HETATM    7  C   UNL     1     -11.336   9.427  71.658  1.00  0.00    -0.382 C  
BRANCH   7   8
HETATM    8  O   UNL     1     -12.471  10.251  71.346  1.00  0.00    -0.359 OA 
BRANCH   8   9
HETATM    9  C   UNL     1     -12.280  11.186  70.361  1.00  0.00    -0.369 A  
HETATM   10  C   UNL     1     -11.870  10.916  69.051  1.00  0.00    -0.370 A  
HETATM   11  C   UNL     1     -11.709  11.953  68.129  1.00  0.00    -0.388 A  
HETATM   12  C   UNL     1     -11.959  13.266  68.511  1.00  0.00    -0.304 A  
HETATM   13  C   UNL     1     -12.368  13.552  69.811  1.00  0.00    -0.249 A  
HETATM   14 CL   UNL     1     -11.763  14.539  67.371  1.00  0.00    -0.410 Cl 
HETATM   15  C   UNL     1     -12.526  12.512  70.735  1.00  0.00    -0.357 A  
ENDBRANCH   8   9
ENDBRANCH   7   8
ENDBRANCH   4   7
ENDBRANCH   3   4
TORSDOF 4
ENDMDL
MODEL       51
REMARK 921   NORMALIZED FREE ENERGY PREDICTED BY IDOCK:   -4.15 KCAL/MOL
REMARK 922        TOTAL FREE ENERGY PREDICTED BY IDOCK:   -5.32 KCAL/MOL
REMARK 923 INTER-LIGAND FREE ENERGY PREDICTED BY IDOCK:   -5.07 KCAL/MOL
REMARK 924 INTRA-LIGAND FREE ENERGY PREDICTED BY IDOCK:   -0.25 KCAL/MOL
REMARK 927      BINDING AFFINITY PREDICTED BY RF-SCORE:    0.00 PKD
ROOT
HETATM    1  O   UNL     1     -12.392  10.646  68.737  1.00  0.00    -0.814 OA 
HETATM    2  H   UNL     1     -12.798  10.545  69.589  1.00  0.00     0.000 HD 
HETATM    3  C   UNL     1     -11.999  11.993  68.517  1.00  0.00    -0.214 C  
ENDROOT
BRANCH   3   4
HETATM    4  C   UNL     1     -11.343  12.155  67.143  1.00  0.00    -0.331 C  
HETATM    5  H   UNL     1     -11.941  12.558  65.316  1.00  0.00     0.000 HD 
HETATM    6  O   UNL     1     -12.347  12.458  66.168  1.00  0.00    -0.606 OA 
BRANCH   4   7
HETATM    7  C   UNL     1     -10.245  13.228  67.129  1.00  0.00    -0.246 C  
BRANCH   7   8
HETATM    8  O   UNL     1     -10.504  14.191  66.094  1.00  0.00    -0.284 OA 
BRANCH   8   9
HETATM    9  C   UNL     1     -10.494  15.506  66.484  1.00  0.00    -0.300 A  
HETATM   10  C   UNL     1     -10.394  16.608  65.628  1.00  0.00    -0.310 A  
HETATM   11  C   UNL     1     -10.396  17.908  66.139  1.00  0.00    -0.352 A  
HETATM   12  C   UNL     1     -10.502  18.114  67.510  1.00  0.00    -0.410 A  
HETATM   13  C   UNL     1     -10.603  17.028  68.376  1.00  0.00    -0.375 A  
HETATM   14 CL   UNL     1     -10.507  19.716  68.134  1.00  0.00    -0.544 Cl 
HETATM   15  C   UNL     1     -10.598  15.726  67.862  1.00  0.00    -0.282 A  
ENDBRANCH   8   9
ENDBRANCH   7   8
ENDBRANCH   4   7
ENDBRANCH   3   4
TORSDOF 4
ENDMDL
MODEL       52
REMARK 921   NORMALIZED FREE ENERGY PREDICTED BY IDOCK:   -4.15 KCAL/MOL
REMARK 922        TOTAL FREE ENERGY PREDICTED BY IDOCK:   -5.31 KCAL/MOL
REMARK 923 INTER-LIGAND FREE ENERGY PREDICTED BY IDOCK:   -5.12 KCAL/MOL
REMARK 924 INTRA-LIGAND FREE ENERGY PREDICTED BY IDOCK:   -0.19 KCAL/MOL
REMARK 927      BINDING AFFINITY PREDICTED BY RF-SCORE:    0.00 PKD
ROOT
HETATM    1  O   UNL     1      -8.314  17.198  65.714  1.00  0.00    -0.519 OA 
HETATM    2  H   UNL     1      -7.377  17.145  65.859  1.00  0.00     0.000 HD 
HETATM    3  C   UNL     1      -8.990  16.130  66.362  1.00  0.00    -0.318 C  
ENDROOT
BRANCH   3   4
HETATM    4  C   UNL     1     -10.501  16.216  66.128  1.00  0.00    -0.325 C  
HETATM    5  H   UNL     1     -11.689  16.848  64.697  1.00  0.00     0.000 HD 
HETATM    6  O   UNL     1     -10.752  16.795  64.843  1.00  0.00    -0.721 OA 
BRANCH   4   7
HETATM    7  C   UNL     1     -11.202  14.855  66.246  1.00  0.00    -0.331 C  
BRANCH   7   8
HETATM    8  O   UNL     1     -10.476  13.997  67.141  1.00  0.00    -0.267 OA 
BRANCH   8   9
HETATM    9  C   UNL     1     -11.121  13.662  68.304  1.00  0.00    -0.256 A  
HETATM   10  C   UNL     1     -11.696  14.566  69.205  1.00  0.00    -0.349 A  
HETATM   11  C   UNL     1     -12.332  14.109  70.361  1.00  0.00    -0.428 A  
HETATM   12  C   UNL     1     -12.399  12.745  70.623  1.00  0.00    -0.297 A  
HETATM   13  C   UNL     1     -11.832  11.832  69.737  1.00  0.00    -0.420 A  
HETATM   14 CL   UNL     1     -13.186  12.186  72.047  1.00  0.00    -0.576 Cl 
HETATM   15  C   UNL     1     -11.193  12.293  68.579  1.00  0.00    -0.316 A  
ENDBRANCH   8   9
ENDBRANCH   7   8
ENDBRANCH   4   7
ENDBRANCH   3   4
TORSDOF 4
ENDMDL
MODEL       53
REMARK 921   NORMALIZED FREE ENERGY PREDICTED BY IDOCK:   -4.15 KCAL/MOL
REMARK 922        TOTAL FREE ENERGY PREDICTED BY IDOCK:   -5.31 KCAL/MOL
REMARK 923 INTER-LIGAND FREE ENERGY PREDICTED BY IDOCK:   -5.11 KCAL/MOL
REMARK 924 INTRA-LIGAND FREE ENERGY PREDICTED BY IDOCK:   -0.20 KCAL/MOL
REMARK 927      BINDING AFFINITY PREDICTED BY RF-SCORE:    0.00 PKD
ROOT
HETATM    1  O   UNL     1     -13.840  15.585  70.682  1.00  0.00    -0.864 OA 
HETATM    2  H   UNL     1     -14.037  15.838  71.576  1.00  0.00     0.000 HD 
HETATM    3  C   UNL     1     -12.525  15.056  70.581  1.00  0.00    -0.365 C  
ENDROOT
BRANCH   3   4
HETATM    4  C   UNL     1     -12.208  14.649  69.140  1.00  0.00    -0.188 C  
HETATM    5  H   UNL     1     -11.478  15.521  67.539  1.00  0.00     0.000 HD 
HETATM    6  O   UNL     1     -11.674  15.774  68.433  1.00  0.00    -0.366 OA 
BRANCH   4   7
HETATM    7  C   UNL     1     -11.242  13.458  69.055  1.00  0.00    -0.275 C  
BRANCH   7   8
HETATM    8  O   UNL     1     -11.972  12.240  68.836  1.00  0.00    -0.308 OA 
BRANCH   8   9
HETATM    9  C   UNL     1     -11.709  11.219  69.712  1.00  0.00    -0.349 A  
HETATM   10  C   UNL     1     -10.537  10.455  69.743  1.00  0.00    -0.302 A  
HETATM   11  C   UNL     1     -10.378   9.436  70.685  1.00  0.00    -0.349 A  
HETATM   12  C   UNL     1     -11.388   9.177  71.604  1.00  0.00    -0.376 A  
HETATM   13  C   UNL     1     -12.561   9.927  71.586  1.00  0.00    -0.519 A  
HETATM   14 CL   UNL     1     -11.186   7.923  72.764  1.00  0.00    -0.457 Cl 
HETATM   15  C   UNL     1     -12.720  10.947  70.639  1.00  0.00    -0.396 A  
ENDBRANCH   8   9
ENDBRANCH   7   8
ENDBRANCH   4   7
ENDBRANCH   3   4
TORSDOF 4
ENDMDL
MODEL       54
REMARK 921   NORMALIZED FREE ENERGY PREDICTED BY IDOCK:   -4.15 KCAL/MOL
REMARK 922        TOTAL FREE ENERGY PREDICTED BY IDOCK:   -5.31 KCAL/MOL
REMARK 923 INTER-LIGAND FREE ENERGY PREDICTED BY IDOCK:   -4.81 KCAL/MOL
REMARK 924 INTRA-LIGAND FREE ENERGY PREDICTED BY IDOCK:   -0.50 KCAL/MOL
REMARK 927      BINDING AFFINITY PREDICTED BY RF-SCORE:    0.00 PKD
ROOT
HETATM    1  O   UNL     1      -8.753  15.129  69.838  1.00  0.00    -0.423 OA 
HETATM    2  H   UNL     1      -8.334  15.571  70.566  1.00  0.00     0.000 HD 
HETATM    3  C   UNL     1      -9.476  16.049  69.032  1.00  0.00    -0.243 C  
ENDROOT
BRANCH   3   4
HETATM    4  C   UNL     1     -10.151  15.336  67.858  1.00  0.00    -0.233 C  
HETATM    5  H   UNL     1      -9.742  13.812  66.689  1.00  0.00     0.000 HD 
HETATM    6  O   UNL     1      -9.323  14.254  67.417  1.00  0.00    -0.192 OA 
BRANCH   4   7
HETATM    7  C   UNL     1     -11.558  14.826  68.199  1.00  0.00    -0.332 C  
BRANCH   7   8
HETATM    8  O   UNL     1     -11.802  14.942  69.611  1.00  0.00    -0.285 OA 
BRANCH   8   9
HETATM    9  C   UNL     1     -12.163  13.786  70.254  1.00  0.00    -0.359 A  
HETATM   10  C   UNL     1     -12.907  13.711  71.436  1.00  0.00    -0.442 A  
HETATM   11  C   UNL     1     -13.218  12.473  72.002  1.00  0.00    -0.524 A  
HETATM   12  C   UNL     1     -12.790  11.302  71.387  1.00  0.00    -0.410 A  
HETATM   13  C   UNL     1     -12.049  11.358  70.209  1.00  0.00    -0.459 A  
HETATM   14 CL   UNL     1     -13.180   9.779  72.086  1.00  0.00    -0.538 Cl 
HETATM   15  C   UNL     1     -11.736  12.601  69.645  1.00  0.00    -0.373 A  
ENDBRANCH   8   9
ENDBRANCH   7   8
ENDBRANCH   4   7
ENDBRANCH   3   4
TORSDOF 4
ENDMDL
MODEL       55
REMARK 921   NORMALIZED FREE ENERGY PREDICTED BY IDOCK:   -4.15 KCAL/MOL
REMARK 922        TOTAL FREE ENERGY PREDICTED BY IDOCK:   -5.31 KCAL/MOL
REMARK 923 INTER-LIGAND FREE ENERGY PREDICTED BY IDOCK:   -4.81 KCAL/MOL
REMARK 924 INTRA-LIGAND FREE ENERGY PREDICTED BY IDOCK:   -0.49 KCAL/MOL
REMARK 927      BINDING AFFINITY PREDICTED BY RF-SCORE:    0.00 PKD
ROOT
HETATM    1  O   UNL     1     -10.735  13.806  69.557  1.00  0.00    -0.444 OA 
HETATM    2  H   UNL     1     -10.900  14.469  70.216  1.00  0.00     0.000 HD 
HETATM    3  C   UNL     1     -11.557  14.008  68.416  1.00  0.00    -0.331 C  
ENDROOT
BRANCH   3   4
HETATM    4  C   UNL     1     -11.290  12.939  67.354  1.00  0.00    -0.309 C  
HETATM    5  H   UNL     1      -9.813  12.460  66.151  1.00  0.00     0.000 HD 
HETATM    6  O   UNL     1      -9.979  13.123  66.810  1.00  0.00    -0.239 OA 
BRANCH   4   7
HETATM    7  C   UNL     1     -11.448  11.509  67.893  1.00  0.00    -0.301 C  
BRANCH   7   8
HETATM    8  O   UNL     1     -12.385  11.488  68.982  1.00  0.00    -0.360 OA 
BRANCH   8   9
HETATM    9  C   UNL     1     -12.106  10.606  69.994  1.00  0.00    -0.316 A  
HETATM   10  C   UNL     1     -13.016  10.162  70.959  1.00  0.00    -0.473 A  
HETATM   11  C   UNL     1     -12.620   9.257  71.947  1.00  0.00    -0.468 A  
HETATM   12  C   UNL     1     -11.311   8.789  71.973  1.00  0.00    -0.371 A  
HETATM   13  C   UNL     1     -10.392   9.220  71.020  1.00  0.00    -0.388 A  
HETATM   14 CL   UNL     1     -10.828   7.671  73.189  1.00  0.00    -0.453 Cl 
HETATM   15  C   UNL     1     -10.792  10.130  70.032  1.00  0.00    -0.361 A  
ENDBRANCH   8   9
ENDBRANCH   7   8
ENDBRANCH   4   7
ENDBRANCH   3   4
TORSDOF 4
ENDMDL
MODEL       56
REMARK 921   NORMALIZED FREE ENERGY PREDICTED BY IDOCK:   -4.14 KCAL/MOL
REMARK 922        TOTAL FREE ENERGY PREDICTED BY IDOCK:   -5.29 KCAL/MOL
REMARK 923 INTER-LIGAND FREE ENERGY PREDICTED BY IDOCK:   -4.89 KCAL/MOL
REMARK 924 INTRA-LIGAND FREE ENERGY PREDICTED BY IDOCK:   -0.40 KCAL/MOL
REMARK 927      BINDING AFFINITY PREDICTED BY RF-SCORE:    0.00 PKD
ROOT
HETATM    1  O   UNL     1      -9.873  14.731  66.760  1.00  0.00    -0.241 OA 
HETATM    2  H   UNL     1      -9.144  15.110  66.284  1.00  0.00     0.000 HD 
HETATM    3  C   UNL     1     -10.934  14.391  65.878  1.00  0.00    -0.312 C  
ENDROOT
BRANCH   3   4
HETATM    4  C   UNL     1     -12.108  13.779  66.646  1.00  0.00    -0.429 C  
HETATM    5  H   UNL     1     -12.973  12.020  66.767  1.00  0.00     0.000 HD 
HETATM    6  O   UNL     1     -12.244  12.399  66.291  1.00  0.00    -0.620 OA 
BRANCH   4   7
HETATM    7  C   UNL     1     -11.969  13.927  68.168  1.00  0.00    -0.350 C  
BRANCH   7   8
HETATM    8  O   UNL     1     -11.041  12.956  68.679  1.00  0.00    -0.244 OA 
BRANCH   8   9
HETATM    9  C   UNL     1     -11.546  12.071  69.597  1.00  0.00    -0.301 A  
HETATM   10  C   UNL     1     -12.465  12.381  70.606  1.00  0.00    -0.320 A  
HETATM   11  C   UNL     1     -12.913  11.394  71.487  1.00  0.00    -0.505 A  
HETATM   12  C   UNL     1     -12.447  10.090  71.363  1.00  0.00    -0.411 A  
HETATM   13  C   UNL     1     -11.532   9.764  70.364  1.00  0.00    -0.347 A  
HETATM   14 CL   UNL     1     -13.004   8.877  72.448  1.00  0.00    -0.476 Cl 
HETATM   15  C   UNL     1     -11.082  10.756  69.484  1.00  0.00    -0.334 A  
ENDBRANCH   8   9
ENDBRANCH   7   8
ENDBRANCH   4   7
ENDBRANCH   3   4
TORSDOF 4
ENDMDL
MODEL       57
REMARK 921   NORMALIZED FREE ENERGY PREDICTED BY IDOCK:   -4.14 KCAL/MOL
REMARK 922        TOTAL FREE ENERGY PREDICTED BY IDOCK:   -5.29 KCAL/MOL
REMARK 923 INTER-LIGAND FREE ENERGY PREDICTED BY IDOCK:   -5.11 KCAL/MOL
REMARK 924 INTRA-LIGAND FREE ENERGY PREDICTED BY IDOCK:   -0.18 KCAL/MOL
REMARK 927      BINDING AFFINITY PREDICTED BY RF-SCORE:    0.00 PKD
ROOT
HETATM    1  O   UNL     1     -13.094   7.782  71.128  1.00  0.00    -0.517 OA 
HETATM    2  H   UNL     1     -12.910   6.974  71.592  1.00  0.00     0.000 HD 
HETATM    3  C   UNL     1     -12.661   8.909  71.877  1.00  0.00    -0.376 C  
ENDROOT
BRANCH   3   4
HETATM    4  C   UNL     1     -12.957  10.210  71.128  1.00  0.00    -0.395 C  
HETATM    5  H   UNL     1     -13.459  12.049  71.605  1.00  0.00     0.000 HD 
HETATM    6  O   UNL     1     -13.275  11.241  72.069  1.00  0.00    -0.506 OA 
BRANCH   4   7
HETATM    7  C   UNL     1     -11.800  10.654  70.222  1.00  0.00    -0.342 C  
BRANCH   7   8
HETATM    8  O   UNL     1     -11.742  12.088  70.156  1.00  0.00    -0.308 OA 
BRANCH   8   9
HETATM    9  C   UNL     1     -11.691  12.628  68.896  1.00  0.00    -0.325 A  
HETATM   10  C   UNL     1     -11.647  11.902  67.701  1.00  0.00    -0.382 A  
HETATM   11  C   UNL     1     -11.598  12.561  66.470  1.00  0.00    -0.447 A  
HETATM   12  C   UNL     1     -11.596  13.951  66.427  1.00  0.00    -0.367 A  
HETATM   13  C   UNL     1     -11.640  14.689  67.608  1.00  0.00    -0.383 A  
HETATM   14 CL   UNL     1     -11.540  14.758  64.910  1.00  0.00    -0.388 Cl 
HETATM   15  C   UNL     1     -11.686  14.026  68.840  1.00  0.00    -0.375 A  
ENDBRANCH   8   9
ENDBRANCH   7   8
ENDBRANCH   4   7
ENDBRANCH   3   4
TORSDOF 4
ENDMDL
MODEL       58
REMARK 921   NORMALIZED FREE ENERGY PREDICTED BY IDOCK:   -4.12 KCAL/MOL
REMARK 922        TOTAL FREE ENERGY PREDICTED BY IDOCK:   -5.27 KCAL/MOL
REMARK 923 INTER-LIGAND FREE ENERGY PREDICTED BY IDOCK:   -5.12 KCAL/MOL
REMARK 924 INTRA-LIGAND FREE ENERGY PREDICTED BY IDOCK:   -0.15 KCAL/MOL
REMARK 927      BINDING AFFINITY PREDICTED BY RF-SCORE:    0.00 PKD
ROOT
HETATM    1  O   UNL     1     -13.665   8.821  73.126  1.00  0.00    -0.983 OA 
HETATM    2  H   UNL     1     -14.534   8.858  73.507  1.00  0.00     0.000 HD 
HETATM    3  C   UNL     1     -13.529   9.770  72.078  1.00  0.00    -0.407 C  
ENDROOT
BRANCH   3   4
HETATM    4  C   UNL     1     -12.128   9.711  71.464  1.00  0.00    -0.401 C  
HETATM    5  H   UNL     1     -11.032   8.372  70.535  1.00  0.00     0.000 HD 
HETATM    6  O   UNL     1     -11.902   8.408  70.916  1.00  0.00    -0.283 OA 
BRANCH   4   7
HETATM    7  C   UNL     1     -11.900  10.788  70.393  1.00  0.00    -0.358 C  
BRANCH   7   8
HETATM    8  O   UNL     1     -11.029  10.290  69.365  1.00  0.00    -0.219 OA 
BRANCH   8   9
HETATM    9  C   UNL     1     -11.099  10.935  68.157  1.00  0.00    -0.280 A  
HETATM   10  C   UNL     1     -11.759  12.145  67.918  1.00  0.00    -0.403 A  
HETATM   11  C   UNL     1     -11.762  12.713  66.641  1.00  0.00    -0.464 A  
HETATM   12  C   UNL     1     -11.103  12.074  65.597  1.00  0.00    -0.313 A  
HETATM   13  C   UNL     1     -10.442  10.868  65.817  1.00  0.00    -0.275 A  
HETATM   14 CL   UNL     1     -11.107  12.778  64.027  1.00  0.00    -0.424 Cl 
HETATM   15  C   UNL     1     -10.442  10.300  67.097  1.00  0.00    -0.311 A  
ENDBRANCH   8   9
ENDBRANCH   7   8
ENDBRANCH   4   7
ENDBRANCH   3   4
TORSDOF 4
ENDMDL
MODEL       59
REMARK 921   NORMALIZED FREE ENERGY PREDICTED BY IDOCK:   -4.09 KCAL/MOL
REMARK 922        TOTAL FREE ENERGY PREDICTED BY IDOCK:   -5.24 KCAL/MOL
REMARK 923 INTER-LIGAND FREE ENERGY PREDICTED BY IDOCK:   -4.75 KCAL/MOL
REMARK 924 INTRA-LIGAND FREE ENERGY PREDICTED BY IDOCK:   -0.49 KCAL/MOL
REMARK 927      BINDING AFFINITY PREDICTED BY RF-SCORE:    0.00 PKD
ROOT
HETATM    1  O   UNL     1     -13.872   9.315  70.996  1.00  0.00    -0.559 OA 
HETATM    2  H   UNL     1     -14.723   9.711  71.138  1.00  0.00     0.000 HD 
HETATM    3  C   UNL     1     -13.109   9.304  72.194  1.00  0.00    -0.443 C  
ENDROOT
BRANCH   3   4
HETATM    4  C   UNL     1     -11.738   8.665  71.964  1.00  0.00    -0.369 C  
HETATM    5  H   UNL     1     -11.055   6.974  71.233  1.00  0.00     0.000 HD 
HETATM    6  O   UNL     1     -11.906   7.371  71.376  1.00  0.00    -0.277 OA 
BRANCH   4   7
HETATM    7  C   UNL     1     -10.814   9.530  71.094  1.00  0.00    -0.355 C  
BRANCH   7   8
HETATM    8  O   UNL     1     -11.190   9.423  69.711  1.00  0.00    -0.211 OA 
BRANCH   8   9
HETATM    9  C   UNL     1     -11.378  10.609  69.048  1.00  0.00    -0.277 A  
HETATM   10  C   UNL     1     -11.759  11.819  69.638  1.00  0.00    -0.413 A  
HETATM   11  C   UNL     1     -11.919  12.969  68.861  1.00  0.00    -0.303 A  
HETATM   12  C   UNL     1     -11.697  12.915  67.489  1.00  0.00    -0.367 A  
HETATM   13  C   UNL     1     -11.317  11.719  66.886  1.00  0.00    -0.386 A  
HETATM   14 CL   UNL     1     -11.892  14.334  66.537  1.00  0.00    -0.417 Cl 
HETATM   15  C   UNL     1     -11.159  10.567  67.667  1.00  0.00    -0.375 A  
ENDBRANCH   8   9
ENDBRANCH   7   8
ENDBRANCH   4   7
ENDBRANCH   3   4
TORSDOF 4
ENDMDL
MODEL       60
REMARK 921   NORMALIZED FREE ENERGY PREDICTED BY IDOCK:   -4.08 KCAL/MOL
REMARK 922        TOTAL FREE ENERGY PREDICTED BY IDOCK:   -5.22 KCAL/MOL
REMARK 923 INTER-LIGAND FREE ENERGY PREDICTED BY IDOCK:   -4.83 KCAL/MOL
REMARK 924 INTRA-LIGAND FREE ENERGY PREDICTED BY IDOCK:   -0.39 KCAL/MOL
REMARK 927      BINDING AFFINITY PREDICTED BY RF-SCORE:    0.00 PKD
ROOT
HETATM    1  O   UNL     1     -11.460  11.368  62.986  1.00  0.00    -0.853 OA 
HETATM    2  H   UNL     1     -11.686  12.022  62.335  1.00  0.00     0.000 HD 
HETATM    3  C   UNL     1     -10.081  11.439  63.320  1.00  0.00    -0.387 C  
ENDROOT
BRANCH   3   4
HETATM    4  C   UNL     1      -9.718  10.385  64.369  1.00  0.00    -0.333 C  
HETATM    5  H   UNL     1      -8.111   9.381  64.887  1.00  0.00     0.000 HD 
HETATM    6  O   UNL     1      -8.336  10.035  64.236  1.00  0.00    -0.151 OA 
BRANCH   4   7
HETATM    7  C   UNL     1     -10.016  10.844  65.804  1.00  0.00    -0.247 C  
BRANCH   7   8
HETATM    8  O   UNL     1     -11.001  11.889  65.798  1.00  0.00    -0.293 OA 
BRANCH   8   9
HETATM    9  C   UNL     1     -11.300  12.439  67.019  1.00  0.00    -0.327 A  
HETATM   10  C   UNL     1     -11.394  13.807  67.294  1.00  0.00    -0.343 A  
HETATM   11  C   UNL     1     -11.707  14.253  68.580  1.00  0.00    -0.376 A  
HETATM   12  C   UNL     1     -11.930  13.333  69.598  1.00  0.00    -0.314 A  
HETATM   13  C   UNL     1     -11.840  11.967  69.341  1.00  0.00    -0.384 A  
HETATM   14 CL   UNL     1     -12.319  13.887  71.179  1.00  0.00    -0.438 Cl 
HETATM   15  C   UNL     1     -11.524  11.523  68.052  1.00  0.00    -0.381 A  
ENDBRANCH   8   9
ENDBRANCH   7   8
ENDBRANCH   4   7
ENDBRANCH   3   4
TORSDOF 4
ENDMDL
MODEL       61
REMARK 921   NORMALIZED FREE ENERGY PREDICTED BY IDOCK:   -4.02 KCAL/MOL
REMARK 922        TOTAL FREE ENERGY PREDICTED BY IDOCK:   -5.15 KCAL/MOL
REMARK 923 INTER-LIGAND FREE ENERGY PREDICTED BY IDOCK:   -4.74 KCAL/MOL
REMARK 924 INTRA-LIGAND FREE ENERGY PREDICTED BY IDOCK:   -0.41 KCAL/MOL
REMARK 927      BINDING AFFINITY PREDICTED BY RF-SCORE:    0.00 PKD
ROOT
HETATM    1  O   UNL     1     -11.988   5.169  73.117  1.00  0.00    -0.525 OA 
HETATM    2  H   UNL     1     -12.177   5.119  74.046  1.00  0.00     0.000 HD 
HETATM    3  C   UNL     1     -10.775   5.868  72.881  1.00  0.00    -0.249 C  
ENDROOT
BRANCH   3   4
HETATM    4  C   UNL     1     -10.471   5.948  71.383  1.00  0.00    -0.236 C  
HETATM    5  H   UNL     1     -10.017   4.684  69.950  1.00  0.00     0.000 HD 
HETATM    6  O   UNL     1     -10.205   4.634  70.879  1.00  0.00    -0.211 OA 
BRANCH   4   7
HETATM    7  C   UNL     1     -11.601   6.608  70.579  1.00  0.00    -0.390 C  
BRANCH   7   8
HETATM    8  O   UNL     1     -12.430   7.400  71.445  1.00  0.00    -0.337 OA 
BRANCH   8   9
HETATM    9  C   UNL     1     -12.375   8.757  71.251  1.00  0.00    -0.270 A  
HETATM   10  C   UNL     1     -11.539   9.415  70.343  1.00  0.00    -0.241 A  
HETATM   11  C   UNL     1     -11.570  10.807  70.230  1.00  0.00    -0.427 A  
HETATM   12  C   UNL     1     -12.440  11.548  71.022  1.00  0.00    -0.356 A  
HETATM   13  C   UNL     1     -13.279  10.908  71.931  1.00  0.00    -0.508 A  
HETATM   14 CL   UNL     1     -12.477  13.262  70.877  1.00  0.00    -0.445 Cl 
HETATM   15  C   UNL     1     -13.244   9.513  72.045  1.00  0.00    -0.539 A  
ENDBRANCH   8   9
ENDBRANCH   7   8
ENDBRANCH   4   7
ENDBRANCH   3   4
TORSDOF 4
ENDMDL
MODEL       62
REMARK 921   NORMALIZED FREE ENERGY PREDICTED BY IDOCK:   -3.98 KCAL/MOL
REMARK 922        TOTAL FREE ENERGY PREDICTED BY IDOCK:   -5.10 KCAL/MOL
REMARK 923 INTER-LIGAND FREE ENERGY PREDICTED BY IDOCK:   -4.79 KCAL/MOL
REMARK 924 INTRA-LIGAND FREE ENERGY PREDICTED BY IDOCK:   -0.31 KCAL/MOL
REMARK 927      BINDING AFFINITY PREDICTED BY RF-SCORE:    0.00 PKD
ROOT
HETATM    1  O   UNL     1     -12.486  14.341  63.264  1.00  0.00    -1.133 OA 
HETATM    2  H   UNL     1     -12.295  14.468  62.342  1.00  0.00     0.000 HD 
HETATM    3  C   UNL     1     -12.106  13.039  63.686  1.00  0.00    -0.531 C  
ENDROOT
BRANCH   3   4
HETATM    4  C   UNL     1     -12.412  12.833  65.171  1.00  0.00    -0.501 C  
HETATM    5  H   UNL     1     -11.729  11.705  66.627  1.00  0.00     0.000 HD 
HETATM    6  O   UNL     1     -11.538  11.833  65.705  1.00  0.00    -0.312 OA 
BRANCH   4   7
HETATM    7  C   UNL     1     -12.301  14.129  65.988  1.00  0.00    -0.445 C  
BRANCH   7   8
HETATM    8  O   UNL     1     -11.208  14.928  65.509  1.00  0.00    -0.335 OA 
BRANCH   8   9
HETATM    9  C   UNL     1     -10.267  15.278  66.443  1.00  0.00    -0.277 A  
HETATM   10  C   UNL     1      -9.926  16.586  66.803  1.00  0.00    -0.281 A  
HETATM   11  C   UNL     1      -8.950  16.824  67.773  1.00  0.00    -0.216 A  
HETATM   12  C   UNL     1      -8.310  15.755  68.391  1.00  0.00    -0.164 A  
HETATM   13  C   UNL     1      -8.638  14.447  68.045  1.00  0.00    -0.166 A  
HETATM   14 CL   UNL     1      -7.112  16.053  69.588  1.00  0.00    -0.169 Cl 
HETATM   15  C   UNL     1      -9.615  14.211  67.070  1.00  0.00    -0.264 A  
ENDBRANCH   8   9
ENDBRANCH   7   8
ENDBRANCH   4   7
ENDBRANCH   3   4
TORSDOF 4
ENDMDL
MODEL       63
REMARK 921   NORMALIZED FREE ENERGY PREDICTED BY IDOCK:   -3.97 KCAL/MOL
REMARK 922        TOTAL FREE ENERGY PREDICTED BY IDOCK:   -5.09 KCAL/MOL
REMARK 923 INTER-LIGAND FREE ENERGY PREDICTED BY IDOCK:   -4.67 KCAL/MOL
REMARK 924 INTRA-LIGAND FREE ENERGY PREDICTED BY IDOCK:   -0.42 KCAL/MOL
REMARK 927      BINDING AFFINITY PREDICTED BY RF-SCORE:    0.00 PKD
ROOT
HETATM    1  O   UNL     1     -10.910  15.085  70.929  1.00  0.00    -0.530 OA 
HETATM    2  H   UNL     1     -11.334  15.401  71.717  1.00  0.00     0.000 HD 
HETATM    3  C   UNL     1     -11.868  14.755  69.933  1.00  0.00    -0.316 C  
ENDROOT
BRANCH   3   4
HETATM    4  C   UNL     1     -11.183  14.246  68.662  1.00  0.00    -0.264 C  
HETATM    5  H   UNL     1     -11.546  12.885  67.293  1.00  0.00     0.000 HD 
HETATM    6  O   UNL     1     -11.971  13.201  68.081  1.00  0.00    -0.344 OA 
BRANCH   4   7
HETATM    7  C   UNL     1     -10.931  15.358  67.634  1.00  0.00    -0.315 C  
BRANCH   7   8
HETATM    8  O   UNL     1     -11.186  16.645  68.220  1.00  0.00    -0.349 OA 
BRANCH   8   9
HETATM    9  C   UNL     1     -10.305  17.641  67.885  1.00  0.00    -0.371 A  
HETATM   10  C   UNL     1     -10.652  18.898  67.380  1.00  0.00    -0.534 A  
HETATM   11  C   UNL     1      -9.665  19.838  67.075  1.00  0.00    -0.503 A  
HETATM   12  C   UNL     1      -8.325  19.527  67.275  1.00  0.00    -0.293 A  
HETATM   13  C   UNL     1      -7.962  18.280  67.778  1.00  0.00    -0.250 A  
HETATM   14 CL   UNL     1      -7.113  20.689  66.901  1.00  0.00    -0.347 Cl 
HETATM   15  C   UNL     1      -8.953  17.338  68.081  1.00  0.00    -0.254 A  
ENDBRANCH   8   9
ENDBRANCH   7   8
ENDBRANCH   4   7
ENDBRANCH   3   4
TORSDOF 4
ENDMDL
MODEL       64
REMARK 921   NORMALIZED FREE ENERGY PREDICTED BY IDOCK:   -3.97 KCAL/MOL
REMARK 922        TOTAL FREE ENERGY PREDICTED BY IDOCK:   -5.09 KCAL/MOL
REMARK 923 INTER-LIGAND FREE ENERGY PREDICTED BY IDOCK:   -4.59 KCAL/MOL
REMARK 924 INTRA-LIGAND FREE ENERGY PREDICTED BY IDOCK:   -0.50 KCAL/MOL
REMARK 927      BINDING AFFINITY PREDICTED BY RF-SCORE:    0.00 PKD
ROOT
HETATM    1  O   UNL     1      -9.239  13.735  68.915  1.00  0.00    -0.390 OA 
HETATM    2  H   UNL     1      -8.350  13.670  69.245  1.00  0.00     0.000 HD 
HETATM    3  C   UNL     1      -9.321  13.261  67.579  1.00  0.00    -0.218 C  
ENDROOT
BRANCH   3   4
HETATM    4  C   UNL     1     -10.753  13.365  67.049  1.00  0.00    -0.268 C  
HETATM    5  H   UNL     1     -11.629  13.336  65.291  1.00  0.00     0.000 HD 
HETATM    6  O   UNL     1     -10.741  13.271  65.620  1.00  0.00    -0.275 OA 
BRANCH   4   7
HETATM    7  C   UNL     1     -11.690  12.305  67.645  1.00  0.00    -0.334 C  
BRANCH   7   8
HETATM    8  O   UNL     1     -11.883  12.544  69.048  1.00  0.00    -0.299 OA 
BRANCH   8   9
HETATM    9  C   UNL     1     -11.754  11.451  69.866  1.00  0.00    -0.346 A  
HETATM   10  C   UNL     1     -10.748  10.483  69.776  1.00  0.00    -0.314 A  
HETATM   11  C   UNL     1     -10.714   9.408  70.668  1.00  0.00    -0.353 A  
HETATM   12  C   UNL     1     -11.685   9.297  71.657  1.00  0.00    -0.392 A  
HETATM   13  C   UNL     1     -12.693  10.252  71.761  1.00  0.00    -0.535 A  
HETATM   14 CL   UNL     1     -11.637   7.974  72.755  1.00  0.00    -0.451 Cl 
HETATM   15  C   UNL     1     -12.726  11.327  70.864  1.00  0.00    -0.412 A  
ENDBRANCH   8   9
ENDBRANCH   7   8
ENDBRANCH   4   7
ENDBRANCH   3   4
TORSDOF 4
ENDMDL
MODEL       65
REMARK 921   NORMALIZED FREE ENERGY PREDICTED BY IDOCK:   -3.96 KCAL/MOL
REMARK 922        TOTAL FREE ENERGY PREDICTED BY IDOCK:   -5.08 KCAL/MOL
REMARK 923 INTER-LIGAND FREE ENERGY PREDICTED BY IDOCK:   -4.64 KCAL/MOL
REMARK 924 INTRA-LIGAND FREE ENERGY PREDICTED BY IDOCK:   -0.43 KCAL/MOL
REMARK 927      BINDING AFFINITY PREDICTED BY RF-SCORE:    0.00 PKD
ROOT
HETATM    1  O   UNL     1      -9.512  12.183  68.852  1.00  0.00    -0.408 OA 
HETATM    2  H   UNL     1      -8.624  12.080  69.170  1.00  0.00     0.000 HD 
HETATM    3  C   UNL     1      -9.656  11.623  67.555  1.00  0.00    -0.171 C  
ENDROOT
BRANCH   3   4
HETATM    4  C   UNL     1     -11.089  11.789  67.043  1.00  0.00    -0.304 C  
HETATM    5  H   UNL     1     -12.897  11.408  67.711  1.00  0.00     0.000 HD 
HETATM    6  O   UNL     1     -12.008  11.305  68.029  1.00  0.00    -0.621 OA 
BRANCH   4   7
HETATM    7  C   UNL     1     -11.425  13.240  66.668  1.00  0.00    -0.347 C  
BRANCH   7   8
HETATM    8  O   UNL     1     -10.218  13.992  66.461  1.00  0.00    -0.268 OA 
BRANCH   8   9
HETATM    9  C   UNL     1     -10.274  15.319  66.804  1.00  0.00    -0.272 A  
HETATM   10  C   UNL     1     -10.288  15.822  68.110  1.00  0.00    -0.242 A  
HETATM   11  C   UNL     1     -10.344  17.198  68.340  1.00  0.00    -0.362 A  
HETATM   12  C   UNL     1     -10.384  18.080  67.266  1.00  0.00    -0.378 A  
HETATM   13  C   UNL     1     -10.370  17.597  65.960  1.00  0.00    -0.305 A  
HETATM   14 CL   UNL     1     -10.449  19.775  67.555  1.00  0.00    -0.566 Cl 
HETATM   15  C   UNL     1     -10.316  16.216  65.732  1.00  0.00    -0.398 A  
ENDBRANCH   8   9
ENDBRANCH   7   8
ENDBRANCH   4   7
ENDBRANCH   3   4
TORSDOF 4
ENDMDL
MODEL       66
REMARK 921   NORMALIZED FREE ENERGY PREDICTED BY IDOCK:   -3.96 KCAL/MOL
REMARK 922        TOTAL FREE ENERGY PREDICTED BY IDOCK:   -5.07 KCAL/MOL
REMARK 923 INTER-LIGAND FREE ENERGY PREDICTED BY IDOCK:   -4.67 KCAL/MOL
REMARK 924 INTRA-LIGAND FREE ENERGY PREDICTED BY IDOCK:   -0.40 KCAL/MOL
REMARK 927      BINDING AFFINITY PREDICTED BY RF-SCORE:    0.00 PKD
ROOT
HETATM    1  O   UNL     1     -12.716  14.461  69.404  1.00  0.00    -0.530 OA 
HETATM    2  H   UNL     1     -12.903  14.475  70.335  1.00  0.00     0.000 HD 
HETATM    3  C   UNL     1     -11.359  14.115  69.163  1.00  0.00    -0.279 C  
ENDROOT
BRANCH   3   4
HETATM    4  C   UNL     1     -11.058  14.093  67.663  1.00  0.00    -0.282 C  
HETATM    5  H   UNL     1     -11.916  13.382  66.045  1.00  0.00     0.000 HD 
HETATM    6  O   UNL     1     -12.103  13.396  66.976  1.00  0.00    -0.381 OA 
BRANCH   4   7
HETATM    7  C   UNL     1     -10.875  15.498  67.070  1.00  0.00    -0.314 C  
BRANCH   7   8
HETATM    8  O   UNL     1     -10.973  16.491  68.104  1.00  0.00    -0.346 OA 
BRANCH   8   9
HETATM    9  C   UNL     1     -10.057  17.510  68.044  1.00  0.00    -0.332 A  
HETATM   10  C   UNL     1      -8.800  17.511  68.658  1.00  0.00    -0.255 A  
HETATM   11  C   UNL     1      -7.945  18.608  68.526  1.00  0.00    -0.365 A  
HETATM   12  C   UNL     1      -8.342  19.710  67.777  1.00  0.00    -0.310 A  
HETATM   13  C   UNL     1      -9.590  19.726  67.159  1.00  0.00    -0.483 A  
HETATM   14 CL   UNL     1      -7.285  21.057  67.615  1.00  0.00    -0.326 Cl 
HETATM   15  C   UNL     1     -10.446  18.625  67.295  1.00  0.00    -0.468 A  
ENDBRANCH   8   9
ENDBRANCH   7   8
ENDBRANCH   4   7
ENDBRANCH   3   4
TORSDOF 4
ENDMDL
MODEL       67
REMARK 921   NORMALIZED FREE ENERGY PREDICTED BY IDOCK:   -3.95 KCAL/MOL
REMARK 922        TOTAL FREE ENERGY PREDICTED BY IDOCK:   -5.07 KCAL/MOL
REMARK 923 INTER-LIGAND FREE ENERGY PREDICTED BY IDOCK:   -4.94 KCAL/MOL
REMARK 924 INTRA-LIGAND FREE ENERGY PREDICTED BY IDOCK:   -0.13 KCAL/MOL
REMARK 927      BINDING AFFINITY PREDICTED BY RF-SCORE:    0.00 PKD
ROOT
HETATM    1  O   UNL     1      -9.273   9.825  64.503  1.00  0.00    -0.243 OA 
HETATM    2  H   UNL     1      -9.168   9.116  65.127  1.00  0.00     0.000 HD 
HETATM    3  C   UNL     1     -10.397  10.629  64.834  1.00  0.00    -0.277 C  
ENDROOT
BRANCH   3   4
HETATM    4  C   UNL     1     -10.566  11.772  63.829  1.00  0.00    -0.415 C  
HETATM    5  H   UNL     1     -10.011  12.142  61.982  1.00  0.00     0.000 HD 
HETATM    6  O   UNL     1      -9.906  11.433  62.605  1.00  0.00    -0.240 OA 
BRANCH   4   7
HETATM    7  C   UNL     1     -12.038  12.119  63.563  1.00  0.00    -0.550 C  
BRANCH   7   8
HETATM    8  O   UNL     1     -12.243  13.537  63.673  1.00  0.00    -0.625 OA 
BRANCH   8   9
HETATM    9  C   UNL     1     -11.918  14.097  64.883  1.00  0.00    -0.417 A  
HETATM   10  C   UNL     1     -12.490  13.759  66.115  1.00  0.00    -0.466 A  
HETATM   11  C   UNL     1     -12.078  14.397  67.287  1.00  0.00    -0.358 A  
HETATM   12  C   UNL     1     -11.091  15.374  67.235  1.00  0.00    -0.302 A  
HETATM   13  C   UNL     1     -10.511  15.722  66.017  1.00  0.00    -0.350 A  
HETATM   14 CL   UNL     1     -10.584  16.154  68.682  1.00  0.00    -0.266 Cl 
HETATM   15  C   UNL     1     -10.927  15.083  64.843  1.00  0.00    -0.427 A  
ENDBRANCH   8   9
ENDBRANCH   7   8
ENDBRANCH   4   7
ENDBRANCH   3   4
TORSDOF 4
ENDMDL
MODEL       68
REMARK 921   NORMALIZED FREE ENERGY PREDICTED BY IDOCK:   -3.95 KCAL/MOL
REMARK 922        TOTAL FREE ENERGY PREDICTED BY IDOCK:   -5.06 KCAL/MOL
REMARK 923 INTER-LIGAND FREE ENERGY PREDICTED BY IDOCK:   -4.73 KCAL/MOL
REMARK 924 INTRA-LIGAND FREE ENERGY PREDICTED BY IDOCK:   -0.34 KCAL/MOL
REMARK 927      BINDING AFFINITY PREDICTED BY RF-SCORE:    0.00 PKD
ROOT
HETATM    1  O   UNL     1     -11.332  14.211  66.067  1.00  0.00    -0.318 OA 
HETATM    2  H   UNL     1     -11.417  13.951  65.158  1.00  0.00     0.000 HD 
HETATM    3  C   UNL     1     -10.291  15.163  66.228  1.00  0.00    -0.294 C  
ENDROOT
BRANCH   3   4
HETATM    4  C   UNL     1     -10.154  15.582  67.694  1.00  0.00    -0.243 C  
HETATM    5  H   UNL     1     -11.040  16.850  68.905  1.00  0.00     0.000 HD 
HETATM    6  O   UNL     1     -11.125  16.590  67.995  1.00  0.00    -0.345 OA 
BRANCH   4   7
HETATM    7  C   UNL     1     -10.291  14.402  68.667  1.00  0.00    -0.245 C  
BRANCH   7   8
HETATM    8  O   UNL     1     -11.597  14.400  69.266  1.00  0.00    -0.267 OA 
BRANCH   8   9
HETATM    9  C   UNL     1     -11.960  13.242  69.906  1.00  0.00    -0.330 A  
HETATM   10  C   UNL     1     -11.672  11.945  69.468  1.00  0.00    -0.410 A  
HETATM   11  C   UNL     1     -12.092  10.836  70.206  1.00  0.00    -0.433 A  
HETATM   12  C   UNL     1     -12.801  11.018  71.387  1.00  0.00    -0.443 A  
HETATM   13  C   UNL     1     -13.097  12.302  71.838  1.00  0.00    -0.469 A  
HETATM   14 CL   UNL     1     -13.314   9.649  72.294  1.00  0.00    -0.520 Cl 
HETATM   15  C   UNL     1     -12.676  13.413  71.095  1.00  0.00    -0.411 A  
ENDBRANCH   8   9
ENDBRANCH   7   8
ENDBRANCH   4   7
ENDBRANCH   3   4
TORSDOF 4
ENDMDL
MODEL       69
REMARK 921   NORMALIZED FREE ENERGY PREDICTED BY IDOCK:   -3.94 KCAL/MOL
REMARK 922        TOTAL FREE ENERGY PREDICTED BY IDOCK:   -5.05 KCAL/MOL
REMARK 923 INTER-LIGAND FREE ENERGY PREDICTED BY IDOCK:   -4.69 KCAL/MOL
REMARK 924 INTRA-LIGAND FREE ENERGY PREDICTED BY IDOCK:   -0.35 KCAL/MOL
REMARK 927      BINDING AFFINITY PREDICTED BY RF-SCORE:    0.00 PKD
ROOT
HETATM    1  O   UNL     1      -9.674  11.304  65.470  1.00  0.00    -0.211 OA 
HETATM    2  H   UNL     1      -9.164  10.701  64.942  1.00  0.00     0.000 HD 
HETATM    3  C   UNL     1     -10.760  11.838  64.726  1.00  0.00    -0.302 C  
ENDROOT
BRANCH   3   4
HETATM    4  C   UNL     1     -11.581  12.809  65.577  1.00  0.00    -0.362 C  
HETATM    5  H   UNL     1     -13.484  13.229  65.828  1.00  0.00     0.000 HD 
HETATM    6  O   UNL     1     -12.974  12.627  65.300  1.00  0.00    -0.657 OA 
BRANCH   4   7
HETATM    7  C   UNL     1     -11.314  12.657  67.082  1.00  0.00    -0.319 C  
BRANCH   7   8
HETATM    8  O   UNL     1     -12.082  11.567  67.617  1.00  0.00    -0.623 OA 
BRANCH   8   9
HETATM    9  C   UNL     1     -11.519  10.899  68.673  1.00  0.00    -0.311 A  
HETATM   10  C   UNL     1     -10.260  10.287  68.670  1.00  0.00    -0.196 A  
HETATM   11  C   UNL     1      -9.786   9.633  69.810  1.00  0.00    -0.247 A  
HETATM   12  C   UNL     1     -10.566   9.589  70.960  1.00  0.00    -0.322 A  
HETATM   13  C   UNL     1     -11.821  10.193  70.979  1.00  0.00    -0.475 A  
HETATM   14 CL   UNL     1      -9.976   8.786  72.362  1.00  0.00    -0.314 Cl 
HETATM   15  C   UNL     1     -12.295  10.846  69.835  1.00  0.00    -0.354 A  
ENDBRANCH   8   9
ENDBRANCH   7   8
ENDBRANCH   4   7
ENDBRANCH   3   4
TORSDOF 4
ENDMDL
MODEL       70
REMARK 921   NORMALIZED FREE ENERGY PREDICTED BY IDOCK:   -3.92 KCAL/MOL
REMARK 922        TOTAL FREE ENERGY PREDICTED BY IDOCK:   -5.03 KCAL/MOL
REMARK 923 INTER-LIGAND FREE ENERGY PREDICTED BY IDOCK:   -4.78 KCAL/MOL
REMARK 924 INTRA-LIGAND FREE ENERGY PREDICTED BY IDOCK:   -0.24 KCAL/MOL
REMARK 927      BINDING AFFINITY PREDICTED BY RF-SCORE:    0.00 PKD
ROOT
HETATM    1  O   UNL     1     -13.846   8.926  73.411  1.00  0.00    -1.192 OA 
HETATM    2  H   UNL     1     -14.618   9.478  73.393  1.00  0.00     0.000 HD 
HETATM    3  C   UNL     1     -13.139   9.003  72.181  1.00  0.00    -0.435 C  
ENDROOT
BRANCH   3   4
HETATM    4  C   UNL     1     -11.893   8.113  72.209  1.00  0.00    -0.382 C  
HETATM    5  H   UNL     1     -11.473   6.234  71.820  1.00  0.00     0.000 HD 
HETATM    6  O   UNL     1     -12.245   6.786  71.802  1.00  0.00    -0.333 OA 
BRANCH   4   7
HETATM    7  C   UNL     1     -10.753   8.654  71.335  1.00  0.00    -0.268 C  
BRANCH   7   8
HETATM    8  O   UNL     1     -11.140   9.896  70.725  1.00  0.00    -0.303 OA 
BRANCH   8   9
HETATM    9  C   UNL     1     -10.864  10.018  69.387  1.00  0.00    -0.239 A  
HETATM   10  C   UNL     1     -10.818  11.220  68.672  1.00  0.00    -0.246 A  
HETATM   11  C   UNL     1     -10.524  11.223  67.306  1.00  0.00    -0.249 A  
HETATM   12  C   UNL     1     -10.272  10.025  66.648  1.00  0.00    -0.223 A  
HETATM   13  C   UNL     1     -10.313   8.820  67.345  1.00  0.00    -0.349 A  
HETATM   14 CL   UNL     1      -9.907  10.034  64.967  1.00  0.00    -0.392 Cl 
HETATM   15  C   UNL     1     -10.611   8.818  68.713  1.00  0.00    -0.174 A  
ENDBRANCH   8   9
ENDBRANCH   7   8
ENDBRANCH   4   7
ENDBRANCH   3   4
TORSDOF 4
ENDMDL
MODEL       71
REMARK 921   NORMALIZED FREE ENERGY PREDICTED BY IDOCK:   -3.91 KCAL/MOL
REMARK 922        TOTAL FREE ENERGY PREDICTED BY IDOCK:   -5.01 KCAL/MOL
REMARK 923 INTER-LIGAND FREE ENERGY PREDICTED BY IDOCK:   -4.82 KCAL/MOL
REMARK 924 INTRA-LIGAND FREE ENERGY PREDICTED BY IDOCK:   -0.20 KCAL/MOL
REMARK 927      BINDING AFFINITY PREDICTED BY RF-SCORE:    0.00 PKD
ROOT
HETATM    1  O   UNL     1     -10.180  19.593  68.425  1.00  0.00    -0.423 OA 
HETATM    2  H   UNL     1     -10.342  20.502  68.647  1.00  0.00     0.000 HD 
HETATM    3  C   UNL     1     -10.663  19.293  67.124  1.00  0.00    -0.480 C  
ENDROOT
BRANCH   3   4
HETATM    4  C   UNL     1     -10.400  17.827  66.767  1.00  0.00    -0.343 C  
HETATM    5  H   UNL     1      -9.017  16.820  65.802  1.00  0.00     0.000 HD 
HETATM    6  O   UNL     1      -9.180  17.728  66.024  1.00  0.00    -0.503 OA 
BRANCH   4   7
HETATM    7  C   UNL     1     -10.347  16.913  68.000  1.00  0.00    -0.334 C  
BRANCH   7   8
HETATM    8  O   UNL     1     -11.582  16.192  68.137  1.00  0.00    -0.285 OA 
BRANCH   8   9
HETATM    9  C   UNL     1     -11.517  14.843  67.900  1.00  0.00    -0.340 A  
HETATM   10  C   UNL     1     -12.001  14.192  66.760  1.00  0.00    -0.475 A  
HETATM   11  C   UNL     1     -11.877  12.808  66.625  1.00  0.00    -0.462 A  
HETATM   12  C   UNL     1     -11.266  12.065  67.630  1.00  0.00    -0.282 A  
HETATM   13  C   UNL     1     -10.779  12.696  68.771  1.00  0.00    -0.240 A  
HETATM   14 CL   UNL     1     -11.113  10.360  67.458  1.00  0.00    -0.368 Cl 
HETATM   15  C   UNL     1     -10.907  14.084  68.905  1.00  0.00    -0.278 A  
ENDBRANCH   8   9
ENDBRANCH   7   8
ENDBRANCH   4   7
ENDBRANCH   3   4
TORSDOF 4
ENDMDL
MODEL       72
REMARK 921   NORMALIZED FREE ENERGY PREDICTED BY IDOCK:   -3.88 KCAL/MOL
REMARK 922        TOTAL FREE ENERGY PREDICTED BY IDOCK:   -4.98 KCAL/MOL
REMARK 923 INTER-LIGAND FREE ENERGY PREDICTED BY IDOCK:   -4.80 KCAL/MOL
REMARK 924 INTRA-LIGAND FREE ENERGY PREDICTED BY IDOCK:   -0.18 KCAL/MOL
REMARK 927      BINDING AFFINITY PREDICTED BY RF-SCORE:    0.00 PKD
ROOT
HETATM    1  O   UNL     1     -12.283   7.907  70.935  1.00  0.00    -0.457 OA 
HETATM    2  H   UNL     1     -11.938   7.171  71.426  1.00  0.00     0.000 HD 
HETATM    3  C   UNL     1     -12.143   9.116  71.668  1.00  0.00    -0.362 C  
ENDROOT
BRANCH   3   4
HETATM    4  C   UNL     1     -12.699  10.302  70.877  1.00  0.00    -0.370 C  
HETATM    5  H   UNL     1     -13.493  12.050  71.294  1.00  0.00     0.000 HD 
HETATM    6  O   UNL     1     -13.148  11.313  71.785  1.00  0.00    -0.472 OA 
BRANCH   4   7
HETATM    7  C   UNL     1     -11.682  10.889  69.887  1.00  0.00    -0.339 C  
BRANCH   7   8
HETATM    8  O   UNL     1     -12.354  11.679  68.892  1.00  0.00    -0.355 OA 
BRANCH   8   9
HETATM    9  C   UNL     1     -11.986  12.999  68.828  1.00  0.00    -0.266 A  
HETATM   10  C   UNL     1     -12.002  13.901  69.897  1.00  0.00    -0.405 A  
HETATM   11  C   UNL     1     -11.602  15.227  69.714  1.00  0.00    -0.335 A  
HETATM   12  C   UNL     1     -11.183  15.658  68.460  1.00  0.00    -0.342 A  
HETATM   13  C   UNL     1     -11.161  14.773  67.385  1.00  0.00    -0.346 A  
HETATM   14 CL   UNL     1     -10.689  17.291  68.240  1.00  0.00    -0.372 Cl 
HETATM   15  C   UNL     1     -11.564  13.445  67.571  1.00  0.00    -0.382 A  
ENDBRANCH   8   9
ENDBRANCH   7   8
ENDBRANCH   4   7
ENDBRANCH   3   4
TORSDOF 4
ENDMDL
MODEL       73
REMARK 921   NORMALIZED FREE ENERGY PREDICTED BY IDOCK:   -3.88 KCAL/MOL
REMARK 922        TOTAL FREE ENERGY PREDICTED BY IDOCK:   -4.97 KCAL/MOL
REMARK 923 INTER-LIGAND FREE ENERGY PREDICTED BY IDOCK:   -4.57 KCAL/MOL
REMARK 924 INTRA-LIGAND FREE ENERGY PREDICTED BY IDOCK:   -0.40 KCAL/MOL
REMARK 927      BINDING AFFINITY PREDICTED BY RF-SCORE:    0.00 PKD
ROOT
HETATM    1  O   UNL     1      -8.609  16.797  65.597  1.00  0.00    -0.415 OA 
HETATM    2  H   UNL     1      -7.828  17.244  65.900  1.00  0.00     0.000 HD 
HETATM    3  C   UNL     1      -9.773  17.341  66.202  1.00  0.00    -0.224 C  
ENDROOT
BRANCH   3   4
HETATM    4  C   UNL     1     -11.032  16.622  65.713  1.00  0.00     0.019 C  
HETATM    5  H   UNL     1     -11.994  16.425  64.012  1.00  0.00     0.000 HD 
HETATM    6  O   UNL     1     -11.212  16.872  64.315  1.00  0.00    -1.204 OA 
BRANCH   4   7
HETATM    7  C   UNL     1     -10.999  15.110  65.984  1.00  0.00    -0.332 C  
BRANCH   7   8
HETATM    8  O   UNL     1     -10.261  14.436  64.953  1.00  0.00    -0.417 OA 
BRANCH   8   9
HETATM    9  C   UNL     1     -10.122  13.080  65.105  1.00  0.00    -0.221 A  
HETATM   10  C   UNL     1     -10.475  12.114  64.156  1.00  0.00    -0.395 A  
HETATM   11  C   UNL     1     -10.286  10.756  64.420  1.00  0.00    -0.432 A  
HETATM   12  C   UNL     1      -9.740  10.355  65.634  1.00  0.00    -0.236 A  
HETATM   13  C   UNL     1      -9.384  11.303  66.590  1.00  0.00    -0.196 A  
HETATM   14 CL   UNL     1      -9.506   8.681  65.954  1.00  0.00    -0.275 Cl 
HETATM   15  C   UNL     1      -9.576  12.664  66.324  1.00  0.00    -0.244 A  
ENDBRANCH   8   9
ENDBRANCH   7   8
ENDBRANCH   4   7
ENDBRANCH   3   4
TORSDOF 4
ENDMDL
MODEL       74
REMARK 921   NORMALIZED FREE ENERGY PREDICTED BY IDOCK:   -3.87 KCAL/MOL
REMARK 922        TOTAL FREE ENERGY PREDICTED BY IDOCK:   -4.96 KCAL/MOL
REMARK 923 INTER-LIGAND FREE ENERGY PREDICTED BY IDOCK:   -4.80 KCAL/MOL
REMARK 924 INTRA-LIGAND FREE ENERGY PREDICTED BY IDOCK:   -0.16 KCAL/MOL
REMARK 927      BINDING AFFINITY PREDICTED BY RF-SCORE:    0.00 PKD
ROOT
HETATM    1  O   UNL     1     -13.312  15.466  70.511  1.00  0.00    -0.699 OA 
HETATM    2  H   UNL     1     -13.665  15.474  71.392  1.00  0.00     0.000 HD 
HETATM    3  C   UNL     1     -11.892  15.479  70.531  1.00  0.00    -0.356 C  
ENDROOT
BRANCH   3   4
HETATM    4  C   UNL     1     -11.324  15.465  69.110  1.00  0.00    -0.315 C  
HETATM    5  H   UNL     1     -11.039  16.775  67.674  1.00  0.00     0.000 HD 
HETATM    6  O   UNL     1     -11.391  16.784  68.556  1.00  0.00    -0.268 OA 
BRANCH   4   7
HETATM    7  C   UNL     1      -9.885  14.932  69.047  1.00  0.00    -0.220 C  
BRANCH   7   8
HETATM    8  O   UNL     1      -9.868  13.613  68.479  1.00  0.00    -0.230 OA 
BRANCH   8   9
HETATM    9  C   UNL     1     -10.333  13.508  67.193  1.00  0.00    -0.250 A  
HETATM   10  C   UNL     1      -9.866  14.240  66.097  1.00  0.00    -0.335 A  
HETATM   11  C   UNL     1     -10.416  14.048  64.827  1.00  0.00    -0.445 A  
HETATM   12  C   UNL     1     -11.435  13.120  64.646  1.00  0.00    -0.333 A  
HETATM   13  C   UNL     1     -11.912  12.382  65.727  1.00  0.00    -0.437 A  
HETATM   14 CL   UNL     1     -12.107  12.884  63.081  1.00  0.00    -0.522 Cl 
HETATM   15  C   UNL     1     -11.360  12.578  66.999  1.00  0.00    -0.386 A  
ENDBRANCH   8   9
ENDBRANCH   7   8
ENDBRANCH   4   7
ENDBRANCH   3   4
TORSDOF 4
ENDMDL
MODEL       75
REMARK 921   NORMALIZED FREE ENERGY PREDICTED BY IDOCK:   -3.85 KCAL/MOL
REMARK 922        TOTAL FREE ENERGY PREDICTED BY IDOCK:   -4.94 KCAL/MOL
REMARK 923 INTER-LIGAND FREE ENERGY PREDICTED BY IDOCK:   -4.72 KCAL/MOL
REMARK 924 INTRA-LIGAND FREE ENERGY PREDICTED BY IDOCK:   -0.23 KCAL/MOL
REMARK 927      BINDING AFFINITY PREDICTED BY RF-SCORE:    0.00 PKD
ROOT
HETATM    1  O   UNL     1     -10.838   7.326  74.106  1.00  0.00    -0.536 OA 
HETATM    2  H   UNL     1     -10.528   7.878  74.813  1.00  0.00     0.000 HD 
HETATM    3  C   UNL     1      -9.980   6.209  73.919  1.00  0.00    -0.227 C  
ENDROOT
BRANCH   3   4
HETATM    4  C   UNL     1     -10.481   5.319  72.779  1.00  0.00    -0.217 C  
HETATM    5  H   UNL     1     -12.039   4.169  72.446  1.00  0.00     0.000 HD 
HETATM    6  O   UNL     1     -11.728   4.722  73.153  1.00  0.00    -0.298 OA 
BRANCH   4   7
HETATM    7  C   UNL     1     -10.630   6.076  71.451  1.00  0.00    -0.246 C  
BRANCH   7   8
HETATM    8  O   UNL     1     -12.015   6.352  71.188  1.00  0.00    -0.328 OA 
BRANCH   8   9
HETATM    9  C   UNL     1     -12.420   7.644  71.407  1.00  0.00    -0.333 A  
HETATM   10  C   UNL     1     -13.681   8.033  71.873  1.00  0.00    -0.381 A  
HETATM   11  C   UNL     1     -13.983   9.384  72.060  1.00  0.00    -0.334 A  
HETATM   12  C   UNL     1     -13.024  10.353  71.786  1.00  0.00    -0.475 A  
HETATM   13  C   UNL     1     -11.765   9.983  71.322  1.00  0.00    -0.452 A  
HETATM   14 CL   UNL     1     -13.400  12.015  72.022  1.00  0.00    -0.557 Cl 
HETATM   15  C   UNL     1     -11.465   8.628  71.132  1.00  0.00    -0.332 A  
ENDBRANCH   8   9
ENDBRANCH   7   8
ENDBRANCH   4   7
ENDBRANCH   3   4
TORSDOF 4
ENDMDL
MODEL       76
REMARK 921   NORMALIZED FREE ENERGY PREDICTED BY IDOCK:   -3.79 KCAL/MOL
REMARK 922        TOTAL FREE ENERGY PREDICTED BY IDOCK:   -4.87 KCAL/MOL
REMARK 923 INTER-LIGAND FREE ENERGY PREDICTED BY IDOCK:   -4.45 KCAL/MOL
REMARK 924 INTRA-LIGAND FREE ENERGY PREDICTED BY IDOCK:   -0.41 KCAL/MOL
REMARK 927      BINDING AFFINITY PREDICTED BY RF-SCORE:    0.00 PKD
ROOT
HETATM    1  O   UNL     1      -9.818  13.953  64.614  1.00  0.00    -0.579 OA 
HETATM    2  H   UNL     1      -8.963  13.862  64.210  1.00  0.00     0.000 HD 
HETATM    3  C   UNL     1     -10.700  12.932  64.169  1.00  0.00    -0.415 C  
ENDROOT
BRANCH   3   4
HETATM    4  C   UNL     1     -12.078  13.077  64.820  1.00  0.00    -0.415 C  
HETATM    5  H   UNL     1     -13.918  12.531  64.403  1.00  0.00     0.000 HD 
HETATM    6  O   UNL     1     -13.063  12.441  64.000  1.00  0.00    -0.763 OA 
BRANCH   4   7
HETATM    7  C   UNL     1     -12.127  12.512  66.247  1.00  0.00    -0.243 C  
BRANCH   7   8
HETATM    8  O   UNL     1     -10.812  12.116  66.671  1.00  0.00    -0.248 OA 
BRANCH   8   9
HETATM    9  C   UNL     1     -10.733  10.922  67.341  1.00  0.00    -0.257 A  
HETATM   10  C   UNL     1     -10.403   9.688  66.769  1.00  0.00    -0.292 A  
HETATM   11  C   UNL     1     -10.351   8.533  67.553  1.00  0.00    -0.334 A  
HETATM   12  C   UNL     1     -10.627   8.605  68.913  1.00  0.00    -0.144 A  
HETATM   13  C   UNL     1     -10.958   9.825  69.498  1.00  0.00    -0.256 A  
HETATM   14 CL   UNL     1     -10.559   7.181  69.875  1.00  0.00    -0.236 Cl 
HETATM   15  C   UNL     1     -11.011  10.981  68.710  1.00  0.00    -0.270 A  
ENDBRANCH   8   9
ENDBRANCH   7   8
ENDBRANCH   4   7
ENDBRANCH   3   4
TORSDOF 4
ENDMDL
MODEL       77
REMARK 921   NORMALIZED FREE ENERGY PREDICTED BY IDOCK:   -3.76 KCAL/MOL
REMARK 922        TOTAL FREE ENERGY PREDICTED BY IDOCK:   -4.83 KCAL/MOL
REMARK 923 INTER-LIGAND FREE ENERGY PREDICTED BY IDOCK:   -4.41 KCAL/MOL
REMARK 924 INTRA-LIGAND FREE ENERGY PREDICTED BY IDOCK:   -0.42 KCAL/MOL
REMARK 927      BINDING AFFINITY PREDICTED BY RF-SCORE:    0.00 PKD
ROOT
HETATM    1  O   UNL     1      -9.395   9.324  70.844  1.00  0.00    -0.251 OA 
HETATM    2  H   UNL     1      -9.352   8.464  71.244  1.00  0.00     0.000 HD 
HETATM    3  C   UNL     1      -9.494   9.221  69.430  1.00  0.00    -0.168 C  
ENDROOT
BRANCH   3   4
HETATM    4  C   UNL     1      -9.563  10.607  68.785  1.00  0.00    -0.186 C  
HETATM    5  H   UNL     1      -9.176  11.381  67.021  1.00  0.00     0.000 HD 
HETATM    6  O   UNL     1      -9.133  10.521  67.422  1.00  0.00    -0.139 OA 
BRANCH   4   7
HETATM    7  C   UNL     1     -10.963  11.233  68.863  1.00  0.00    -0.223 C  
BRANCH   7   8
HETATM    8  O   UNL     1     -11.563  10.952  70.138  1.00  0.00    -0.289 OA 
BRANCH   8   9
HETATM    9  C   UNL     1     -12.223  11.997  70.733  1.00  0.00    -0.286 A  
HETATM   10  C   UNL     1     -13.043  11.904  71.863  1.00  0.00    -0.474 A  
HETATM   11  C   UNL     1     -13.665  13.040  72.385  1.00  0.00    -0.593 A  
HETATM   12  C   UNL     1     -13.468  14.277  71.781  1.00  0.00    -0.381 A  
HETATM   13  C   UNL     1     -12.656  14.388  70.656  1.00  0.00    -0.424 A  
HETATM   14 CL   UNL     1     -14.234  15.675  72.430  1.00  0.00    -0.613 Cl 
HETATM   15  C   UNL     1     -12.035  13.246  70.133  1.00  0.00    -0.388 A  
ENDBRANCH   8   9
ENDBRANCH   7   8
ENDBRANCH   4   7
ENDBRANCH   3   4
TORSDOF 4
ENDMDL
MODEL       78
REMARK 921   NORMALIZED FREE ENERGY PREDICTED BY IDOCK:   -3.70 KCAL/MOL
REMARK 922        TOTAL FREE ENERGY PREDICTED BY IDOCK:   -4.76 KCAL/MOL
REMARK 923 INTER-LIGAND FREE ENERGY PREDICTED BY IDOCK:   -4.49 KCAL/MOL
REMARK 924 INTRA-LIGAND FREE ENERGY PREDICTED BY IDOCK:   -0.27 KCAL/MOL
REMARK 927      BINDING AFFINITY PREDICTED BY RF-SCORE:    0.00 PKD
ROOT
HETATM    1  O   UNL     1     -10.687  10.737  70.160  1.00  0.00    -0.457 OA 
HETATM    2  H   UNL     1     -10.366  10.922  69.286  1.00  0.00     0.000 HD 
HETATM    3  C   UNL     1     -12.068  11.050  70.272  1.00  0.00    -0.362 C  
ENDROOT
BRANCH   3   4
HETATM    4  C   UNL     1     -12.585  10.751  71.681  1.00  0.00    -0.351 C  
HETATM    5  H   UNL     1     -13.783  11.617  72.975  1.00  0.00     0.000 HD 
HETATM    6  O   UNL     1     -13.462  11.802  72.101  1.00  0.00    -0.446 OA 
BRANCH   4   7
HETATM    7  C   UNL     1     -13.295   9.393  71.781  1.00  0.00    -0.415 C  
BRANCH   7   8
HETATM    8  O   UNL     1     -12.578   8.521  72.670  1.00  0.00    -0.355 OA 
BRANCH   8   9
HETATM    9  C   UNL     1     -11.847   7.526  72.074  1.00  0.00    -0.294 A  
HETATM   10  C   UNL     1     -10.848   6.768  72.693  1.00  0.00    -0.282 A  
HETATM   11  C   UNL     1     -10.168   5.774  71.984  1.00  0.00    -0.245 A  
HETATM   12  C   UNL     1     -10.485   5.532  70.652  1.00  0.00    -0.272 A  
HETATM   13  C   UNL     1     -11.477   6.278  70.021  1.00  0.00    -0.460 A  
HETATM   14 CL   UNL     1      -9.647   4.306  69.785  1.00  0.00    -0.265 Cl 
HETATM   15  C   UNL     1     -12.156   7.275  70.733  1.00  0.00    -0.284 A  
ENDBRANCH   8   9
ENDBRANCH   7   8
ENDBRANCH   4   7
ENDBRANCH   3   4
TORSDOF 4
ENDMDL
MODEL       79
REMARK 921   NORMALIZED FREE ENERGY PREDICTED BY IDOCK:   -3.69 KCAL/MOL
REMARK 922        TOTAL FREE ENERGY PREDICTED BY IDOCK:   -4.74 KCAL/MOL
REMARK 923 INTER-LIGAND FREE ENERGY PREDICTED BY IDOCK:   -4.62 KCAL/MOL
REMARK 924 INTRA-LIGAND FREE ENERGY PREDICTED BY IDOCK:   -0.12 KCAL/MOL
REMARK 927      BINDING AFFINITY PREDICTED BY RF-SCORE:    0.00 PKD
ROOT
HETATM    1  O   UNL     1     -12.393  14.440  63.595  1.00  0.00    -1.051 OA 
HETATM    2  H   UNL     1     -13.187  14.544  63.084  1.00  0.00     0.000 HD 
HETATM    3  C   UNL     1     -12.003  13.076  63.657  1.00  0.00    -0.539 C  
ENDROOT
BRANCH   3   4
HETATM    4  C   UNL     1     -10.724  12.909  64.480  1.00  0.00    -0.371 C  
HETATM    5  H   UNL     1      -9.427  14.095  65.358  1.00  0.00     0.000 HD 
HETATM    6  O   UNL     1     -10.221  14.198  64.847  1.00  0.00    -0.412 OA 
BRANCH   4   7
HETATM    7  C   UNL     1     -10.928  12.040  65.730  1.00  0.00    -0.307 C  
BRANCH   7   8
HETATM    8  O   UNL     1      -9.989  10.953  65.739  1.00  0.00    -0.225 OA 
BRANCH   8   9
HETATM    9  C   UNL     1     -10.128  10.050  66.762  1.00  0.00    -0.226 A  
HETATM   10  C   UNL     1     -10.346  10.370  68.106  1.00  0.00    -0.202 A  
HETATM   11  C   UNL     1     -10.475   9.363  69.065  1.00  0.00    -0.233 A  
HETATM   12  C   UNL     1     -10.390   8.028  68.684  1.00  0.00    -0.200 A  
HETATM   13  C   UNL     1     -10.173   7.692  67.350  1.00  0.00    -0.320 A  
HETATM   14 CL   UNL     1     -10.552   6.791  69.868  1.00  0.00    -0.239 Cl 
HETATM   15  C   UNL     1     -10.042   8.704  66.391  1.00  0.00    -0.294 A  
ENDBRANCH   8   9
ENDBRANCH   7   8
ENDBRANCH   4   7
ENDBRANCH   3   4
TORSDOF 4
ENDMDL
MODEL       80
REMARK 921   NORMALIZED FREE ENERGY PREDICTED BY IDOCK:   -3.67 KCAL/MOL
REMARK 922        TOTAL FREE ENERGY PREDICTED BY IDOCK:   -4.72 KCAL/MOL
REMARK 923 INTER-LIGAND FREE ENERGY PREDICTED BY IDOCK:   -4.36 KCAL/MOL
REMARK 924 INTRA-LIGAND FREE ENERGY PREDICTED BY IDOCK:   -0.37 KCAL/MOL
REMARK 927      BINDING AFFINITY PREDICTED BY RF-SCORE:    0.00 PKD
ROOT
HETATM    1  O   UNL     1     -10.978  11.141  63.115  1.00  0.00    -0.802 OA 
HETATM    2  H   UNL     1     -11.323  11.344  62.253  1.00  0.00     0.000 HD 
HETATM    3  C   UNL     1      -9.650  10.645  63.027  1.00  0.00    -0.348 C  
ENDROOT
BRANCH   3   4
HETATM    4  C   UNL     1      -9.095  10.318  64.415  1.00  0.00    -0.239 C  
HETATM    5  H   UNL     1      -7.328   9.978  65.202  1.00  0.00     0.000 HD 
HETATM    6  O   UNL     1      -7.672  10.181  64.341  1.00  0.00    -0.143 OA 
BRANCH   4   7
HETATM    7  C   UNL     1      -9.476  11.365  65.472  1.00  0.00    -0.227 C  
BRANCH   7   8
HETATM    8  O   UNL     1     -10.815  11.135  65.941  1.00  0.00    -0.240 OA 
BRANCH   8   9
HETATM    9  C   UNL     1     -10.928  10.685  67.231  1.00  0.00    -0.284 A  
HETATM   10  C   UNL     1     -10.492   9.441  67.700  1.00  0.00    -0.328 A  
HETATM   11  C   UNL     1     -10.660   9.089  69.041  1.00  0.00    -0.209 A  
HETATM   12  C   UNL     1     -11.262   9.980  69.922  1.00  0.00    -0.275 A  
HETATM   13  C   UNL     1     -11.702  11.222  69.472  1.00  0.00    -0.415 A  
HETATM   14 CL   UNL     1     -11.463   9.544  71.574  1.00  0.00    -0.461 Cl 
HETATM   15  C   UNL     1     -11.535  11.572  68.126  1.00  0.00    -0.385 A  
ENDBRANCH   8   9
ENDBRANCH   7   8
ENDBRANCH   4   7
ENDBRANCH   3   4
TORSDOF 4
ENDMDL
MODEL       81
REMARK 921   NORMALIZED FREE ENERGY PREDICTED BY IDOCK:   -3.67 KCAL/MOL
REMARK 922        TOTAL FREE ENERGY PREDICTED BY IDOCK:   -4.72 KCAL/MOL
REMARK 923 INTER-LIGAND FREE ENERGY PREDICTED BY IDOCK:   -4.43 KCAL/MOL
REMARK 924 INTRA-LIGAND FREE ENERGY PREDICTED BY IDOCK:   -0.29 KCAL/MOL
REMARK 927      BINDING AFFINITY PREDICTED BY RF-SCORE:    0.00 PKD
ROOT
HETATM    1  O   UNL     1      -9.169   6.302  71.448  1.00  0.00    -0.149 OA 
HETATM    2  H   UNL     1      -8.477   5.980  70.882  1.00  0.00     0.000 HD 
HETATM    3  C   UNL     1     -10.199   5.333  71.591  1.00  0.00    -0.212 C  
ENDROOT
BRANCH   3   4
HETATM    4  C   UNL     1     -11.314   5.851  72.502  1.00  0.00    -0.304 C  
HETATM    5  H   UNL     1     -11.431   6.739  74.251  1.00  0.00     0.000 HD 
HETATM    6  O   UNL     1     -10.739   6.418  73.685  1.00  0.00    -0.273 OA 
BRANCH   4   7
HETATM    7  C   UNL     1     -12.225   6.874  71.809  1.00  0.00    -0.356 C  
BRANCH   7   8
HETATM    8  O   UNL     1     -12.250   8.103  72.553  1.00  0.00    -0.344 OA 
BRANCH   8   9
HETATM    9  C   UNL     1     -12.208   9.254  71.808  1.00  0.00    -0.385 A  
HETATM   10  C   UNL     1     -12.982  10.398  72.035  1.00  0.00    -0.499 A  
HETATM   11  C   UNL     1     -12.854  11.517  71.209  1.00  0.00    -0.463 A  
HETATM   12  C   UNL     1     -11.948  11.501  70.154  1.00  0.00    -0.369 A  
HETATM   13  C   UNL     1     -11.170  10.371  69.915  1.00  0.00    -0.371 A  
HETATM   14 CL   UNL     1     -11.791  12.883  69.143  1.00  0.00    -0.356 Cl 
HETATM   15  C   UNL     1     -11.302   9.249  70.742  1.00  0.00    -0.349 A  
ENDBRANCH   8   9
ENDBRANCH   7   8
ENDBRANCH   4   7
ENDBRANCH   3   4
TORSDOF 4
ENDMDL
MODEL       82
REMARK 921   NORMALIZED FREE ENERGY PREDICTED BY IDOCK:   -3.67 KCAL/MOL
REMARK 922        TOTAL FREE ENERGY PREDICTED BY IDOCK:   -4.72 KCAL/MOL
REMARK 923 INTER-LIGAND FREE ENERGY PREDICTED BY IDOCK:   -4.48 KCAL/MOL
REMARK 924 INTRA-LIGAND FREE ENERGY PREDICTED BY IDOCK:   -0.24 KCAL/MOL
REMARK 927      BINDING AFFINITY PREDICTED BY RF-SCORE:    0.00 PKD
ROOT
HETATM    1  O   UNL     1     -10.421  19.823  69.276  1.00  0.00    -0.599 OA 
HETATM    2  H   UNL     1      -9.953  20.471  69.789  1.00  0.00     0.000 HD 
HETATM    3  C   UNL     1     -10.019  19.865  67.914  1.00  0.00    -0.422 C  
ENDROOT
BRANCH   3   4
HETATM    4  C   UNL     1     -10.773  18.820  67.089  1.00  0.00    -0.403 C  
HETATM    5  H   UNL     1     -10.747  18.179  65.232  1.00  0.00     0.000 HD 
HETATM    6  O   UNL     1     -10.280  18.827  65.744  1.00  0.00    -0.541 OA 
BRANCH   4   7
HETATM    7  C   UNL     1     -10.678  17.408  67.684  1.00  0.00    -0.310 C  
BRANCH   7   8
HETATM    8  O   UNL     1      -9.453  16.777  67.276  1.00  0.00    -0.226 OA 
BRANCH   8   9
HETATM    9  C   UNL     1      -9.569  15.495  66.802  1.00  0.00    -0.235 A  
HETATM   10  C   UNL     1      -8.856  14.387  67.272  1.00  0.00    -0.225 A  
HETATM   11  C   UNL     1      -9.058  13.123  66.713  1.00  0.00    -0.214 A  
HETATM   12  C   UNL     1      -9.976  12.959  65.681  1.00  0.00    -0.235 A  
HETATM   13  C   UNL     1     -10.694  14.052  65.201  1.00  0.00    -0.393 A  
HETATM   14 CL   UNL     1     -10.224  11.400  64.998  1.00  0.00    -0.314 Cl 
HETATM   15  C   UNL     1     -10.488  15.319  65.762  1.00  0.00    -0.365 A  
ENDBRANCH   8   9
ENDBRANCH   7   8
ENDBRANCH   4   7
ENDBRANCH   3   4
TORSDOF 4
ENDMDL
MODEL       83
REMARK 921   NORMALIZED FREE ENERGY PREDICTED BY IDOCK:   -3.66 KCAL/MOL
REMARK 922        TOTAL FREE ENERGY PREDICTED BY IDOCK:   -4.71 KCAL/MOL
REMARK 923 INTER-LIGAND FREE ENERGY PREDICTED BY IDOCK:   -4.50 KCAL/MOL
REMARK 924 INTRA-LIGAND FREE ENERGY PREDICTED BY IDOCK:   -0.20 KCAL/MOL
REMARK 927      BINDING AFFINITY PREDICTED BY RF-SCORE:    0.00 PKD
ROOT
HETATM    1  O   UNL     1      -8.063  14.661  69.598  1.00  0.00    -0.400 OA 
HETATM    2  H   UNL     1      -7.150  14.884  69.462  1.00  0.00     0.000 HD 
HETATM    3  C   UNL     1      -8.913  15.713  69.163  1.00  0.00    -0.257 C  
ENDROOT
BRANCH   3   4
HETATM    4  C   UNL     1     -10.384  15.353  69.382  1.00  0.00    -0.258 C  
HETATM    5  H   UNL     1     -11.762  15.737  70.729  1.00  0.00     0.000 HD 
HETATM    6  O   UNL     1     -10.849  15.960  70.592  1.00  0.00    -0.310 OA 
BRANCH   4   7
HETATM    7  C   UNL     1     -11.280  15.761  68.203  1.00  0.00    -0.344 C  
BRANCH   7   8
HETATM    8  O   UNL     1     -12.101  14.654  67.796  1.00  0.00    -0.314 OA 
BRANCH   8   9
HETATM    9  C   UNL     1     -11.644  13.933  66.723  1.00  0.00    -0.378 A  
HETATM   10  C   UNL     1     -11.226  14.469  65.501  1.00  0.00    -0.335 A  
HETATM   11  C   UNL     1     -10.776  13.634  64.475  1.00  0.00    -0.420 A  
HETATM   12  C   UNL     1     -10.739  12.258  64.667  1.00  0.00    -0.308 A  
HETATM   13  C   UNL     1     -11.152  11.707  65.878  1.00  0.00    -0.320 A  
HETATM   14 CL   UNL     1     -10.181  11.234  63.403  1.00  0.00    -0.423 Cl 
HETATM   15  C   UNL     1     -11.605  12.546  66.904  1.00  0.00    -0.436 A  
ENDBRANCH   8   9
ENDBRANCH   7   8
ENDBRANCH   4   7
ENDBRANCH   3   4
TORSDOF 4
ENDMDL
MODEL       84
REMARK 921   NORMALIZED FREE ENERGY PREDICTED BY IDOCK:   -3.63 KCAL/MOL
REMARK 922        TOTAL FREE ENERGY PREDICTED BY IDOCK:   -4.67 KCAL/MOL
REMARK 923 INTER-LIGAND FREE ENERGY PREDICTED BY IDOCK:   -4.49 KCAL/MOL
REMARK 924 INTRA-LIGAND FREE ENERGY PREDICTED BY IDOCK:   -0.18 KCAL/MOL
REMARK 927      BINDING AFFINITY PREDICTED BY RF-SCORE:    0.00 PKD
ROOT
HETATM    1  O   UNL     1     -11.122   5.478  65.964  1.00  0.00    -0.751 OA 
HETATM    2  H   UNL     1     -11.864   4.886  65.973  1.00  0.00     0.000 HD 
HETATM    3  C   UNL     1     -11.159   6.357  67.080  1.00  0.00    -0.341 C  
ENDROOT
BRANCH   3   4
HETATM    4  C   UNL     1      -9.962   7.310  67.066  1.00  0.00    -0.224 C  
HETATM    5  H   UNL     1      -8.372   7.588  65.946  1.00  0.00     0.000 HD 
HETATM    6  O   UNL     1      -9.115   6.997  65.955  1.00  0.00    -0.148 OA 
BRANCH   4   7
HETATM    7  C   UNL     1     -10.377   8.788  67.019  1.00  0.00    -0.283 C  
BRANCH   7   8
HETATM    8  O   UNL     1      -9.744   9.517  68.084  1.00  0.00    -0.143 OA 
BRANCH   8   9
HETATM    9  C   UNL     1     -10.583  10.028  69.040  1.00  0.00    -0.214 A  
HETATM   10  C   UNL     1     -10.950   9.387  70.228  1.00  0.00    -0.305 A  
HETATM   11  C   UNL     1     -11.814  10.007  71.134  1.00  0.00    -0.481 A  
HETATM   12  C   UNL     1     -12.313  11.275  70.858  1.00  0.00    -0.388 A  
HETATM   13  C   UNL     1     -11.957  11.928  69.680  1.00  0.00    -0.365 A  
HETATM   14 CL   UNL     1     -13.373  12.037  71.977  1.00  0.00    -0.557 Cl 
HETATM   15  C   UNL     1     -11.093  11.303  68.773  1.00  0.00    -0.288 A  
ENDBRANCH   8   9
ENDBRANCH   7   8
ENDBRANCH   4   7
ENDBRANCH   3   4
TORSDOF 4
ENDMDL
MODEL       85
REMARK 921   NORMALIZED FREE ENERGY PREDICTED BY IDOCK:   -3.61 KCAL/MOL
REMARK 922        TOTAL FREE ENERGY PREDICTED BY IDOCK:   -4.64 KCAL/MOL
REMARK 923 INTER-LIGAND FREE ENERGY PREDICTED BY IDOCK:   -4.45 KCAL/MOL
REMARK 924 INTRA-LIGAND FREE ENERGY PREDICTED BY IDOCK:   -0.19 KCAL/MOL
REMARK 927      BINDING AFFINITY PREDICTED BY RF-SCORE:    0.00 PKD
ROOT
HETATM    1  O   UNL     1      -9.930   9.459  65.239  1.00  0.00    -0.434 OA 
HETATM    2  H   UNL     1      -9.525   8.663  65.562  1.00  0.00     0.000 HD 
HETATM    3  C   UNL     1      -9.578  10.572  66.049  1.00  0.00    -0.194 C  
ENDROOT
BRANCH   3   4
HETATM    4  C   UNL     1     -10.230  11.855  65.527  1.00  0.00    -0.254 C  
HETATM    5  H   UNL     1     -11.055  12.457  63.849  1.00  0.00     0.000 HD 
HETATM    6  O   UNL     1     -10.650  11.661  64.172  1.00  0.00    -0.298 OA 
BRANCH   4   7
HETATM    7  C   UNL     1     -11.413  12.317  66.391  1.00  0.00    -0.378 C  
BRANCH   7   8
HETATM    8  O   UNL     1     -11.113  13.577  67.013  1.00  0.00    -0.287 OA 
BRANCH   8   9
HETATM    9  C   UNL     1     -11.587  13.743  68.289  1.00  0.00    -0.338 A  
HETATM   10  C   UNL     1     -11.966  14.961  68.864  1.00  0.00    -0.295 A  
HETATM   11  C   UNL     1     -12.438  15.010  70.178  1.00  0.00    -0.356 A  
HETATM   12  C   UNL     1     -12.538  13.840  70.923  1.00  0.00    -0.356 A  
HETATM   13  C   UNL     1     -12.166  12.619  70.365  1.00  0.00    -0.368 A  
HETATM   14 CL   UNL     1     -13.124  13.905  72.539  1.00  0.00    -0.528 Cl 
HETATM   15  C   UNL     1     -11.690  12.573  69.049  1.00  0.00    -0.368 A  
ENDBRANCH   8   9
ENDBRANCH   7   8
ENDBRANCH   4   7
ENDBRANCH   3   4
TORSDOF 4
ENDMDL
MODEL       86
REMARK 921   NORMALIZED FREE ENERGY PREDICTED BY IDOCK:   -3.57 KCAL/MOL
REMARK 922        TOTAL FREE ENERGY PREDICTED BY IDOCK:   -4.59 KCAL/MOL
REMARK 923 INTER-LIGAND FREE ENERGY PREDICTED BY IDOCK:   -4.16 KCAL/MOL
REMARK 924 INTRA-LIGAND FREE ENERGY PREDICTED BY IDOCK:   -0.43 KCAL/MOL
REMARK 927      BINDING AFFINITY PREDICTED BY RF-SCORE:    0.00 PKD
ROOT
HETATM    1  O   UNL     1     -11.476   7.999  69.811  1.00  0.00    -0.454 OA 
HETATM    2  H   UNL     1     -11.909   7.287  70.268  1.00  0.00     0.000 HD 
HETATM    3  C   UNL     1     -10.532   7.501  68.874  1.00  0.00    -0.203 C  
ENDROOT
BRANCH   3   4
HETATM    4  C   UNL     1      -9.834   8.647  68.139  1.00  0.00    -0.165 C  
HETATM    5  H   UNL     1      -9.884   9.427  66.336  1.00  0.00     0.000 HD 
HETATM    6  O   UNL     1     -10.317   8.716  66.793  1.00  0.00    -0.286 OA 
BRANCH   4   7
HETATM    7  C   UNL     1     -10.013  10.002  68.839  1.00  0.00    -0.192 C  
BRANCH   7   8
HETATM    8  O   UNL     1     -11.240  10.621  68.420  1.00  0.00    -0.254 OA 
BRANCH   8   9
HETATM    9  C   UNL     1     -11.629  11.724  69.135  1.00  0.00    -0.310 A  
HETATM   10  C   UNL     1     -11.427  13.055  68.752  1.00  0.00    -0.340 A  
HETATM   11  C   UNL     1     -11.869  14.103  69.563  1.00  0.00    -0.373 A  
HETATM   12  C   UNL     1     -12.520  13.826  70.760  1.00  0.00    -0.370 A  
HETATM   13  C   UNL     1     -12.730  12.508  71.156  1.00  0.00    -0.340 A  
HETATM   14 CL   UNL     1     -13.066  15.120  71.754  1.00  0.00    -0.419 Cl 
HETATM   15  C   UNL     1     -12.283  11.459  70.343  1.00  0.00    -0.450 A  
ENDBRANCH   8   9
ENDBRANCH   7   8
ENDBRANCH   4   7
ENDBRANCH   3   4
TORSDOF 4
ENDMDL
MODEL       87
REMARK 921   NORMALIZED FREE ENERGY PREDICTED BY IDOCK:   -3.56 KCAL/MOL
REMARK 922        TOTAL FREE ENERGY PREDICTED BY IDOCK:   -4.58 KCAL/MOL
REMARK 923 INTER-LIGAND FREE ENERGY PREDICTED BY IDOCK:   -4.37 KCAL/MOL
REMARK 924 INTRA-LIGAND FREE ENERGY PREDICTED BY IDOCK:   -0.20 KCAL/MOL
REMARK 927      BINDING AFFINITY PREDICTED BY RF-SCORE:    0.00 PKD
ROOT
HETATM    1  O   UNL     1      -9.143  14.749  69.499  1.00  0.00    -0.412 OA 
HETATM    2  H   UNL     1      -8.196  14.674  69.503  1.00  0.00     0.000 HD 
HETATM    3  C   UNL     1      -9.669  14.468  68.210  1.00  0.00    -0.218 C  
ENDROOT
BRANCH   3   4
HETATM    4  C   UNL     1     -11.195  14.587  68.204  1.00  0.00    -0.284 C  
HETATM    5  H   UNL     1     -12.520  15.966  68.654  1.00  0.00     0.000 HD 
HETATM    6  O   UNL     1     -11.574  15.892  68.657  1.00  0.00    -0.382 OA 
BRANCH   4   7
HETATM    7  C   UNL     1     -11.811  14.302  66.827  1.00  0.00    -0.426 C  
BRANCH   7   8
HETATM    8  O   UNL     1     -12.336  12.966  66.783  1.00  0.00    -0.405 OA 
BRANCH   8   9
HETATM    9  C   UNL     1     -11.461  11.991  66.377  1.00  0.00    -0.353 A  
HETATM   10  C   UNL     1     -10.930  10.984  67.191  1.00  0.00    -0.344 A  
HETATM   11  C   UNL     1     -10.045  10.040  66.666  1.00  0.00    -0.289 A  
HETATM   12  C   UNL     1      -9.687  10.095  65.324  1.00  0.00    -0.300 A  
HETATM   13  C   UNL     1     -10.206  11.091  64.500  1.00  0.00    -0.406 A  
HETATM   14 CL   UNL     1      -8.599   8.928  64.681  1.00  0.00    -0.187 Cl 
HETATM   15  C   UNL     1     -11.092  12.038  65.029  1.00  0.00    -0.368 A  
ENDBRANCH   8   9
ENDBRANCH   7   8
ENDBRANCH   4   7
ENDBRANCH   3   4
TORSDOF 4
ENDMDL
MODEL       88
REMARK 921   NORMALIZED FREE ENERGY PREDICTED BY IDOCK:   -3.56 KCAL/MOL
REMARK 922        TOTAL FREE ENERGY PREDICTED BY IDOCK:   -4.58 KCAL/MOL
REMARK 923 INTER-LIGAND FREE ENERGY PREDICTED BY IDOCK:   -4.40 KCAL/MOL
REMARK 924 INTRA-LIGAND FREE ENERGY PREDICTED BY IDOCK:   -0.17 KCAL/MOL
REMARK 927      BINDING AFFINITY PREDICTED BY RF-SCORE:    0.00 PKD
ROOT
HETATM    1  O   UNL     1     -11.312   5.684  66.226  1.00  0.00    -0.734 OA 
HETATM    2  H   UNL     1     -12.147   5.271  66.411  1.00  0.00     0.000 HD 
HETATM    3  C   UNL     1     -11.031   6.707  67.171  1.00  0.00    -0.408 C  
ENDROOT
BRANCH   3   4
HETATM    4  C   UNL     1      -9.685   7.372  66.873  1.00  0.00    -0.205 C  
HETATM    5  H   UNL     1      -8.075   6.933  65.836  1.00  0.00     0.000 HD 
HETATM    6  O   UNL     1      -8.910   6.521  66.021  1.00  0.00    -0.152 OA 
BRANCH   4   7
HETATM    7  C   UNL     1      -9.834   8.764  66.243  1.00  0.00    -0.272 C  
BRANCH   7   8
HETATM    8  O   UNL     1     -10.523   9.647  67.143  1.00  0.00    -0.247 OA 
BRANCH   8   9
HETATM    9  C   UNL     1     -10.845  10.882  66.641  1.00  0.00    -0.197 A  
HETATM   10  C   UNL     1     -11.388  11.942  67.375  1.00  0.00    -0.389 A  
HETATM   11  C   UNL     1     -11.676  13.161  66.757  1.00  0.00    -0.439 A  
HETATM   12  C   UNL     1     -11.420  13.327  65.400  1.00  0.00    -0.304 A  
HETATM   13  C   UNL     1     -10.880  12.283  64.655  1.00  0.00    -0.349 A  
HETATM   14 CL   UNL     1     -11.773  14.831  64.644  1.00  0.00    -0.424 Cl 
HETATM   15  C   UNL     1     -10.595  11.061  65.277  1.00  0.00    -0.283 A  
ENDBRANCH   8   9
ENDBRANCH   7   8
ENDBRANCH   4   7
ENDBRANCH   3   4
TORSDOF 4
ENDMDL
MODEL       89
REMARK 921   NORMALIZED FREE ENERGY PREDICTED BY IDOCK:   -3.55 KCAL/MOL
REMARK 922        TOTAL FREE ENERGY PREDICTED BY IDOCK:   -4.57 KCAL/MOL
REMARK 923 INTER-LIGAND FREE ENERGY PREDICTED BY IDOCK:   -4.17 KCAL/MOL
REMARK 924 INTRA-LIGAND FREE ENERGY PREDICTED BY IDOCK:   -0.40 KCAL/MOL
REMARK 927      BINDING AFFINITY PREDICTED BY RF-SCORE:    0.00 PKD
ROOT
HETATM    1  O   UNL     1      -9.875  12.605  68.757  1.00  0.00    -0.402 OA 
HETATM    2  H   UNL     1      -9.408  11.944  68.260  1.00  0.00     0.000 HD 
HETATM    3  C   UNL     1     -11.247  12.642  68.391  1.00  0.00    -0.279 C  
ENDROOT
BRANCH   3   4
HETATM    4  C   UNL     1     -11.999  13.707  69.192  1.00  0.00    -0.351 C  
HETATM    5  H   UNL     1     -12.574  13.950  71.055  1.00  0.00     0.000 HD 
HETATM    6  O   UNL     1     -12.107  13.290  70.557  1.00  0.00    -0.352 OA 
BRANCH   4   7
HETATM    7  C   UNL     1     -11.342  15.092  69.108  1.00  0.00    -0.298 C  
BRANCH   7   8
HETATM    8  O   UNL     1     -10.790  15.302  67.798  1.00  0.00    -0.278 OA 
BRANCH   8   9
HETATM    9  C   UNL     1     -10.138  16.493  67.607  1.00  0.00    -0.266 A  
HETATM   10  C   UNL     1      -8.954  16.666  66.881  1.00  0.00    -0.244 A  
HETATM   11  C   UNL     1      -8.378  17.931  66.751  1.00  0.00    -0.273 A  
HETATM   12  C   UNL     1      -8.983  19.033  67.345  1.00  0.00    -0.291 A  
HETATM   13  C   UNL     1     -10.162  18.879  68.071  1.00  0.00    -0.452 A  
HETATM   14 CL   UNL     1      -8.272  20.590  67.179  1.00  0.00    -0.375 Cl 
HETATM   15  C   UNL     1     -10.736  17.609  68.202  1.00  0.00    -0.312 A  
ENDBRANCH   8   9
ENDBRANCH   7   8
ENDBRANCH   4   7
ENDBRANCH   3   4
TORSDOF 4
ENDMDL
MODEL       90
REMARK 921   NORMALIZED FREE ENERGY PREDICTED BY IDOCK:   -3.55 KCAL/MOL
REMARK 922        TOTAL FREE ENERGY PREDICTED BY IDOCK:   -4.57 KCAL/MOL
REMARK 923 INTER-LIGAND FREE ENERGY PREDICTED BY IDOCK:   -4.39 KCAL/MOL
REMARK 924 INTRA-LIGAND FREE ENERGY PREDICTED BY IDOCK:   -0.18 KCAL/MOL
REMARK 927      BINDING AFFINITY PREDICTED BY RF-SCORE:    0.00 PKD
ROOT
HETATM    1  O   UNL     1      -8.958   8.561  64.359  1.00  0.00    -0.407 OA 
HETATM    2  H   UNL     1      -8.099   8.487  63.961  1.00  0.00     0.000 HD 
HETATM    3  C   UNL     1      -8.868   9.110  65.666  1.00  0.00    -0.185 C  
ENDROOT
BRANCH   3   4
HETATM    4  C   UNL     1     -10.253   9.231  66.306  1.00  0.00    -0.203 C  
HETATM    5  H   UNL     1     -11.457   8.066  67.332  1.00  0.00     0.000 HD 
HETATM    6  O   UNL     1     -10.598   7.992  66.935  1.00  0.00    -0.338 OA 
BRANCH   4   7
HETATM    7  C   UNL     1     -10.347  10.385  67.314  1.00  0.00    -0.228 C  
BRANCH   7   8
HETATM    8  O   UNL     1     -11.579  11.103  67.136  1.00  0.00    -0.495 OA 
BRANCH   8   9
HETATM    9  C   UNL     1     -11.470  12.351  66.577  1.00  0.00    -0.371 A  
HETATM   10  C   UNL     1     -10.648  13.382  67.045  1.00  0.00    -0.264 A  
HETATM   11  C   UNL     1     -10.617  14.616  66.392  1.00  0.00    -0.301 A  
HETATM   12  C   UNL     1     -11.405  14.826  65.267  1.00  0.00    -0.363 A  
HETATM   13  C   UNL     1     -12.229  13.810  64.788  1.00  0.00    -0.438 A  
HETATM   14 CL   UNL     1     -11.361  16.347  64.464  1.00  0.00    -0.321 Cl 
HETATM   15  C   UNL     1     -12.261  12.574  65.446  1.00  0.00    -0.475 A  
ENDBRANCH   8   9
ENDBRANCH   7   8
ENDBRANCH   4   7
ENDBRANCH   3   4
TORSDOF 4
ENDMDL
MODEL       91
REMARK 921   NORMALIZED FREE ENERGY PREDICTED BY IDOCK:   -3.54 KCAL/MOL
REMARK 922        TOTAL FREE ENERGY PREDICTED BY IDOCK:   -4.56 KCAL/MOL
REMARK 923 INTER-LIGAND FREE ENERGY PREDICTED BY IDOCK:   -4.29 KCAL/MOL
REMARK 924 INTRA-LIGAND FREE ENERGY PREDICTED BY IDOCK:   -0.27 KCAL/MOL
REMARK 927      BINDING AFFINITY PREDICTED BY RF-SCORE:    0.00 PKD
ROOT
HETATM    1  O   UNL     1      -9.067  12.060  66.909  1.00  0.00    -0.184 OA 
HETATM    2  H   UNL     1      -8.741  11.698  67.724  1.00  0.00     0.000 HD 
HETATM    3  C   UNL     1     -10.019  11.190  66.312  1.00  0.00    -0.219 C  
ENDROOT
BRANCH   3   4
HETATM    4  C   UNL     1     -10.545  11.774  64.999  1.00  0.00    -0.288 C  
HETATM    5  H   UNL     1     -10.812  11.137  63.160  1.00  0.00     0.000 HD 
HETATM    6  O   UNL     1     -10.486  10.775  63.975  1.00  0.00    -0.358 OA 
BRANCH   4   7
HETATM    7  C   UNL     1     -11.972  12.328  65.121  1.00  0.00    -0.337 C  
BRANCH   7   8
HETATM    8  O   UNL     1     -12.011  13.700  64.695  1.00  0.00    -0.373 OA 
BRANCH   8   9
HETATM    9  C   UNL     1     -11.489  14.614  65.574  1.00  0.00    -0.341 A  
HETATM   10  C   UNL     1     -10.653  15.683  65.234  1.00  0.00    -0.448 A  
HETATM   11  C   UNL     1     -10.181  16.557  66.216  1.00  0.00    -0.343 A  
HETATM   12  C   UNL     1     -10.544  16.368  67.545  1.00  0.00    -0.309 A  
HETATM   13  C   UNL     1     -11.376  15.309  67.901  1.00  0.00    -0.339 A  
HETATM   14 CL   UNL     1      -9.963  17.448  68.751  1.00  0.00    -0.317 Cl 
HETATM   15  C   UNL     1     -11.846  14.433  66.914  1.00  0.00    -0.433 A  
ENDBRANCH   8   9
ENDBRANCH   7   8
ENDBRANCH   4   7
ENDBRANCH   3   4
TORSDOF 4
ENDMDL
MODEL       92
REMARK 921   NORMALIZED FREE ENERGY PREDICTED BY IDOCK:   -3.54 KCAL/MOL
REMARK 922        TOTAL FREE ENERGY PREDICTED BY IDOCK:   -4.56 KCAL/MOL
REMARK 923 INTER-LIGAND FREE ENERGY PREDICTED BY IDOCK:   -4.27 KCAL/MOL
REMARK 924 INTRA-LIGAND FREE ENERGY PREDICTED BY IDOCK:   -0.30 KCAL/MOL
REMARK 927      BINDING AFFINITY PREDICTED BY RF-SCORE:    0.00 PKD
ROOT
HETATM    1  O   UNL     1     -10.317  10.480  70.229  1.00  0.00    -0.434 OA 
HETATM    2  H   UNL     1      -9.903  10.658  69.393  1.00  0.00     0.000 HD 
HETATM    3  C   UNL     1     -11.713  10.739  70.169  1.00  0.00    -0.339 C  
ENDROOT
BRANCH   3   4
HETATM    4  C   UNL     1     -12.380  10.453  71.517  1.00  0.00    -0.368 C  
HETATM    5  H   UNL     1     -13.776  11.281  72.623  1.00  0.00     0.000 HD 
HETATM    6  O   UNL     1     -13.362  11.459  71.787  1.00  0.00    -0.402 OA 
BRANCH   4   7
HETATM    7  C   UNL     1     -13.015   9.056  71.584  1.00  0.00    -0.361 C  
BRANCH   7   8
HETATM    8  O   UNL     1     -12.236   8.195  72.429  1.00  0.00    -0.344 OA 
BRANCH   8   9
HETATM    9  C   UNL     1     -11.605   7.151  71.802  1.00  0.00    -0.280 A  
HETATM   10  C   UNL     1     -11.632   6.892  70.428  1.00  0.00    -0.385 A  
HETATM   11  C   UNL     1     -10.947   5.796  69.898  1.00  0.00    -0.389 A  
HETATM   12  C   UNL     1     -10.230   4.953  70.740  1.00  0.00    -0.206 A  
HETATM   13  C   UNL     1     -10.193   5.197  72.110  1.00  0.00    -0.258 A  
HETATM   14 CL   UNL     1      -9.385   3.607  70.082  1.00  0.00    -0.227 Cl 
HETATM   15  C   UNL     1     -10.882   6.295  72.640  1.00  0.00    -0.273 A  
ENDBRANCH   8   9
ENDBRANCH   7   8
ENDBRANCH   4   7
ENDBRANCH   3   4
TORSDOF 4
ENDMDL
MODEL       93
REMARK 921   NORMALIZED FREE ENERGY PREDICTED BY IDOCK:   -3.54 KCAL/MOL
REMARK 922        TOTAL FREE ENERGY PREDICTED BY IDOCK:   -4.55 KCAL/MOL
REMARK 923 INTER-LIGAND FREE ENERGY PREDICTED BY IDOCK:   -4.33 KCAL/MOL
REMARK 924 INTRA-LIGAND FREE ENERGY PREDICTED BY IDOCK:   -0.22 KCAL/MOL
REMARK 927      BINDING AFFINITY PREDICTED BY RF-SCORE:    0.00 PKD
ROOT
HETATM    1  O   UNL     1     -11.753   6.638  69.360  1.00  0.00    -0.643 OA 
HETATM    2  H   UNL     1     -12.131   6.557  70.228  1.00  0.00     0.000 HD 
HETATM    3  C   UNL     1     -10.702   7.594  69.350  1.00  0.00    -0.184 C  
ENDROOT
BRANCH   3   4
HETATM    4  C   UNL     1     -10.094   7.725  67.952  1.00  0.00    -0.185 C  
HETATM    5  H   UNL     1     -10.643   7.309  66.112  1.00  0.00     0.000 HD 
HETATM    6  O   UNL     1     -11.021   7.228  66.980  1.00  0.00    -0.358 OA 
BRANCH   4   7
HETATM    7  C   UNL     1      -9.685   9.165  67.611  1.00  0.00    -0.159 C  
BRANCH   7   8
HETATM    8  O   UNL     1     -10.709  10.084  68.024  1.00  0.00    -0.223 OA 
BRANCH   8   9
HETATM    9  C   UNL     1     -10.992  11.099  67.145  1.00  0.00    -0.291 A  
HETATM   10  C   UNL     1     -10.682  11.104  65.781  1.00  0.00    -0.252 A  
HETATM   11  C   UNL     1     -11.022  12.196  64.979  1.00  0.00    -0.355 A  
HETATM   12  C   UNL     1     -11.677  13.289  65.537  1.00  0.00    -0.346 A  
HETATM   13  C   UNL     1     -11.993  13.300  66.893  1.00  0.00    -0.430 A  
HETATM   14 CL   UNL     1     -12.097  14.629  64.545  1.00  0.00    -0.492 Cl 
HETATM   15  C   UNL     1     -11.649  12.205  67.695  1.00  0.00    -0.413 A  
ENDBRANCH   8   9
ENDBRANCH   7   8
ENDBRANCH   4   7
ENDBRANCH   3   4
TORSDOF 4
ENDMDL
MODEL       94
REMARK 921   NORMALIZED FREE ENERGY PREDICTED BY IDOCK:   -3.51 KCAL/MOL
REMARK 922        TOTAL FREE ENERGY PREDICTED BY IDOCK:   -4.52 KCAL/MOL
REMARK 923 INTER-LIGAND FREE ENERGY PREDICTED BY IDOCK:   -4.36 KCAL/MOL
REMARK 924 INTRA-LIGAND FREE ENERGY PREDICTED BY IDOCK:   -0.16 KCAL/MOL
REMARK 927      BINDING AFFINITY PREDICTED BY RF-SCORE:    0.00 PKD
ROOT
HETATM    1  O   UNL     1      -8.541  17.738  67.618  1.00  0.00    -0.226 OA 
HETATM    2  H   UNL     1      -7.993  18.405  68.014  1.00  0.00     0.000 HD 
HETATM    3  C   UNL     1      -9.780  17.627  68.304  1.00  0.00    -0.315 C  
ENDROOT
BRANCH   3   4
HETATM    4  C   UNL     1     -10.663  16.552  67.666  1.00  0.00    -0.311 C  
HETATM    5  H   UNL     1     -10.492  15.242  66.212  1.00  0.00     0.000 HD 
HETATM    6  O   UNL     1      -9.944  15.909  66.608  1.00  0.00    -0.239 OA 
BRANCH   4   7
HETATM    7  C   UNL     1     -11.164  15.512  68.679  1.00  0.00    -0.325 C  
BRANCH   7   8
HETATM    8  O   UNL     1     -11.810  14.425  67.997  1.00  0.00    -0.326 OA 
BRANCH   8   9
HETATM    9  C   UNL     1     -11.912  13.252  68.702  1.00  0.00    -0.310 A  
HETATM   10  C   UNL     1     -11.715  11.969  68.179  1.00  0.00    -0.398 A  
HETATM   11  C   UNL     1     -11.844  10.843  68.995  1.00  0.00    -0.370 A  
HETATM   12  C   UNL     1     -12.168  10.993  70.339  1.00  0.00    -0.373 A  
HETATM   13  C   UNL     1     -12.366  12.262  70.875  1.00  0.00    -0.363 A  
HETATM   14 CL   UNL     1     -12.321   9.602  71.340  1.00  0.00    -0.436 Cl 
HETATM   15  C   UNL     1     -12.239  13.390  70.055  1.00  0.00    -0.367 A  
ENDBRANCH   8   9
ENDBRANCH   7   8
ENDBRANCH   4   7
ENDBRANCH   3   4
TORSDOF 4
ENDMDL
MODEL       95
REMARK 921   NORMALIZED FREE ENERGY PREDICTED BY IDOCK:   -3.50 KCAL/MOL
REMARK 922        TOTAL FREE ENERGY PREDICTED BY IDOCK:   -4.51 KCAL/MOL
REMARK 923 INTER-LIGAND FREE ENERGY PREDICTED BY IDOCK:   -4.33 KCAL/MOL
REMARK 924 INTRA-LIGAND FREE ENERGY PREDICTED BY IDOCK:   -0.18 KCAL/MOL
REMARK 927      BINDING AFFINITY PREDICTED BY RF-SCORE:    0.00 PKD
ROOT
HETATM    1  O   UNL     1     -12.060   6.262  72.720  1.00  0.00    -0.502 OA 
HETATM    2  H   UNL     1     -12.771   5.930  73.256  1.00  0.00     0.000 HD 
HETATM    3  C   UNL     1     -12.541   6.718  71.464  1.00  0.00    -0.322 C  
ENDROOT
BRANCH   3   4
HETATM    4  C   UNL     1     -11.395   7.254  70.601  1.00  0.00    -0.284 C  
HETATM    5  H   UNL     1     -10.764   7.012  68.757  1.00  0.00     0.000 HD 
HETATM    6  O   UNL     1     -11.474   6.680  69.292  1.00  0.00    -0.280 OA 
BRANCH   4   7
HETATM    7  C   UNL     1     -11.382   8.787  70.511  1.00  0.00    -0.227 C  
BRANCH   7   8
HETATM    8  O   UNL     1     -10.474   9.217  69.485  1.00  0.00    -0.207 OA 
BRANCH   8   9
HETATM    9  C   UNL     1     -10.862  10.318  68.765  1.00  0.00    -0.230 A  
HETATM   10  C   UNL     1     -10.858  10.421  67.370  1.00  0.00    -0.344 A  
HETATM   11  C   UNL     1     -11.278  11.596  66.742  1.00  0.00    -0.371 A  
HETATM   12  C   UNL     1     -11.707  12.675  67.507  1.00  0.00    -0.368 A  
HETATM   13  C   UNL     1     -11.718  12.589  68.897  1.00  0.00    -0.367 A  
HETATM   14 CL   UNL     1     -12.227  14.118  66.730  1.00  0.00    -0.475 Cl 
HETATM   15  C   UNL     1     -11.293  11.411  69.523  1.00  0.00    -0.357 A  
ENDBRANCH   8   9
ENDBRANCH   7   8
ENDBRANCH   4   7
ENDBRANCH   3   4
TORSDOF 4
ENDMDL
MODEL       96
REMARK 921   NORMALIZED FREE ENERGY PREDICTED BY IDOCK:   -3.50 KCAL/MOL
REMARK 922        TOTAL FREE ENERGY PREDICTED BY IDOCK:   -4.50 KCAL/MOL
REMARK 923 INTER-LIGAND FREE ENERGY PREDICTED BY IDOCK:   -4.00 KCAL/MOL
REMARK 924 INTRA-LIGAND FREE ENERGY PREDICTED BY IDOCK:   -0.50 KCAL/MOL
REMARK 927      BINDING AFFINITY PREDICTED BY RF-SCORE:    0.00 PKD
ROOT
HETATM    1  O   UNL     1     -10.096  11.447  68.177  1.00  0.00    -0.178 OA 
HETATM    2  H   UNL     1      -9.952  10.646  68.665  1.00  0.00     0.000 HD 
HETATM    3  C   UNL     1     -11.308  11.380  67.437  1.00  0.00    -0.288 C  
ENDROOT
BRANCH   3   4
HETATM    4  C   UNL     1     -11.541  12.672  66.650  1.00  0.00    -0.381 C  
HETATM    5  H   UNL     1     -12.457  13.186  64.991  1.00  0.00     0.000 HD 
HETATM    6  O   UNL     1     -12.313  12.384  65.479  1.00  0.00    -0.621 OA 
BRANCH   4   7
HETATM    7  C   UNL     1     -12.225  13.764  67.485  1.00  0.00    -0.227 C  
BRANCH   7   8
HETATM    8  O   UNL     1     -11.490  13.998  68.697  1.00  0.00    -0.263 OA 
BRANCH   8   9
HETATM    9  C   UNL     1     -10.614  15.053  68.671  1.00  0.00    -0.237 A  
HETATM   10  C   UNL     1      -9.226  14.963  68.825  1.00  0.00    -0.193 A  
HETATM   11  C   UNL     1      -8.430  16.109  68.779  1.00  0.00    -0.236 A  
HETATM   12  C   UNL     1      -9.016  17.353  68.576  1.00  0.00    -0.276 A  
HETATM   13  C   UNL     1     -10.396  17.461  68.420  1.00  0.00    -0.379 A  
HETATM   14 CL   UNL     1      -8.031  18.762  68.516  1.00  0.00    -0.364 Cl 
HETATM   15  C   UNL     1     -11.193  16.311  68.469  1.00  0.00    -0.359 A  
ENDBRANCH   8   9
ENDBRANCH   7   8
ENDBRANCH   4   7
ENDBRANCH   3   4
TORSDOF 4
ENDMDL
MODEL       97
REMARK 921   NORMALIZED FREE ENERGY PREDICTED BY IDOCK:   -3.48 KCAL/MOL
REMARK 922        TOTAL FREE ENERGY PREDICTED BY IDOCK:   -4.48 KCAL/MOL
REMARK 923 INTER-LIGAND FREE ENERGY PREDICTED BY IDOCK:   -4.08 KCAL/MOL
REMARK 924 INTRA-LIGAND FREE ENERGY PREDICTED BY IDOCK:   -0.40 KCAL/MOL
REMARK 927      BINDING AFFINITY PREDICTED BY RF-SCORE:    0.00 PKD
ROOT
HETATM    1  O   UNL     1      -8.564  11.763  69.053  1.00  0.00    -0.369 OA 
HETATM    2  H   UNL     1      -7.705  11.571  68.696  1.00  0.00     0.000 HD 
HETATM    3  C   UNL     1      -9.588  11.197  68.247  1.00  0.00    -0.185 C  
ENDROOT
BRANCH   3   4
HETATM    4  C   UNL     1     -10.971  11.506  68.824  1.00  0.00    -0.222 C  
HETATM    5  H   UNL     1     -12.818  11.554  68.156  1.00  0.00     0.000 HD 
HETATM    6  O   UNL     1     -11.959  11.362  67.798  1.00  0.00    -0.637 OA 
BRANCH   4   7
HETATM    7  C   UNL     1     -11.325  10.625  70.031  1.00  0.00    -0.324 C  
BRANCH   7   8
HETATM    8  O   UNL     1     -10.177   9.869  70.450  1.00  0.00    -0.277 OA 
BRANCH   8   9
HETATM    9  C   UNL     1     -10.435   8.631  70.978  1.00  0.00    -0.219 A  
HETATM   10  C   UNL     1     -11.188   7.625  70.363  1.00  0.00    -0.258 A  
HETATM   11  C   UNL     1     -11.385   6.396  70.998  1.00  0.00    -0.386 A  
HETATM   12  C   UNL     1     -10.827   6.165  72.250  1.00  0.00    -0.244 A  
HETATM   13  C   UNL     1     -10.074   7.155  72.876  1.00  0.00    -0.247 A  
HETATM   14 CL   UNL     1     -11.069   4.649  73.026  1.00  0.00    -0.329 Cl 
HETATM   15  C   UNL     1      -9.881   8.387  72.239  1.00  0.00    -0.383 A  
ENDBRANCH   8   9
ENDBRANCH   7   8
ENDBRANCH   4   7
ENDBRANCH   3   4
TORSDOF 4
ENDMDL
MODEL       98
REMARK 921   NORMALIZED FREE ENERGY PREDICTED BY IDOCK:   -3.47 KCAL/MOL
REMARK 922        TOTAL FREE ENERGY PREDICTED BY IDOCK:   -4.47 KCAL/MOL
REMARK 923 INTER-LIGAND FREE ENERGY PREDICTED BY IDOCK:   -4.22 KCAL/MOL
REMARK 924 INTRA-LIGAND FREE ENERGY PREDICTED BY IDOCK:   -0.26 KCAL/MOL
REMARK 927      BINDING AFFINITY PREDICTED BY RF-SCORE:    0.00 PKD
ROOT
HETATM    1  O   UNL     1     -10.209  14.904  68.943  1.00  0.00    -0.226 OA 
HETATM    2  H   UNL     1      -9.420  15.177  69.395  1.00  0.00     0.000 HD 
HETATM    3  C   UNL     1      -9.894  14.219  67.738  1.00  0.00    -0.223 C  
ENDROOT
BRANCH   3   4
HETATM    4  C   UNL     1     -11.167  13.779  67.010  1.00  0.00    -0.311 C  
HETATM    5  H   UNL     1     -12.240  14.423  65.496  1.00  0.00     0.000 HD 
HETATM    6  O   UNL     1     -11.450  14.696  65.948  1.00  0.00    -0.344 OA 
BRANCH   4   7
HETATM    7  C   UNL     1     -11.079  12.345  66.468  1.00  0.00    -0.301 C  
BRANCH   7   8
HETATM    8  O   UNL     1     -12.017  11.497  67.150  1.00  0.00    -0.581 OA 
BRANCH   8   9
HETATM    9  C   UNL     1     -11.584  10.953  68.332  1.00  0.00    -0.276 A  
HETATM   10  C   UNL     1     -12.143  11.194  69.591  1.00  0.00    -0.406 A  
HETATM   11  C   UNL     1     -11.617  10.581  70.731  1.00  0.00    -0.432 A  
HETATM   12  C   UNL     1     -10.531   9.721  70.617  1.00  0.00    -0.289 A  
HETATM   13  C   UNL     1      -9.962   9.470  69.371  1.00  0.00    -0.199 A  
HETATM   14 CL   UNL     1      -9.890   8.965  72.023  1.00  0.00    -0.383 Cl 
HETATM   15  C   UNL     1     -10.489  10.088  68.230  1.00  0.00    -0.246 A  
ENDBRANCH   8   9
ENDBRANCH   7   8
ENDBRANCH   4   7
ENDBRANCH   3   4
TORSDOF 4
ENDMDL
MODEL       99
REMARK 921   NORMALIZED FREE ENERGY PREDICTED BY IDOCK:   -3.45 KCAL/MOL
REMARK 922        TOTAL FREE ENERGY PREDICTED BY IDOCK:   -4.45 KCAL/MOL
REMARK 923 INTER-LIGAND FREE ENERGY PREDICTED BY IDOCK:   -4.24 KCAL/MOL
REMARK 924 INTRA-LIGAND FREE ENERGY PREDICTED BY IDOCK:   -0.21 KCAL/MOL
REMARK 927      BINDING AFFINITY PREDICTED BY RF-SCORE:    0.00 PKD
ROOT
HETATM    1  O   UNL     1     -10.558   9.112  71.910  1.00  0.00    -0.348 OA 
HETATM    2  H   UNL     1      -9.860   8.700  72.406  1.00  0.00     0.000 HD 
HETATM    3  C   UNL     1     -10.112   9.478  70.612  1.00  0.00    -0.286 C  
ENDROOT
BRANCH   3   4
HETATM    4  C   UNL     1     -11.237  10.141  69.814  1.00  0.00    -0.272 C  
HETATM    5  H   UNL     1     -13.200  10.182  69.878  1.00  0.00     0.000 HD 
HETATM    6  O   UNL     1     -12.502   9.771  70.373  1.00  0.00    -0.122 OA 
BRANCH   4   7
HETATM    7  C   UNL     1     -11.107  11.670  69.755  1.00  0.00    -0.044 C  
BRANCH   7   8
HETATM    8  O   UNL     1     -12.376  12.288  70.023  1.00  0.00    -0.200 OA 
BRANCH   8   9
HETATM    9  C   UNL     1     -12.363  13.312  70.934  1.00  0.00    -0.329 A  
HETATM   10  C   UNL     1     -11.589  14.475  70.841  1.00  0.00    -0.243 A  
HETATM   11  C   UNL     1     -11.659  15.456  71.833  1.00  0.00    -0.521 A  
HETATM   12  C   UNL     1     -12.505  15.282  72.922  1.00  0.00    -0.406 A  
HETATM   13  C   UNL     1     -13.281  14.131  73.031  1.00  0.00    -0.436 A  
HETATM   14 CL   UNL     1     -12.590  16.495  74.139  1.00  0.00    -0.492 Cl 
HETATM   15  C   UNL     1     -13.208  13.147  72.037  1.00  0.00    -0.543 A  
ENDBRANCH   8   9
ENDBRANCH   7   8
ENDBRANCH   4   7
ENDBRANCH   3   4
TORSDOF 4
ENDMDL
MODEL      100
REMARK 921   NORMALIZED FREE ENERGY PREDICTED BY IDOCK:   -3.43 KCAL/MOL
REMARK 922        TOTAL FREE ENERGY PREDICTED BY IDOCK:   -4.42 KCAL/MOL
REMARK 923 INTER-LIGAND FREE ENERGY PREDICTED BY IDOCK:   -3.98 KCAL/MOL
REMARK 924 INTRA-LIGAND FREE ENERGY PREDICTED BY IDOCK:   -0.44 KCAL/MOL
REMARK 927      BINDING AFFINITY PREDICTED BY RF-SCORE:    0.00 PKD
ROOT
HETATM    1  O   UNL     1      -9.678  14.391  65.552  1.00  0.00    -0.498 OA 
HETATM    2  H   UNL     1      -8.885  14.826  65.264  1.00  0.00     0.000 HD 
HETATM    3  C   UNL     1     -10.830  15.036  65.027  1.00  0.00    -0.422 C  
ENDROOT
BRANCH   3   4
HETATM    4  C   UNL     1     -12.109  14.334  65.491  1.00  0.00    -0.394 C  
HETATM    5  H   UNL     1     -13.755  13.666  64.652  1.00  0.00     0.000 HD 
HETATM    6  O   UNL     1     -12.961  14.101  64.364  1.00  0.00    -0.503 OA 
BRANCH   4   7
HETATM    7  C   UNL     1     -11.833  13.018  66.232  1.00  0.00    -0.408 C  
BRANCH   7   8
HETATM    8  O   UNL     1     -11.518  11.976  65.295  1.00  0.00    -0.338 OA 
BRANCH   8   9
HETATM    9  C   UNL     1     -10.613  11.039  65.723  1.00  0.00    -0.195 A  
HETATM   10  C   UNL     1      -9.487  10.610  65.012  1.00  0.00    -0.293 A  
HETATM   11  C   UNL     1      -8.630   9.647  65.550  1.00  0.00    -0.162 A  
HETATM   12  C   UNL     1      -8.893   9.109  66.805  1.00  0.00    -0.127 A  
HETATM   13  C   UNL     1     -10.010   9.524  67.526  1.00  0.00    -0.235 A  
HETATM   14 CL   UNL     1      -7.834   7.926  67.465  1.00  0.00    -0.120 Cl 
HETATM   15  C   UNL     1     -10.868  10.488  66.983  1.00  0.00    -0.288 A  
ENDBRANCH   8   9
ENDBRANCH   7   8
ENDBRANCH   4   7
ENDBRANCH   3   4
TORSDOF 4
ENDMDL
MODEL      101
REMARK 921   NORMALIZED FREE ENERGY PREDICTED BY IDOCK:   -3.43 KCAL/MOL
REMARK 922        TOTAL FREE ENERGY PREDICTED BY IDOCK:   -4.42 KCAL/MOL
REMARK 923 INTER-LIGAND FREE ENERGY PREDICTED BY IDOCK:   -3.99 KCAL/MOL
REMARK 924 INTRA-LIGAND FREE ENERGY PREDICTED BY IDOCK:   -0.43 KCAL/MOL
REMARK 927      BINDING AFFINITY PREDICTED BY RF-SCORE:    0.00 PKD
ROOT
HETATM    1  O   UNL     1     -12.211   9.734  69.971  1.00  0.00    -0.472 OA 
HETATM    2  H   UNL     1     -11.687  10.389  69.525  1.00  0.00     0.000 HD 
HETATM    3  C   UNL     1     -11.886   9.679  71.353  1.00  0.00    -0.406 C  
ENDROOT
BRANCH   3   4
HETATM    4  C   UNL     1     -12.731   8.624  72.072  1.00  0.00    -0.376 C  
HETATM    5  H   UNL     1     -14.593   8.002  72.009  1.00  0.00     0.000 HD 
HETATM    6  O   UNL     1     -14.069   8.656  71.563  1.00  0.00    -0.394 OA 
BRANCH   4   7
HETATM    7  C   UNL     1     -12.149   7.208  71.950  1.00  0.00    -0.321 C  
BRANCH   7   8
HETATM    8  O   UNL     1     -12.252   6.743  70.595  1.00  0.00    -0.386 OA 
BRANCH   8   9
HETATM    9  C   UNL     1     -11.174   6.039  70.120  1.00  0.00    -0.342 A  
HETATM   10  C   UNL     1     -10.289   5.284  70.897  1.00  0.00    -0.303 A  
HETATM   11  C   UNL     1      -9.223   4.605  70.302  1.00  0.00    -0.195 A  
HETATM   12  C   UNL     1      -9.039   4.673  68.926  1.00  0.00    -0.119 A  
HETATM   13  C   UNL     1      -9.911   5.420  68.138  1.00  0.00    -0.188 A  
HETATM   14 CL   UNL     1      -7.727   3.832  68.198  1.00  0.00    -0.065 Cl 
HETATM   15  C   UNL     1     -10.977   6.103  68.736  1.00  0.00    -0.421 A  
ENDBRANCH   8   9
ENDBRANCH   7   8
ENDBRANCH   4   7
ENDBRANCH   3   4
TORSDOF 4
ENDMDL
MODEL      102
REMARK 921   NORMALIZED FREE ENERGY PREDICTED BY IDOCK:   -3.43 KCAL/MOL
REMARK 922        TOTAL FREE ENERGY PREDICTED BY IDOCK:   -4.42 KCAL/MOL
REMARK 923 INTER-LIGAND FREE ENERGY PREDICTED BY IDOCK:   -3.98 KCAL/MOL
REMARK 924 INTRA-LIGAND FREE ENERGY PREDICTED BY IDOCK:   -0.44 KCAL/MOL
REMARK 927      BINDING AFFINITY PREDICTED BY RF-SCORE:    0.00 PKD
ROOT
HETATM    1  O   UNL     1      -9.179  11.290  69.224  1.00  0.00    -0.398 OA 
HETATM    2  H   UNL     1      -8.876  11.770  69.985  1.00  0.00     0.000 HD 
HETATM    3  C   UNL     1      -8.915   9.901  69.361  1.00  0.00    -0.195 C  
ENDROOT
BRANCH   3   4
HETATM    4  C   UNL     1      -9.403   9.127  68.134  1.00  0.00    -0.138 C  
HETATM    5  H   UNL     1     -10.885   7.909  67.711  1.00  0.00     0.000 HD 
HETATM    6  O   UNL     1     -10.582   8.389  68.472  1.00  0.00    -0.191 OA 
BRANCH   4   7
HETATM    7  C   UNL     1      -9.671  10.034  66.924  1.00  0.00    -0.189 C  
BRANCH   7   8
HETATM    8  O   UNL     1     -11.025  10.512  66.950  1.00  0.00    -0.227 OA 
BRANCH   8   9
HETATM    9  C   UNL     1     -11.235  11.750  66.397  1.00  0.00    -0.323 A  
HETATM   10  C   UNL     1     -11.809  12.846  67.050  1.00  0.00    -0.437 A  
HETATM   11  C   UNL     1     -11.972  14.063  66.385  1.00  0.00    -0.462 A  
HETATM   12  C   UNL     1     -11.559  14.193  65.064  1.00  0.00    -0.362 A  
HETATM   13  C   UNL     1     -10.985  13.112  64.399  1.00  0.00    -0.412 A  
HETATM   14 CL   UNL     1     -11.758  15.695  64.251  1.00  0.00    -0.294 Cl 
HETATM   15  C   UNL     1     -10.825  11.891  65.067  1.00  0.00    -0.351 A  
ENDBRANCH   8   9
ENDBRANCH   7   8
ENDBRANCH   4   7
ENDBRANCH   3   4
TORSDOF 4
ENDMDL
MODEL      103
REMARK 921   NORMALIZED FREE ENERGY PREDICTED BY IDOCK:   -3.43 KCAL/MOL
REMARK 922        TOTAL FREE ENERGY PREDICTED BY IDOCK:   -4.42 KCAL/MOL
REMARK 923 INTER-LIGAND FREE ENERGY PREDICTED BY IDOCK:   -3.93 KCAL/MOL
REMARK 924 INTRA-LIGAND FREE ENERGY PREDICTED BY IDOCK:   -0.49 KCAL/MOL
REMARK 927      BINDING AFFINITY PREDICTED BY RF-SCORE:    0.00 PKD
ROOT
HETATM    1  O   UNL     1      -7.861  11.128  65.460  1.00  0.00    -0.368 OA 
HETATM    2  H   UNL     1      -6.935  11.315  65.359  1.00  0.00     0.000 HD 
HETATM    3  C   UNL     1      -8.453  10.806  64.210  1.00  0.00     0.012 C  
ENDROOT
BRANCH   3   4
HETATM    4  C   UNL     1      -9.945  10.504  64.372  1.00  0.00    -0.343 C  
HETATM    5  H   UNL     1     -11.061   9.438  65.588  1.00  0.00     0.000 HD 
HETATM    6  O   UNL     1     -10.135   9.626  65.487  1.00  0.00    -0.290 OA 
BRANCH   4   7
HETATM    7  C   UNL     1     -10.795  11.771  64.541  1.00  0.00    -0.321 C  
BRANCH   7   8
HETATM    8  O   UNL     1     -10.062  12.770  65.268  1.00  0.00    -0.286 OA 
BRANCH   8   9
HETATM    9  C   UNL     1     -10.633  13.199  66.439  1.00  0.00    -0.286 A  
HETATM   10  C   UNL     1     -11.202  12.375  67.416  1.00  0.00    -0.351 A  
HETATM   11  C   UNL     1     -11.756  12.924  68.574  1.00  0.00    -0.374 A  
HETATM   12  C   UNL     1     -11.741  14.302  68.764  1.00  0.00    -0.343 A  
HETATM   13  C   UNL     1     -11.178  15.136  67.802  1.00  0.00    -0.327 A  
HETATM   14 CL   UNL     1     -12.420  14.974  70.194  1.00  0.00    -0.370 Cl 
HETATM   15  C   UNL     1     -10.626  14.583  66.640  1.00  0.00    -0.283 A  
ENDBRANCH   8   9
ENDBRANCH   7   8
ENDBRANCH   4   7
ENDBRANCH   3   4
TORSDOF 4
ENDMDL
MODEL      104
REMARK 921   NORMALIZED FREE ENERGY PREDICTED BY IDOCK:   -3.42 KCAL/MOL
REMARK 922        TOTAL FREE ENERGY PREDICTED BY IDOCK:   -4.42 KCAL/MOL
REMARK 923 INTER-LIGAND FREE ENERGY PREDICTED BY IDOCK:   -4.05 KCAL/MOL
REMARK 924 INTRA-LIGAND FREE ENERGY PREDICTED BY IDOCK:   -0.36 KCAL/MOL
REMARK 927      BINDING AFFINITY PREDICTED BY RF-SCORE:    0.00 PKD
ROOT
HETATM    1  O   UNL     1      -9.863   6.843  67.017  1.00  0.00    -0.154 OA 
HETATM    2  H   UNL     1     -10.295   6.811  66.171  1.00  0.00     0.000 HD 
HETATM    3  C   UNL     1     -10.790   6.615  68.069  1.00  0.00    -0.271 C  
ENDROOT
BRANCH   3   4
HETATM    4  C   UNL     1     -10.093   6.666  69.431  1.00  0.00    -0.173 C  
HETATM    5  H   UNL     1      -8.354   6.124  70.166  1.00  0.00     0.000 HD 
HETATM    6  O   UNL     1      -8.786   6.093  69.321  1.00  0.00    -0.124 OA 
BRANCH   4   7
HETATM    7  C   UNL     1     -10.005   8.088  70.004  1.00  0.00    -0.191 C  
BRANCH   7   8
HETATM    8  O   UNL     1     -10.779   8.996  69.204  1.00  0.00    -0.222 OA 
BRANCH   8   9
HETATM    9  C   UNL     1     -11.436   9.987  69.888  1.00  0.00    -0.215 A  
HETATM   10  C   UNL     1     -11.418  11.348  69.565  1.00  0.00    -0.381 A  
HETATM   11  C   UNL     1     -12.129  12.270  70.336  1.00  0.00    -0.385 A  
HETATM   12  C   UNL     1     -12.866  11.836  71.432  1.00  0.00    -0.335 A  
HETATM   13  C   UNL     1     -12.895  10.485  71.767  1.00  0.00    -0.559 A  
HETATM   14 CL   UNL     1     -13.743  12.975  72.376  1.00  0.00    -0.658 Cl 
HETATM   15  C   UNL     1     -12.178   9.562  70.994  1.00  0.00    -0.385 A  
ENDBRANCH   8   9
ENDBRANCH   7   8
ENDBRANCH   4   7
ENDBRANCH   3   4
TORSDOF 4
ENDMDL
MODEL      105
REMARK 921   NORMALIZED FREE ENERGY PREDICTED BY IDOCK:   -3.42 KCAL/MOL
REMARK 922        TOTAL FREE ENERGY PREDICTED BY IDOCK:   -4.41 KCAL/MOL
REMARK 923 INTER-LIGAND FREE ENERGY PREDICTED BY IDOCK:   -4.05 KCAL/MOL
REMARK 924 INTRA-LIGAND FREE ENERGY PREDICTED BY IDOCK:   -0.36 KCAL/MOL
REMARK 927      BINDING AFFINITY PREDICTED BY RF-SCORE:    0.00 PKD
ROOT
HETATM    1  O   UNL     1     -13.867  15.598  70.533  1.00  0.00    -0.818 OA 
HETATM    2  H   UNL     1     -14.145  16.459  70.243  1.00  0.00     0.000 HD 
HETATM    3  C   UNL     1     -12.902  15.698  71.570  1.00  0.00    -0.471 C  
ENDROOT
BRANCH   3   4
HETATM    4  C   UNL     1     -12.455  14.310  72.037  1.00  0.00    -0.252 C  
HETATM    5  H   UNL     1     -12.831  13.127  73.559  1.00  0.00     0.000 HD 
HETATM    6  O   UNL     1     -13.108  13.988  73.269  1.00  0.00    -0.520 OA 
BRANCH   4   7
HETATM    7  C   UNL     1     -12.718  13.216  70.992  1.00  0.00    -0.277 C  
BRANCH   7   8
HETATM    8  O   UNL     1     -12.244  13.635  69.702  1.00  0.00    -0.314 OA 
BRANCH   8   9
HETATM    9  C   UNL     1     -11.172  12.940  69.204  1.00  0.00    -0.237 A  
HETATM   10  C   UNL     1     -10.010  13.508  68.671  1.00  0.00    -0.149 A  
HETATM   11  C   UNL     1      -8.977  12.699  68.192  1.00  0.00    -0.199 A  
HETATM   12  C   UNL     1      -9.100  11.315  68.246  1.00  0.00    -0.173 A  
HETATM   13  C   UNL     1     -10.249  10.732  68.774  1.00  0.00    -0.207 A  
HETATM   14 CL   UNL     1      -7.824  10.322  67.659  1.00  0.00    -0.098 Cl 
HETATM   15  C   UNL     1     -11.284  11.546  69.251  1.00  0.00    -0.336 A  
ENDBRANCH   8   9
ENDBRANCH   7   8
ENDBRANCH   4   7
ENDBRANCH   3   4
TORSDOF 4
ENDMDL
MODEL      106
REMARK 921   NORMALIZED FREE ENERGY PREDICTED BY IDOCK:   -3.41 KCAL/MOL
REMARK 922        TOTAL FREE ENERGY PREDICTED BY IDOCK:   -4.40 KCAL/MOL
REMARK 923 INTER-LIGAND FREE ENERGY PREDICTED BY IDOCK:   -4.20 KCAL/MOL
REMARK 924 INTRA-LIGAND FREE ENERGY PREDICTED BY IDOCK:   -0.20 KCAL/MOL
REMARK 927      BINDING AFFINITY PREDICTED BY RF-SCORE:    0.00 PKD
ROOT
HETATM    1  O   UNL     1     -11.835  16.033  64.231  1.00  0.00    -0.689 OA 
HETATM    2  H   UNL     1     -11.888  16.295  63.319  1.00  0.00     0.000 HD 
HETATM    3  C   UNL     1     -12.282  14.695  64.401  1.00  0.00    -0.452 C  
ENDROOT
BRANCH   3   4
HETATM    4  C   UNL     1     -12.197  14.273  65.870  1.00  0.00    -0.407 C  
HETATM    5  H   UNL     1     -12.494  12.628  66.902  1.00  0.00     0.000 HD 
HETATM    6  O   UNL     1     -12.546  12.890  65.991  1.00  0.00    -0.467 OA 
BRANCH   4   7
HETATM    7  C   UNL     1     -10.814  14.530  66.486  1.00  0.00    -0.314 C  
BRANCH   7   8
HETATM    8  O   UNL     1     -10.896  15.562  67.482  1.00  0.00    -0.295 OA 
BRANCH   8   9
HETATM    9  C   UNL     1      -9.748  16.281  67.696  1.00  0.00    -0.234 A  
HETATM   10  C   UNL     1      -9.393  17.464  67.039  1.00  0.00    -0.265 A  
HETATM   11  C   UNL     1      -8.194  18.113  67.341  1.00  0.00    -0.236 A  
HETATM   12  C   UNL     1      -7.343  17.584  68.305  1.00  0.00    -0.223 A  
HETATM   13  C   UNL     1      -7.680  16.407  68.969  1.00  0.00    -0.235 A  
HETATM   14 CL   UNL     1      -5.869  18.389  68.676  1.00  0.00    -0.186 Cl 
HETATM   15  C   UNL     1      -8.882  15.757  68.662  1.00  0.00    -0.199 A  
ENDBRANCH   8   9
ENDBRANCH   7   8
ENDBRANCH   4   7
ENDBRANCH   3   4
TORSDOF 4
ENDMDL
MODEL      107
REMARK 921   NORMALIZED FREE ENERGY PREDICTED BY IDOCK:   -3.41 KCAL/MOL
REMARK 922        TOTAL FREE ENERGY PREDICTED BY IDOCK:   -4.40 KCAL/MOL
REMARK 923 INTER-LIGAND FREE ENERGY PREDICTED BY IDOCK:   -4.14 KCAL/MOL
REMARK 924 INTRA-LIGAND FREE ENERGY PREDICTED BY IDOCK:   -0.26 KCAL/MOL
REMARK 927      BINDING AFFINITY PREDICTED BY RF-SCORE:    0.00 PKD
ROOT
HETATM    1  O   UNL     1     -12.728  10.591  69.339  1.00  0.00    -0.692 OA 
HETATM    2  H   UNL     1     -13.276  11.123  69.903  1.00  0.00     0.000 HD 
HETATM    3  C   UNL     1     -11.799  11.396  68.626  1.00  0.00    -0.310 C  
ENDROOT
BRANCH   3   4
HETATM    4  C   UNL     1     -10.916  10.538  67.718  1.00  0.00    -0.313 C  
HETATM    5  H   UNL     1      -9.440  10.846  66.459  1.00  0.00     0.000 HD 
HETATM    6  O   UNL     1      -9.988  11.378  67.022  1.00  0.00    -0.196 OA 
BRANCH   4   7
HETATM    7  C   UNL     1     -10.167   9.436  68.481  1.00  0.00    -0.199 C  
BRANCH   7   8
HETATM    8  O   UNL     1      -9.652   9.950  69.720  1.00  0.00    -0.212 OA 
BRANCH   8   9
HETATM    9  C   UNL     1      -9.847   9.159  70.824  1.00  0.00    -0.270 A  
HETATM   10  C   UNL     1     -11.086   8.847  71.393  1.00  0.00    -0.376 A  
HETATM   11  C   UNL     1     -11.163   8.026  72.521  1.00  0.00    -0.452 A  
HETATM   12  C   UNL     1     -10.002   7.511  73.084  1.00  0.00    -0.289 A  
HETATM   13  C   UNL     1      -8.760   7.812  72.530  1.00  0.00    -0.196 A  
HETATM   14 CL   UNL     1     -10.102   6.498  74.471  1.00  0.00    -0.373 Cl 
HETATM   15  C   UNL     1      -8.685   8.637  71.401  1.00  0.00    -0.262 A  
ENDBRANCH   8   9
ENDBRANCH   7   8
ENDBRANCH   4   7
ENDBRANCH   3   4
TORSDOF 4
ENDMDL
MODEL      108
REMARK 921   NORMALIZED FREE ENERGY PREDICTED BY IDOCK:   -3.41 KCAL/MOL
REMARK 922        TOTAL FREE ENERGY PREDICTED BY IDOCK:   -4.40 KCAL/MOL
REMARK 923 INTER-LIGAND FREE ENERGY PREDICTED BY IDOCK:   -4.24 KCAL/MOL
REMARK 924 INTRA-LIGAND FREE ENERGY PREDICTED BY IDOCK:   -0.15 KCAL/MOL
REMARK 927      BINDING AFFINITY PREDICTED BY RF-SCORE:    0.00 PKD
ROOT
HETATM    1  O   UNL     1     -14.092   8.853  73.331  1.00  0.00    -1.256 OA 
HETATM    2  H   UNL     1     -15.040   8.817  73.365  1.00  0.00     0.000 HD 
HETATM    3  C   UNL     1     -13.640   9.107  72.008  1.00  0.00    -0.459 C  
ENDROOT
BRANCH   3   4
HETATM    4  C   UNL     1     -12.112   9.165  71.954  1.00  0.00    -0.378 C  
HETATM    5  H   UNL     1     -10.628   7.893  72.152  1.00  0.00     0.000 HD 
HETATM    6  O   UNL     1     -11.576   7.858  72.186  1.00  0.00    -0.288 OA 
BRANCH   4   7
HETATM    7  C   UNL     1     -11.582   9.730  70.628  1.00  0.00    -0.313 C  
BRANCH   7   8
HETATM    8  O   UNL     1     -10.187   9.421  70.476  1.00  0.00    -0.231 OA 
BRANCH   8   9
HETATM    9  C   UNL     1      -9.873   8.552  69.462  1.00  0.00    -0.187 A  
HETATM   10  C   UNL     1      -8.857   7.592  69.500  1.00  0.00    -0.137 A  
HETATM   11  C   UNL     1      -8.627   6.757  68.403  1.00  0.00    -0.125 A  
HETATM   12  C   UNL     1      -9.416   6.876  67.264  1.00  0.00    -0.137 A  
HETATM   13  C   UNL     1     -10.432   7.827  67.211  1.00  0.00    -0.392 A  
HETATM   14 CL   UNL     1      -9.132   5.844  65.918  1.00  0.00    -0.159 Cl 
HETATM   15  C   UNL     1     -10.658   8.665  68.310  1.00  0.00    -0.181 A  
ENDBRANCH   8   9
ENDBRANCH   7   8
ENDBRANCH   4   7
ENDBRANCH   3   4
TORSDOF 4
ENDMDL
MODEL      109
REMARK 921   NORMALIZED FREE ENERGY PREDICTED BY IDOCK:   -3.40 KCAL/MOL
REMARK 922        TOTAL FREE ENERGY PREDICTED BY IDOCK:   -4.38 KCAL/MOL
REMARK 923 INTER-LIGAND FREE ENERGY PREDICTED BY IDOCK:   -4.19 KCAL/MOL
REMARK 924 INTRA-LIGAND FREE ENERGY PREDICTED BY IDOCK:   -0.19 KCAL/MOL
REMARK 927      BINDING AFFINITY PREDICTED BY RF-SCORE:    0.00 PKD
ROOT
HETATM    1  O   UNL     1     -12.290   8.968  70.438  1.00  0.00    -0.471 OA 
HETATM    2  H   UNL     1     -12.821   8.578  71.122  1.00  0.00     0.000 HD 
HETATM    3  C   UNL     1     -11.656  10.152  70.900  1.00  0.00    -0.372 C  
ENDROOT
BRANCH   3   4
HETATM    4  C   UNL     1     -10.800  10.781  69.797  1.00  0.00    -0.226 C  
HETATM    5  H   UNL     1      -9.000  10.509  69.058  1.00  0.00     0.000 HD 
HETATM    6  O   UNL     1      -9.532  10.119  69.742  1.00  0.00    -0.220 OA 
BRANCH   4   7
HETATM    7  C   UNL     1     -11.480  10.746  68.421  1.00  0.00    -0.288 C  
BRANCH   7   8
HETATM    8  O   UNL     1     -10.519  11.007  67.385  1.00  0.00    -0.197 OA 
BRANCH   8   9
HETATM    9  C   UNL     1     -10.697  12.172  66.683  1.00  0.00    -0.246 A  
HETATM   10  C   UNL     1      -9.714  13.141  66.453  1.00  0.00    -0.269 A  
HETATM   11  C   UNL     1     -10.010  14.292  65.720  1.00  0.00    -0.346 A  
HETATM   12  C   UNL     1     -11.290  14.481  65.210  1.00  0.00    -0.353 A  
HETATM   13  C   UNL     1     -12.280  13.526  65.430  1.00  0.00    -0.482 A  
HETATM   14 CL   UNL     1     -11.648  15.899  64.305  1.00  0.00    -0.322 Cl 
HETATM   15  C   UNL     1     -11.981  12.373  66.167  1.00  0.00    -0.397 A  
ENDBRANCH   8   9
ENDBRANCH   7   8
ENDBRANCH   4   7
ENDBRANCH   3   4
TORSDOF 4
ENDMDL
MODEL      110
REMARK 921   NORMALIZED FREE ENERGY PREDICTED BY IDOCK:   -3.40 KCAL/MOL
REMARK 922        TOTAL FREE ENERGY PREDICTED BY IDOCK:   -4.38 KCAL/MOL
REMARK 923 INTER-LIGAND FREE ENERGY PREDICTED BY IDOCK:   -4.19 KCAL/MOL
REMARK 924 INTRA-LIGAND FREE ENERGY PREDICTED BY IDOCK:   -0.19 KCAL/MOL
REMARK 927      BINDING AFFINITY PREDICTED BY RF-SCORE:    0.00 PKD
ROOT
HETATM    1  O   UNL     1      -9.608  16.898  68.677  1.00  0.00    -0.247 OA 
HETATM    2  H   UNL     1      -9.354  17.266  69.515  1.00  0.00     0.000 HD 
HETATM    3  C   UNL     1     -10.871  16.254  68.766  1.00  0.00    -0.317 C  
ENDROOT
BRANCH   3   4
HETATM    4  C   UNL     1     -11.280  15.663  67.415  1.00  0.00    -0.219 C  
HETATM    5  H   UNL     1     -10.722  15.862  65.542  1.00  0.00     0.000 HD 
HETATM    6  O   UNL     1     -10.468  16.229  66.380  1.00  0.00    -0.303 OA 
BRANCH   4   7
HETATM    7  C   UNL     1     -11.192  14.130  67.383  1.00  0.00    -0.318 C  
BRANCH   7   8
HETATM    8  O   UNL     1     -11.896  13.615  66.241  1.00  0.00    -0.352 OA 
BRANCH   8   9
HETATM    9  C   UNL     1     -11.217  12.696  65.483  1.00  0.00    -0.302 A  
HETATM   10  C   UNL     1     -10.980  12.792  64.107  1.00  0.00    -0.435 A  
HETATM   11  C   UNL     1     -10.272  11.792  63.437  1.00  0.00    -0.482 A  
HETATM   12  C   UNL     1      -9.793  10.692  64.139  1.00  0.00    -0.335 A  
HETATM   13  C   UNL     1     -10.019  10.581  65.509  1.00  0.00    -0.342 A  
HETATM   14 CL   UNL     1      -8.917   9.465  63.310  1.00  0.00    -0.216 Cl 
HETATM   15  C   UNL     1     -10.732  11.583  66.178  1.00  0.00    -0.324 A  
ENDBRANCH   8   9
ENDBRANCH   7   8
ENDBRANCH   4   7
ENDBRANCH   3   4
TORSDOF 4
ENDMDL
MODEL      111
REMARK 921   NORMALIZED FREE ENERGY PREDICTED BY IDOCK:   -3.39 KCAL/MOL
REMARK 922        TOTAL FREE ENERGY PREDICTED BY IDOCK:   -4.38 KCAL/MOL
REMARK 923 INTER-LIGAND FREE ENERGY PREDICTED BY IDOCK:   -3.96 KCAL/MOL
REMARK 924 INTRA-LIGAND FREE ENERGY PREDICTED BY IDOCK:   -0.41 KCAL/MOL
REMARK 927      BINDING AFFINITY PREDICTED BY RF-SCORE:    0.00 PKD
ROOT
HETATM    1  O   UNL     1      -9.085   8.809  72.307  1.00  0.00    -0.355 OA 
HETATM    2  H   UNL     1      -8.998   9.450  73.002  1.00  0.00     0.000 HD 
HETATM    3  C   UNL     1     -10.450   8.491  72.077  1.00  0.00    -0.336 C  
ENDROOT
BRANCH   3   4
HETATM    4  C   UNL     1     -10.590   7.457  70.958  1.00  0.00    -0.224 C  
HETATM    5  H   UNL     1     -11.891   6.078  70.443  1.00  0.00     0.000 HD 
HETATM    6  O   UNL     1     -11.804   6.720  71.137  1.00  0.00    -0.324 OA 
BRANCH   4   7
HETATM    7  C   UNL     1     -10.551   8.085  69.557  1.00  0.00    -0.214 C  
BRANCH   7   8
HETATM    8  O   UNL     1      -9.961   9.394  69.615  1.00  0.00    -0.177 OA 
BRANCH   8   9
HETATM    9  C   UNL     1     -10.519  10.340  68.794  1.00  0.00    -0.203 A  
HETATM   10  C   UNL     1     -11.376  11.368  69.202  1.00  0.00    -0.353 A  
HETATM   11  C   UNL     1     -11.886  12.279  68.274  1.00  0.00    -0.367 A  
HETATM   12  C   UNL     1     -11.540  12.168  66.932  1.00  0.00    -0.341 A  
HETATM   13  C   UNL     1     -10.688  11.151  66.508  1.00  0.00    -0.314 A  
HETATM   14 CL   UNL     1     -12.167  13.295  65.793  1.00  0.00    -0.489 Cl 
HETATM   15  C   UNL     1     -10.180  10.237  67.440  1.00  0.00    -0.265 A  
ENDBRANCH   8   9
ENDBRANCH   7   8
ENDBRANCH   4   7
ENDBRANCH   3   4
TORSDOF 4
ENDMDL
MODEL      112
REMARK 921   NORMALIZED FREE ENERGY PREDICTED BY IDOCK:   -3.39 KCAL/MOL
REMARK 922        TOTAL FREE ENERGY PREDICTED BY IDOCK:   -4.37 KCAL/MOL
REMARK 923 INTER-LIGAND FREE ENERGY PREDICTED BY IDOCK:   -3.99 KCAL/MOL
REMARK 924 INTRA-LIGAND FREE ENERGY PREDICTED BY IDOCK:   -0.38 KCAL/MOL
REMARK 927      BINDING AFFINITY PREDICTED BY RF-SCORE:    0.00 PKD
ROOT
HETATM    1  O   UNL     1     -10.783  12.976  69.455  1.00  0.00    -0.438 OA 
HETATM    2  H   UNL     1     -11.195  13.683  69.936  1.00  0.00     0.000 HD 
HETATM    3  C   UNL     1     -11.650  12.473  68.448  1.00  0.00    -0.322 C  
ENDROOT
BRANCH   3   4
HETATM    4  C   UNL     1     -10.985  11.333  67.673  1.00  0.00    -0.259 C  
HETATM    5  H   UNL     1      -9.504  11.150  66.396  1.00  0.00     0.000 HD 
HETATM    6  O   UNL     1      -9.916  11.857  66.877  1.00  0.00    -0.198 OA 
BRANCH   4   7
HETATM    7  C   UNL     1     -10.469  10.211  68.586  1.00  0.00    -0.202 C  
BRANCH   7   8
HETATM    8  O   UNL     1     -11.207  10.194  69.819  1.00  0.00    -0.246 OA 
BRANCH   8   9
HETATM    9  C   UNL     1     -11.206   9.004  70.501  1.00  0.00    -0.260 A  
HETATM   10  C   UNL     1     -10.904   7.753  69.953  1.00  0.00    -0.228 A  
HETATM   11  C   UNL     1     -10.934   6.604  70.746  1.00  0.00    -0.318 A  
HETATM   12  C   UNL     1     -11.263   6.700  72.094  1.00  0.00    -0.264 A  
HETATM   13  C   UNL     1     -11.566   7.938  72.655  1.00  0.00    -0.435 A  
HETATM   14 CL   UNL     1     -11.295   5.283  73.068  1.00  0.00    -0.380 Cl 
HETATM   15  C   UNL     1     -11.538   9.088  71.857  1.00  0.00    -0.441 A  
ENDBRANCH   8   9
ENDBRANCH   7   8
ENDBRANCH   4   7
ENDBRANCH   3   4
TORSDOF 4
ENDMDL
MODEL      113
REMARK 921   NORMALIZED FREE ENERGY PREDICTED BY IDOCK:   -3.39 KCAL/MOL
REMARK 922        TOTAL FREE ENERGY PREDICTED BY IDOCK:   -4.37 KCAL/MOL
REMARK 923 INTER-LIGAND FREE ENERGY PREDICTED BY IDOCK:   -4.18 KCAL/MOL
REMARK 924 INTRA-LIGAND FREE ENERGY PREDICTED BY IDOCK:   -0.20 KCAL/MOL
REMARK 927      BINDING AFFINITY PREDICTED BY RF-SCORE:    0.00 PKD
ROOT
HETATM    1  O   UNL     1      -7.761  17.816  68.933  1.00  0.00    -0.268 OA 
HETATM    2  H   UNL     1      -7.809  18.764  68.955  1.00  0.00     0.000 HD 
HETATM    3  C   UNL     1      -8.972  17.257  68.443  1.00  0.00    -0.269 C  
ENDROOT
BRANCH   3   4
HETATM    4  C   UNL     1      -8.894  15.729  68.406  1.00  0.00    -0.185 C  
HETATM    5  H   UNL     1      -7.852  14.331  69.312  1.00  0.00     0.000 HD 
HETATM    6  O   UNL     1      -7.901  15.279  69.334  1.00  0.00    -0.204 OA 
BRANCH   4   7
HETATM    7  C   UNL     1     -10.242  15.056  68.701  1.00  0.00    -0.231 C  
BRANCH   7   8
HETATM    8  O   UNL     1     -10.169  13.649  68.418  1.00  0.00    -0.236 OA 
BRANCH   8   9
HETATM    9  C   UNL     1     -10.717  13.249  67.226  1.00  0.00    -0.255 A  
HETATM   10  C   UNL     1     -10.242  12.208  66.421  1.00  0.00    -0.245 A  
HETATM   11  C   UNL     1     -10.884  11.886  65.223  1.00  0.00    -0.347 A  
HETATM   12  C   UNL     1     -12.007  12.602  64.824  1.00  0.00    -0.402 A  
HETATM   13  C   UNL     1     -12.494  13.641  65.614  1.00  0.00    -0.540 A  
HETATM   14 CL   UNL     1     -12.797  12.200  63.350  1.00  0.00    -0.545 Cl 
HETATM   15  C   UNL     1     -11.846  13.963  66.813  1.00  0.00    -0.452 A  
ENDBRANCH   8   9
ENDBRANCH   7   8
ENDBRANCH   4   7
ENDBRANCH   3   4
TORSDOF 4
ENDMDL
MODEL      114
REMARK 921   NORMALIZED FREE ENERGY PREDICTED BY IDOCK:   -3.39 KCAL/MOL
REMARK 922        TOTAL FREE ENERGY PREDICTED BY IDOCK:   -4.37 KCAL/MOL
REMARK 923 INTER-LIGAND FREE ENERGY PREDICTED BY IDOCK:   -4.22 KCAL/MOL
REMARK 924 INTRA-LIGAND FREE ENERGY PREDICTED BY IDOCK:   -0.15 KCAL/MOL
REMARK 927      BINDING AFFINITY PREDICTED BY RF-SCORE:    0.00 PKD
ROOT
HETATM    1  O   UNL     1     -11.997  12.871  70.853  1.00  0.00    -0.466 OA 
HETATM    2  H   UNL     1     -12.181  13.667  71.336  1.00  0.00     0.000 HD 
HETATM    3  C   UNL     1     -12.873  11.824  71.247  1.00  0.00    -0.308 C  
ENDROOT
BRANCH   3   4
HETATM    4  C   UNL     1     -12.578  10.541  70.467  1.00  0.00    -0.339 C  
HETATM    5  H   UNL     1     -12.167  10.064  68.606  1.00  0.00     0.000 HD 
HETATM    6  O   UNL     1     -12.350  10.860  69.090  1.00  0.00    -0.435 OA 
BRANCH   4   7
HETATM    7  C   UNL     1     -11.386   9.757  71.036  1.00  0.00    -0.387 C  
BRANCH   7   8
HETATM    8  O   UNL     1     -11.463   8.378  70.642  1.00  0.00    -0.267 OA 
BRANCH   8   9
HETATM    9  C   UNL     1     -11.081   7.462  71.588  1.00  0.00    -0.236 A  
HETATM   10  C   UNL     1     -10.902   7.726  72.950  1.00  0.00    -0.453 A  
HETATM   11  C   UNL     1     -10.511   6.710  73.826  1.00  0.00    -0.357 A  
HETATM   12  C   UNL     1     -10.300   5.423  73.344  1.00  0.00    -0.216 A  
HETATM   13  C   UNL     1     -10.475   5.142  71.991  1.00  0.00    -0.278 A  
HETATM   14 CL   UNL     1      -9.823   4.174  74.427  1.00  0.00    -0.154 Cl 
HETATM   15  C   UNL     1     -10.864   6.163  71.115  1.00  0.00    -0.328 A  
ENDBRANCH   8   9
ENDBRANCH   7   8
ENDBRANCH   4   7
ENDBRANCH   3   4
TORSDOF 4
ENDMDL
MODEL      115
REMARK 921   NORMALIZED FREE ENERGY PREDICTED BY IDOCK:   -3.38 KCAL/MOL
REMARK 922        TOTAL FREE ENERGY PREDICTED BY IDOCK:   -4.36 KCAL/MOL
REMARK 923 INTER-LIGAND FREE ENERGY PREDICTED BY IDOCK:   -3.98 KCAL/MOL
REMARK 924 INTRA-LIGAND FREE ENERGY PREDICTED BY IDOCK:   -0.38 KCAL/MOL
REMARK 927      BINDING AFFINITY PREDICTED BY RF-SCORE:    0.00 PKD
ROOT
HETATM    1  O   UNL     1     -10.544  11.729  64.310  1.00  0.00    -0.286 OA 
HETATM    2  H   UNL     1     -11.284  11.614  63.726  1.00  0.00     0.000 HD 
HETATM    3  C   UNL     1     -10.907  11.442  65.653  1.00  0.00    -0.218 C  
ENDROOT
BRANCH   3   4
HETATM    4  C   UNL     1      -9.714  11.627  66.594  1.00  0.00    -0.202 C  
HETATM    5  H   UNL     1      -7.797  11.199  66.569  1.00  0.00     0.000 HD 
HETATM    6  O   UNL     1      -8.537  11.084  65.985  1.00  0.00    -0.171 OA 
BRANCH   4   7
HETATM    7  C   UNL     1      -9.483  13.094  66.984  1.00  0.00    -0.242 C  
BRANCH   7   8
HETATM    8  O   UNL     1     -10.418  13.944  66.299  1.00  0.00    -0.278 OA 
BRANCH   8   9
HETATM    9  C   UNL     1     -10.445  15.254  66.705  1.00  0.00    -0.290 A  
HETATM   10  C   UNL     1     -10.527  15.694  68.030  1.00  0.00    -0.263 A  
HETATM   11  C   UNL     1     -10.545  17.059  68.326  1.00  0.00    -0.372 A  
HETATM   12  C   UNL     1     -10.479  17.992  67.298  1.00  0.00    -0.380 A  
HETATM   13  C   UNL     1     -10.397  17.571  65.973  1.00  0.00    -0.309 A  
HETATM   14 CL   UNL     1     -10.498  19.672  67.667  1.00  0.00    -0.566 Cl 
HETATM   15  C   UNL     1     -10.382  16.202  65.678  1.00  0.00    -0.405 A  
ENDBRANCH   8   9
ENDBRANCH   7   8
ENDBRANCH   4   7
ENDBRANCH   3   4
TORSDOF 4
ENDMDL
MODEL      116
REMARK 921   NORMALIZED FREE ENERGY PREDICTED BY IDOCK:   -3.37 KCAL/MOL
REMARK 922        TOTAL FREE ENERGY PREDICTED BY IDOCK:   -4.35 KCAL/MOL
REMARK 923 INTER-LIGAND FREE ENERGY PREDICTED BY IDOCK:   -3.95 KCAL/MOL
REMARK 924 INTRA-LIGAND FREE ENERGY PREDICTED BY IDOCK:   -0.40 KCAL/MOL
REMARK 927      BINDING AFFINITY PREDICTED BY RF-SCORE:    0.00 PKD
ROOT
HETATM    1  O   UNL     1     -12.178   6.901  72.607  1.00  0.00    -0.491 OA 
HETATM    2  H   UNL     1     -12.997   6.570  72.954  1.00  0.00     0.000 HD 
HETATM    3  C   UNL     1     -12.277   8.286  72.306  1.00  0.00    -0.370 C  
ENDROOT
BRANCH   3   4
HETATM    4  C   UNL     1     -10.956   8.821  71.747  1.00  0.00    -0.345 C  
HETATM    5  H   UNL     1      -9.063   8.772  72.267  1.00  0.00     0.000 HD 
HETATM    6  O   UNL     1      -9.882   8.440  72.614  1.00  0.00    -0.282 OA 
BRANCH   4   7
HETATM    7  C   UNL     1     -10.679   8.344  70.313  1.00  0.00    -0.234 C  
BRANCH   7   8
HETATM    8  O   UNL     1     -11.484   7.195  70.006  1.00  0.00    -0.241 OA 
BRANCH   8   9
HETATM    9  C   UNL     1     -10.892   6.243  69.217  1.00  0.00    -0.342 A  
HETATM   10  C   UNL     1     -10.183   5.129  69.679  1.00  0.00    -0.337 A  
HETATM   11  C   UNL     1      -9.622   4.220  68.779  1.00  0.00    -0.219 A  
HETATM   12  C   UNL     1      -9.769   4.418  67.411  1.00  0.00    -0.174 A  
HETATM   13  C   UNL     1     -10.471   5.522  66.934  1.00  0.00    -0.348 A  
HETATM   14 CL   UNL     1      -9.079   3.294  66.307  1.00  0.00    -0.152 Cl 
HETATM   15  C   UNL     1     -11.031   6.433  67.838  1.00  0.00    -0.416 A  
ENDBRANCH   8   9
ENDBRANCH   7   8
ENDBRANCH   4   7
ENDBRANCH   3   4
TORSDOF 4
ENDMDL
MODEL      117
REMARK 921   NORMALIZED FREE ENERGY PREDICTED BY IDOCK:   -3.37 KCAL/MOL
REMARK 922        TOTAL FREE ENERGY PREDICTED BY IDOCK:   -4.35 KCAL/MOL
REMARK 923 INTER-LIGAND FREE ENERGY PREDICTED BY IDOCK:   -4.16 KCAL/MOL
REMARK 924 INTRA-LIGAND FREE ENERGY PREDICTED BY IDOCK:   -0.18 KCAL/MOL
REMARK 927      BINDING AFFINITY PREDICTED BY RF-SCORE:    0.00 PKD
ROOT
HETATM    1  O   UNL     1      -9.552   4.251  67.512  1.00  0.00    -0.166 OA 
HETATM    2  H   UNL     1      -9.581   3.383  67.127  1.00  0.00     0.000 HD 
HETATM    3  C   UNL     1      -9.633   4.181  68.929  1.00  0.00    -0.152 C  
ENDROOT
BRANCH   3   4
HETATM    4  C   UNL     1      -9.586   5.579  69.549  1.00  0.00    -0.151 C  
HETATM    5  H   UNL     1      -8.559   7.230  69.270  1.00  0.00     0.000 HD 
HETATM    6  O   UNL     1      -8.589   6.363  68.884  1.00  0.00    -0.123 OA 
BRANCH   4   7
HETATM    7  C   UNL     1     -10.943   6.296  69.509  1.00  0.00    -0.379 C  
BRANCH   7   8
HETATM    8  O   UNL     1     -11.460   6.459  70.840  1.00  0.00    -0.321 OA 
BRANCH   8   9
HETATM    9  C   UNL     1     -11.967   7.697  71.138  1.00  0.00    -0.297 A  
HETATM   10  C   UNL     1     -13.138   7.944  71.861  1.00  0.00    -0.316 A  
HETATM   11  C   UNL     1     -13.559   9.253  72.108  1.00  0.00    -0.536 A  
HETATM   12  C   UNL     1     -12.808  10.324  71.634  1.00  0.00    -0.463 A  
HETATM   13  C   UNL     1     -11.639  10.096  70.913  1.00  0.00    -0.459 A  
HETATM   14 CL   UNL     1     -13.328  11.934  71.943  1.00  0.00    -0.507 Cl 
HETATM   15  C   UNL     1     -11.221   8.782  70.665  1.00  0.00    -0.294 A  
ENDBRANCH   8   9
ENDBRANCH   7   8
ENDBRANCH   4   7
ENDBRANCH   3   4
TORSDOF 4
ENDMDL
MODEL      118
REMARK 921   NORMALIZED FREE ENERGY PREDICTED BY IDOCK:   -3.33 KCAL/MOL
REMARK 922        TOTAL FREE ENERGY PREDICTED BY IDOCK:   -4.30 KCAL/MOL
REMARK 923 INTER-LIGAND FREE ENERGY PREDICTED BY IDOCK:   -3.91 KCAL/MOL
REMARK 924 INTRA-LIGAND FREE ENERGY PREDICTED BY IDOCK:   -0.39 KCAL/MOL
REMARK 927      BINDING AFFINITY PREDICTED BY RF-SCORE:    0.00 PKD
ROOT
HETATM    1  O   UNL     1     -11.181  13.378  69.066  1.00  0.00    -0.259 OA 
HETATM    2  H   UNL     1     -11.082  13.848  68.247  1.00  0.00     0.000 HD 
HETATM    3  C   UNL     1     -12.279  13.882  69.812  1.00  0.00    -0.332 C  
ENDROOT
BRANCH   3   4
HETATM    4  C   UNL     1     -12.438  13.123  71.132  1.00  0.00    -0.287 C  
HETATM    5  H   UNL     1     -13.613  13.223  72.703  1.00  0.00     0.000 HD 
HETATM    6  O   UNL     1     -13.515  13.693  71.884  1.00  0.00    -0.383 OA 
BRANCH   4   7
HETATM    7  C   UNL     1     -12.665  11.618  70.932  1.00  0.00    -0.258 C  
BRANCH   7   8
HETATM    8  O   UNL     1     -11.418  10.958  70.661  1.00  0.00    -0.302 OA 
BRANCH   8   9
HETATM    9  C   UNL     1     -11.347   9.638  71.027  1.00  0.00    -0.374 A  
HETATM   10  C   UNL     1     -10.430   8.704  70.532  1.00  0.00    -0.237 A  
HETATM   11  C   UNL     1     -10.450   7.382  70.981  1.00  0.00    -0.223 A  
HETATM   12  C   UNL     1     -11.387   6.985  71.929  1.00  0.00    -0.257 A  
HETATM   13  C   UNL     1     -12.307   7.902  72.432  1.00  0.00    -0.253 A  
HETATM   14 CL   UNL     1     -11.405   5.356  72.481  1.00  0.00    -0.310 Cl 
HETATM   15  C   UNL     1     -12.286   9.227  71.979  1.00  0.00    -0.433 A  
ENDBRANCH   8   9
ENDBRANCH   7   8
ENDBRANCH   4   7
ENDBRANCH   3   4
TORSDOF 4
ENDMDL
MODEL      119
REMARK 921   NORMALIZED FREE ENERGY PREDICTED BY IDOCK:   -3.33 KCAL/MOL
REMARK 922        TOTAL FREE ENERGY PREDICTED BY IDOCK:   -4.29 KCAL/MOL
REMARK 923 INTER-LIGAND FREE ENERGY PREDICTED BY IDOCK:   -4.11 KCAL/MOL
REMARK 924 INTRA-LIGAND FREE ENERGY PREDICTED BY IDOCK:   -0.19 KCAL/MOL
REMARK 927      BINDING AFFINITY PREDICTED BY RF-SCORE:    0.00 PKD
ROOT
HETATM    1  O   UNL     1     -10.439  16.021  68.486  1.00  0.00    -0.239 OA 
HETATM    2  H   UNL     1     -10.274  16.509  69.284  1.00  0.00     0.000 HD 
HETATM    3  C   UNL     1     -11.445  15.039  68.689  1.00  0.00    -0.311 C  
ENDROOT
BRANCH   3   4
HETATM    4  C   UNL     1     -11.711  14.254  67.403  1.00  0.00    -0.394 C  
HETATM    5  H   UNL     1     -11.483  14.554  65.475  1.00  0.00     0.000 HD 
HETATM    6  O   UNL     1     -11.318  15.041  66.273  1.00  0.00    -0.341 OA 
BRANCH   4   7
HETATM    7  C   UNL     1     -11.002  12.893  67.377  1.00  0.00    -0.260 C  
BRANCH   7   8
HETATM    8  O   UNL     1     -11.955  11.831  67.547  1.00  0.00    -0.607 OA 
BRANCH   8   9
HETATM    9  C   UNL     1     -11.588  10.829  68.409  1.00  0.00    -0.239 A  
HETATM   10  C   UNL     1     -10.968   9.629  68.044  1.00  0.00    -0.197 A  
HETATM   11  C   UNL     1     -10.637   8.678  69.012  1.00  0.00    -0.179 A  
HETATM   12  C   UNL     1     -10.922   8.922  70.351  1.00  0.00    -0.244 A  
HETATM   13  C   UNL     1     -11.539  10.112  70.731  1.00  0.00    -0.445 A  
HETATM   14 CL   UNL     1     -10.509   7.749  71.539  1.00  0.00    -0.231 Cl 
HETATM   15  C   UNL     1     -11.872  11.063  69.759  1.00  0.00    -0.421 A  
ENDBRANCH   8   9
ENDBRANCH   7   8
ENDBRANCH   4   7
ENDBRANCH   3   4
TORSDOF 4
ENDMDL
MODEL      120
REMARK 921   NORMALIZED FREE ENERGY PREDICTED BY IDOCK:   -3.30 KCAL/MOL
REMARK 922        TOTAL FREE ENERGY PREDICTED BY IDOCK:   -4.27 KCAL/MOL
REMARK 923 INTER-LIGAND FREE ENERGY PREDICTED BY IDOCK:   -4.10 KCAL/MOL
REMARK 924 INTRA-LIGAND FREE ENERGY PREDICTED BY IDOCK:   -0.17 KCAL/MOL
REMARK 927      BINDING AFFINITY PREDICTED BY RF-SCORE:    0.00 PKD
ROOT
HETATM    1  O   UNL     1     -14.132   8.877  73.261  1.00  0.00    -1.211 OA 
HETATM    2  H   UNL     1     -15.021   9.159  73.083  1.00  0.00     0.000 HD 
HETATM    3  C   UNL     1     -13.382   8.772  72.059  1.00  0.00    -0.413 C  
ENDROOT
BRANCH   3   4
HETATM    4  C   UNL     1     -11.949   8.318  72.346  1.00  0.00    -0.384 C  
HETATM    5  H   UNL     1     -10.982   6.610  72.428  1.00  0.00     0.000 HD 
HETATM    6  O   UNL     1     -11.871   6.892  72.250  1.00  0.00    -0.279 OA 
BRANCH   4   7
HETATM    7  C   UNL     1     -10.918   8.972  71.414  1.00  0.00    -0.324 C  
BRANCH   7   8
HETATM    8  O   UNL     1     -11.473   9.143  70.100  1.00  0.00    -0.208 OA 
BRANCH   8   9
HETATM    9  C   UNL     1     -10.567   9.339  69.089  1.00  0.00    -0.212 A  
HETATM   10  C   UNL     1     -10.688   8.850  67.783  1.00  0.00    -0.204 A  
HETATM   11  C   UNL     1      -9.700   9.114  66.832  1.00  0.00    -0.254 A  
HETATM   12  C   UNL     1      -8.587   9.872  67.179  1.00  0.00    -0.125 A  
HETATM   13  C   UNL     1      -8.452  10.366  68.474  1.00  0.00    -0.129 A  
HETATM   14 CL   UNL     1      -7.375  10.198  66.003  1.00  0.00    -0.112 Cl 
HETATM   15  C   UNL     1      -9.442  10.097  69.427  1.00  0.00    -0.240 A  
ENDBRANCH   8   9
ENDBRANCH   7   8
ENDBRANCH   4   7
ENDBRANCH   3   4
TORSDOF 4
ENDMDL
MODEL      121
REMARK 921   NORMALIZED FREE ENERGY PREDICTED BY IDOCK:   -3.29 KCAL/MOL
REMARK 922        TOTAL FREE ENERGY PREDICTED BY IDOCK:   -4.25 KCAL/MOL
REMARK 923 INTER-LIGAND FREE ENERGY PREDICTED BY IDOCK:   -3.82 KCAL/MOL
REMARK 924 INTRA-LIGAND FREE ENERGY PREDICTED BY IDOCK:   -0.42 KCAL/MOL
REMARK 927      BINDING AFFINITY PREDICTED BY RF-SCORE:    0.00 PKD
ROOT
HETATM    1  O   UNL     1     -11.530   6.711  72.709  1.00  0.00    -0.415 OA 
HETATM    2  H   UNL     1     -12.341   6.825  73.189  1.00  0.00     0.000 HD 
HETATM    3  C   UNL     1     -10.562   7.670  73.111  1.00  0.00    -0.379 C  
ENDROOT
BRANCH   3   4
HETATM    4  C   UNL     1      -9.255   7.487  72.336  1.00  0.00    -0.147 C  
HETATM    5  H   UNL     1      -8.154   5.976  71.733  1.00  0.00     0.000 HD 
HETATM    6  O   UNL     1      -8.965   6.090  72.214  1.00  0.00    -0.141 OA 
BRANCH   4   7
HETATM    7  C   UNL     1      -9.284   8.149  70.951  1.00  0.00    -0.151 C  
BRANCH   7   8
HETATM    8  O   UNL     1     -10.638   8.279  70.490  1.00  0.00    -0.211 OA 
BRANCH   8   9
HETATM    9  C   UNL     1     -10.901   9.372  69.705  1.00  0.00    -0.228 A  
HETATM   10  C   UNL     1     -10.673   9.458  68.327  1.00  0.00    -0.220 A  
HETATM   11  C   UNL     1     -10.982  10.627  67.627  1.00  0.00    -0.370 A  
HETATM   12  C   UNL     1     -11.525  11.715  68.301  1.00  0.00    -0.303 A  
HETATM   13  C   UNL     1     -11.758  11.647  69.672  1.00  0.00    -0.418 A  
HETATM   14 CL   UNL     1     -11.907  13.151  67.434  1.00  0.00    -0.414 Cl 
HETATM   15  C   UNL     1     -11.445  10.475  70.372  1.00  0.00    -0.427 A  
ENDBRANCH   8   9
ENDBRANCH   7   8
ENDBRANCH   4   7
ENDBRANCH   3   4
TORSDOF 4
ENDMDL
MODEL      122
REMARK 921   NORMALIZED FREE ENERGY PREDICTED BY IDOCK:   -3.29 KCAL/MOL
REMARK 922        TOTAL FREE ENERGY PREDICTED BY IDOCK:   -4.25 KCAL/MOL
REMARK 923 INTER-LIGAND FREE ENERGY PREDICTED BY IDOCK:   -4.07 KCAL/MOL
REMARK 924 INTRA-LIGAND FREE ENERGY PREDICTED BY IDOCK:   -0.18 KCAL/MOL
REMARK 927      BINDING AFFINITY PREDICTED BY RF-SCORE:    0.00 PKD
ROOT
HETATM    1  O   UNL     1     -14.299  15.463  70.766  1.00  0.00    -0.842 OA 
HETATM    2  H   UNL     1     -14.913  16.000  71.252  1.00  0.00     0.000 HD 
HETATM    3  C   UNL     1     -13.115  15.237  71.518  1.00  0.00    -0.438 C  
ENDROOT
BRANCH   3   4
HETATM    4  C   UNL     1     -12.126  14.370  70.735  1.00  0.00    -0.338 C  
HETATM    5  H   UNL     1     -11.610  12.475  70.695  1.00  0.00     0.000 HD 
HETATM    6  O   UNL     1     -12.223  13.013  71.181  1.00  0.00    -0.268 OA 
BRANCH   4   7
HETATM    7  C   UNL     1     -12.337  14.448  69.216  1.00  0.00    -0.153 C  
BRANCH   7   8
HETATM    8  O   UNL     1     -11.243  13.820  68.529  1.00  0.00    -0.248 OA 
BRANCH   8   9
HETATM    9  C   UNL     1     -10.363  14.667  67.905  1.00  0.00    -0.237 A  
HETATM   10  C   UNL     1     -10.706  15.840  67.223  1.00  0.00    -0.313 A  
HETATM   11  C   UNL     1      -9.721  16.629  66.625  1.00  0.00    -0.280 A  
HETATM   12  C   UNL     1      -8.385  16.251  66.708  1.00  0.00    -0.253 A  
HETATM   13  C   UNL     1      -8.026  15.087  67.384  1.00  0.00    -0.218 A  
HETATM   14 CL   UNL     1      -7.175  17.228  65.974  1.00  0.00    -0.296 Cl 
HETATM   15  C   UNL     1      -9.016  14.297  67.980  1.00  0.00    -0.183 A  
ENDBRANCH   8   9
ENDBRANCH   7   8
ENDBRANCH   4   7
ENDBRANCH   3   4
TORSDOF 4
ENDMDL
MODEL      123
REMARK 921   NORMALIZED FREE ENERGY PREDICTED BY IDOCK:   -3.26 KCAL/MOL
REMARK 922        TOTAL FREE ENERGY PREDICTED BY IDOCK:   -4.21 KCAL/MOL
REMARK 923 INTER-LIGAND FREE ENERGY PREDICTED BY IDOCK:   -3.80 KCAL/MOL
REMARK 924 INTRA-LIGAND FREE ENERGY PREDICTED BY IDOCK:   -0.41 KCAL/MOL
REMARK 927      BINDING AFFINITY PREDICTED BY RF-SCORE:    0.00 PKD
ROOT
HETATM    1  O   UNL     1     -10.821  11.830  62.976  1.00  0.00    -0.660 OA 
HETATM    2  H   UNL     1     -10.998  11.002  62.547  1.00  0.00     0.000 HD 
HETATM    3  C   UNL     1     -11.978  12.312  63.645  1.00  0.00    -0.543 C  
ENDROOT
BRANCH   3   4
HETATM    4  C   UNL     1     -11.693  13.647  64.338  1.00  0.00    -0.411 C  
HETATM    5  H   UNL     1     -12.751  15.155  65.020  1.00  0.00     0.000 HD 
HETATM    6  O   UNL     1     -12.928  14.327  64.590  1.00  0.00    -0.621 OA 
BRANCH   4   7
HETATM    7  C   UNL     1     -10.898  13.485  65.642  1.00  0.00    -0.287 C  
BRANCH   7   8
HETATM    8  O   UNL     1     -10.988  12.131  66.114  1.00  0.00    -0.274 OA 
BRANCH   8   9
HETATM    9  C   UNL     1      -9.806  11.552  66.501  1.00  0.00    -0.202 A  
HETATM   10  C   UNL     1      -8.979  10.769  65.688  1.00  0.00    -0.205 A  
HETATM   11  C   UNL     1      -7.793  10.230  66.191  1.00  0.00    -0.129 A  
HETATM   12  C   UNL     1      -7.424  10.474  67.509  1.00  0.00    -0.093 A  
HETATM   13  C   UNL     1      -8.235  11.251  68.332  1.00  0.00    -0.149 A  
HETATM   14 CL   UNL     1      -5.960   9.811  68.122  1.00  0.00    -0.046 Cl 
HETATM   15  C   UNL     1      -9.426  11.788  67.826  1.00  0.00    -0.181 A  
ENDBRANCH   8   9
ENDBRANCH   7   8
ENDBRANCH   4   7
ENDBRANCH   3   4
TORSDOF 4
ENDMDL
MODEL      124
REMARK 921   NORMALIZED FREE ENERGY PREDICTED BY IDOCK:   -3.26 KCAL/MOL
REMARK 922        TOTAL FREE ENERGY PREDICTED BY IDOCK:   -4.21 KCAL/MOL
REMARK 923 INTER-LIGAND FREE ENERGY PREDICTED BY IDOCK:   -4.04 KCAL/MOL
REMARK 924 INTRA-LIGAND FREE ENERGY PREDICTED BY IDOCK:   -0.17 KCAL/MOL
REMARK 927      BINDING AFFINITY PREDICTED BY RF-SCORE:    0.00 PKD
ROOT
HETATM    1  O   UNL     1     -10.353  16.911  69.124  1.00  0.00    -0.298 OA 
HETATM    2  H   UNL     1     -10.240  17.509  69.853  1.00  0.00     0.000 HD 
HETATM    3  C   UNL     1     -11.445  16.032  69.351  1.00  0.00    -0.336 C  
ENDROOT
BRANCH   3   4
HETATM    4  C   UNL     1     -11.627  15.070  68.175  1.00  0.00    -0.340 C  
HETATM    5  H   UNL     1     -10.995  14.949  66.319  1.00  0.00     0.000 HD 
HETATM    6  O   UNL     1     -10.882  15.546  67.049  1.00  0.00    -0.320 OA 
BRANCH   4   7
HETATM    7  C   UNL     1     -11.218  13.629  68.514  1.00  0.00    -0.280 C  
BRANCH   7   8
HETATM    8  O   UNL     1     -11.992  12.697  67.741  1.00  0.00    -0.347 OA 
BRANCH   8   9
HETATM    9  C   UNL     1     -11.307  11.620  67.240  1.00  0.00    -0.305 A  
HETATM   10  C   UNL     1     -10.668  11.569  65.997  1.00  0.00    -0.332 A  
HETATM   11  C   UNL     1      -9.996  10.414  65.590  1.00  0.00    -0.337 A  
HETATM   12  C   UNL     1      -9.956   9.304  66.426  1.00  0.00    -0.286 A  
HETATM   13  C   UNL     1     -10.586   9.338  67.667  1.00  0.00    -0.324 A  
HETATM   14 CL   UNL     1      -9.124   7.886  65.922  1.00  0.00    -0.177 Cl 
HETATM   15  C   UNL     1     -11.262  10.496  68.072  1.00  0.00    -0.361 A  
ENDBRANCH   8   9
ENDBRANCH   7   8
ENDBRANCH   4   7
ENDBRANCH   3   4
TORSDOF 4
ENDMDL
MODEL      125
REMARK 921   NORMALIZED FREE ENERGY PREDICTED BY IDOCK:   -3.23 KCAL/MOL
REMARK 922        TOTAL FREE ENERGY PREDICTED BY IDOCK:   -4.17 KCAL/MOL
REMARK 923 INTER-LIGAND FREE ENERGY PREDICTED BY IDOCK:   -4.02 KCAL/MOL
REMARK 924 INTRA-LIGAND FREE ENERGY PREDICTED BY IDOCK:   -0.16 KCAL/MOL
REMARK 927      BINDING AFFINITY PREDICTED BY RF-SCORE:    0.00 PKD
ROOT
HETATM    1  O   UNL     1      -9.520   9.249  71.702  1.00  0.00    -0.294 OA 
HETATM    2  H   UNL     1      -8.642   8.918  71.847  1.00  0.00     0.000 HD 
HETATM    3  C   UNL     1      -9.844   9.241  70.319  1.00  0.00    -0.222 C  
ENDROOT
BRANCH   3   4
HETATM    4  C   UNL     1     -11.260   9.774  70.085  1.00  0.00    -0.272 C  
HETATM    5  H   UNL     1     -12.588  10.793  71.112  1.00  0.00     0.000 HD 
HETATM    6  O   UNL     1     -11.710  10.462  71.257  1.00  0.00    -0.338 OA 
BRANCH   4   7
HETATM    7  C   UNL     1     -11.357  10.692  68.858  1.00  0.00    -0.274 C  
BRANCH   7   8
HETATM    8  O   UNL     1     -11.946  11.951  69.223  1.00  0.00    -0.305 OA 
BRANCH   8   9
HETATM    9  C   UNL     1     -11.627  13.016  68.420  1.00  0.00    -0.335 A  
HETATM   10  C   UNL     1     -11.679  13.026  67.022  1.00  0.00    -0.441 A  
HETATM   11  C   UNL     1     -11.332  14.174  66.306  1.00  0.00    -0.340 A  
HETATM   12  C   UNL     1     -10.934  15.320  66.984  1.00  0.00    -0.324 A  
HETATM   13  C   UNL     1     -10.877  15.328  68.376  1.00  0.00    -0.257 A  
HETATM   14 CL   UNL     1     -10.511  16.732  66.098  1.00  0.00    -0.309 Cl 
HETATM   15  C   UNL     1     -11.223  14.175  69.091  1.00  0.00    -0.307 A  
ENDBRANCH   8   9
ENDBRANCH   7   8
ENDBRANCH   4   7
ENDBRANCH   3   4
TORSDOF 4
ENDMDL
MODEL      126
REMARK 921   NORMALIZED FREE ENERGY PREDICTED BY IDOCK:   -3.23 KCAL/MOL
REMARK 922        TOTAL FREE ENERGY PREDICTED BY IDOCK:   -4.17 KCAL/MOL
REMARK 923 INTER-LIGAND FREE ENERGY PREDICTED BY IDOCK:   -4.00 KCAL/MOL
REMARK 924 INTRA-LIGAND FREE ENERGY PREDICTED BY IDOCK:   -0.17 KCAL/MOL
REMARK 927      BINDING AFFINITY PREDICTED BY RF-SCORE:    0.00 PKD
ROOT
HETATM    1  O   UNL     1     -12.333  14.332  69.103  1.00  0.00    -0.511 OA 
HETATM    2  H   UNL     1     -12.160  15.003  69.752  1.00  0.00     0.000 HD 
HETATM    3  C   UNL     1     -11.773  14.686  67.846  1.00  0.00    -0.351 C  
ENDROOT
BRANCH   3   4
HETATM    4  C   UNL     1     -12.051  13.603  66.800  1.00  0.00    -0.399 C  
HETATM    5  H   UNL     1     -13.099  13.453  65.145  1.00  0.00     0.000 HD 
HETATM    6  O   UNL     1     -12.926  14.125  65.794  1.00  0.00    -0.492 OA 
BRANCH   4   7
HETATM    7  C   UNL     1     -10.770  13.052  66.157  1.00  0.00    -0.273 C  
BRANCH   7   8
HETATM    8  O   UNL     1     -11.092  12.018  65.213  1.00  0.00    -0.303 OA 
BRANCH   8   9
HETATM    9  C   UNL     1     -10.243  10.941  65.190  1.00  0.00    -0.297 A  
HETATM   10  C   UNL     1      -9.576  10.455  64.060  1.00  0.00    -0.376 A  
HETATM   11  C   UNL     1      -8.731   9.347  64.156  1.00  0.00    -0.224 A  
HETATM   12  C   UNL     1      -8.546   8.721  65.384  1.00  0.00    -0.178 A  
HETATM   13  C   UNL     1      -9.202   9.192  66.518  1.00  0.00    -0.221 A  
HETATM   14 CL   UNL     1      -7.501   7.359  65.498  1.00  0.00    -0.084 Cl 
HETATM   15  C   UNL     1     -10.051  10.301  66.419  1.00  0.00    -0.296 A  
ENDBRANCH   8   9
ENDBRANCH   7   8
ENDBRANCH   4   7
ENDBRANCH   3   4
TORSDOF 4
ENDMDL
MODEL      127
REMARK 921   NORMALIZED FREE ENERGY PREDICTED BY IDOCK:   -3.22 KCAL/MOL
REMARK 922        TOTAL FREE ENERGY PREDICTED BY IDOCK:   -4.17 KCAL/MOL
REMARK 923 INTER-LIGAND FREE ENERGY PREDICTED BY IDOCK:   -3.83 KCAL/MOL
REMARK 924 INTRA-LIGAND FREE ENERGY PREDICTED BY IDOCK:   -0.33 KCAL/MOL
REMARK 927      BINDING AFFINITY PREDICTED BY RF-SCORE:    0.00 PKD
ROOT
HETATM    1  O   UNL     1      -9.924  10.648  69.737  1.00  0.00    -0.429 OA 
HETATM    2  H   UNL     1      -9.160  10.316  70.193  1.00  0.00     0.000 HD 
HETATM    3  C   UNL     1     -10.078  10.012  68.476  1.00  0.00    -0.169 C  
ENDROOT
BRANCH   3   4
HETATM    4  C   UNL     1     -11.309  10.547  67.741  1.00  0.00    -0.190 C  
HETATM    5  H   UNL     1     -13.013  11.391  68.236  1.00  0.00     0.000 HD 
HETATM    6  O   UNL     1     -12.249  11.059  68.692  1.00  0.00    -0.571 OA 
BRANCH   4   7
HETATM    7  C   UNL     1     -10.963  11.624  66.702  1.00  0.00    -0.299 C  
BRANCH   7   8
HETATM    8  O   UNL     1      -9.583  12.006  66.822  1.00  0.00    -0.198 OA 
BRANCH   8   9
HETATM    9  C   UNL     1      -9.314  13.340  66.652  1.00  0.00    -0.242 A  
HETATM   10  C   UNL     1     -10.120  14.250  65.960  1.00  0.00    -0.333 A  
HETATM   11  C   UNL     1      -9.745  15.591  65.851  1.00  0.00    -0.392 A  
HETATM   12  C   UNL     1      -8.563  16.030  66.436  1.00  0.00    -0.334 A  
HETATM   13  C   UNL     1      -7.749  15.137  67.129  1.00  0.00    -0.223 A  
HETATM   14 CL   UNL     1      -8.107  17.684  66.303  1.00  0.00    -0.297 Cl 
HETATM   15  C   UNL     1      -8.126  13.793  67.234  1.00  0.00    -0.154 A  
ENDBRANCH   8   9
ENDBRANCH   7   8
ENDBRANCH   4   7
ENDBRANCH   3   4
TORSDOF 4
ENDMDL
MODEL      128
REMARK 921   NORMALIZED FREE ENERGY PREDICTED BY IDOCK:   -3.22 KCAL/MOL
REMARK 922        TOTAL FREE ENERGY PREDICTED BY IDOCK:   -4.16 KCAL/MOL
REMARK 923 INTER-LIGAND FREE ENERGY PREDICTED BY IDOCK:   -3.92 KCAL/MOL
REMARK 924 INTRA-LIGAND FREE ENERGY PREDICTED BY IDOCK:   -0.23 KCAL/MOL
REMARK 927      BINDING AFFINITY PREDICTED BY RF-SCORE:    0.00 PKD
ROOT
HETATM    1  O   UNL     1      -8.013  10.030  70.684  1.00  0.00    -0.416 OA 
HETATM    2  H   UNL     1      -7.067  10.082  70.749  1.00  0.00     0.000 HD 
HETATM    3  C   UNL     1      -8.403   9.208  69.593  1.00  0.00    -0.130 C  
ENDROOT
BRANCH   3   4
HETATM    4  C   UNL     1      -9.928   9.124  69.490  1.00  0.00    -0.189 C  
HETATM    5  H   UNL     1     -11.465  10.073  70.261  1.00  0.00     0.000 HD 
HETATM    6  O   UNL     1     -10.519  10.125  70.324  1.00  0.00    -0.281 OA 
BRANCH   4   7
HETATM    7  C   UNL     1     -10.437   9.262  68.048  1.00  0.00    -0.223 C  
BRANCH   7   8
HETATM    8  O   UNL     1      -9.597  10.162  67.307  1.00  0.00    -0.154 OA 
BRANCH   8   9
HETATM    9  C   UNL     1     -10.221  10.904  66.338  1.00  0.00    -0.238 A  
HETATM   10  C   UNL     1      -9.881  10.919  64.980  1.00  0.00    -0.336 A  
HETATM   11  C   UNL     1     -10.592  11.716  64.079  1.00  0.00    -0.426 A  
HETATM   12  C   UNL     1     -11.648  12.500  64.530  1.00  0.00    -0.348 A  
HETATM   13  C   UNL     1     -12.000  12.496  65.877  1.00  0.00    -0.472 A  
HETATM   14 CL   UNL     1     -12.522  13.476  63.416  1.00  0.00    -0.340 Cl 
HETATM   15  C   UNL     1     -11.284  11.698  66.779  1.00  0.00    -0.371 A  
ENDBRANCH   8   9
ENDBRANCH   7   8
ENDBRANCH   4   7
ENDBRANCH   3   4
TORSDOF 4
ENDMDL
MODEL      129
REMARK 921   NORMALIZED FREE ENERGY PREDICTED BY IDOCK:   -3.21 KCAL/MOL
REMARK 922        TOTAL FREE ENERGY PREDICTED BY IDOCK:   -4.15 KCAL/MOL
REMARK 923 INTER-LIGAND FREE ENERGY PREDICTED BY IDOCK:   -3.74 KCAL/MOL
REMARK 924 INTRA-LIGAND FREE ENERGY PREDICTED BY IDOCK:   -0.41 KCAL/MOL
REMARK 927      BINDING AFFINITY PREDICTED BY RF-SCORE:    0.00 PKD
ROOT
HETATM    1  O   UNL     1      -8.542  10.053  67.401  1.00  0.00    -0.125 OA 
HETATM    2  H   UNL     1      -7.793  10.379  66.916  1.00  0.00     0.000 HD 
HETATM    3  C   UNL     1      -9.126   8.938  66.743  1.00  0.00    -0.143 C  
ENDROOT
BRANCH   3   4
HETATM    4  C   UNL     1     -10.333   8.412  67.524  1.00  0.00    -0.265 C  
HETATM    5  H   UNL     1     -10.697   6.930  68.760  1.00  0.00     0.000 HD 
HETATM    6  O   UNL     1      -9.948   7.256  68.275  1.00  0.00    -0.151 OA 
BRANCH   4   7
HETATM    7  C   UNL     1     -10.951   9.469  68.450  1.00  0.00    -0.069 C  
BRANCH   7   8
HETATM    8  O   UNL     1     -11.495  10.552  67.678  1.00  0.00    -0.444 OA 
BRANCH   8   9
HETATM    9  C   UNL     1     -11.657  11.740  68.343  1.00  0.00    -0.318 A  
HETATM   10  C   UNL     1     -11.960  11.877  69.702  1.00  0.00    -0.365 A  
HETATM   11  C   UNL     1     -12.101  13.143  70.274  1.00  0.00    -0.399 A  
HETATM   12  C   UNL     1     -11.935  14.281  69.492  1.00  0.00    -0.336 A  
HETATM   13  C   UNL     1     -11.633  14.162  68.138  1.00  0.00    -0.365 A  
HETATM   14 CL   UNL     1     -12.106  15.838  70.202  1.00  0.00    -0.374 Cl 
HETATM   15  C   UNL     1     -11.495  12.891  67.565  1.00  0.00    -0.386 A  
ENDBRANCH   8   9
ENDBRANCH   7   8
ENDBRANCH   4   7
ENDBRANCH   3   4
TORSDOF 4
ENDMDL
MODEL      130
REMARK 921   NORMALIZED FREE ENERGY PREDICTED BY IDOCK:   -3.19 KCAL/MOL
REMARK 922        TOTAL FREE ENERGY PREDICTED BY IDOCK:   -4.13 KCAL/MOL
REMARK 923 INTER-LIGAND FREE ENERGY PREDICTED BY IDOCK:   -3.66 KCAL/MOL
REMARK 924 INTRA-LIGAND FREE ENERGY PREDICTED BY IDOCK:   -0.47 KCAL/MOL
REMARK 927      BINDING AFFINITY PREDICTED BY RF-SCORE:    0.00 PKD
ROOT
HETATM    1  O   UNL     1     -10.108  10.346  70.255  1.00  0.00    -0.411 OA 
HETATM    2  H   UNL     1      -9.454   9.874  70.757  1.00  0.00     0.000 HD 
HETATM    3  C   UNL     1     -10.188   9.845  68.927  1.00  0.00    -0.196 C  
ENDROOT
BRANCH   3   4
HETATM    4  C   UNL     1     -11.242  10.605  68.119  1.00  0.00    -0.302 C  
HETATM    5  H   UNL     1     -12.952  11.500  68.488  1.00  0.00     0.000 HD 
HETATM    6  O   UNL     1     -12.297  11.028  68.989  1.00  0.00    -0.481 OA 
BRANCH   4   7
HETATM    7  C   UNL     1     -10.661  11.808  67.361  1.00  0.00    -0.236 C  
BRANCH   7   8
HETATM    8  O   UNL     1      -9.760  12.541  68.207  1.00  0.00    -0.219 OA 
BRANCH   8   9
HETATM    9  C   UNL     1     -10.022  13.880  68.342  1.00  0.00    -0.233 A  
HETATM   10  C   UNL     1     -11.287  14.447  68.531  1.00  0.00    -0.307 A  
HETATM   11  C   UNL     1     -11.434  15.830  68.658  1.00  0.00    -0.389 A  
HETATM   12  C   UNL     1     -10.316  16.655  68.600  1.00  0.00    -0.304 A  
HETATM   13  C   UNL     1      -9.049  16.107  68.413  1.00  0.00    -0.199 A  
HETATM   14 CL   UNL     1     -10.502  18.357  68.762  1.00  0.00    -0.202 Cl 
HETATM   15  C   UNL     1      -8.905  14.720  68.283  1.00  0.00    -0.179 A  
ENDBRANCH   8   9
ENDBRANCH   7   8
ENDBRANCH   4   7
ENDBRANCH   3   4
TORSDOF 4
ENDMDL
MODEL      131
REMARK 921   NORMALIZED FREE ENERGY PREDICTED BY IDOCK:   -3.17 KCAL/MOL
REMARK 922        TOTAL FREE ENERGY PREDICTED BY IDOCK:   -4.11 KCAL/MOL
REMARK 923 INTER-LIGAND FREE ENERGY PREDICTED BY IDOCK:   -3.71 KCAL/MOL
REMARK 924 INTRA-LIGAND FREE ENERGY PREDICTED BY IDOCK:   -0.39 KCAL/MOL
REMARK 927      BINDING AFFINITY PREDICTED BY RF-SCORE:    0.00 PKD
ROOT
HETATM    1  O   UNL     1      -8.045   8.824  69.518  1.00  0.00    -0.100 OA 
HETATM    2  H   UNL     1      -7.872   9.325  70.306  1.00  0.00     0.000 HD 
HETATM    3  C   UNL     1      -9.321   8.202  69.581  1.00  0.00    -0.159 C  
ENDROOT
BRANCH   3   4
HETATM    4  C   UNL     1      -9.599   7.394  68.311  1.00  0.00    -0.150 C  
HETATM    5  H   UNL     1     -10.766   5.900  67.796  1.00  0.00     0.000 HD 
HETATM    6  O   UNL     1     -10.593   6.402  68.584  1.00  0.00    -0.200 OA 
BRANCH   4   7
HETATM    7  C   UNL     1     -10.033   8.273  67.128  1.00  0.00    -0.239 C  
BRANCH   7   8
HETATM    8  O   UNL     1      -9.886   9.663  67.461  1.00  0.00    -0.156 OA 
BRANCH   8   9
HETATM    9  C   UNL     1     -10.473  10.551  66.596  1.00  0.00    -0.228 A  
HETATM   10  C   UNL     1     -11.281  11.632  66.964  1.00  0.00    -0.376 A  
HETATM   11  C   UNL     1     -11.826  12.475  65.992  1.00  0.00    -0.478 A  
HETATM   12  C   UNL     1     -11.564  12.243  64.647  1.00  0.00    -0.344 A  
HETATM   13  C   UNL     1     -10.761  11.171  64.263  1.00  0.00    -0.403 A  
HETATM   14 CL   UNL     1     -12.234  13.285  63.454  1.00  0.00    -0.569 Cl 
HETATM   15  C   UNL     1     -10.218  10.326  65.239  1.00  0.00    -0.308 A  
ENDBRANCH   8   9
ENDBRANCH   7   8
ENDBRANCH   4   7
ENDBRANCH   3   4
TORSDOF 4
ENDMDL
MODEL      132
REMARK 921   NORMALIZED FREE ENERGY PREDICTED BY IDOCK:   -3.17 KCAL/MOL
REMARK 922        TOTAL FREE ENERGY PREDICTED BY IDOCK:   -4.10 KCAL/MOL
REMARK 923 INTER-LIGAND FREE ENERGY PREDICTED BY IDOCK:   -3.68 KCAL/MOL
REMARK 924 INTRA-LIGAND FREE ENERGY PREDICTED BY IDOCK:   -0.42 KCAL/MOL
REMARK 927      BINDING AFFINITY PREDICTED BY RF-SCORE:    0.00 PKD
ROOT
HETATM    1  O   UNL     1      -9.720  10.320  64.844  1.00  0.00    -0.273 OA 
HETATM    2  H   UNL     1      -9.507   9.741  64.123  1.00  0.00     0.000 HD 
HETATM    3  C   UNL     1     -10.682  11.288  64.450  1.00  0.00    -0.339 C  
ENDROOT
BRANCH   3   4
HETATM    4  C   UNL     1     -11.027  12.222  65.613  1.00  0.00    -0.299 C  
HETATM    5  H   UNL     1     -12.652  13.043  66.350  1.00  0.00     0.000 HD 
HETATM    6  O   UNL     1     -12.438  12.464  65.629  1.00  0.00    -0.640 OA 
BRANCH   4   7
HETATM    7  C   UNL     1     -10.564  11.679  66.973  1.00  0.00    -0.237 C  
BRANCH   7   8
HETATM    8  O   UNL     1     -11.200  10.420  67.248  1.00  0.00    -0.284 OA 
BRANCH   8   9
HETATM    9  C   UNL     1     -10.696   9.714  68.311  1.00  0.00    -0.217 A  
HETATM   10  C   UNL     1     -10.493  10.219  69.600  1.00  0.00    -0.286 A  
HETATM   11  C   UNL     1      -9.973   9.404  70.608  1.00  0.00    -0.349 A  
HETATM   12  C   UNL     1      -9.655   8.078  70.333  1.00  0.00    -0.174 A  
HETATM   13  C   UNL     1      -9.851   7.560  69.056  1.00  0.00    -0.170 A  
HETATM   14 CL   UNL     1      -9.018   7.078  71.579  1.00  0.00    -0.139 Cl 
HETATM   15  C   UNL     1     -10.370   8.380  68.046  1.00  0.00    -0.270 A  
ENDBRANCH   8   9
ENDBRANCH   7   8
ENDBRANCH   4   7
ENDBRANCH   3   4
TORSDOF 4
ENDMDL
MODEL      133
REMARK 921   NORMALIZED FREE ENERGY PREDICTED BY IDOCK:   -3.16 KCAL/MOL
REMARK 922        TOTAL FREE ENERGY PREDICTED BY IDOCK:   -4.09 KCAL/MOL
REMARK 923 INTER-LIGAND FREE ENERGY PREDICTED BY IDOCK:   -3.95 KCAL/MOL
REMARK 924 INTRA-LIGAND FREE ENERGY PREDICTED BY IDOCK:   -0.14 KCAL/MOL
REMARK 927      BINDING AFFINITY PREDICTED BY RF-SCORE:    0.00 PKD
ROOT
HETATM    1  O   UNL     1     -13.769  14.983  70.699  1.00  0.00    -0.659 OA 
HETATM    2  H   UNL     1     -14.291  14.911  71.489  1.00  0.00     0.000 HD 
HETATM    3  C   UNL     1     -12.551  15.669  70.955  1.00  0.00    -0.459 C  
ENDROOT
BRANCH   3   4
HETATM    4  C   UNL     1     -11.710  15.784  69.682  1.00  0.00    -0.355 C  
HETATM    5  H   UNL     1     -10.348  17.013  68.978  1.00  0.00     0.000 HD 
HETATM    6  O   UNL     1     -10.870  16.941  69.768  1.00  0.00    -0.281 OA 
BRANCH   4   7
HETATM    7  C   UNL     1     -10.865  14.531  69.409  1.00  0.00    -0.226 C  
BRANCH   7   8
HETATM    8  O   UNL     1     -10.673  14.358  67.996  1.00  0.00    -0.237 OA 
BRANCH   8   9
HETATM    9  C   UNL     1     -10.440  13.074  67.576  1.00  0.00    -0.227 A  
HETATM   10  C   UNL     1     -10.375  11.947  68.402  1.00  0.00    -0.216 A  
HETATM   11  C   UNL     1     -10.132  10.682  67.862  1.00  0.00    -0.194 A  
HETATM   12  C   UNL     1      -9.956  10.536  66.490  1.00  0.00    -0.214 A  
HETATM   13  C   UNL     1     -10.018  11.648  65.653  1.00  0.00    -0.274 A  
HETATM   14 CL   UNL     1      -9.661   8.977  65.828  1.00  0.00    -0.318 Cl 
HETATM   15  C   UNL     1     -10.259  12.915  66.198  1.00  0.00    -0.286 A  
ENDBRANCH   8   9
ENDBRANCH   7   8
ENDBRANCH   4   7
ENDBRANCH   3   4
TORSDOF 4
ENDMDL
MODEL      134
REMARK 921   NORMALIZED FREE ENERGY PREDICTED BY IDOCK:   -3.14 KCAL/MOL
REMARK 922        TOTAL FREE ENERGY PREDICTED BY IDOCK:   -4.06 KCAL/MOL
REMARK 923 INTER-LIGAND FREE ENERGY PREDICTED BY IDOCK:   -3.74 KCAL/MOL
REMARK 924 INTRA-LIGAND FREE ENERGY PREDICTED BY IDOCK:   -0.32 KCAL/MOL
REMARK 927      BINDING AFFINITY PREDICTED BY RF-SCORE:    0.00 PKD
ROOT
HETATM    1  O   UNL     1      -8.967  14.724  69.822  1.00  0.00    -0.415 OA 
HETATM    2  H   UNL     1      -8.197  14.943  70.332  1.00  0.00     0.000 HD 
HETATM    3  C   UNL     1      -9.964  15.728  69.951  1.00  0.00    -0.191 C  
ENDROOT
BRANCH   3   4
HETATM    4  C   UNL     1     -11.206  15.376  69.129  1.00  0.00    -0.287 C  
HETATM    5  H   UNL     1     -13.149  15.368  69.412  1.00  0.00     0.000 HD 
HETATM    6  O   UNL     1     -12.379  15.587  69.922  1.00  0.00    -0.357 OA 
BRANCH   4   7
HETATM    7  C   UNL     1     -11.299  16.169  67.817  1.00  0.00    -0.126 C  
BRANCH   7   8
HETATM    8  O   UNL     1     -10.144  15.917  67.000  1.00  0.00    -0.256 OA 
BRANCH   8   9
HETATM    9  C   UNL     1      -9.404  17.018  66.654  1.00  0.00    -0.255 A  
HETATM   10  C   UNL     1      -9.844  18.345  66.708  1.00  0.00    -0.351 A  
HETATM   11  C   UNL     1      -8.999  19.391  66.331  1.00  0.00    -0.395 A  
HETATM   12  C   UNL     1      -7.706  19.116  65.900  1.00  0.00    -0.179 A  
HETATM   13  C   UNL     1      -7.251  17.801  65.840  1.00  0.00    -0.260 A  
HETATM   14 CL   UNL     1      -6.667  20.407  65.440  1.00  0.00    -0.306 Cl 
HETATM   15  C   UNL     1      -8.102  16.754  66.217  1.00  0.00    -0.365 A  
ENDBRANCH   8   9
ENDBRANCH   7   8
ENDBRANCH   4   7
ENDBRANCH   3   4
TORSDOF 4
ENDMDL
MODEL      135
REMARK 921   NORMALIZED FREE ENERGY PREDICTED BY IDOCK:   -3.12 KCAL/MOL
REMARK 922        TOTAL FREE ENERGY PREDICTED BY IDOCK:   -4.04 KCAL/MOL
REMARK 923 INTER-LIGAND FREE ENERGY PREDICTED BY IDOCK:   -3.82 KCAL/MOL
REMARK 924 INTRA-LIGAND FREE ENERGY PREDICTED BY IDOCK:   -0.22 KCAL/MOL
REMARK 927      BINDING AFFINITY PREDICTED BY RF-SCORE:    0.00 PKD
ROOT
HETATM    1  O   UNL     1     -11.669  13.135  70.384  1.00  0.00    -0.526 OA 
HETATM    2  H   UNL     1     -11.670  14.019  70.731  1.00  0.00     0.000 HD 
HETATM    3  C   UNL     1     -12.659  12.339  71.020  1.00  0.00    -0.257 C  
ENDROOT
BRANCH   3   4
HETATM    4  C   UNL     1     -12.658  10.914  70.462  1.00  0.00    -0.324 C  
HETATM    5  H   UNL     1     -12.376  10.068  68.712  1.00  0.00     0.000 HD 
HETATM    6  O   UNL     1     -12.377  10.952  69.058  1.00  0.00    -0.464 OA 
BRANCH   4   7
HETATM    7  C   UNL     1     -11.662   9.992  71.180  1.00  0.00    -0.387 C  
BRANCH   7   8
HETATM    8  O   UNL     1     -12.081   8.623  71.068  1.00  0.00    -0.287 OA 
BRANCH   8   9
HETATM    9  C   UNL     1     -11.174   7.763  70.502  1.00  0.00    -0.257 A  
HETATM   10  C   UNL     1     -10.101   8.135  69.686  1.00  0.00    -0.199 A  
HETATM   11  C   UNL     1      -9.236   7.170  69.164  1.00  0.00    -0.139 A  
HETATM   12  C   UNL     1      -9.439   5.826  69.458  1.00  0.00    -0.135 A  
HETATM   13  C   UNL     1     -10.503   5.439  70.269  1.00  0.00    -0.355 A  
HETATM   14 CL   UNL     1      -8.370   4.641  68.817  1.00  0.00    -0.081 Cl 
HETATM   15  C   UNL     1     -11.370   6.408  70.789  1.00  0.00    -0.411 A  
ENDBRANCH   8   9
ENDBRANCH   7   8
ENDBRANCH   4   7
ENDBRANCH   3   4
TORSDOF 4
ENDMDL
MODEL      136
REMARK 921   NORMALIZED FREE ENERGY PREDICTED BY IDOCK:   -3.12 KCAL/MOL
REMARK 922        TOTAL FREE ENERGY PREDICTED BY IDOCK:   -4.04 KCAL/MOL
REMARK 923 INTER-LIGAND FREE ENERGY PREDICTED BY IDOCK:   -3.91 KCAL/MOL
REMARK 924 INTRA-LIGAND FREE ENERGY PREDICTED BY IDOCK:   -0.13 KCAL/MOL
REMARK 927      BINDING AFFINITY PREDICTED BY RF-SCORE:    0.00 PKD
ROOT
HETATM    1  O   UNL     1     -11.679  12.816  70.062  1.00  0.00    -0.458 OA 
HETATM    2  H   UNL     1     -11.297  13.044  70.900  1.00  0.00     0.000 HD 
HETATM    3  C   UNL     1     -11.152  13.631  69.024  1.00  0.00    -0.255 C  
ENDROOT
BRANCH   3   4
HETATM    4  C   UNL     1     -11.769  13.262  67.672  1.00  0.00    -0.366 C  
HETATM    5  H   UNL     1     -12.915  14.140  66.340  1.00  0.00     0.000 HD 
HETATM    6  O   UNL     1     -12.532  14.369  67.179  1.00  0.00    -0.234 OA 
BRANCH   4   7
HETATM    7  C   UNL     1     -10.722  12.832  66.635  1.00  0.00    -0.261 C  
BRANCH   7   8
HETATM    8  O   UNL     1     -11.341  12.063  65.592  1.00  0.00    -0.333 OA 
BRANCH   8   9
HETATM    9  C   UNL     1     -10.520  11.195  64.920  1.00  0.00    -0.308 A  
HETATM   10  C   UNL     1      -9.861  10.097  65.484  1.00  0.00    -0.365 A  
HETATM   11  C   UNL     1      -9.047   9.276  64.699  1.00  0.00    -0.177 A  
HETATM   12  C   UNL     1      -8.890   9.547  63.344  1.00  0.00    -0.214 A  
HETATM   13  C   UNL     1      -9.539  10.636  62.767  1.00  0.00    -0.333 A  
HETATM   14 CL   UNL     1      -7.890   8.532  62.381  1.00  0.00    -0.131 Cl 
HETATM   15  C   UNL     1     -10.352  11.459  63.556  1.00  0.00    -0.476 A  
ENDBRANCH   8   9
ENDBRANCH   7   8
ENDBRANCH   4   7
ENDBRANCH   3   4
TORSDOF 4
ENDMDL
MODEL      137
REMARK 921   NORMALIZED FREE ENERGY PREDICTED BY IDOCK:   -3.07 KCAL/MOL
REMARK 922        TOTAL FREE ENERGY PREDICTED BY IDOCK:   -3.98 KCAL/MOL
REMARK 923 INTER-LIGAND FREE ENERGY PREDICTED BY IDOCK:   -3.46 KCAL/MOL
REMARK 924 INTRA-LIGAND FREE ENERGY PREDICTED BY IDOCK:   -0.52 KCAL/MOL
REMARK 927      BINDING AFFINITY PREDICTED BY RF-SCORE:    0.00 PKD
ROOT
HETATM    1  O   UNL     1     -11.498   8.233  69.589  1.00  0.00    -0.439 OA 
HETATM    2  H   UNL     1     -11.029   8.537  68.822  1.00  0.00     0.000 HD 
HETATM    3  C   UNL     1     -11.470   9.208  70.622  1.00  0.00    -0.262 C  
ENDROOT
BRANCH   3   4
HETATM    4  C   UNL     1     -12.227   8.717  71.859  1.00  0.00    -0.361 C  
HETATM    5  H   UNL     1     -13.789   7.583  72.218  1.00  0.00     0.000 HD 
HETATM    6  O   UNL     1     -13.320   7.887  71.451  1.00  0.00    -0.307 OA 
BRANCH   4   7
HETATM    7  C   UNL     1     -11.327   7.965  72.850  1.00  0.00    -0.337 C  
BRANCH   7   8
HETATM    8  O   UNL     1     -10.231   7.346  72.156  1.00  0.00    -0.186 OA 
BRANCH   8   9
HETATM    9  C   UNL     1     -10.182   5.977  72.216  1.00  0.00    -0.187 A  
HETATM   10  C   UNL     1      -9.367   5.157  71.428  1.00  0.00    -0.189 A  
HETATM   11  C   UNL     1      -9.399   3.769  71.577  1.00  0.00    -0.203 A  
HETATM   12  C   UNL     1     -10.247   3.192  72.517  1.00  0.00    -0.144 A  
HETATM   13  C   UNL     1     -11.065   3.993  73.309  1.00  0.00    -0.301 A  
HETATM   14 CL   UNL     1     -10.281   1.482  72.700  1.00  0.00    -0.192 Cl 
HETATM   15  C   UNL     1     -11.032   5.385  73.156  1.00  0.00    -0.353 A  
ENDBRANCH   8   9
ENDBRANCH   7   8
ENDBRANCH   4   7
ENDBRANCH   3   4
TORSDOF 4
ENDMDL
MODEL      138
REMARK 921   NORMALIZED FREE ENERGY PREDICTED BY IDOCK:   -3.06 KCAL/MOL
REMARK 922        TOTAL FREE ENERGY PREDICTED BY IDOCK:   -3.97 KCAL/MOL
REMARK 923 INTER-LIGAND FREE ENERGY PREDICTED BY IDOCK:   -3.85 KCAL/MOL
REMARK 924 INTRA-LIGAND FREE ENERGY PREDICTED BY IDOCK:   -0.12 KCAL/MOL
REMARK 927      BINDING AFFINITY PREDICTED BY RF-SCORE:    0.00 PKD
ROOT
HETATM    1  O   UNL     1      -6.495  13.902  70.116  1.00  0.00    -0.301 OA 
HETATM    2  H   UNL     1      -5.636  13.585  70.366  1.00  0.00     0.000 HD 
HETATM    3  C   UNL     1      -6.556  14.154  68.719  1.00  0.00    -0.094 C  
ENDROOT
BRANCH   3   4
HETATM    4  C   UNL     1      -7.941  14.665  68.315  1.00  0.00    -0.133 C  
HETATM    5  H   UNL     1      -8.702  15.710  66.835  1.00  0.00     0.000 HD 
HETATM    6  O   UNL     1      -7.842  15.392  67.086  1.00  0.00    -0.185 OA 
BRANCH   4   7
HETATM    7  C   UNL     1      -8.979  13.540  68.187  1.00  0.00    -0.187 C  
BRANCH   7   8
HETATM    8  O   UNL     1     -10.291  14.093  67.996  1.00  0.00    -0.224 OA 
BRANCH   8   9
HETATM    9  C   UNL     1     -10.950  14.479  69.135  1.00  0.00    -0.268 A  
HETATM   10  C   UNL     1     -10.956  15.770  69.674  1.00  0.00    -0.306 A  
HETATM   11  C   UNL     1     -11.668  16.049  70.843  1.00  0.00    -0.438 A  
HETATM   12  C   UNL     1     -12.380  15.038  71.480  1.00  0.00    -0.335 A  
HETATM   13  C   UNL     1     -12.385  13.747  70.956  1.00  0.00    -0.452 A  
HETATM   14 CL   UNL     1     -13.257  15.386  72.917  1.00  0.00    -0.560 Cl 
HETATM   15  C   UNL     1     -11.669  13.470  69.785  1.00  0.00    -0.363 A  
ENDBRANCH   8   9
ENDBRANCH   7   8
ENDBRANCH   4   7
ENDBRANCH   3   4
TORSDOF 4
ENDMDL
MODEL      139
REMARK 921   NORMALIZED FREE ENERGY PREDICTED BY IDOCK:   -3.06 KCAL/MOL
REMARK 922        TOTAL FREE ENERGY PREDICTED BY IDOCK:   -3.96 KCAL/MOL
REMARK 923 INTER-LIGAND FREE ENERGY PREDICTED BY IDOCK:   -3.79 KCAL/MOL
REMARK 924 INTRA-LIGAND FREE ENERGY PREDICTED BY IDOCK:   -0.17 KCAL/MOL
REMARK 927      BINDING AFFINITY PREDICTED BY RF-SCORE:    0.00 PKD
ROOT
HETATM    1  O   UNL     1     -12.378  11.677  62.974  1.00  0.00    -0.970 OA 
HETATM    2  H   UNL     1     -13.311  11.765  62.823  1.00  0.00     0.000 HD 
HETATM    3  C   UNL     1     -11.981  12.389  64.137  1.00  0.00    -0.435 C  
ENDROOT
BRANCH   3   4
HETATM    4  C   UNL     1     -10.477  12.246  64.380  1.00  0.00    -0.325 C  
HETATM    5  H   UNL     1      -9.133  13.082  65.544  1.00  0.00     0.000 HD 
HETATM    6  O   UNL     1     -10.067  13.170  65.394  1.00  0.00    -0.289 OA 
BRANCH   4   7
HETATM    7  C   UNL     1     -10.067  10.817  64.764  1.00  0.00    -0.331 C  
BRANCH   7   8
HETATM    8  O   UNL     1      -9.479  10.803  66.074  1.00  0.00    -0.181 OA 
BRANCH   8   9
HETATM    9  C   UNL     1      -9.305   9.566  66.640  1.00  0.00    -0.161 A  
HETATM   10  C   UNL     1      -8.177   9.149  67.356  1.00  0.00    -0.107 A  
HETATM   11  C   UNL     1      -8.111   7.860  67.890  1.00  0.00    -0.129 A  
HETATM   12  C   UNL     1      -9.174   6.981  67.714  1.00  0.00    -0.124 A  
HETATM   13  C   UNL     1     -10.304   7.380  67.005  1.00  0.00    -0.384 A  
HETATM   14 CL   UNL     1      -9.089   5.396  68.378  1.00  0.00    -0.113 Cl 
HETATM   15  C   UNL     1     -10.367   8.671  66.467  1.00  0.00    -0.237 A  
ENDBRANCH   8   9
ENDBRANCH   7   8
ENDBRANCH   4   7
ENDBRANCH   3   4
TORSDOF 4
ENDMDL
MODEL      140
REMARK 921   NORMALIZED FREE ENERGY PREDICTED BY IDOCK:   -3.03 KCAL/MOL
REMARK 922        TOTAL FREE ENERGY PREDICTED BY IDOCK:   -3.92 KCAL/MOL
REMARK 923 INTER-LIGAND FREE ENERGY PREDICTED BY IDOCK:   -3.56 KCAL/MOL
REMARK 924 INTRA-LIGAND FREE ENERGY PREDICTED BY IDOCK:   -0.37 KCAL/MOL
REMARK 927      BINDING AFFINITY PREDICTED BY RF-SCORE:    0.00 PKD
ROOT
HETATM    1  O   UNL     1      -7.940   7.049  67.885  1.00  0.00    -0.112 OA 
HETATM    2  H   UNL     1      -7.108   6.699  68.181  1.00  0.00     0.000 HD 
HETATM    3  C   UNL     1      -7.771   8.333  67.300  1.00  0.00    -0.101 C  
ENDROOT
BRANCH   3   4
HETATM    4  C   UNL     1      -9.111   8.897  66.821  1.00  0.00    -0.143 C  
HETATM    5  H   UNL     1     -10.150   8.885  65.155  1.00  0.00     0.000 HD 
HETATM    6  O   UNL     1      -9.319   8.535  65.452  1.00  0.00    -0.067 OA 
BRANCH   4   7
HETATM    7  C   UNL     1     -10.295   8.432  67.681  1.00  0.00    -0.252 C  
BRANCH   7   8
HETATM    8  O   UNL     1      -9.963   8.522  69.076  1.00  0.00    -0.182 OA 
BRANCH   8   9
HETATM    9  C   UNL     1     -10.803   9.288  69.844  1.00  0.00    -0.234 A  
HETATM   10  C   UNL     1     -11.454   8.864  71.007  1.00  0.00    -0.351 A  
HETATM   11  C   UNL     1     -12.289   9.735  71.711  1.00  0.00    -0.470 A  
HETATM   12  C   UNL     1     -12.476  11.035  71.258  1.00  0.00    -0.370 A  
HETATM   13  C   UNL     1     -11.836  11.473  70.101  1.00  0.00    -0.440 A  
HETATM   14 CL   UNL     1     -13.502  12.105  72.130  1.00  0.00    -0.531 Cl 
HETATM   15  C   UNL     1     -11.001  10.598  69.395  1.00  0.00    -0.304 A  
ENDBRANCH   8   9
ENDBRANCH   7   8
ENDBRANCH   4   7
ENDBRANCH   3   4
TORSDOF 4
ENDMDL
MODEL      141
REMARK 921   NORMALIZED FREE ENERGY PREDICTED BY IDOCK:   -3.02 KCAL/MOL
REMARK 922        TOTAL FREE ENERGY PREDICTED BY IDOCK:   -3.91 KCAL/MOL
REMARK 923 INTER-LIGAND FREE ENERGY PREDICTED BY IDOCK:   -3.55 KCAL/MOL
REMARK 924 INTRA-LIGAND FREE ENERGY PREDICTED BY IDOCK:   -0.36 KCAL/MOL
REMARK 927      BINDING AFFINITY PREDICTED BY RF-SCORE:    0.00 PKD
ROOT
HETATM    1  O   UNL     1     -12.277   7.438  71.895  1.00  0.00    -0.297 OA 
HETATM    2  H   UNL     1     -12.961   7.044  72.422  1.00  0.00     0.000 HD 
HETATM    3  C   UNL     1     -11.188   7.857  72.706  1.00  0.00    -0.405 C  
ENDROOT
BRANCH   3   4
HETATM    4  C   UNL     1     -10.086   8.492  71.856  1.00  0.00    -0.297 C  
HETATM    5  H   UNL     1      -8.255   9.144  72.148  1.00  0.00     0.000 HD 
HETATM    6  O   UNL     1      -8.940   8.749  72.675  1.00  0.00    -0.380 OA 
BRANCH   4   7
HETATM    7  C   UNL     1      -9.694   7.633  70.645  1.00  0.00    -0.174 C  
BRANCH   7   8
HETATM    8  O   UNL     1     -10.753   7.628  69.674  1.00  0.00    -0.242 OA 
BRANCH   8   9
HETATM    9  C   UNL     1     -10.442   8.155  68.447  1.00  0.00    -0.161 A  
HETATM   10  C   UNL     1      -9.851   7.457  67.388  1.00  0.00    -0.219 A  
HETATM   11  C   UNL     1      -9.580   8.098  66.177  1.00  0.00    -0.188 A  
HETATM   12  C   UNL     1      -9.902   9.441  66.017  1.00  0.00    -0.296 A  
HETATM   13  C   UNL     1     -10.491  10.151  67.060  1.00  0.00    -0.302 A  
HETATM   14 CL   UNL     1      -9.570  10.226  64.523  1.00  0.00    -0.353 Cl 
HETATM   15  C   UNL     1     -10.759   9.506  68.274  1.00  0.00    -0.241 A  
ENDBRANCH   8   9
ENDBRANCH   7   8
ENDBRANCH   4   7
ENDBRANCH   3   4
TORSDOF 4
ENDMDL
MODEL      142
REMARK 921   NORMALIZED FREE ENERGY PREDICTED BY IDOCK:   -3.01 KCAL/MOL
REMARK 922        TOTAL FREE ENERGY PREDICTED BY IDOCK:   -3.90 KCAL/MOL
REMARK 923 INTER-LIGAND FREE ENERGY PREDICTED BY IDOCK:   -3.75 KCAL/MOL
REMARK 924 INTRA-LIGAND FREE ENERGY PREDICTED BY IDOCK:   -0.15 KCAL/MOL
REMARK 927      BINDING AFFINITY PREDICTED BY RF-SCORE:    0.00 PKD
ROOT
HETATM    1  O   UNL     1      -6.349  13.621  71.248  1.00  0.00    -0.524 OA 
HETATM    2  H   UNL     1      -5.514  13.215  71.449  1.00  0.00     0.000 HD 
HETATM    3  C   UNL     1      -6.251  14.437  70.090  1.00  0.00    -0.166 C  
ENDROOT
BRANCH   3   4
HETATM    4  C   UNL     1      -7.596  15.092  69.766  1.00  0.00    -0.072 C  
HETATM    5  H   UNL     1      -8.206  16.772  68.952  1.00  0.00     0.000 HD 
HETATM    6  O   UNL     1      -7.372  16.366  69.152  1.00  0.00    -0.212 OA 
BRANCH   4   7
HETATM    7  C   UNL     1      -8.484  14.217  68.869  1.00  0.00    -0.031 C  
BRANCH   7   8
HETATM    8  O   UNL     1      -9.678  14.929  68.505  1.00  0.00    -0.202 OA 
BRANCH   8   9
HETATM    9  C   UNL     1     -10.314  14.492  67.371  1.00  0.00    -0.252 A  
HETATM   10  C   UNL     1     -10.988  13.274  67.234  1.00  0.00    -0.284 A  
HETATM   11  C   UNL     1     -11.603  12.934  66.027  1.00  0.00    -0.424 A  
HETATM   12  C   UNL     1     -11.550  13.812  64.950  1.00  0.00    -0.351 A  
HETATM   13  C   UNL     1     -10.884  15.029  65.070  1.00  0.00    -0.439 A  
HETATM   14 CL   UNL     1     -12.312  13.390  63.467  1.00  0.00    -0.492 Cl 
HETATM   15  C   UNL     1     -10.266  15.366  66.280  1.00  0.00    -0.303 A  
ENDBRANCH   8   9
ENDBRANCH   7   8
ENDBRANCH   4   7
ENDBRANCH   3   4
TORSDOF 4
ENDMDL
MODEL      143
REMARK 921   NORMALIZED FREE ENERGY PREDICTED BY IDOCK:   -3.00 KCAL/MOL
REMARK 922        TOTAL FREE ENERGY PREDICTED BY IDOCK:   -3.89 KCAL/MOL
REMARK 923 INTER-LIGAND FREE ENERGY PREDICTED BY IDOCK:   -3.73 KCAL/MOL
REMARK 924 INTRA-LIGAND FREE ENERGY PREDICTED BY IDOCK:   -0.16 KCAL/MOL
REMARK 927      BINDING AFFINITY PREDICTED BY RF-SCORE:    0.00 PKD
ROOT
HETATM    1  O   UNL     1      -8.320   7.259  67.672  1.00  0.00    -0.116 OA 
HETATM    2  H   UNL     1      -7.541   6.753  67.473  1.00  0.00     0.000 HD 
HETATM    3  C   UNL     1      -9.090   6.629  68.686  1.00  0.00    -0.126 C  
ENDROOT
BRANCH   3   4
HETATM    4  C   UNL     1     -10.345   7.444  69.007  1.00  0.00    -0.210 C  
HETATM    5  H   UNL     1     -11.873   7.289  70.231  1.00  0.00     0.000 HD 
HETATM    6  O   UNL     1     -11.094   6.784  70.032  1.00  0.00    -0.270 OA 
BRANCH   4   7
HETATM    7  C   UNL     1     -10.029   8.888  69.423  1.00  0.00    -0.192 C  
BRANCH   7   8
HETATM    8  O   UNL     1     -11.242   9.594  69.732  1.00  0.00    -0.233 OA 
BRANCH   8   9
HETATM    9  C   UNL     1     -11.420  10.790  69.085  1.00  0.00    -0.298 A  
HETATM   10  C   UNL     1     -11.744  12.005  69.697  1.00  0.00    -0.405 A  
HETATM   11  C   UNL     1     -11.899  13.165  68.935  1.00  0.00    -0.361 A  
HETATM   12  C   UNL     1     -11.729  13.117  67.556  1.00  0.00    -0.366 A  
HETATM   13  C   UNL     1     -11.406  11.915  66.930  1.00  0.00    -0.392 A  
HETATM   14 CL   UNL     1     -11.918  14.549  66.621  1.00  0.00    -0.393 Cl 
HETATM   15  C   UNL     1     -11.253  10.753  67.697  1.00  0.00    -0.370 A  
ENDBRANCH   8   9
ENDBRANCH   7   8
ENDBRANCH   4   7
ENDBRANCH   3   4
TORSDOF 4
ENDMDL
MODEL      144
REMARK 921   NORMALIZED FREE ENERGY PREDICTED BY IDOCK:   -2.97 KCAL/MOL
REMARK 922        TOTAL FREE ENERGY PREDICTED BY IDOCK:   -3.85 KCAL/MOL
REMARK 923 INTER-LIGAND FREE ENERGY PREDICTED BY IDOCK:   -3.61 KCAL/MOL
REMARK 924 INTRA-LIGAND FREE ENERGY PREDICTED BY IDOCK:   -0.24 KCAL/MOL
REMARK 927      BINDING AFFINITY PREDICTED BY RF-SCORE:    0.00 PKD
ROOT
HETATM    1  O   UNL     1      -8.637   5.130  70.245  1.00  0.00    -0.108 OA 
HETATM    2  H   UNL     1      -7.790   5.114  70.674  1.00  0.00     0.000 HD 
HETATM    3  C   UNL     1      -9.271   6.389  70.418  1.00  0.00    -0.155 C  
ENDROOT
BRANCH   3   4
HETATM    4  C   UNL     1     -10.636   6.415  69.726  1.00  0.00    -0.254 C  
HETATM    5  H   UNL     1     -12.507   6.126  70.251  1.00  0.00     0.000 HD 
HETATM    6  O   UNL     1     -11.660   6.111  70.680  1.00  0.00    -0.321 OA 
BRANCH   4   7
HETATM    7  C   UNL     1     -10.931   7.754  69.036  1.00  0.00     0.081 C  
BRANCH   7   8
HETATM    8  O   UNL     1     -10.332   8.835  69.770  1.00  0.00    -0.200 OA 
BRANCH   8   9
HETATM    9  C   UNL     1     -11.204   9.706  70.371  1.00  0.00    -0.283 A  
HETATM   10  C   UNL     1     -11.984   9.427  71.498  1.00  0.00    -0.456 A  
HETATM   11  C   UNL     1     -12.840  10.396  72.028  1.00  0.00    -0.447 A  
HETATM   12  C   UNL     1     -12.918  11.651  71.434  1.00  0.00    -0.324 A  
HETATM   13  C   UNL     1     -12.148  11.945  70.311  1.00  0.00    -0.409 A  
HETATM   14 CL   UNL     1     -13.970  12.842  72.091  1.00  0.00    -0.373 Cl 
HETATM   15  C   UNL     1     -11.293  10.971  69.781  1.00  0.00    -0.366 A  
ENDBRANCH   8   9
ENDBRANCH   7   8
ENDBRANCH   4   7
ENDBRANCH   3   4
TORSDOF 4
ENDMDL
MODEL      145
REMARK 921   NORMALIZED FREE ENERGY PREDICTED BY IDOCK:   -2.89 KCAL/MOL
REMARK 922        TOTAL FREE ENERGY PREDICTED BY IDOCK:   -3.76 KCAL/MOL
REMARK 923 INTER-LIGAND FREE ENERGY PREDICTED BY IDOCK:   -3.54 KCAL/MOL
REMARK 924 INTRA-LIGAND FREE ENERGY PREDICTED BY IDOCK:   -0.22 KCAL/MOL
REMARK 927      BINDING AFFINITY PREDICTED BY RF-SCORE:    0.00 PKD
ROOT
HETATM    1  O   UNL     1      -9.321   4.357  66.015  1.00  0.00    -0.138 OA 
HETATM    2  H   UNL     1      -9.594   3.452  65.921  1.00  0.00     0.000 HD 
HETATM    3  C   UNL     1      -9.917   4.951  67.159  1.00  0.00    -0.197 C  
ENDROOT
BRANCH   3   4
HETATM    4  C   UNL     1      -9.476   6.409  67.310  1.00  0.00    -0.123 C  
HETATM    5  H   UNL     1      -8.050   7.551  66.588  1.00  0.00     0.000 HD 
HETATM    6  O   UNL     1      -8.324   6.646  66.494  1.00  0.00    -0.110 OA 
BRANCH   4   7
HETATM    7  C   UNL     1     -10.590   7.408  66.962  1.00  0.00    -0.344 C  
BRANCH   7   8
HETATM    8  O   UNL     1     -10.395   8.639  67.678  1.00  0.00    -0.226 OA 
BRANCH   8   9
HETATM    9  C   UNL     1     -10.527   9.788  66.941  1.00  0.00    -0.211 A  
HETATM   10  C   UNL     1     -11.137  10.969  67.378  1.00  0.00    -0.370 A  
HETATM   11  C   UNL     1     -11.212  12.082  66.538  1.00  0.00    -0.387 A  
HETATM   12  C   UNL     1     -10.676  12.022  65.257  1.00  0.00    -0.288 A  
HETATM   13  C   UNL     1     -10.066  10.854  64.806  1.00  0.00    -0.383 A  
HETATM   14 CL   UNL     1     -10.768  13.396  64.227  1.00  0.00    -0.410 Cl 
HETATM   15  C   UNL     1      -9.993   9.738  65.649  1.00  0.00    -0.352 A  
ENDBRANCH   8   9
ENDBRANCH   7   8
ENDBRANCH   4   7
ENDBRANCH   3   4
TORSDOF 4
ENDMDL
MODEL      146
REMARK 921   NORMALIZED FREE ENERGY PREDICTED BY IDOCK:   -2.89 KCAL/MOL
REMARK 922        TOTAL FREE ENERGY PREDICTED BY IDOCK:   -3.75 KCAL/MOL
REMARK 923 INTER-LIGAND FREE ENERGY PREDICTED BY IDOCK:   -3.30 KCAL/MOL
REMARK 924 INTRA-LIGAND FREE ENERGY PREDICTED BY IDOCK:   -0.46 KCAL/MOL
REMARK 927      BINDING AFFINITY PREDICTED BY RF-SCORE:    0.00 PKD
ROOT
HETATM    1  O   UNL     1     -13.114  15.799  69.889  1.00  0.00    -0.623 OA 
HETATM    2  H   UNL     1     -13.455  16.623  70.216  1.00  0.00     0.000 HD 
HETATM    3  C   UNL     1     -12.453  15.078  70.919  1.00  0.00    -0.345 C  
ENDROOT
BRANCH   3   4
HETATM    4  C   UNL     1     -11.905  13.750  70.392  1.00  0.00    -0.253 C  
HETATM    5  H   UNL     1     -12.253  11.841  70.698  1.00  0.00     0.000 HD 
HETATM    6  O   UNL     1     -12.593  12.665  71.025  1.00  0.00    -0.361 OA 
BRANCH   4   7
HETATM    7  C   UNL     1     -12.005  13.626  68.865  1.00  0.00    -0.356 C  
BRANCH   7   8
HETATM    8  O   UNL     1     -11.081  14.525  68.231  1.00  0.00    -0.245 OA 
BRANCH   8   9
HETATM    9  C   UNL     1      -9.753  14.203  68.352  1.00  0.00    -0.226 A  
HETATM   10  C   UNL     1      -9.189  12.958  68.055  1.00  0.00    -0.212 A  
HETATM   11  C   UNL     1      -7.817  12.743  68.215  1.00  0.00    -0.141 A  
HETATM   12  C   UNL     1      -7.003  13.774  68.670  1.00  0.00    -0.102 A  
HETATM   13  C   UNL     1      -7.548  15.020  68.969  1.00  0.00    -0.160 A  
HETATM   14 CL   UNL     1      -5.314  13.506  68.861  1.00  0.00    -0.072 Cl 
HETATM   15  C   UNL     1      -8.924  15.231  68.811  1.00  0.00    -0.200 A  
ENDBRANCH   8   9
ENDBRANCH   7   8
ENDBRANCH   4   7
ENDBRANCH   3   4
TORSDOF 4
ENDMDL
MODEL      147
REMARK 921   NORMALIZED FREE ENERGY PREDICTED BY IDOCK:   -2.87 KCAL/MOL
REMARK 922        TOTAL FREE ENERGY PREDICTED BY IDOCK:   -3.73 KCAL/MOL
REMARK 923 INTER-LIGAND FREE ENERGY PREDICTED BY IDOCK:   -3.24 KCAL/MOL
REMARK 924 INTRA-LIGAND FREE ENERGY PREDICTED BY IDOCK:   -0.49 KCAL/MOL
REMARK 927      BINDING AFFINITY PREDICTED BY RF-SCORE:    0.00 PKD
ROOT
HETATM    1  O   UNL     1     -12.350   8.270  70.543  1.00  0.00    -0.479 OA 
HETATM    2  H   UNL     1     -13.229   8.613  70.432  1.00  0.00     0.000 HD 
HETATM    3  C   UNL     1     -12.371   7.039  71.252  1.00  0.00    -0.383 C  
ENDROOT
BRANCH   3   4
HETATM    4  C   UNL     1     -10.955   6.487  71.430  1.00  0.00    -0.258 C  
HETATM    5  H   UNL     1      -9.973   5.495  72.813  1.00  0.00     0.000 HD 
HETATM    6  O   UNL     1     -10.852   5.838  72.702  1.00  0.00    -0.223 OA 
BRANCH   4   7
HETATM    7  C   UNL     1     -10.544   5.524  70.306  1.00  0.00    -0.287 C  
BRANCH   7   8
HETATM    8  O   UNL     1     -11.043   5.992  69.043  1.00  0.00    -0.351 OA 
BRANCH   8   9
HETATM    9  C   UNL     1     -10.132   6.623  68.235  1.00  0.00    -0.159 A  
HETATM   10  C   UNL     1      -8.746   6.435  68.271  1.00  0.00    -0.116 A  
HETATM   11  C   UNL     1      -7.912   7.133  67.395  1.00  0.00    -0.112 A  
HETATM   12  C   UNL     1      -8.459   8.022  66.476  1.00  0.00    -0.136 A  
HETATM   13  C   UNL     1      -9.836   8.221  66.428  1.00  0.00    -0.283 A  
HETATM   14 CL   UNL     1      -7.427   8.877  65.398  1.00  0.00    -0.085 Cl 
HETATM   15  C   UNL     1     -10.671   7.522  67.308  1.00  0.00    -0.365 A  
ENDBRANCH   8   9
ENDBRANCH   7   8
ENDBRANCH   4   7
ENDBRANCH   3   4
TORSDOF 4
ENDMDL
MODEL      148
REMARK 921   NORMALIZED FREE ENERGY PREDICTED BY IDOCK:   -2.85 KCAL/MOL
REMARK 922        TOTAL FREE ENERGY PREDICTED BY IDOCK:   -3.71 KCAL/MOL
REMARK 923 INTER-LIGAND FREE ENERGY PREDICTED BY IDOCK:   -3.54 KCAL/MOL
REMARK 924 INTRA-LIGAND FREE ENERGY PREDICTED BY IDOCK:   -0.17 KCAL/MOL
REMARK 927      BINDING AFFINITY PREDICTED BY RF-SCORE:    0.00 PKD
ROOT
HETATM    1  O   UNL     1      -8.471  18.027  67.492  1.00  0.00    -0.233 OA 
HETATM    2  H   UNL     1      -8.057  18.607  68.120  1.00  0.00     0.000 HD 
HETATM    3  C   UNL     1      -9.812  17.748  67.866  1.00  0.00    -0.306 C  
ENDROOT
BRANCH   3   4
HETATM    4  C   UNL     1     -10.480  16.814  66.854  1.00  0.00    -0.269 C  
HETATM    5  H   UNL     1     -10.057  16.107  65.071  1.00  0.00     0.000 HD 
HETATM    6  O   UNL     1      -9.643  16.686  65.699  1.00  0.00    -0.519 OA 
BRANCH   4   7
HETATM    7  C   UNL     1     -10.798  15.430  67.438  1.00  0.00    -0.309 C  
BRANCH   7   8
HETATM    8  O   UNL     1     -10.907  14.458  66.385  1.00  0.00    -0.304 OA 
BRANCH   8   9
HETATM    9  C   UNL     1     -10.512  13.184  66.703  1.00  0.00    -0.277 A  
HETATM   10  C   UNL     1      -9.736  12.825  67.810  1.00  0.00    -0.207 A  
HETATM   11  C   UNL     1      -9.395  11.489  68.035  1.00  0.00    -0.175 A  
HETATM   12  C   UNL     1      -9.831  10.504  67.156  1.00  0.00    -0.176 A  
HETATM   13  C   UNL     1     -10.605  10.844  66.050  1.00  0.00    -0.254 A  
HETATM   14 CL   UNL     1      -9.411   8.861  67.440  1.00  0.00    -0.171 Cl 
HETATM   15  C   UNL     1     -10.943  12.184  65.824  1.00  0.00    -0.338 A  
ENDBRANCH   8   9
ENDBRANCH   7   8
ENDBRANCH   4   7
ENDBRANCH   3   4
TORSDOF 4
ENDMDL
MODEL      149
REMARK 921   NORMALIZED FREE ENERGY PREDICTED BY IDOCK:   -2.85 KCAL/MOL
REMARK 922        TOTAL FREE ENERGY PREDICTED BY IDOCK:   -3.70 KCAL/MOL
REMARK 923 INTER-LIGAND FREE ENERGY PREDICTED BY IDOCK:   -3.49 KCAL/MOL
REMARK 924 INTRA-LIGAND FREE ENERGY PREDICTED BY IDOCK:   -0.21 KCAL/MOL
REMARK 927      BINDING AFFINITY PREDICTED BY RF-SCORE:    0.00 PKD
ROOT
HETATM    1  O   UNL     1      -7.619  10.574  70.060  1.00  0.00    -0.321 OA 
HETATM    2  H   UNL     1      -7.477   9.722  70.455  1.00  0.00     0.000 HD 
HETATM    3  C   UNL     1      -8.621  10.507  69.054  1.00  0.00    -0.157 C  
ENDROOT
BRANCH   3   4
HETATM    4  C   UNL     1      -8.850  11.880  68.418  1.00  0.00    -0.159 C  
HETATM    5  H   UNL     1      -7.739  13.412  67.891  1.00  0.00     0.000 HD 
HETATM    6  O   UNL     1      -7.597  12.560  68.285  1.00  0.00    -0.113 OA 
BRANCH   4   7
HETATM    7  C   UNL     1      -9.558  11.798  67.059  1.00  0.00    -0.187 C  
BRANCH   7   8
HETATM    8  O   UNL     1     -10.809  12.503  67.105  1.00  0.00    -0.240 OA 
BRANCH   8   9
HETATM    9  C   UNL     1     -10.726  13.872  67.078  1.00  0.00    -0.283 A  
HETATM   10  C   UNL     1     -11.038  14.728  68.139  1.00  0.00    -0.288 A  
HETATM   11  C   UNL     1     -10.914  16.112  67.997  1.00  0.00    -0.338 A  
HETATM   12  C   UNL     1     -10.473  16.648  66.792  1.00  0.00    -0.261 A  
HETATM   13  C   UNL     1     -10.157  15.810  65.725  1.00  0.00    -0.399 A  
HETATM   14 CL   UNL     1     -10.317  18.353  66.623  1.00  0.00    -0.401 Cl 
HETATM   15  C   UNL     1     -10.285  14.423  65.870  1.00  0.00    -0.341 A  
ENDBRANCH   8   9
ENDBRANCH   7   8
ENDBRANCH   4   7
ENDBRANCH   3   4
TORSDOF 4
ENDMDL
MODEL      150
REMARK 921   NORMALIZED FREE ENERGY PREDICTED BY IDOCK:   -2.83 KCAL/MOL
REMARK 922        TOTAL FREE ENERGY PREDICTED BY IDOCK:   -3.69 KCAL/MOL
REMARK 923 INTER-LIGAND FREE ENERGY PREDICTED BY IDOCK:   -3.21 KCAL/MOL
REMARK 924 INTRA-LIGAND FREE ENERGY PREDICTED BY IDOCK:   -0.48 KCAL/MOL
REMARK 927      BINDING AFFINITY PREDICTED BY RF-SCORE:    0.00 PKD
ROOT
HETATM    1  O   UNL     1     -10.034   4.353  70.933  1.00  0.00    -0.197 OA 
HETATM    2  H   UNL     1      -9.196   3.913  70.852  1.00  0.00     0.000 HD 
HETATM    3  C   UNL     1      -9.914   5.532  71.717  1.00  0.00    -0.179 C  
ENDROOT
BRANCH   3   4
HETATM    4  C   UNL     1     -11.264   6.241  71.848  1.00  0.00    -0.283 C  
HETATM    5  H   UNL     1     -11.979   7.777  72.842  1.00  0.00     0.000 HD 
HETATM    6  O   UNL     1     -11.141   7.337  72.760  1.00  0.00    -0.283 OA 
BRANCH   4   7
HETATM    7  C   UNL     1     -11.816   6.728  70.500  1.00  0.00    -0.362 C  
BRANCH   7   8
HETATM    8  O   UNL     1     -10.746   6.900  69.557  1.00  0.00    -0.224 OA 
BRANCH   8   9
HETATM    9  C   UNL     1     -10.599   8.162  69.041  1.00  0.00    -0.151 A  
HETATM   10  C   UNL     1     -10.622   9.350  69.779  1.00  0.00    -0.247 A  
HETATM   11  C   UNL     1     -10.459  10.584  69.144  1.00  0.00    -0.250 A  
HETATM   12  C   UNL     1     -10.269  10.636  67.768  1.00  0.00    -0.180 A  
HETATM   13  C   UNL     1     -10.244   9.462  67.018  1.00  0.00    -0.322 A  
HETATM   14 CL   UNL     1     -10.066  12.157  66.991  1.00  0.00    -0.215 Cl 
HETATM   15  C   UNL     1     -10.410   8.227  67.656  1.00  0.00    -0.313 A  
ENDBRANCH   8   9
ENDBRANCH   7   8
ENDBRANCH   4   7
ENDBRANCH   3   4
TORSDOF 4
ENDMDL
MODEL      151
REMARK 921   NORMALIZED FREE ENERGY PREDICTED BY IDOCK:   -2.82 KCAL/MOL
REMARK 922        TOTAL FREE ENERGY PREDICTED BY IDOCK:   -3.67 KCAL/MOL
REMARK 923 INTER-LIGAND FREE ENERGY PREDICTED BY IDOCK:   -3.46 KCAL/MOL
REMARK 924 INTRA-LIGAND FREE ENERGY PREDICTED BY IDOCK:   -0.21 KCAL/MOL
REMARK 927      BINDING AFFINITY PREDICTED BY RF-SCORE:    0.00 PKD
ROOT
HETATM    1  O   UNL     1     -11.489   8.791  68.788  1.00  0.00    -0.107 OA 
HETATM    2  H   UNL     1     -11.727   8.176  69.472  1.00  0.00     0.000 HD 
HETATM    3  C   UNL     1     -11.275  10.089  69.324  1.00  0.00    -0.166 C  
ENDROOT
BRANCH   3   4
HETATM    4  C   UNL     1     -10.891  11.079  68.222  1.00  0.00    -0.215 C  
HETATM    5  H   UNL     1     -10.275  10.974  66.360  1.00  0.00     0.000 HD 
HETATM    6  O   UNL     1     -10.514  10.359  67.043  1.00  0.00    -0.231 OA 
BRANCH   4   7
HETATM    7  C   UNL     1     -12.011  12.079  67.900  1.00  0.00    -0.134 C  
BRANCH   7   8
HETATM    8  O   UNL     1     -11.765  12.712  66.634  1.00  0.00    -0.366 OA 
BRANCH   8   9
HETATM    9  C   UNL     1     -11.193  13.958  66.689  1.00  0.00    -0.320 A  
HETATM   10  C   UNL     1     -11.303  14.858  67.754  1.00  0.00    -0.341 A  
HETATM   11  C   UNL     1     -10.674  16.104  67.700  1.00  0.00    -0.318 A  
HETATM   12  C   UNL     1      -9.927  16.455  66.581  1.00  0.00    -0.272 A  
HETATM   13  C   UNL     1      -9.806  15.571  65.512  1.00  0.00    -0.348 A  
HETATM   14 CL   UNL     1      -9.150  17.989  66.520  1.00  0.00    -0.286 Cl 
HETATM   15  C   UNL     1     -10.441  14.323  65.567  1.00  0.00    -0.361 A  
ENDBRANCH   8   9
ENDBRANCH   7   8
ENDBRANCH   4   7
ENDBRANCH   3   4
TORSDOF 4
ENDMDL
MODEL      152
REMARK 921   NORMALIZED FREE ENERGY PREDICTED BY IDOCK:   -2.81 KCAL/MOL
REMARK 922        TOTAL FREE ENERGY PREDICTED BY IDOCK:   -3.65 KCAL/MOL
REMARK 923 INTER-LIGAND FREE ENERGY PREDICTED BY IDOCK:   -3.27 KCAL/MOL
REMARK 924 INTRA-LIGAND FREE ENERGY PREDICTED BY IDOCK:   -0.38 KCAL/MOL
REMARK 927      BINDING AFFINITY PREDICTED BY RF-SCORE:    0.00 PKD
ROOT
HETATM    1  O   UNL     1      -8.701  11.746  68.991  1.00  0.00    -0.373 OA 
HETATM    2  H   UNL     1      -7.825  11.755  68.624  1.00  0.00     0.000 HD 
HETATM    3  C   UNL     1      -9.614  11.108  68.110  1.00  0.00    -0.179 C  
ENDROOT
BRANCH   3   4
HETATM    4  C   UNL     1     -11.026  11.094  68.701  1.00  0.00    -0.220 C  
HETATM    5  H   UNL     1     -12.862  11.007  68.010  1.00  0.00     0.000 HD 
HETATM    6  O   UNL     1     -11.986  11.015  67.643  1.00  0.00    -0.583 OA 
BRANCH   4   7
HETATM    7  C   UNL     1     -11.242   9.950  69.703  1.00  0.00    -0.208 C  
BRANCH   7   8
HETATM    8  O   UNL     1      -9.981   9.369  70.074  1.00  0.00    -0.192 OA 
BRANCH   8   9
HETATM    9  C   UNL     1      -9.811   8.048  69.746  1.00  0.00    -0.183 A  
HETATM   10  C   UNL     1      -8.690   7.507  69.108  1.00  0.00    -0.136 A  
HETATM   11  C   UNL     1      -8.625   6.140  68.824  1.00  0.00    -0.120 A  
HETATM   12  C   UNL     1      -9.680   5.307  69.180  1.00  0.00    -0.168 A  
HETATM   13  C   UNL     1     -10.803   5.830  69.816  1.00  0.00    -0.419 A  
HETATM   14 CL   UNL     1      -9.594   3.625  68.832  1.00  0.00    -0.212 Cl 
HETATM   15  C   UNL     1     -10.867   7.201  70.097  1.00  0.00    -0.279 A  
ENDBRANCH   8   9
ENDBRANCH   7   8
ENDBRANCH   4   7
ENDBRANCH   3   4
TORSDOF 4
ENDMDL
MODEL      153
REMARK 921   NORMALIZED FREE ENERGY PREDICTED BY IDOCK:   -2.80 KCAL/MOL
REMARK 922        TOTAL FREE ENERGY PREDICTED BY IDOCK:   -3.65 KCAL/MOL
REMARK 923 INTER-LIGAND FREE ENERGY PREDICTED BY IDOCK:   -3.45 KCAL/MOL
REMARK 924 INTRA-LIGAND FREE ENERGY PREDICTED BY IDOCK:   -0.19 KCAL/MOL
REMARK 927      BINDING AFFINITY PREDICTED BY RF-SCORE:    0.00 PKD
ROOT
HETATM    1  O   UNL     1      -9.178   5.182  63.420  1.00  0.00    -0.351 OA 
HETATM    2  H   UNL     1      -9.387   4.922  62.531  1.00  0.00     0.000 HD 
HETATM    3  C   UNL     1      -9.624   4.206  64.352  1.00  0.00    -0.162 C  
ENDROOT
BRANCH   3   4
HETATM    4  C   UNL     1      -9.287   4.625  65.785  1.00  0.00    -0.158 C  
HETATM    5  H   UNL     1      -7.981   5.805  66.658  1.00  0.00     0.000 HD 
HETATM    6  O   UNL     1      -8.190   5.545  65.769  1.00  0.00    -0.114 OA 
BRANCH   4   7
HETATM    7  C   UNL     1     -10.485   5.236  66.526  1.00  0.00    -0.298 C  
BRANCH   7   8
HETATM    8  O   UNL     1     -10.208   6.601  66.878  1.00  0.00    -0.190 OA 
BRANCH   8   9
HETATM    9  C   UNL     1     -10.631   6.997  68.121  1.00  0.00    -0.204 A  
HETATM   10  C   UNL     1     -11.257   6.177  69.067  1.00  0.00    -0.375 A  
HETATM   11  C   UNL     1     -11.645   6.690  70.307  1.00  0.00    -0.454 A  
HETATM   12  C   UNL     1     -11.407   8.026  70.609  1.00  0.00    -0.252 A  
HETATM   13  C   UNL     1     -10.785   8.856  69.679  1.00  0.00    -0.222 A  
HETATM   14 CL   UNL     1     -11.883   8.653  72.139  1.00  0.00    -0.437 Cl 
HETATM   15  C   UNL     1     -10.400   8.340  68.436  1.00  0.00    -0.237 A  
ENDBRANCH   8   9
ENDBRANCH   7   8
ENDBRANCH   4   7
ENDBRANCH   3   4
TORSDOF 4
ENDMDL
MODEL      154
REMARK 921   NORMALIZED FREE ENERGY PREDICTED BY IDOCK:   -2.79 KCAL/MOL
REMARK 922        TOTAL FREE ENERGY PREDICTED BY IDOCK:   -3.63 KCAL/MOL
REMARK 923 INTER-LIGAND FREE ENERGY PREDICTED BY IDOCK:   -3.47 KCAL/MOL
REMARK 924 INTRA-LIGAND FREE ENERGY PREDICTED BY IDOCK:   -0.16 KCAL/MOL
REMARK 927      BINDING AFFINITY PREDICTED BY RF-SCORE:    0.00 PKD
ROOT
HETATM    1  O   UNL     1     -13.703   9.116  71.000  1.00  0.00    -0.584 OA 
HETATM    2  H   UNL     1     -14.382   9.773  71.095  1.00  0.00     0.000 HD 
HETATM    3  C   UNL     1     -12.856   9.092  72.140  1.00  0.00    -0.412 C  
ENDROOT
BRANCH   3   4
HETATM    4  C   UNL     1     -11.762   8.033  71.987  1.00  0.00    -0.323 C  
HETATM    5  H   UNL     1     -10.496   7.108  73.171  1.00  0.00     0.000 HD 
HETATM    6  O   UNL     1     -11.175   7.765  73.265  1.00  0.00    -0.350 OA 
BRANCH   4   7
HETATM    7  C   UNL     1     -12.276   6.732  71.353  1.00  0.00    -0.363 C  
BRANCH   7   8
HETATM    8  O   UNL     1     -11.876   6.658  69.975  1.00  0.00    -0.372 OA 
BRANCH   8   9
HETATM    9  C   UNL     1     -10.577   7.008  69.709  1.00  0.00    -0.233 A  
HETATM   10  C   UNL     1     -10.167   8.171  69.049  1.00  0.00    -0.228 A  
HETATM   11  C   UNL     1      -8.810   8.426  68.834  1.00  0.00    -0.143 A  
HETATM   12  C   UNL     1      -7.856   7.519  69.280  1.00  0.00    -0.118 A  
HETATM   13  C   UNL     1      -8.246   6.356  69.939  1.00  0.00    -0.126 A  
HETATM   14 CL   UNL     1      -6.186   7.838  69.016  1.00  0.00    -0.035 Cl 
HETATM   15  C   UNL     1      -9.607   6.102  70.151  1.00  0.00    -0.187 A  
ENDBRANCH   8   9
ENDBRANCH   7   8
ENDBRANCH   4   7
ENDBRANCH   3   4
TORSDOF 4
ENDMDL
MODEL      155
REMARK 921   NORMALIZED FREE ENERGY PREDICTED BY IDOCK:   -2.79 KCAL/MOL
REMARK 922        TOTAL FREE ENERGY PREDICTED BY IDOCK:   -3.63 KCAL/MOL
REMARK 923 INTER-LIGAND FREE ENERGY PREDICTED BY IDOCK:   -3.20 KCAL/MOL
REMARK 924 INTRA-LIGAND FREE ENERGY PREDICTED BY IDOCK:   -0.44 KCAL/MOL
REMARK 927      BINDING AFFINITY PREDICTED BY RF-SCORE:    0.00 PKD
ROOT
HETATM    1  O   UNL     1      -6.509   6.532  69.596  1.00  0.00    -0.043 OA 
HETATM    2  H   UNL     1      -5.689   6.844  69.960  1.00  0.00     0.000 HD 
HETATM    3  C   UNL     1      -7.112   7.525  68.778  1.00  0.00    -0.080 C  
ENDROOT
BRANCH   3   4
HETATM    4  C   UNL     1      -8.433   7.023  68.192  1.00  0.00    -0.129 C  
HETATM    5  H   UNL     1      -9.027   6.204  66.508  1.00  0.00     0.000 HD 
HETATM    6  O   UNL     1      -8.207   6.516  66.872  1.00  0.00    -0.111 OA 
BRANCH   4   7
HETATM    7  C   UNL     1      -9.106   5.954  69.065  1.00  0.00    -0.121 C  
BRANCH   7   8
HETATM    8  O   UNL     1      -9.115   6.369  70.441  1.00  0.00    -0.153 OA 
BRANCH   8   9
HETATM    9  C   UNL     1     -10.276   6.947  70.885  1.00  0.00    -0.197 A  
HETATM   10  C   UNL     1     -11.519   6.310  70.974  1.00  0.00    -0.370 A  
HETATM   11  C   UNL     1     -12.639   7.000  71.445  1.00  0.00    -0.428 A  
HETATM   12  C   UNL     1     -12.521   8.330  71.833  1.00  0.00    -0.337 A  
HETATM   13  C   UNL     1     -11.292   8.979  71.750  1.00  0.00    -0.447 A  
HETATM   14 CL   UNL     1     -13.902   9.174  72.415  1.00  0.00    -0.528 Cl 
HETATM   15  C   UNL     1     -10.171   8.286  71.276  1.00  0.00    -0.253 A  
ENDBRANCH   8   9
ENDBRANCH   7   8
ENDBRANCH   4   7
ENDBRANCH   3   4
TORSDOF 4
ENDMDL
MODEL      156
REMARK 921   NORMALIZED FREE ENERGY PREDICTED BY IDOCK:   -2.79 KCAL/MOL
REMARK 922        TOTAL FREE ENERGY PREDICTED BY IDOCK:   -3.63 KCAL/MOL
REMARK 923 INTER-LIGAND FREE ENERGY PREDICTED BY IDOCK:   -3.40 KCAL/MOL
REMARK 924 INTRA-LIGAND FREE ENERGY PREDICTED BY IDOCK:   -0.23 KCAL/MOL
REMARK 927      BINDING AFFINITY PREDICTED BY RF-SCORE:    0.00 PKD
ROOT
HETATM    1  O   UNL     1     -14.398   8.187  71.106  1.00  0.00    -0.647 OA 
HETATM    2  H   UNL     1     -15.246   8.607  71.188  1.00  0.00     0.000 HD 
HETATM    3  C   UNL     1     -13.411   8.886  71.852  1.00  0.00    -0.405 C  
ENDROOT
BRANCH   3   4
HETATM    4  C   UNL     1     -12.044   8.209  71.720  1.00  0.00    -0.315 C  
HETATM    5  H   UNL     1     -10.669   7.521  72.942  1.00  0.00     0.000 HD 
HETATM    6  O   UNL     1     -11.517   7.941  73.024  1.00  0.00    -0.383 OA 
BRANCH   4   7
HETATM    7  C   UNL     1     -12.095   6.918  70.890  1.00  0.00    -0.373 C  
BRANCH   7   8
HETATM    8  O   UNL     1     -10.961   6.846  70.011  1.00  0.00    -0.250 OA 
BRANCH   8   9
HETATM    9  C   UNL     1     -10.061   5.846  70.276  1.00  0.00    -0.202 A  
HETATM   10  C   UNL     1      -9.136   5.840  71.326  1.00  0.00    -0.151 A  
HETATM   11  C   UNL     1      -8.266   4.762  71.500  1.00  0.00    -0.104 A  
HETATM   12  C   UNL     1      -8.316   3.681  70.627  1.00  0.00    -0.068 A  
HETATM   13  C   UNL     1      -9.231   3.671  69.576  1.00  0.00    -0.225 A  
HETATM   14 CL   UNL     1      -7.245   2.354  70.848  1.00  0.00    -0.033 Cl 
HETATM   15  C   UNL     1     -10.101   4.754  69.402  1.00  0.00    -0.241 A  
ENDBRANCH   8   9
ENDBRANCH   7   8
ENDBRANCH   4   7
ENDBRANCH   3   4
TORSDOF 4
ENDMDL
MODEL      157
REMARK 921   NORMALIZED FREE ENERGY PREDICTED BY IDOCK:   -2.79 KCAL/MOL
REMARK 922        TOTAL FREE ENERGY PREDICTED BY IDOCK:   -3.63 KCAL/MOL
REMARK 923 INTER-LIGAND FREE ENERGY PREDICTED BY IDOCK:   -3.17 KCAL/MOL
REMARK 924 INTRA-LIGAND FREE ENERGY PREDICTED BY IDOCK:   -0.46 KCAL/MOL
REMARK 927      BINDING AFFINITY PREDICTED BY RF-SCORE:    0.00 PKD
ROOT
HETATM    1  O   UNL     1      -5.974   7.117  69.625  1.00  0.00    -0.023 OA 
HETATM    2  H   UNL     1      -5.769   6.660  68.818  1.00  0.00     0.000 HD 
HETATM    3  C   UNL     1      -6.305   8.475  69.370  1.00  0.00    -0.037 C  
ENDROOT
BRANCH   3   4
HETATM    4  C   UNL     1      -6.636   9.210  70.671  1.00  0.00    -0.071 C  
HETATM    5  H   UNL     1      -7.295  10.991  71.176  1.00  0.00     0.000 HD 
HETATM    6  O   UNL     1      -7.090  10.534  70.369  1.00  0.00    -0.273 OA 
BRANCH   4   7
HETATM    7  C   UNL     1      -7.675   8.472  71.527  1.00  0.00    -0.118 C  
BRANCH   7   8
HETATM    8  O   UNL     1      -8.656   7.843  70.686  1.00  0.00    -0.126 OA 
BRANCH   8   9
HETATM    9  C   UNL     1      -9.966   8.116  70.988  1.00  0.00    -0.187 A  
HETATM   10  C   UNL     1     -10.537   9.391  71.054  1.00  0.00    -0.400 A  
HETATM   11  C   UNL     1     -11.889   9.549  71.369  1.00  0.00    -0.464 A  
HETATM   12  C   UNL     1     -12.678   8.432  71.619  1.00  0.00    -0.331 A  
HETATM   13  C   UNL     1     -12.125   7.155  71.557  1.00  0.00    -0.377 A  
HETATM   14 CL   UNL     1     -14.342   8.631  72.004  1.00  0.00    -0.515 Cl 
HETATM   15  C   UNL     1     -10.769   6.999  71.243  1.00  0.00    -0.243 A  
ENDBRANCH   8   9
ENDBRANCH   7   8
ENDBRANCH   4   7
ENDBRANCH   3   4
TORSDOF 4
ENDMDL
MODEL      158
REMARK 921   NORMALIZED FREE ENERGY PREDICTED BY IDOCK:   -2.78 KCAL/MOL
REMARK 922        TOTAL FREE ENERGY PREDICTED BY IDOCK:   -3.62 KCAL/MOL
REMARK 923 INTER-LIGAND FREE ENERGY PREDICTED BY IDOCK:   -3.46 KCAL/MOL
REMARK 924 INTRA-LIGAND FREE ENERGY PREDICTED BY IDOCK:   -0.16 KCAL/MOL
REMARK 927      BINDING AFFINITY PREDICTED BY RF-SCORE:    0.00 PKD
ROOT
HETATM    1  O   UNL     1     -11.425   7.876  69.644  1.00  0.00    -0.443 OA 
HETATM    2  H   UNL     1     -12.006   7.288  70.111  1.00  0.00     0.000 HD 
HETATM    3  C   UNL     1     -11.266   9.100  70.348  1.00  0.00    -0.240 C  
ENDROOT
BRANCH   3   4
HETATM    4  C   UNL     1     -10.329  10.047  69.594  1.00  0.00    -0.247 C  
HETATM    5  H   UNL     1      -8.663   9.888  68.567  1.00  0.00     0.000 HD 
HETATM    6  O   UNL     1      -9.244   9.300  69.035  1.00  0.00    -0.140 OA 
BRANCH   4   7
HETATM    7  C   UNL     1     -11.047  10.848  68.498  1.00  0.00    -0.256 C  
BRANCH   7   8
HETATM    8  O   UNL     1     -10.101  11.638  67.759  1.00  0.00    -0.182 OA 
BRANCH   8   9
HETATM    9  C   UNL     1     -10.368  12.981  67.687  1.00  0.00    -0.222 A  
HETATM   10  C   UNL     1     -11.605  13.579  67.952  1.00  0.00    -0.377 A  
HETATM   11  C   UNL     1     -11.761  14.964  67.849  1.00  0.00    -0.344 A  
HETATM   12  C   UNL     1     -10.680  15.758  67.482  1.00  0.00    -0.317 A  
HETATM   13  C   UNL     1      -9.442  15.178  67.215  1.00  0.00    -0.214 A  
HETATM   14 CL   UNL     1     -10.876  17.462  67.359  1.00  0.00    -0.237 Cl 
HETATM   15  C   UNL     1      -9.289  13.790  67.317  1.00  0.00    -0.239 A  
ENDBRANCH   8   9
ENDBRANCH   7   8
ENDBRANCH   4   7
ENDBRANCH   3   4
TORSDOF 4
ENDMDL
MODEL      159
REMARK 921   NORMALIZED FREE ENERGY PREDICTED BY IDOCK:   -2.76 KCAL/MOL
REMARK 922        TOTAL FREE ENERGY PREDICTED BY IDOCK:   -3.60 KCAL/MOL
REMARK 923 INTER-LIGAND FREE ENERGY PREDICTED BY IDOCK:   -3.38 KCAL/MOL
REMARK 924 INTRA-LIGAND FREE ENERGY PREDICTED BY IDOCK:   -0.22 KCAL/MOL
REMARK 927      BINDING AFFINITY PREDICTED BY RF-SCORE:    0.00 PKD
ROOT
HETATM    1  O   UNL     1     -11.676  13.006  70.289  1.00  0.00    -0.512 OA 
HETATM    2  H   UNL     1     -11.773  13.801  70.799  1.00  0.00     0.000 HD 
HETATM    3  C   UNL     1     -12.359  11.922  70.903  1.00  0.00    -0.300 C  
ENDROOT
BRANCH   3   4
HETATM    4  C   UNL     1     -12.202  10.641  70.081  1.00  0.00    -0.320 C  
HETATM    5  H   UNL     1     -12.208  10.157  68.177  1.00  0.00     0.000 HD 
HETATM    6  O   UNL     1     -12.305  10.952  68.687  1.00  0.00    -0.501 OA 
BRANCH   4   7
HETATM    7  C   UNL     1     -10.885   9.906  70.366  1.00  0.00    -0.319 C  
BRANCH   7   8
HETATM    8  O   UNL     1     -10.994   8.523  69.991  1.00  0.00    -0.243 OA 
BRANCH   8   9
HETATM    9  C   UNL     1     -10.237   8.132  68.917  1.00  0.00    -0.210 A  
HETATM   10  C   UNL     1     -10.699   7.398  67.820  1.00  0.00    -0.249 A  
HETATM   11  C   UNL     1      -9.833   7.056  66.778  1.00  0.00    -0.250 A  
HETATM   12  C   UNL     1      -8.500   7.449  66.826  1.00  0.00    -0.124 A  
HETATM   13  C   UNL     1      -8.024   8.181  67.911  1.00  0.00    -0.127 A  
HETATM   14 CL   UNL     1      -7.439   7.029  65.540  1.00  0.00    -0.082 Cl 
HETATM   15  C   UNL     1      -8.893   8.520  68.956  1.00  0.00    -0.145 A  
ENDBRANCH   8   9
ENDBRANCH   7   8
ENDBRANCH   4   7
ENDBRANCH   3   4
TORSDOF 4
ENDMDL
MODEL      160
REMARK 921   NORMALIZED FREE ENERGY PREDICTED BY IDOCK:   -2.76 KCAL/MOL
REMARK 922        TOTAL FREE ENERGY PREDICTED BY IDOCK:   -3.59 KCAL/MOL
REMARK 923 INTER-LIGAND FREE ENERGY PREDICTED BY IDOCK:   -3.37 KCAL/MOL
REMARK 924 INTRA-LIGAND FREE ENERGY PREDICTED BY IDOCK:   -0.22 KCAL/MOL
REMARK 927      BINDING AFFINITY PREDICTED BY RF-SCORE:    0.00 PKD
ROOT
HETATM    1  O   UNL     1      -9.257  11.534  67.518  1.00  0.00    -0.162 OA 
HETATM    2  H   UNL     1      -9.289  10.773  66.951  1.00  0.00     0.000 HD 
HETATM    3  C   UNL     1      -7.933  12.039  67.614  1.00  0.00    -0.150 C  
ENDROOT
BRANCH   3   4
HETATM    4  C   UNL     1      -7.881  13.266  68.528  1.00  0.00    -0.110 C  
HETATM    5  H   UNL     1      -6.666  14.784  68.812  1.00  0.00     0.000 HD 
HETATM    6  O   UNL     1      -6.699  14.023  68.245  1.00  0.00    -0.086 OA 
BRANCH   4   7
HETATM    7  C   UNL     1      -9.126  14.156  68.404  1.00  0.00    -0.191 C  
BRANCH   7   8
HETATM    8  O   UNL     1      -9.068  15.229  69.358  1.00  0.00    -0.244 OA 
BRANCH   8   9
HETATM    9  C   UNL     1      -9.309  16.485  68.862  1.00  0.00    -0.256 A  
HETATM   10  C   UNL     1     -10.564  16.995  68.513  1.00  0.00    -0.370 A  
HETATM   11  C   UNL     1     -10.690  18.294  68.017  1.00  0.00    -0.290 A  
HETATM   12  C   UNL     1      -9.561  19.093  67.870  1.00  0.00    -0.325 A  
HETATM   13  C   UNL     1      -8.304  18.601  68.213  1.00  0.00    -0.350 A  
HETATM   14 CL   UNL     1      -9.722  20.694  67.263  1.00  0.00    -0.611 Cl 
HETATM   15  C   UNL     1      -8.180  17.297  68.707  1.00  0.00    -0.231 A  
ENDBRANCH   8   9
ENDBRANCH   7   8
ENDBRANCH   4   7
ENDBRANCH   3   4
TORSDOF 4
ENDMDL
MODEL      161
REMARK 921   NORMALIZED FREE ENERGY PREDICTED BY IDOCK:   -2.75 KCAL/MOL
REMARK 922        TOTAL FREE ENERGY PREDICTED BY IDOCK:   -3.58 KCAL/MOL
REMARK 923 INTER-LIGAND FREE ENERGY PREDICTED BY IDOCK:   -3.73 KCAL/MOL
REMARK 924 INTRA-LIGAND FREE ENERGY PREDICTED BY IDOCK:    0.15 KCAL/MOL
REMARK 927      BINDING AFFINITY PREDICTED BY RF-SCORE:    0.00 PKD
ROOT
HETATM    1  O   UNL     1     -12.693  13.468  63.892  1.00  0.00    -0.669 OA 
HETATM    2  H   UNL     1     -13.528  13.697  63.504  1.00  0.00     0.000 HD 
HETATM    3  C   UNL     1     -12.604  13.942  65.228  1.00  0.00    -0.478 C  
ENDROOT
BRANCH   3   4
HETATM    4  C   UNL     1     -11.257  13.571  65.853  1.00  0.00    -0.300 C  
HETATM    5  H   UNL     1      -9.572  12.770  65.239  1.00  0.00     0.000 HD 
HETATM    6  O   UNL     1     -10.408  13.000  64.852  1.00  0.00    -0.314 OA 
BRANCH   4   7
HETATM    7  C   UNL     1     -10.562  14.765  66.524  1.00  0.00    -0.299 C  
BRANCH   7   8
HETATM    8  O   UNL     1     -10.366  14.503  67.923  1.00  0.00    -0.228 OA 
BRANCH   8   9
HETATM    9  C   UNL     1     -10.069  13.206  68.254  1.00  0.00    -0.247 A  
HETATM   10  C   UNL     1     -10.956  12.290  68.829  1.00  0.00    -0.277 A  
HETATM   11  C   UNL     1     -10.542  10.988  69.123  1.00  0.00    -0.253 A  
HETATM   12  C   UNL     1      -9.239  10.594  68.841  1.00  0.00    -0.183 A  
HETATM   13  C   UNL     1      -8.343  11.494  68.268  1.00  0.00    -0.154 A  
HETATM   14 CL   UNL     1      -8.735   8.990  69.201  1.00  0.00    -0.133 Cl 
HETATM   15  C   UNL     1      -8.760  12.799  67.977  1.00  0.00    -0.194 A  
ENDBRANCH   8   9
ENDBRANCH   7   8
ENDBRANCH   4   7
ENDBRANCH   3   4
TORSDOF 4
ENDMDL
MODEL      162
REMARK 921   NORMALIZED FREE ENERGY PREDICTED BY IDOCK:   -2.74 KCAL/MOL
REMARK 922        TOTAL FREE ENERGY PREDICTED BY IDOCK:   -3.56 KCAL/MOL
REMARK 923 INTER-LIGAND FREE ENERGY PREDICTED BY IDOCK:   -3.36 KCAL/MOL
REMARK 924 INTRA-LIGAND FREE ENERGY PREDICTED BY IDOCK:   -0.20 KCAL/MOL
REMARK 927      BINDING AFFINITY PREDICTED BY RF-SCORE:    0.00 PKD
ROOT
HETATM    1  O   UNL     1      -8.413   7.185  65.637  1.00  0.00    -0.143 OA 
HETATM    2  H   UNL     1      -7.631   7.315  65.114  1.00  0.00     0.000 HD 
HETATM    3  C   UNL     1      -8.776   5.813  65.677  1.00  0.00    -0.149 C  
ENDROOT
BRANCH   3   4
HETATM    4  C   UNL     1     -10.036   5.604  66.521  1.00  0.00    -0.185 C  
HETATM    5  H   UNL     1     -10.812   4.153  67.594  1.00  0.00     0.000 HD 
HETATM    6  O   UNL     1     -10.030   4.283  67.071  1.00  0.00    -0.206 OA 
BRANCH   4   7
HETATM    7  C   UNL     1     -10.185   6.646  67.639  1.00  0.00    -0.177 C  
BRANCH   7   8
HETATM    8  O   UNL     1     -11.306   6.320  68.477  1.00  0.00    -0.324 OA 
BRANCH   8   9
HETATM    9  C   UNL     1     -11.038   6.209  69.818  1.00  0.00    -0.416 A  
HETATM   10  C   UNL     1     -10.105   5.338  70.392  1.00  0.00    -0.324 A  
HETATM   11  C   UNL     1      -9.914   5.313  71.775  1.00  0.00    -0.245 A  
HETATM   12  C   UNL     1     -10.654   6.160  72.593  1.00  0.00    -0.218 A  
HETATM   13  C   UNL     1     -11.587   7.032  72.038  1.00  0.00    -0.322 A  
HETATM   14 CL   UNL     1     -10.413   6.127  74.296  1.00  0.00    -0.271 Cl 
HETATM   15  C   UNL     1     -11.778   7.054  70.651  1.00  0.00    -0.384 A  
ENDBRANCH   8   9
ENDBRANCH   7   8
ENDBRANCH   4   7
ENDBRANCH   3   4
TORSDOF 4
ENDMDL
MODEL      163
REMARK 921   NORMALIZED FREE ENERGY PREDICTED BY IDOCK:   -2.72 KCAL/MOL
REMARK 922        TOTAL FREE ENERGY PREDICTED BY IDOCK:   -3.55 KCAL/MOL
REMARK 923 INTER-LIGAND FREE ENERGY PREDICTED BY IDOCK:   -3.35 KCAL/MOL
REMARK 924 INTRA-LIGAND FREE ENERGY PREDICTED BY IDOCK:   -0.19 KCAL/MOL
REMARK 927      BINDING AFFINITY PREDICTED BY RF-SCORE:    0.00 PKD
ROOT
HETATM    1  O   UNL     1     -11.916  12.680  68.973  1.00  0.00    -0.290 OA 
HETATM    2  H   UNL     1     -12.052  13.006  68.091  1.00  0.00     0.000 HD 
HETATM    3  C   UNL     1     -12.183  11.287  69.047  1.00  0.00    -0.144 C  
ENDROOT
BRANCH   3   4
HETATM    4  C   UNL     1     -11.964  10.763  70.468  1.00  0.00    -0.361 C  
HETATM    5  H   UNL     1     -13.087  10.349  72.025  1.00  0.00     0.000 HD 
HETATM    6  O   UNL     1     -13.223  10.675  71.143  1.00  0.00    -0.345 OA 
BRANCH   4   7
HETATM    7  C   UNL     1     -11.246   9.406  70.499  1.00  0.00    -0.275 C  
BRANCH   7   8
HETATM    8  O   UNL     1     -10.173   9.388  69.543  1.00  0.00    -0.190 OA 
BRANCH   8   9
HETATM    9  C   UNL     1     -10.181   8.343  68.655  1.00  0.00    -0.201 A  
HETATM   10  C   UNL     1      -9.722   8.395  67.334  1.00  0.00    -0.222 A  
HETATM   11  C   UNL     1      -9.777   7.263  66.517  1.00  0.00    -0.207 A  
HETATM   12  C   UNL     1     -10.290   6.072  67.018  1.00  0.00    -0.240 A  
HETATM   13  C   UNL     1     -10.751   6.002  68.330  1.00  0.00    -0.351 A  
HETATM   14 CL   UNL     1     -10.352   4.679  66.010  1.00  0.00    -0.314 Cl 
HETATM   15  C   UNL     1     -10.696   7.139  69.146  1.00  0.00    -0.216 A  
ENDBRANCH   8   9
ENDBRANCH   7   8
ENDBRANCH   4   7
ENDBRANCH   3   4
TORSDOF 4
ENDMDL
MODEL      164
REMARK 921   NORMALIZED FREE ENERGY PREDICTED BY IDOCK:   -2.71 KCAL/MOL
REMARK 922        TOTAL FREE ENERGY PREDICTED BY IDOCK:   -3.53 KCAL/MOL
REMARK 923 INTER-LIGAND FREE ENERGY PREDICTED BY IDOCK:   -3.36 KCAL/MOL
REMARK 924 INTRA-LIGAND FREE ENERGY PREDICTED BY IDOCK:   -0.17 KCAL/MOL
REMARK 927      BINDING AFFINITY PREDICTED BY RF-SCORE:    0.00 PKD
ROOT
HETATM    1  O   UNL     1     -12.542  11.579  62.835  1.00  0.00    -0.946 OA 
HETATM    2  H   UNL     1     -13.433  11.572  62.507  1.00  0.00     0.000 HD 
HETATM    3  C   UNL     1     -12.438  12.385  64.001  1.00  0.00    -0.459 C  
ENDROOT
BRANCH   3   4
HETATM    4  C   UNL     1     -11.002  12.396  64.531  1.00  0.00    -0.316 C  
HETATM    5  H   UNL     1     -10.002  13.355  65.924  1.00  0.00     0.000 HD 
HETATM    6  O   UNL     1     -10.893  13.347  65.596  1.00  0.00    -0.279 OA 
BRANCH   4   7
HETATM    7  C   UNL     1     -10.527  11.013  65.000  1.00  0.00    -0.277 C  
BRANCH   7   8
HETATM    8  O   UNL     1      -9.292  10.665  64.355  1.00  0.00    -0.212 OA 
BRANCH   8   9
HETATM    9  C   UNL     1      -8.684   9.521  64.803  1.00  0.00    -0.197 A  
HETATM   10  C   UNL     1      -7.970   8.615  64.011  1.00  0.00    -0.158 A  
HETATM   11  C   UNL     1      -7.389   7.479  64.579  1.00  0.00    -0.087 A  
HETATM   12  C   UNL     1      -7.516   7.243  65.943  1.00  0.00    -0.080 A  
HETATM   13  C   UNL     1      -8.224   8.134  66.746  1.00  0.00    -0.107 A  
HETATM   14 CL   UNL     1      -6.796   5.844  66.638  1.00  0.00    -0.058 Cl 
HETATM   15  C   UNL     1      -8.807   9.271  66.174  1.00  0.00    -0.183 A  
ENDBRANCH   8   9
ENDBRANCH   7   8
ENDBRANCH   4   7
ENDBRANCH   3   4
TORSDOF 4
ENDMDL
MODEL      165
REMARK 921   NORMALIZED FREE ENERGY PREDICTED BY IDOCK:   -2.69 KCAL/MOL
REMARK 922        TOTAL FREE ENERGY PREDICTED BY IDOCK:   -3.50 KCAL/MOL
REMARK 923 INTER-LIGAND FREE ENERGY PREDICTED BY IDOCK:   -3.34 KCAL/MOL
REMARK 924 INTRA-LIGAND FREE ENERGY PREDICTED BY IDOCK:   -0.17 KCAL/MOL
REMARK 927      BINDING AFFINITY PREDICTED BY RF-SCORE:    0.00 PKD
ROOT
HETATM    1  O   UNL     1     -14.292   9.055  73.129  1.00  0.00    -1.136 OA 
HETATM    2  H   UNL     1     -15.194   9.230  72.890  1.00  0.00     0.000 HD 
HETATM    3  C   UNL     1     -13.501   8.801  71.976  1.00  0.00    -0.418 C  
ENDROOT
BRANCH   3   4
HETATM    4  C   UNL     1     -12.047   8.519  72.362  1.00  0.00    -0.367 C  
HETATM    5  H   UNL     1     -10.991   6.953  72.901  1.00  0.00     0.000 HD 
HETATM    6  O   UNL     1     -11.893   7.127  72.661  1.00  0.00    -0.191 OA 
BRANCH   4   7
HETATM    7  C   UNL     1     -11.048   8.944  71.275  1.00  0.00    -0.297 C  
BRANCH   7   8
HETATM    8  O   UNL     1      -9.708   8.914  71.792  1.00  0.00    -0.288 OA 
BRANCH   8   9
HETATM    9  C   UNL     1      -8.749   8.424  70.943  1.00  0.00    -0.154 A  
HETATM   10  C   UNL     1      -7.887   7.357  71.219  1.00  0.00    -0.095 A  
HETATM   11  C   UNL     1      -6.947   6.940  70.274  1.00  0.00    -0.066 A  
HETATM   12  C   UNL     1      -6.865   7.587  69.046  1.00  0.00    -0.064 A  
HETATM   13  C   UNL     1      -7.715   8.651  68.755  1.00  0.00    -0.097 A  
HETATM   14 CL   UNL     1      -5.708   7.069  67.883  1.00  0.00    -0.023 Cl 
HETATM   15  C   UNL     1      -8.655   9.068  69.705  1.00  0.00    -0.138 A  
ENDBRANCH   8   9
ENDBRANCH   7   8
ENDBRANCH   4   7
ENDBRANCH   3   4
TORSDOF 4
ENDMDL
MODEL      166
REMARK 921   NORMALIZED FREE ENERGY PREDICTED BY IDOCK:   -2.68 KCAL/MOL
REMARK 922        TOTAL FREE ENERGY PREDICTED BY IDOCK:   -3.50 KCAL/MOL
REMARK 923 INTER-LIGAND FREE ENERGY PREDICTED BY IDOCK:   -3.31 KCAL/MOL
REMARK 924 INTRA-LIGAND FREE ENERGY PREDICTED BY IDOCK:   -0.19 KCAL/MOL
REMARK 927      BINDING AFFINITY PREDICTED BY RF-SCORE:    0.00 PKD
ROOT
HETATM    1  O   UNL     1      -8.382   4.767  64.605  1.00  0.00    -0.117 OA 
HETATM    2  H   UNL     1      -7.496   4.558  64.334  1.00  0.00     0.000 HD 
HETATM    3  C   UNL     1      -8.400   5.289  65.926  1.00  0.00    -0.120 C  
ENDROOT
BRANCH   3   4
HETATM    4  C   UNL     1      -9.828   5.626  66.362  1.00  0.00    -0.154 C  
HETATM    5  H   UNL     1     -11.284   4.710  67.312  1.00  0.00     0.000 HD 
HETATM    6  O   UNL     1     -10.397   4.501  67.041  1.00  0.00    -0.141 OA 
BRANCH   4   7
HETATM    7  C   UNL     1      -9.902   6.877  67.249  1.00  0.00    -0.152 C  
BRANCH   7   8
HETATM    8  O   UNL     1      -9.731   6.519  68.630  1.00  0.00    -0.128 OA 
BRANCH   8   9
HETATM    9  C   UNL     1     -10.513   7.201  69.526  1.00  0.00    -0.225 A  
HETATM   10  C   UNL     1     -10.389   8.557  69.848  1.00  0.00    -0.210 A  
HETATM   11  C   UNL     1     -11.246   9.149  70.778  1.00  0.00    -0.336 A  
HETATM   12  C   UNL     1     -12.236   8.388  71.391  1.00  0.00    -0.302 A  
HETATM   13  C   UNL     1     -12.374   7.037  71.082  1.00  0.00    -0.423 A  
HETATM   14 CL   UNL     1     -13.292   9.121  72.534  1.00  0.00    -0.514 Cl 
HETATM   15  C   UNL     1     -11.511   6.446  70.151  1.00  0.00    -0.484 A  
ENDBRANCH   8   9
ENDBRANCH   7   8
ENDBRANCH   4   7
ENDBRANCH   3   4
TORSDOF 4
ENDMDL
MODEL      167
REMARK 921   NORMALIZED FREE ENERGY PREDICTED BY IDOCK:   -2.68 KCAL/MOL
REMARK 922        TOTAL FREE ENERGY PREDICTED BY IDOCK:   -3.49 KCAL/MOL
REMARK 923 INTER-LIGAND FREE ENERGY PREDICTED BY IDOCK:   -3.29 KCAL/MOL
REMARK 924 INTRA-LIGAND FREE ENERGY PREDICTED BY IDOCK:   -0.20 KCAL/MOL
REMARK 927      BINDING AFFINITY PREDICTED BY RF-SCORE:    0.00 PKD
ROOT
HETATM    1  O   UNL     1     -10.794   8.270  71.718  1.00  0.00    -0.235 OA 
HETATM    2  H   UNL     1     -10.690   7.461  72.203  1.00  0.00     0.000 HD 
HETATM    3  C   UNL     1      -9.681   8.498  70.864  1.00  0.00    -0.187 C  
ENDROOT
BRANCH   3   4
HETATM    4  C   UNL     1      -9.849   9.802  70.082  1.00  0.00    -0.255 C  
HETATM    5  H   UNL     1      -8.664  11.136  69.260  1.00  0.00     0.000 HD 
HETATM    6  O   UNL     1      -8.560  10.326  69.745  1.00  0.00    -0.162 OA 
BRANCH   4   7
HETATM    7  C   UNL     1     -10.704   9.634  68.817  1.00  0.00    -0.206 C  
BRANCH   7   8
HETATM    8  O   UNL     1     -10.796  10.881  68.110  1.00  0.00    -0.199 OA 
BRANCH   8   9
HETATM    9  C   UNL     1     -10.387  10.859  66.801  1.00  0.00    -0.241 A  
HETATM   10  C   UNL     1      -9.935   9.730  66.109  1.00  0.00    -0.338 A  
HETATM   11  C   UNL     1      -9.544   9.826  64.771  1.00  0.00    -0.284 A  
HETATM   12  C   UNL     1      -9.606  11.051  64.117  1.00  0.00    -0.266 A  
HETATM   13  C   UNL     1     -10.054  12.185  64.791  1.00  0.00    -0.276 A  
HETATM   14 CL   UNL     1      -9.127  11.163  62.469  1.00  0.00    -0.373 Cl 
HETATM   15  C   UNL     1     -10.443  12.086  66.132  1.00  0.00    -0.271 A  
ENDBRANCH   8   9
ENDBRANCH   7   8
ENDBRANCH   4   7
ENDBRANCH   3   4
TORSDOF 4
ENDMDL
MODEL      168
REMARK 921   NORMALIZED FREE ENERGY PREDICTED BY IDOCK:   -2.64 KCAL/MOL
REMARK 922        TOTAL FREE ENERGY PREDICTED BY IDOCK:   -3.45 KCAL/MOL
REMARK 923 INTER-LIGAND FREE ENERGY PREDICTED BY IDOCK:   -3.29 KCAL/MOL
REMARK 924 INTRA-LIGAND FREE ENERGY PREDICTED BY IDOCK:   -0.16 KCAL/MOL
REMARK 927      BINDING AFFINITY PREDICTED BY RF-SCORE:    0.00 PKD
ROOT
HETATM    1  O   UNL     1     -13.771   9.127  71.073  1.00  0.00    -0.584 OA 
HETATM    2  H   UNL     1     -14.522   9.707  71.043  1.00  0.00     0.000 HD 
HETATM    3  C   UNL     1     -12.573   9.858  71.297  1.00  0.00    -0.381 C  
ENDROOT
BRANCH   3   4
HETATM    4  C   UNL     1     -11.363   8.922  71.346  1.00  0.00    -0.309 C  
HETATM    5  H   UNL     1      -9.424   9.081  71.073  1.00  0.00     0.000 HD 
HETATM    6  O   UNL     1     -10.175   9.662  71.043  1.00  0.00    -0.288 OA 
BRANCH   4   7
HETATM    7  C   UNL     1     -11.215   8.208  72.698  1.00  0.00    -0.378 C  
BRANCH   7   8
HETATM    8  O   UNL     1      -9.897   7.650  72.824  1.00  0.00    -0.185 OA 
BRANCH   8   9
HETATM    9  C   UNL     1      -9.839   6.320  73.155  1.00  0.00    -0.167 A  
HETATM   10  C   UNL     1     -10.520   5.715  74.216  1.00  0.00    -0.255 A  
HETATM   11  C   UNL     1     -10.387   4.346  74.459  1.00  0.00    -0.300 A  
HETATM   12  C   UNL     1      -9.572   3.573  73.639  1.00  0.00    -0.106 A  
HETATM   13  C   UNL     1      -8.886   4.159  72.578  1.00  0.00    -0.119 A  
HETATM   14 CL   UNL     1      -9.413   1.887  73.939  1.00  0.00    -0.081 Cl 
HETATM   15  C   UNL     1      -9.020   5.533  72.338  1.00  0.00    -0.137 A  
ENDBRANCH   8   9
ENDBRANCH   7   8
ENDBRANCH   4   7
ENDBRANCH   3   4
TORSDOF 4
ENDMDL
MODEL      169
REMARK 921   NORMALIZED FREE ENERGY PREDICTED BY IDOCK:   -2.64 KCAL/MOL
REMARK 922        TOTAL FREE ENERGY PREDICTED BY IDOCK:   -3.44 KCAL/MOL
REMARK 923 INTER-LIGAND FREE ENERGY PREDICTED BY IDOCK:   -3.04 KCAL/MOL
REMARK 924 INTRA-LIGAND FREE ENERGY PREDICTED BY IDOCK:   -0.41 KCAL/MOL
REMARK 927      BINDING AFFINITY PREDICTED BY RF-SCORE:    0.00 PKD
ROOT
HETATM    1  O   UNL     1      -8.683   9.002  65.685  1.00  0.00    -0.153 OA 
HETATM    2  H   UNL     1      -8.611   8.575  64.839  1.00  0.00     0.000 HD 
HETATM    3  C   UNL     1      -9.936   9.659  65.816  1.00  0.00    -0.272 C  
ENDROOT
BRANCH   3   4
HETATM    4  C   UNL     1     -10.052  10.346  67.179  1.00  0.00    -0.208 C  
HETATM    5  H   UNL     1     -11.507  10.943  68.356  1.00  0.00     0.000 HD 
HETATM    6  O   UNL     1     -11.435  10.516  67.511  1.00  0.00    -0.431 OA 
BRANCH   4   7
HETATM    7  C   UNL     1      -9.326   9.583  68.296  1.00  0.00    -0.133 C  
BRANCH   7   8
HETATM    8  O   UNL     1      -9.864   8.257  68.425  1.00  0.00    -0.162 OA 
BRANCH   8   9
HETATM    9  C   UNL     1     -10.113   7.834  69.705  1.00  0.00    -0.194 A  
HETATM   10  C   UNL     1     -11.227   7.093  70.115  1.00  0.00    -0.295 A  
HETATM   11  C   UNL     1     -11.376   6.713  71.451  1.00  0.00    -0.335 A  
HETATM   12  C   UNL     1     -10.411   7.071  72.385  1.00  0.00    -0.203 A  
HETATM   13  C   UNL     1      -9.296   7.809  71.994  1.00  0.00    -0.199 A  
HETATM   14 CL   UNL     1     -10.597   6.599  74.028  1.00  0.00    -0.296 Cl 
HETATM   15  C   UNL     1      -9.150   8.190  70.655  1.00  0.00    -0.156 A  
ENDBRANCH   8   9
ENDBRANCH   7   8
ENDBRANCH   4   7
ENDBRANCH   3   4
TORSDOF 4
ENDMDL
MODEL      170
REMARK 921   NORMALIZED FREE ENERGY PREDICTED BY IDOCK:   -2.62 KCAL/MOL
REMARK 922        TOTAL FREE ENERGY PREDICTED BY IDOCK:   -3.43 KCAL/MOL
REMARK 923 INTER-LIGAND FREE ENERGY PREDICTED BY IDOCK:   -3.24 KCAL/MOL
REMARK 924 INTRA-LIGAND FREE ENERGY PREDICTED BY IDOCK:   -0.19 KCAL/MOL
REMARK 927      BINDING AFFINITY PREDICTED BY RF-SCORE:    0.00 PKD
ROOT
HETATM    1  O   UNL     1     -10.956   5.814  72.707  1.00  0.00    -0.239 OA 
HETATM    2  H   UNL     1     -11.619   5.678  73.373  1.00  0.00     0.000 HD 
HETATM    3  C   UNL     1     -11.456   6.618  71.648  1.00  0.00    -0.288 C  
ENDROOT
BRANCH   3   4
HETATM    4  C   UNL     1     -10.387   6.838  70.576  1.00  0.00    -0.201 C  
HETATM    5  H   UNL     1     -10.169   6.415  68.670  1.00  0.00     0.000 HD 
HETATM    6  O   UNL     1     -10.832   6.279  69.335  1.00  0.00    -0.266 OA 
BRANCH   4   7
HETATM    7  C   UNL     1     -10.021   8.318  70.392  1.00  0.00    -0.188 C  
BRANCH   7   8
HETATM    8  O   UNL     1      -9.287   8.502  69.171  1.00  0.00    -0.152 OA 
BRANCH   8   9
HETATM    9  C   UNL     1      -9.815   9.406  68.285  1.00  0.00    -0.160 A  
HETATM   10  C   UNL     1      -9.764   9.303  66.891  1.00  0.00    -0.248 A  
HETATM   11  C   UNL     1     -10.340  10.287  66.084  1.00  0.00    -0.253 A  
HETATM   12  C   UNL     1     -10.974  11.378  66.667  1.00  0.00    -0.285 A  
HETATM   13  C   UNL     1     -11.034  11.496  68.054  1.00  0.00    -0.284 A  
HETATM   14 CL   UNL     1     -11.685  12.586  65.670  1.00  0.00    -0.446 Cl 
HETATM   15  C   UNL     1     -10.453  10.510  68.860  1.00  0.00    -0.226 A  
ENDBRANCH   8   9
ENDBRANCH   7   8
ENDBRANCH   4   7
ENDBRANCH   3   4
TORSDOF 4
ENDMDL
MODEL      171
REMARK 921   NORMALIZED FREE ENERGY PREDICTED BY IDOCK:   -2.61 KCAL/MOL
REMARK 922        TOTAL FREE ENERGY PREDICTED BY IDOCK:   -3.41 KCAL/MOL
REMARK 923 INTER-LIGAND FREE ENERGY PREDICTED BY IDOCK:   -2.92 KCAL/MOL
REMARK 924 INTRA-LIGAND FREE ENERGY PREDICTED BY IDOCK:   -0.49 KCAL/MOL
REMARK 927      BINDING AFFINITY PREDICTED BY RF-SCORE:    0.00 PKD
ROOT
HETATM    1  O   UNL     1     -11.247   5.804  73.913  1.00  0.00    -0.342 OA 
HETATM    2  H   UNL     1     -11.495   6.517  74.489  1.00  0.00     0.000 HD 
HETATM    3  C   UNL     1     -10.132   5.094  74.434  1.00  0.00    -0.247 C  
ENDROOT
BRANCH   3   4
HETATM    4  C   UNL     1      -9.732   3.945  73.506  1.00  0.00    -0.107 C  
HETATM    5  H   UNL     1     -10.653   2.499  72.546  1.00  0.00     0.000 HD 
HETATM    6  O   UNL     1     -10.901   3.213  73.122  1.00  0.00    -0.173 OA 
BRANCH   4   7
HETATM    7  C   UNL     1      -8.968   4.420  72.261  1.00  0.00    -0.120 C  
BRANCH   7   8
HETATM    8  O   UNL     1      -9.059   5.849  72.138  1.00  0.00    -0.143 OA 
BRANCH   8   9
HETATM    9  C   UNL     1      -9.466   6.320  70.915  1.00  0.00    -0.172 A  
HETATM   10  C   UNL     1     -10.681   6.019  70.291  1.00  0.00    -0.367 A  
HETATM   11  C   UNL     1     -10.991   6.559  69.041  1.00  0.00    -0.378 A  
HETATM   12  C   UNL     1     -10.088   7.407  68.409  1.00  0.00    -0.177 A  
HETATM   13  C   UNL     1      -8.874   7.717  69.016  1.00  0.00    -0.135 A  
HETATM   14 CL   UNL     1     -10.475   8.073  66.871  1.00  0.00    -0.411 Cl 
HETATM   15  C   UNL     1      -8.564   7.171  70.268  1.00  0.00    -0.143 A  
ENDBRANCH   8   9
ENDBRANCH   7   8
ENDBRANCH   4   7
ENDBRANCH   3   4
TORSDOF 4
ENDMDL
MODEL      172
REMARK 921   NORMALIZED FREE ENERGY PREDICTED BY IDOCK:   -2.60 KCAL/MOL
REMARK 922        TOTAL FREE ENERGY PREDICTED BY IDOCK:   -3.39 KCAL/MOL
REMARK 923 INTER-LIGAND FREE ENERGY PREDICTED BY IDOCK:   -3.18 KCAL/MOL
REMARK 924 INTRA-LIGAND FREE ENERGY PREDICTED BY IDOCK:   -0.21 KCAL/MOL
REMARK 927      BINDING AFFINITY PREDICTED BY RF-SCORE:    0.00 PKD
ROOT
HETATM    1  O   UNL     1     -10.495   5.213  65.499  1.00  0.00    -0.440 OA 
HETATM    2  H   UNL     1     -10.141   4.898  64.677  1.00  0.00     0.000 HD 
HETATM    3  C   UNL     1      -9.462   5.420  66.452  1.00  0.00    -0.154 C  
ENDROOT
BRANCH   3   4
HETATM    4  C   UNL     1     -10.033   5.930  67.777  1.00  0.00    -0.134 C  
HETATM    5  H   UNL     1     -10.271   5.222  69.594  1.00  0.00     0.000 HD 
HETATM    6  O   UNL     1      -9.916   4.906  68.772  1.00  0.00    -0.167 OA 
BRANCH   4   7
HETATM    7  C   UNL     1      -9.360   7.222  68.260  1.00  0.00    -0.135 C  
BRANCH   7   8
HETATM    8  O   UNL     1      -9.180   8.130  67.162  1.00  0.00    -0.137 OA 
BRANCH   8   9
HETATM    9  C   UNL     1      -9.826   9.335  67.269  1.00  0.00    -0.182 A  
HETATM   10  C   UNL     1     -10.632   9.734  68.340  1.00  0.00    -0.264 A  
HETATM   11  C   UNL     1     -11.241  10.991  68.342  1.00  0.00    -0.337 A  
HETATM   12  C   UNL     1     -11.045  11.858  67.274  1.00  0.00    -0.288 A  
HETATM   13  C   UNL     1     -10.246  11.477  66.199  1.00  0.00    -0.272 A  
HETATM   14 CL   UNL     1     -11.794  13.406  67.282  1.00  0.00    -0.414 Cl 
HETATM   15  C   UNL     1      -9.638  10.215  66.198  1.00  0.00    -0.256 A  
ENDBRANCH   8   9
ENDBRANCH   7   8
ENDBRANCH   4   7
ENDBRANCH   3   4
TORSDOF 4
ENDMDL
MODEL      173
REMARK 921   NORMALIZED FREE ENERGY PREDICTED BY IDOCK:   -2.56 KCAL/MOL
REMARK 922        TOTAL FREE ENERGY PREDICTED BY IDOCK:   -3.35 KCAL/MOL
REMARK 923 INTER-LIGAND FREE ENERGY PREDICTED BY IDOCK:   -3.11 KCAL/MOL
REMARK 924 INTRA-LIGAND FREE ENERGY PREDICTED BY IDOCK:   -0.24 KCAL/MOL
REMARK 927      BINDING AFFINITY PREDICTED BY RF-SCORE:    0.00 PKD
ROOT
HETATM    1  O   UNL     1     -11.393   6.583  68.575  1.00  0.00    -0.557 OA 
HETATM    2  H   UNL     1     -12.283   6.341  68.803  1.00  0.00     0.000 HD 
HETATM    3  C   UNL     1     -10.870   7.526  69.499  1.00  0.00    -0.175 C  
ENDROOT
BRANCH   3   4
HETATM    4  C   UNL     1      -9.436   7.915  69.131  1.00  0.00    -0.155 C  
HETATM    5  H   UNL     1      -8.262   7.723  67.568  1.00  0.00     0.000 HD 
HETATM    6  O   UNL     1      -9.151   7.482  67.796  1.00  0.00    -0.130 OA 
BRANCH   4   7
HETATM    7  C   UNL     1      -9.171   9.421  69.272  1.00  0.00    -0.159 C  
BRANCH   7   8
HETATM    8  O   UNL     1      -8.719   9.965  68.021  1.00  0.00    -0.124 OA 
BRANCH   8   9
HETATM    9  C   UNL     1      -9.281  11.160  67.650  1.00  0.00    -0.151 A  
HETATM   10  C   UNL     1      -8.588  12.258  67.130  1.00  0.00    -0.187 A  
HETATM   11  C   UNL     1      -9.268  13.428  66.783  1.00  0.00    -0.242 A  
HETATM   12  C   UNL     1     -10.646  13.506  66.953  1.00  0.00    -0.270 A  
HETATM   13  C   UNL     1     -11.351  12.421  67.470  1.00  0.00    -0.375 A  
HETATM   14 CL   UNL     1     -11.479  14.947  66.522  1.00  0.00    -0.324 Cl 
HETATM   15  C   UNL     1     -10.667  11.250  67.819  1.00  0.00    -0.265 A  
ENDBRANCH   8   9
ENDBRANCH   7   8
ENDBRANCH   4   7
ENDBRANCH   3   4
TORSDOF 4
ENDMDL
MODEL      174
REMARK 921   NORMALIZED FREE ENERGY PREDICTED BY IDOCK:   -2.56 KCAL/MOL
REMARK 922        TOTAL FREE ENERGY PREDICTED BY IDOCK:   -3.35 KCAL/MOL
REMARK 923 INTER-LIGAND FREE ENERGY PREDICTED BY IDOCK:   -3.08 KCAL/MOL
REMARK 924 INTRA-LIGAND FREE ENERGY PREDICTED BY IDOCK:   -0.27 KCAL/MOL
REMARK 927      BINDING AFFINITY PREDICTED BY RF-SCORE:    0.00 PKD
ROOT
HETATM    1  O   UNL     1     -11.210  10.633  70.728  1.00  0.00    -0.392 OA 
HETATM    2  H   UNL     1     -11.089  11.223  69.994  1.00  0.00     0.000 HD 
HETATM    3  C   UNL     1     -12.525  10.096  70.737  1.00  0.00    -0.326 C  
ENDROOT
BRANCH   3   4
HETATM    4  C   UNL     1     -12.720   9.145  71.920  1.00  0.00    -0.389 C  
HETATM    5  H   UNL     1     -14.190   8.645  73.122  1.00  0.00     0.000 HD 
HETATM    6  O   UNL     1     -14.069   9.235  72.388  1.00  0.00    -0.436 OA 
BRANCH   4   7
HETATM    7  C   UNL     1     -12.370   7.689  71.579  1.00  0.00    -0.330 C  
BRANCH   7   8
HETATM    8  O   UNL     1     -11.269   7.240  72.385  1.00  0.00    -0.255 OA 
BRANCH   8   9
HETATM    9  C   UNL     1     -10.169   6.790  71.700  1.00  0.00    -0.191 A  
HETATM   10  C   UNL     1      -9.533   7.463  70.651  1.00  0.00    -0.164 A  
HETATM   11  C   UNL     1      -8.414   6.908  70.025  1.00  0.00    -0.140 A  
HETATM   12  C   UNL     1      -7.924   5.677  70.446  1.00  0.00    -0.104 A  
HETATM   13  C   UNL     1      -8.546   4.993  71.488  1.00  0.00    -0.129 A  
HETATM   14 CL   UNL     1      -6.544   4.998  69.675  1.00  0.00    -0.038 Cl 
HETATM   15  C   UNL     1      -9.668   5.551  72.112  1.00  0.00    -0.186 A  
ENDBRANCH   8   9
ENDBRANCH   7   8
ENDBRANCH   4   7
ENDBRANCH   3   4
TORSDOF 4
ENDMDL
MODEL      175
REMARK 921   NORMALIZED FREE ENERGY PREDICTED BY IDOCK:   -2.56 KCAL/MOL
REMARK 922        TOTAL FREE ENERGY PREDICTED BY IDOCK:   -3.34 KCAL/MOL
REMARK 923 INTER-LIGAND FREE ENERGY PREDICTED BY IDOCK:   -3.17 KCAL/MOL
REMARK 924 INTRA-LIGAND FREE ENERGY PREDICTED BY IDOCK:   -0.17 KCAL/MOL
REMARK 927      BINDING AFFINITY PREDICTED BY RF-SCORE:    0.00 PKD
ROOT
HETATM    1  O   UNL     1      -9.159   3.838  66.441  1.00  0.00    -0.133 OA 
HETATM    2  H   UNL     1      -9.424   3.001  66.079  1.00  0.00     0.000 HD 
HETATM    3  C   UNL     1      -9.609   3.977  67.781  1.00  0.00    -0.150 C  
ENDROOT
BRANCH   3   4
HETATM    4  C   UNL     1      -9.180   5.325  68.365  1.00  0.00    -0.113 C  
HETATM    5  H   UNL     1      -8.319   6.960  67.699  1.00  0.00     0.000 HD 
HETATM    6  O   UNL     1      -8.585   6.123  67.336  1.00  0.00    -0.108 OA 
BRANCH   4   7
HETATM    7  C   UNL     1     -10.339   6.085  69.026  1.00  0.00    -0.225 C  
BRANCH   7   8
HETATM    8  O   UNL     1      -9.846   6.921  70.085  1.00  0.00    -0.177 OA 
BRANCH   8   9
HETATM    9  C   UNL     1     -10.437   8.154  70.199  1.00  0.00    -0.225 A  
HETATM   10  C   UNL     1     -10.542   9.103  69.176  1.00  0.00    -0.224 A  
HETATM   11  C   UNL     1     -11.169  10.330  69.407  1.00  0.00    -0.292 A  
HETATM   12  C   UNL     1     -11.698  10.613  70.661  1.00  0.00    -0.356 A  
HETATM   13  C   UNL     1     -11.602   9.680  71.690  1.00  0.00    -0.406 A  
HETATM   14 CL   UNL     1     -12.472  12.124  70.940  1.00  0.00    -0.434 Cl 
HETATM   15  C   UNL     1     -10.970   8.452  71.457  1.00  0.00    -0.326 A  
ENDBRANCH   8   9
ENDBRANCH   7   8
ENDBRANCH   4   7
ENDBRANCH   3   4
TORSDOF 4
ENDMDL
MODEL      176
REMARK 921   NORMALIZED FREE ENERGY PREDICTED BY IDOCK:   -2.52 KCAL/MOL
REMARK 922        TOTAL FREE ENERGY PREDICTED BY IDOCK:   -3.30 KCAL/MOL
REMARK 923 INTER-LIGAND FREE ENERGY PREDICTED BY IDOCK:   -3.04 KCAL/MOL
REMARK 924 INTRA-LIGAND FREE ENERGY PREDICTED BY IDOCK:   -0.26 KCAL/MOL
REMARK 927      BINDING AFFINITY PREDICTED BY RF-SCORE:    0.00 PKD
ROOT
HETATM    1  O   UNL     1     -11.210  12.771  69.740  1.00  0.00    -0.473 OA 
HETATM    2  H   UNL     1     -10.629  13.313  70.259  1.00  0.00     0.000 HD 
HETATM    3  C   UNL     1     -10.536  12.241  68.608  1.00  0.00    -0.208 C  
ENDROOT
BRANCH   3   4
HETATM    4  C   UNL     1     -11.474  11.366  67.772  1.00  0.00    -0.281 C  
HETATM    5  H   UNL     1     -12.386  11.503  66.038  1.00  0.00     0.000 HD 
HETATM    6  O   UNL     1     -11.804  12.046  66.556  1.00  0.00    -0.585 OA 
BRANCH   4   7
HETATM    7  C   UNL     1     -10.884   9.982  67.466  1.00  0.00    -0.265 C  
BRANCH   7   8
HETATM    8  O   UNL     1      -9.451  10.056  67.395  1.00  0.00    -0.149 OA 
BRANCH   8   9
HETATM    9  C   UNL     1      -8.886   9.623  66.222  1.00  0.00    -0.151 A  
HETATM   10  C   UNL     1      -9.301   9.986  64.937  1.00  0.00    -0.324 A  
HETATM   11  C   UNL     1      -8.647   9.482  63.810  1.00  0.00    -0.222 A  
HETATM   12  C   UNL     1      -7.572   8.614  63.963  1.00  0.00    -0.126 A  
HETATM   13  C   UNL     1      -7.145   8.243  65.235  1.00  0.00    -0.074 A  
HETATM   14 CL   UNL     1      -6.767   7.999  62.573  1.00  0.00    -0.085 Cl 
HETATM   15  C   UNL     1      -7.804   8.747  66.363  1.00  0.00    -0.099 A  
ENDBRANCH   8   9
ENDBRANCH   7   8
ENDBRANCH   4   7
ENDBRANCH   3   4
TORSDOF 4
ENDMDL
MODEL      177
REMARK 921   NORMALIZED FREE ENERGY PREDICTED BY IDOCK:   -2.49 KCAL/MOL
REMARK 922        TOTAL FREE ENERGY PREDICTED BY IDOCK:   -3.26 KCAL/MOL
REMARK 923 INTER-LIGAND FREE ENERGY PREDICTED BY IDOCK:   -3.05 KCAL/MOL
REMARK 924 INTRA-LIGAND FREE ENERGY PREDICTED BY IDOCK:   -0.21 KCAL/MOL
REMARK 927      BINDING AFFINITY PREDICTED BY RF-SCORE:    0.00 PKD
ROOT
HETATM    1  O   UNL     1     -11.126  13.607  69.894  1.00  0.00    -0.470 OA 
HETATM    2  H   UNL     1     -10.755  13.912  70.713  1.00  0.00     0.000 HD 
HETATM    3  C   UNL     1     -10.496  14.232  68.785  1.00  0.00    -0.249 C  
ENDROOT
BRANCH   3   4
HETATM    4  C   UNL     1     -11.094  13.738  67.466  1.00  0.00    -0.278 C  
HETATM    5  H   UNL     1     -11.797  14.555  65.824  1.00  0.00     0.000 HD 
HETATM    6  O   UNL     1     -11.426  14.861  66.642  1.00  0.00    -0.349 OA 
BRANCH   4   7
HETATM    7  C   UNL     1     -10.163  12.779  66.709  1.00  0.00    -0.239 C  
BRANCH   7   8
HETATM    8  O   UNL     1     -10.843  11.546  66.426  1.00  0.00    -0.268 OA 
BRANCH   8   9
HETATM    9  C   UNL     1     -10.278  10.415  66.959  1.00  0.00    -0.225 A  
HETATM   10  C   UNL     1     -10.614   9.100  66.619  1.00  0.00    -0.157 A  
HETATM   11  C   UNL     1      -9.968   8.021  67.227  1.00  0.00    -0.282 A  
HETATM   12  C   UNL     1      -8.979   8.251  68.177  1.00  0.00    -0.139 A  
HETATM   13  C   UNL     1      -8.632   9.554  68.527  1.00  0.00    -0.119 A  
HETATM   14 CL   UNL     1      -8.184   6.920  68.921  1.00  0.00    -0.120 Cl 
HETATM   15  C   UNL     1      -9.283  10.634  67.917  1.00  0.00    -0.150 A  
ENDBRANCH   8   9
ENDBRANCH   7   8
ENDBRANCH   4   7
ENDBRANCH   3   4
TORSDOF 4
ENDMDL
MODEL      178
REMARK 921   NORMALIZED FREE ENERGY PREDICTED BY IDOCK:   -2.48 KCAL/MOL
REMARK 922        TOTAL FREE ENERGY PREDICTED BY IDOCK:   -3.25 KCAL/MOL
REMARK 923 INTER-LIGAND FREE ENERGY PREDICTED BY IDOCK:   -3.06 KCAL/MOL
REMARK 924 INTRA-LIGAND FREE ENERGY PREDICTED BY IDOCK:   -0.19 KCAL/MOL
REMARK 927      BINDING AFFINITY PREDICTED BY RF-SCORE:    0.00 PKD
ROOT
HETATM    1  O   UNL     1     -12.333  14.332  69.103  1.00  0.00    -0.511 OA 
HETATM    2  H   UNL     1     -12.160  15.003  69.752  1.00  0.00     0.000 HD 
HETATM    3  C   UNL     1     -11.773  14.686  67.846  1.00  0.00    -0.351 C  
ENDROOT
BRANCH   3   4
HETATM    4  C   UNL     1     -12.051  13.603  66.800  1.00  0.00    -0.399 C  
HETATM    5  H   UNL     1     -13.099  13.453  65.145  1.00  0.00     0.000 HD 
HETATM    6  O   UNL     1     -12.926  14.125  65.794  1.00  0.00    -0.492 OA 
BRANCH   4   7
HETATM    7  C   UNL     1     -10.770  13.052  66.157  1.00  0.00    -0.273 C  
BRANCH   7   8
HETATM    8  O   UNL     1     -10.643  11.646  66.427  1.00  0.00    -0.239 OA 
BRANCH   8   9
HETATM    9  C   UNL     1      -9.375  11.200  66.699  1.00  0.00    -0.177 A  
HETATM   10  C   UNL     1      -8.715  10.167  66.025  1.00  0.00    -0.153 A  
HETATM   11  C   UNL     1      -7.417   9.797  66.388  1.00  0.00    -0.099 A  
HETATM   12  C   UNL     1      -6.772  10.461  67.425  1.00  0.00    -0.072 A  
HETATM   13  C   UNL     1      -7.415  11.492  68.106  1.00  0.00    -0.101 A  
HETATM   14 CL   UNL     1      -5.173  10.005  67.866  1.00  0.00    -0.038 Cl 
HETATM   15  C   UNL     1      -8.716  11.859  67.742  1.00  0.00    -0.158 A  
ENDBRANCH   8   9
ENDBRANCH   7   8
ENDBRANCH   4   7
ENDBRANCH   3   4
TORSDOF 4
ENDMDL
MODEL      179
REMARK 921   NORMALIZED FREE ENERGY PREDICTED BY IDOCK:   -2.47 KCAL/MOL
REMARK 922        TOTAL FREE ENERGY PREDICTED BY IDOCK:   -3.24 KCAL/MOL
REMARK 923 INTER-LIGAND FREE ENERGY PREDICTED BY IDOCK:   -2.73 KCAL/MOL
REMARK 924 INTRA-LIGAND FREE ENERGY PREDICTED BY IDOCK:   -0.51 KCAL/MOL
REMARK 927      BINDING AFFINITY PREDICTED BY RF-SCORE:    0.00 PKD
ROOT
HETATM    1  O   UNL     1     -11.275   8.284  69.583  1.00  0.00    -0.450 OA 
HETATM    2  H   UNL     1     -10.982   8.932  68.953  1.00  0.00     0.000 HD 
HETATM    3  C   UNL     1     -11.206   8.795  70.907  1.00  0.00    -0.270 C  
ENDROOT
BRANCH   3   4
HETATM    4  C   UNL     1     -11.679   7.751  71.921  1.00  0.00    -0.292 C  
HETATM    5  H   UNL     1     -13.050   6.346  71.989  1.00  0.00     0.000 HD 
HETATM    6  O   UNL     1     -12.756   6.993  71.359  1.00  0.00    -0.373 OA 
BRANCH   4   7
HETATM    7  C   UNL     1     -10.554   6.815  72.384  1.00  0.00    -0.214 C  
BRANCH   7   8
HETATM    8  O   UNL     1      -9.530   6.733  71.379  1.00  0.00    -0.161 OA 
BRANCH   8   9
HETATM    9  C   UNL     1      -9.305   5.486  70.854  1.00  0.00    -0.156 A  
HETATM   10  C   UNL     1      -9.813   4.286  71.362  1.00  0.00    -0.260 A  
HETATM   11  C   UNL     1      -9.518   3.070  70.740  1.00  0.00    -0.228 A  
HETATM   12  C   UNL     1      -8.715   3.048  69.605  1.00  0.00    -0.075 A  
HETATM   13  C   UNL     1      -8.201   4.234  69.087  1.00  0.00    -0.077 A  
HETATM   14 CL   UNL     1      -8.358   1.549  68.842  1.00  0.00    -0.069 Cl 
HETATM   15  C   UNL     1      -8.496   5.451  69.713  1.00  0.00    -0.100 A  
ENDBRANCH   8   9
ENDBRANCH   7   8
ENDBRANCH   4   7
ENDBRANCH   3   4
TORSDOF 4
ENDMDL
MODEL      180
REMARK 921   NORMALIZED FREE ENERGY PREDICTED BY IDOCK:   -2.47 KCAL/MOL
REMARK 922        TOTAL FREE ENERGY PREDICTED BY IDOCK:   -3.24 KCAL/MOL
REMARK 923 INTER-LIGAND FREE ENERGY PREDICTED BY IDOCK:   -2.80 KCAL/MOL
REMARK 924 INTRA-LIGAND FREE ENERGY PREDICTED BY IDOCK:   -0.43 KCAL/MOL
REMARK 927      BINDING AFFINITY PREDICTED BY RF-SCORE:    0.00 PKD
ROOT
HETATM    1  O   UNL     1      -8.315   9.128  67.533  1.00  0.00    -0.115 OA 
HETATM    2  H   UNL     1      -8.230   8.883  66.620  1.00  0.00     0.000 HD 
HETATM    3  C   UNL     1      -9.590   9.699  67.790  1.00  0.00    -0.139 C  
ENDROOT
BRANCH   3   4
HETATM    4  C   UNL     1      -9.728  10.093  69.262  1.00  0.00    -0.224 C  
HETATM    5  H   UNL     1     -11.178  10.663  70.458  1.00  0.00     0.000 HD 
HETATM    6  O   UNL     1     -11.093  10.419  69.544  1.00  0.00    -0.231 OA 
BRANCH   4   7
HETATM    7  C   UNL     1      -9.232   9.000  70.221  1.00  0.00    -0.202 C  
BRANCH   7   8
HETATM    8  O   UNL     1      -9.586   7.701  69.721  1.00  0.00    -0.163 OA 
BRANCH   8   9
HETATM    9  C   UNL     1     -10.019   6.796  70.656  1.00  0.00    -0.187 A  
HETATM   10  C   UNL     1     -10.926   7.063  71.687  1.00  0.00    -0.258 A  
HETATM   11  C   UNL     1     -11.297   6.060  72.585  1.00  0.00    -0.320 A  
HETATM   12  C   UNL     1     -10.765   4.782  72.455  1.00  0.00    -0.176 A  
HETATM   13  C   UNL     1      -9.861   4.499  71.435  1.00  0.00    -0.264 A  
HETATM   14 CL   UNL     1     -11.227   3.548  73.561  1.00  0.00    -0.318 Cl 
HETATM   15  C   UNL     1      -9.488   5.507  70.537  1.00  0.00    -0.209 A  
ENDBRANCH   8   9
ENDBRANCH   7   8
ENDBRANCH   4   7
ENDBRANCH   3   4
TORSDOF 4
ENDMDL
MODEL      181
REMARK 921   NORMALIZED FREE ENERGY PREDICTED BY IDOCK:   -2.46 KCAL/MOL
REMARK 922        TOTAL FREE ENERGY PREDICTED BY IDOCK:   -3.23 KCAL/MOL
REMARK 923 INTER-LIGAND FREE ENERGY PREDICTED BY IDOCK:   -2.76 KCAL/MOL
REMARK 924 INTRA-LIGAND FREE ENERGY PREDICTED BY IDOCK:   -0.47 KCAL/MOL
REMARK 927      BINDING AFFINITY PREDICTED BY RF-SCORE:    0.00 PKD
ROOT
HETATM    1  O   UNL     1      -7.233   8.997  65.324  1.00  0.00    -0.086 OA 
HETATM    2  H   UNL     1      -7.296   8.532  64.498  1.00  0.00     0.000 HD 
HETATM    3  C   UNL     1      -7.894  10.252  65.253  1.00  0.00    -0.145 C  
ENDROOT
BRANCH   3   4
HETATM    4  C   UNL     1      -7.792  11.001  66.584  1.00  0.00    -0.153 C  
HETATM    5  H   UNL     1      -8.751  12.466  67.474  1.00  0.00     0.000 HD 
HETATM    6  O   UNL     1      -8.814  12.001  66.649  1.00  0.00    -0.198 OA 
BRANCH   4   7
HETATM    7  C   UNL     1      -7.880  10.069  67.801  1.00  0.00    -0.094 C  
BRANCH   7   8
HETATM    8  O   UNL     1      -8.919   9.095  67.608  1.00  0.00    -0.123 OA 
BRANCH   8   9
HETATM    9  C   UNL     1      -9.726   8.859  68.691  1.00  0.00    -0.161 A  
HETATM   10  C   UNL     1     -10.327   7.635  69.006  1.00  0.00    -0.220 A  
HETATM   11  C   UNL     1     -11.132   7.510  70.141  1.00  0.00    -0.246 A  
HETATM   12  C   UNL     1     -11.340   8.608  70.968  1.00  0.00    -0.274 A  
HETATM   13  C   UNL     1     -10.749   9.833  70.669  1.00  0.00    -0.394 A  
HETATM   14 CL   UNL     1     -12.329   8.448  72.366  1.00  0.00    -0.430 Cl 
HETATM   15  C   UNL     1      -9.944   9.957  69.530  1.00  0.00    -0.240 A  
ENDBRANCH   8   9
ENDBRANCH   7   8
ENDBRANCH   4   7
ENDBRANCH   3   4
TORSDOF 4
ENDMDL
MODEL      182
REMARK 921   NORMALIZED FREE ENERGY PREDICTED BY IDOCK:   -2.46 KCAL/MOL
REMARK 922        TOTAL FREE ENERGY PREDICTED BY IDOCK:   -3.23 KCAL/MOL
REMARK 923 INTER-LIGAND FREE ENERGY PREDICTED BY IDOCK:   -3.00 KCAL/MOL
REMARK 924 INTRA-LIGAND FREE ENERGY PREDICTED BY IDOCK:   -0.23 KCAL/MOL
REMARK 927      BINDING AFFINITY PREDICTED BY RF-SCORE:    0.00 PKD
ROOT
HETATM    1  O   UNL     1     -11.335   5.696  66.264  1.00  0.00    -0.734 OA 
HETATM    2  H   UNL     1     -11.561   6.482  65.781  1.00  0.00     0.000 HD 
HETATM    3  C   UNL     1     -10.000   5.296  65.989  1.00  0.00    -0.124 C  
ENDROOT
BRANCH   3   4
HETATM    4  C   UNL     1      -9.637   4.029  66.768  1.00  0.00    -0.211 C  
HETATM    5  H   UNL     1      -9.133   2.181  66.332  1.00  0.00     0.000 HD 
HETATM    6  O   UNL     1      -9.358   2.967  65.849  1.00  0.00    -0.147 OA 
BRANCH   4   7
HETATM    7  C   UNL     1      -8.451   4.234  67.721  1.00  0.00    -0.098 C  
BRANCH   7   8
HETATM    8  O   UNL     1      -8.599   5.467  68.443  1.00  0.00    -0.101 OA 
BRANCH   8   9
HETATM    9  C   UNL     1      -9.308   5.394  69.615  1.00  0.00    -0.135 A  
HETATM   10  C   UNL     1     -10.101   6.414  70.151  1.00  0.00    -0.209 A  
HETATM   11  C   UNL     1     -10.782   6.226  71.356  1.00  0.00    -0.297 A  
HETATM   12  C   UNL     1     -10.676   5.014  72.031  1.00  0.00    -0.135 A  
HETATM   13  C   UNL     1      -9.892   3.988  71.510  1.00  0.00    -0.251 A  
HETATM   14 CL   UNL     1     -11.519   4.786  73.512  1.00  0.00    -0.351 Cl 
HETATM   15  C   UNL     1      -9.208   4.180  70.303  1.00  0.00    -0.205 A  
ENDBRANCH   8   9
ENDBRANCH   7   8
ENDBRANCH   4   7
ENDBRANCH   3   4
TORSDOF 4
ENDMDL
MODEL      183
REMARK 921   NORMALIZED FREE ENERGY PREDICTED BY IDOCK:   -2.46 KCAL/MOL
REMARK 922        TOTAL FREE ENERGY PREDICTED BY IDOCK:   -3.22 KCAL/MOL
REMARK 923 INTER-LIGAND FREE ENERGY PREDICTED BY IDOCK:   -2.98 KCAL/MOL
REMARK 924 INTRA-LIGAND FREE ENERGY PREDICTED BY IDOCK:   -0.24 KCAL/MOL
REMARK 927      BINDING AFFINITY PREDICTED BY RF-SCORE:    0.00 PKD
ROOT
HETATM    1  O   UNL     1     -11.737  14.058  67.040  1.00  0.00    -0.355 OA 
HETATM    2  H   UNL     1     -12.482  14.480  67.451  1.00  0.00     0.000 HD 
HETATM    3  C   UNL     1     -11.559  12.741  67.541  1.00  0.00    -0.356 C  
ENDROOT
BRANCH   3   4
HETATM    4  C   UNL     1     -10.358  12.061  66.878  1.00  0.00    -0.213 C  
HETATM    5  H   UNL     1      -8.402  12.209  66.974  1.00  0.00     0.000 HD 
HETATM    6  O   UNL     1      -9.147  12.631  67.385  1.00  0.00    -0.176 OA 
BRANCH   4   7
HETATM    7  C   UNL     1     -10.353  10.538  67.072  1.00  0.00    -0.237 C  
BRANCH   7   8
HETATM    8  O   UNL     1      -9.286  10.152  67.953  1.00  0.00    -0.140 OA 
BRANCH   8   9
HETATM    9  C   UNL     1      -9.660   9.477  69.087  1.00  0.00    -0.170 A  
HETATM   10  C   UNL     1      -8.802   8.759  69.927  1.00  0.00    -0.143 A  
HETATM   11  C   UNL     1      -9.296   8.110  71.060  1.00  0.00    -0.180 A  
HETATM   12  C   UNL     1     -10.652   8.177  71.362  1.00  0.00    -0.220 A  
HETATM   13  C   UNL     1     -11.520   8.887  70.537  1.00  0.00    -0.231 A  
HETATM   14 CL   UNL     1     -11.255   7.379  72.761  1.00  0.00    -0.367 Cl 
HETATM   15  C   UNL     1     -11.022   9.535  69.400  1.00  0.00    -0.192 A  
ENDBRANCH   8   9
ENDBRANCH   7   8
ENDBRANCH   4   7
ENDBRANCH   3   4
TORSDOF 4
ENDMDL
MODEL      184
REMARK 921   NORMALIZED FREE ENERGY PREDICTED BY IDOCK:   -2.39 KCAL/MOL
REMARK 922        TOTAL FREE ENERGY PREDICTED BY IDOCK:   -3.14 KCAL/MOL
REMARK 923 INTER-LIGAND FREE ENERGY PREDICTED BY IDOCK:   -4.05 KCAL/MOL
REMARK 924 INTRA-LIGAND FREE ENERGY PREDICTED BY IDOCK:    0.92 KCAL/MOL
REMARK 927      BINDING AFFINITY PREDICTED BY RF-SCORE:    0.00 PKD
ROOT
HETATM    1  O   UNL     1     -12.067  15.614  69.118  1.00  0.00    -0.521 OA 
HETATM    2  H   UNL     1     -12.595  15.309  69.846  1.00  0.00     0.000 HD 
HETATM    3  C   UNL     1     -10.963  16.381  69.577  1.00  0.00    -0.317 C  
ENDROOT
BRANCH   3   4
HETATM    4  C   UNL     1     -10.112  16.872  68.403  1.00  0.00    -0.304 C  
HETATM    5  H   UNL     1      -8.299  16.546  67.720  1.00  0.00     0.000 HD 
HETATM    6  O   UNL     1      -8.827  16.242  68.448  1.00  0.00    -0.189 OA 
BRANCH   4   7
HETATM    7  C   UNL     1     -10.777  16.628  67.040  1.00  0.00    -0.174 C  
BRANCH   7   8
HETATM    8  O   UNL     1     -11.694  15.525  67.125  1.00  0.00    -0.085 OA 
BRANCH   8   9
HETATM    9  C   UNL     1     -11.408  14.445  66.329  1.00  0.00    -0.350 A  
HETATM   10  C   UNL     1     -11.796  13.125  66.580  1.00  0.00    -0.449 A  
HETATM   11  C   UNL     1     -11.447  12.102  65.695  1.00  0.00    -0.408 A  
HETATM   12  C   UNL     1     -10.711  12.394  64.553  1.00  0.00    -0.321 A  
HETATM   13  C   UNL     1     -10.316  13.703  64.288  1.00  0.00    -0.068 A  
HETATM   14 CL   UNL     1     -10.287  11.131  63.464  1.00  0.00    -0.434 Cl 
HETATM   15  C   UNL     1     -10.665  14.727  65.178  1.00  0.00    -0.433 A  
ENDBRANCH   8   9
ENDBRANCH   7   8
ENDBRANCH   4   7
ENDBRANCH   3   4
TORSDOF 4
ENDMDL
MODEL      185
REMARK 921   NORMALIZED FREE ENERGY PREDICTED BY IDOCK:   -2.38 KCAL/MOL
REMARK 922        TOTAL FREE ENERGY PREDICTED BY IDOCK:   -3.13 KCAL/MOL
REMARK 923 INTER-LIGAND FREE ENERGY PREDICTED BY IDOCK:   -2.99 KCAL/MOL
REMARK 924 INTRA-LIGAND FREE ENERGY PREDICTED BY IDOCK:   -0.14 KCAL/MOL
REMARK 927      BINDING AFFINITY PREDICTED BY RF-SCORE:    0.00 PKD
ROOT
HETATM    1  O   UNL     1     -12.665  11.717  71.330  1.00  0.00    -0.388 OA 
HETATM    2  H   UNL     1     -13.574  11.742  71.605  1.00  0.00     0.000 HD 
HETATM    3  C   UNL     1     -12.385  10.526  70.607  1.00  0.00    -0.356 C  
ENDROOT
BRANCH   3   4
HETATM    4  C   UNL     1     -10.921  10.486  70.164  1.00  0.00    -0.270 C  
HETATM    5  H   UNL     1      -9.267   9.624  70.779  1.00  0.00     0.000 HD 
HETATM    6  O   UNL     1     -10.176   9.648  71.054  1.00  0.00    -0.288 OA 
BRANCH   4   7
HETATM    7  C   UNL     1     -10.749  10.010  68.714  1.00  0.00    -0.223 C  
BRANCH   7   8
HETATM    8  O   UNL     1     -11.185  11.030  67.801  1.00  0.00    -0.274 OA 
BRANCH   8   9
HETATM    9  C   UNL     1     -10.376  12.133  67.704  1.00  0.00    -0.203 A  
HETATM   10  C   UNL     1     -10.584  13.354  68.356  1.00  0.00    -0.259 A  
HETATM   11  C   UNL     1      -9.689  14.412  68.183  1.00  0.00    -0.223 A  
HETATM   12  C   UNL     1      -8.579  14.255  67.360  1.00  0.00    -0.213 A  
HETATM   13  C   UNL     1      -8.358  13.047  66.704  1.00  0.00     0.159 A  
HETATM   14 CL   UNL     1      -7.478  15.561  67.154  1.00  0.00    -0.253 Cl 
HETATM   15  C   UNL     1      -9.258  11.988  66.876  1.00  0.00    -0.197 A  
ENDBRANCH   8   9
ENDBRANCH   7   8
ENDBRANCH   4   7
ENDBRANCH   3   4
TORSDOF 4
ENDMDL
MODEL      186
REMARK 921   NORMALIZED FREE ENERGY PREDICTED BY IDOCK:   -2.37 KCAL/MOL
REMARK 922        TOTAL FREE ENERGY PREDICTED BY IDOCK:   -3.11 KCAL/MOL
REMARK 923 INTER-LIGAND FREE ENERGY PREDICTED BY IDOCK:   -2.97 KCAL/MOL
REMARK 924 INTRA-LIGAND FREE ENERGY PREDICTED BY IDOCK:   -0.14 KCAL/MOL
REMARK 927      BINDING AFFINITY PREDICTED BY RF-SCORE:    0.00 PKD
ROOT
HETATM    1  O   UNL     1     -12.192  13.779  66.918  1.00  0.00    -0.410 OA 
HETATM    2  H   UNL     1     -13.002  14.001  67.361  1.00  0.00     0.000 HD 
HETATM    3  C   UNL     1     -11.619  12.600  67.465  1.00  0.00    -0.359 C  
ENDROOT
BRANCH   3   4
HETATM    4  C   UNL     1     -10.314  12.242  66.750  1.00  0.00    -0.217 C  
HETATM    5  H   UNL     1      -8.505  12.995  66.621  1.00  0.00     0.000 HD 
HETATM    6  O   UNL     1      -9.314  13.217  67.065  1.00  0.00    -0.226 OA 
BRANCH   4   7
HETATM    7  C   UNL     1      -9.812  10.833  67.094  1.00  0.00    -0.185 C  
BRANCH   7   8
HETATM    8  O   UNL     1     -10.540   9.848  66.343  1.00  0.00    -0.161 OA 
BRANCH   8   9
HETATM    9  C   UNL     1     -10.125   8.550  66.497  1.00  0.00    -0.258 A  
HETATM   10  C   UNL     1     -10.867   7.523  67.091  1.00  0.00    -0.298 A  
HETATM   11  C   UNL     1     -10.341   6.233  67.192  1.00  0.00    -0.286 A  
HETATM   12  C   UNL     1      -9.070   5.961  66.698  1.00  0.00    -0.134 A  
HETATM   13  C   UNL     1      -8.318   6.972  66.104  1.00  0.00    -0.130 A  
HETATM   14 CL   UNL     1      -8.428   4.371  66.822  1.00  0.00    -0.105 Cl 
HETATM   15  C   UNL     1      -8.846   8.265  66.006  1.00  0.00    -0.203 A  
ENDBRANCH   8   9
ENDBRANCH   7   8
ENDBRANCH   4   7
ENDBRANCH   3   4
TORSDOF 4
ENDMDL
MODEL      187
REMARK 921   NORMALIZED FREE ENERGY PREDICTED BY IDOCK:   -2.36 KCAL/MOL
REMARK 922        TOTAL FREE ENERGY PREDICTED BY IDOCK:   -3.10 KCAL/MOL
REMARK 923 INTER-LIGAND FREE ENERGY PREDICTED BY IDOCK:   -3.10 KCAL/MOL
REMARK 924 INTRA-LIGAND FREE ENERGY PREDICTED BY IDOCK:   -0.01 KCAL/MOL
REMARK 927      BINDING AFFINITY PREDICTED BY RF-SCORE:    0.00 PKD
ROOT
HETATM    1  O   UNL     1     -12.668  11.504  71.192  1.00  0.00    -0.393 OA 
HETATM    2  H   UNL     1     -13.508  11.421  71.628  1.00  0.00     0.000 HD 
HETATM    3  C   UNL     1     -12.497  10.483  70.220  1.00  0.00    -0.271 C  
ENDROOT
BRANCH   3   4
HETATM    4  C   UNL     1     -11.143  10.618  69.517  1.00  0.00    -0.274 C  
HETATM    5  H   UNL     1      -9.291  10.070  69.873  1.00  0.00     0.000 HD 
HETATM    6  O   UNL     1     -10.130   9.986  70.308  1.00  0.00    -0.260 OA 
BRANCH   4   7
HETATM    7  C   UNL     1     -11.148  10.038  68.096  1.00  0.00    -0.193 C  
BRANCH   7   8
HETATM    8  O   UNL     1      -9.852   9.514  67.767  1.00  0.00    -0.150 OA 
BRANCH   8   9
HETATM    9  C   UNL     1      -9.734   8.148  67.794  1.00  0.00    -0.157 A  
HETATM   10  C   UNL     1      -8.816   7.425  68.564  1.00  0.00    -0.126 A  
HETATM   11  C   UNL     1      -8.788   6.030  68.513  1.00  0.00    -0.112 A  
HETATM   12  C   UNL     1      -9.679   5.348  67.693  1.00  0.00    -0.134 A  
HETATM   13  C   UNL     1     -10.600   6.051  66.920  1.00  0.00    -0.384 A  
HETATM   14 CL   UNL     1      -9.644   3.629  67.635  1.00  0.00    -0.230 Cl 
HETATM   15  C   UNL     1     -10.625   7.451  66.971  1.00  0.00    -0.414 A  
ENDBRANCH   8   9
ENDBRANCH   7   8
ENDBRANCH   4   7
ENDBRANCH   3   4
TORSDOF 4
ENDMDL
MODEL      188
REMARK 921   NORMALIZED FREE ENERGY PREDICTED BY IDOCK:   -2.36 KCAL/MOL
REMARK 922        TOTAL FREE ENERGY PREDICTED BY IDOCK:   -3.10 KCAL/MOL
REMARK 923 INTER-LIGAND FREE ENERGY PREDICTED BY IDOCK:   -2.89 KCAL/MOL
REMARK 924 INTRA-LIGAND FREE ENERGY PREDICTED BY IDOCK:   -0.21 KCAL/MOL
REMARK 927      BINDING AFFINITY PREDICTED BY RF-SCORE:    0.00 PKD
ROOT
HETATM    1  O   UNL     1      -6.941   8.823  69.225  1.00  0.00    -0.056 OA 
HETATM    2  H   UNL     1      -7.070   9.744  69.034  1.00  0.00     0.000 HD 
HETATM    3  C   UNL     1      -6.619   8.628  70.595  1.00  0.00    -0.042 C  
ENDROOT
BRANCH   3   4
HETATM    4  C   UNL     1      -6.412   7.143  70.902  1.00  0.00    -0.044 C  
HETATM    5  H   UNL     1      -5.666   6.082  72.378  1.00  0.00     0.000 HD 
HETATM    6  O   UNL     1      -5.795   7.003  72.187  1.00  0.00    -0.037 OA 
BRANCH   4   7
HETATM    7  C   UNL     1      -7.716   6.334  70.847  1.00  0.00    -0.098 C  
BRANCH   7   8
HETATM    8  O   UNL     1      -8.471   6.522  72.055  1.00  0.00    -0.115 OA 
BRANCH   8   9
HETATM    9  C   UNL     1      -9.790   6.857  71.891  1.00  0.00    -0.164 A  
HETATM   10  C   UNL     1     -10.669   6.276  70.970  1.00  0.00    -0.313 A  
HETATM   11  C   UNL     1     -11.998   6.697  70.893  1.00  0.00    -0.413 A  
HETATM   12  C   UNL     1     -12.458   7.700  71.738  1.00  0.00    -0.329 A  
HETATM   13  C   UNL     1     -11.597   8.289  72.661  1.00  0.00    -0.419 A  
HETATM   14 CL   UNL     1     -14.097   8.213  71.642  1.00  0.00    -0.479 Cl 
HETATM   15  C   UNL     1     -10.264   7.867  72.735  1.00  0.00    -0.380 A  
ENDBRANCH   8   9
ENDBRANCH   7   8
ENDBRANCH   4   7
ENDBRANCH   3   4
TORSDOF 4
ENDMDL
MODEL      189
REMARK 921   NORMALIZED FREE ENERGY PREDICTED BY IDOCK:   -2.34 KCAL/MOL
REMARK 922        TOTAL FREE ENERGY PREDICTED BY IDOCK:   -3.07 KCAL/MOL
REMARK 923 INTER-LIGAND FREE ENERGY PREDICTED BY IDOCK:   -2.66 KCAL/MOL
REMARK 924 INTRA-LIGAND FREE ENERGY PREDICTED BY IDOCK:   -0.41 KCAL/MOL
REMARK 927      BINDING AFFINITY PREDICTED BY RF-SCORE:    0.00 PKD
ROOT
HETATM    1  O   UNL     1     -12.774   9.787  70.622  1.00  0.00    -0.495 OA 
HETATM    2  H   UNL     1     -13.535   9.624  70.078  1.00  0.00     0.000 HD 
HETATM    3  C   UNL     1     -12.331   8.592  71.249  1.00  0.00    -0.263 C  
ENDROOT
BRANCH   3   4
HETATM    4  C   UNL     1     -11.105   8.856  72.126  1.00  0.00    -0.285 C  
HETATM    5  H   UNL     1     -10.225   7.983  73.650  1.00  0.00     0.000 HD 
HETATM    6  O   UNL     1     -10.986   7.819  73.105  1.00  0.00    -0.396 OA 
BRANCH   4   7
HETATM    7  C   UNL     1      -9.806   8.977  71.316  1.00  0.00    -0.306 C  
BRANCH   7   8
HETATM    8  O   UNL     1     -10.102   9.093  69.915  1.00  0.00    -0.185 OA 
BRANCH   8   9
HETATM    9  C   UNL     1      -9.289   8.381  69.070  1.00  0.00    -0.147 A  
HETATM   10  C   UNL     1      -9.651   7.221  68.378  1.00  0.00    -0.139 A  
HETATM   11  C   UNL     1      -8.737   6.579  67.540  1.00  0.00    -0.114 A  
HETATM   12  C   UNL     1      -7.455   7.096  67.387  1.00  0.00    -0.100 A  
HETATM   13  C   UNL     1      -7.078   8.250  68.068  1.00  0.00    -0.086 A  
HETATM   14 CL   UNL     1      -6.333   6.304  66.351  1.00  0.00    -0.040 Cl 
HETATM   15  C   UNL     1      -7.996   8.891  68.910  1.00  0.00    -0.104 A  
ENDBRANCH   8   9
ENDBRANCH   7   8
ENDBRANCH   4   7
ENDBRANCH   3   4
TORSDOF 4
ENDMDL
MODEL      190
REMARK 921   NORMALIZED FREE ENERGY PREDICTED BY IDOCK:   -2.33 KCAL/MOL
REMARK 922        TOTAL FREE ENERGY PREDICTED BY IDOCK:   -3.07 KCAL/MOL
REMARK 923 INTER-LIGAND FREE ENERGY PREDICTED BY IDOCK:   -2.79 KCAL/MOL
REMARK 924 INTRA-LIGAND FREE ENERGY PREDICTED BY IDOCK:   -0.28 KCAL/MOL
REMARK 927      BINDING AFFINITY PREDICTED BY RF-SCORE:    0.00 PKD
ROOT
HETATM    1  O   UNL     1      -9.283  11.553  66.971  1.00  0.00    -0.170 OA 
HETATM    2  H   UNL     1      -9.069  12.264  67.563  1.00  0.00     0.000 HD 
HETATM    3  C   UNL     1      -8.136  10.766  66.685  1.00  0.00    -0.142 C  
ENDROOT
BRANCH   3   4
HETATM    4  C   UNL     1      -8.483   9.621  65.730  1.00  0.00    -0.133 C  
HETATM    5  H   UNL     1      -7.517   8.152  64.853  1.00  0.00     0.000 HD 
HETATM    6  O   UNL     1      -7.302   8.862  65.446  1.00  0.00    -0.083 OA 
BRANCH   4   7
HETATM    7  C   UNL     1      -9.588   8.704  66.274  1.00  0.00    -0.252 C  
BRANCH   7   8
HETATM    8  O   UNL     1      -9.040   7.774  67.223  1.00  0.00    -0.128 OA 
BRANCH   8   9
HETATM    9  C   UNL     1      -9.694   7.692  68.426  1.00  0.00    -0.158 A  
HETATM   10  C   UNL     1      -9.579   8.607  69.478  1.00  0.00    -0.170 A  
HETATM   11  C   UNL     1     -10.297   8.422  70.662  1.00  0.00    -0.224 A  
HETATM   12  C   UNL     1     -11.138   7.323  70.799  1.00  0.00    -0.266 A  
HETATM   13  C   UNL     1     -11.264   6.403  69.761  1.00  0.00    -0.484 A  
HETATM   14 CL   UNL     1     -12.023   7.102  72.257  1.00  0.00    -0.287 Cl 
HETATM   15  C   UNL     1     -10.541   6.589  68.576  1.00  0.00    -0.291 A  
ENDBRANCH   8   9
ENDBRANCH   7   8
ENDBRANCH   4   7
ENDBRANCH   3   4
TORSDOF 4
ENDMDL
MODEL      191
REMARK 921   NORMALIZED FREE ENERGY PREDICTED BY IDOCK:   -2.32 KCAL/MOL
REMARK 922        TOTAL FREE ENERGY PREDICTED BY IDOCK:   -3.05 KCAL/MOL
REMARK 923 INTER-LIGAND FREE ENERGY PREDICTED BY IDOCK:   -2.86 KCAL/MOL
REMARK 924 INTRA-LIGAND FREE ENERGY PREDICTED BY IDOCK:   -0.19 KCAL/MOL
REMARK 927      BINDING AFFINITY PREDICTED BY RF-SCORE:    0.00 PKD
ROOT
HETATM    1  O   UNL     1     -13.835   9.002  70.983  1.00  0.00    -0.589 OA 
HETATM    2  H   UNL     1     -14.504   9.674  70.944  1.00  0.00     0.000 HD 
HETATM    3  C   UNL     1     -12.922   9.256  72.042  1.00  0.00    -0.425 C  
ENDROOT
BRANCH   3   4
HETATM    4  C   UNL     1     -11.843   8.172  72.105  1.00  0.00    -0.359 C  
HETATM    5  H   UNL     1     -11.622   6.337  71.439  1.00  0.00     0.000 HD 
HETATM    6  O   UNL     1     -12.291   7.010  71.399  1.00  0.00    -0.339 OA 
BRANCH   4   7
HETATM    7  C   UNL     1     -10.490   8.643  71.552  1.00  0.00    -0.274 C  
BRANCH   7   8
HETATM    8  O   UNL     1      -9.554   8.838  72.625  1.00  0.00    -0.224 OA 
BRANCH   8   9
HETATM    9  C   UNL     1      -8.604   7.860  72.776  1.00  0.00    -0.170 A  
HETATM   10  C   UNL     1      -8.459   7.033  73.894  1.00  0.00    -0.172 A  
HETATM   11  C   UNL     1      -7.451   6.066  73.937  1.00  0.00    -0.092 A  
HETATM   12  C   UNL     1      -6.585   5.920  72.859  1.00  0.00    -0.065 A  
HETATM   13  C   UNL     1      -6.715   6.735  71.738  1.00  0.00    -0.058 A  
HETATM   14 CL   UNL     1      -5.348   4.726  72.915  1.00  0.00    -0.008 Cl 
HETATM   15  C   UNL     1      -7.725   7.705  71.699  1.00  0.00    -0.086 A  
ENDBRANCH   8   9
ENDBRANCH   7   8
ENDBRANCH   4   7
ENDBRANCH   3   4
TORSDOF 4
ENDMDL
MODEL      192
REMARK 921   NORMALIZED FREE ENERGY PREDICTED BY IDOCK:   -2.29 KCAL/MOL
REMARK 922        TOTAL FREE ENERGY PREDICTED BY IDOCK:   -3.02 KCAL/MOL
REMARK 923 INTER-LIGAND FREE ENERGY PREDICTED BY IDOCK:   -2.86 KCAL/MOL
REMARK 924 INTRA-LIGAND FREE ENERGY PREDICTED BY IDOCK:   -0.16 KCAL/MOL
REMARK 927      BINDING AFFINITY PREDICTED BY RF-SCORE:    0.00 PKD
ROOT
HETATM    1  O   UNL     1     -10.813  10.753  71.031  1.00  0.00     0.035 OA 
HETATM    2  H   UNL     1     -10.690  11.445  70.391  1.00  0.00     0.000 HD 
HETATM    3  C   UNL     1     -12.138  10.244  70.980  1.00  0.00    -0.386 C  
ENDROOT
BRANCH   3   4
HETATM    4  C   UNL     1     -12.336   9.130  72.010  1.00  0.00    -0.377 C  
HETATM    5  H   UNL     1     -13.794   8.492  73.161  1.00  0.00     0.000 HD 
HETATM    6  O   UNL     1     -13.671   9.184  72.522  1.00  0.00    -0.474 OA 
BRANCH   4   7
HETATM    7  C   UNL     1     -12.038   7.734  71.444  1.00  0.00    -0.311 C  
BRANCH   7   8
HETATM    8  O   UNL     1     -11.981   6.767  72.506  1.00  0.00    -0.180 OA 
BRANCH   8   9
HETATM    9  C   UNL     1     -10.791   6.101  72.646  1.00  0.00    -0.245 A  
HETATM   10  C   UNL     1     -10.470   4.875  72.053  1.00  0.00    -0.245 A  
HETATM   11  C   UNL     1      -9.220   4.288  72.266  1.00  0.00    -0.155 A  
HETATM   12  C   UNL     1      -8.283   4.925  73.071  1.00  0.00    -0.101 A  
HETATM   13  C   UNL     1      -8.586   6.146  73.669  1.00  0.00    -0.124 A  
HETATM   14 CL   UNL     1      -6.745   4.201  73.328  1.00  0.00    -0.050 Cl 
HETATM   15  C   UNL     1      -9.841   6.731  73.456  1.00  0.00    -0.249 A  
ENDBRANCH   8   9
ENDBRANCH   7   8
ENDBRANCH   4   7
ENDBRANCH   3   4
TORSDOF 4
ENDMDL
MODEL      193
REMARK 921   NORMALIZED FREE ENERGY PREDICTED BY IDOCK:   -2.28 KCAL/MOL
REMARK 922        TOTAL FREE ENERGY PREDICTED BY IDOCK:   -3.00 KCAL/MOL
REMARK 923 INTER-LIGAND FREE ENERGY PREDICTED BY IDOCK:   -2.60 KCAL/MOL
REMARK 924 INTRA-LIGAND FREE ENERGY PREDICTED BY IDOCK:   -0.40 KCAL/MOL
REMARK 927      BINDING AFFINITY PREDICTED BY RF-SCORE:    0.00 PKD
ROOT
HETATM    1  O   UNL     1      -9.168   5.943  71.481  1.00  0.00    -0.146 OA 
HETATM    2  H   UNL     1      -8.498   6.050  72.145  1.00  0.00     0.000 HD 
HETATM    3  C   UNL     1     -10.416   6.452  71.932  1.00  0.00    -0.209 C  
ENDROOT
BRANCH   3   4
HETATM    4  C   UNL     1     -11.496   6.279  70.861  1.00  0.00    -0.312 C  
HETATM    5  H   UNL     1     -13.374   6.807  70.631  1.00  0.00     0.000 HD 
HETATM    6  O   UNL     1     -12.704   6.914  71.295  1.00  0.00    -0.370 OA 
BRANCH   4   7
HETATM    7  C   UNL     1     -11.070   6.825  69.490  1.00  0.00    -0.273 C  
BRANCH   7   8
HETATM    8  O   UNL     1     -10.130   7.900  69.652  1.00  0.00    -0.188 OA 
BRANCH   8   9
HETATM    9  C   UNL     1      -9.626   8.434  68.494  1.00  0.00    -0.149 A  
HETATM   10  C   UNL     1     -10.149   9.539  67.813  1.00  0.00    -0.244 A  
HETATM   11  C   UNL     1      -9.549   9.998  66.638  1.00  0.00    -0.234 A  
HETATM   12  C   UNL     1      -8.421   9.357  66.139  1.00  0.00    -0.120 A  
HETATM   13  C   UNL     1      -7.888   8.255  66.804  1.00  0.00    -0.095 A  
HETATM   14 CL   UNL     1      -7.684   9.928  64.693  1.00  0.00    -0.137 Cl 
HETATM   15  C   UNL     1      -8.493   7.795  67.980  1.00  0.00    -0.123 A  
ENDBRANCH   8   9
ENDBRANCH   7   8
ENDBRANCH   4   7
ENDBRANCH   3   4
TORSDOF 4
ENDMDL
MODEL      194
REMARK 921   NORMALIZED FREE ENERGY PREDICTED BY IDOCK:   -2.24 KCAL/MOL
REMARK 922        TOTAL FREE ENERGY PREDICTED BY IDOCK:   -2.96 KCAL/MOL
REMARK 923 INTER-LIGAND FREE ENERGY PREDICTED BY IDOCK:   -2.51 KCAL/MOL
REMARK 924 INTRA-LIGAND FREE ENERGY PREDICTED BY IDOCK:   -0.45 KCAL/MOL
REMARK 927      BINDING AFFINITY PREDICTED BY RF-SCORE:    0.00 PKD
ROOT
HETATM    1  O   UNL     1      -9.562   5.029  71.509  1.00  0.00    -0.147 OA 
HETATM    2  H   UNL     1      -8.970   4.355  71.198  1.00  0.00     0.000 HD 
HETATM    3  C   UNL     1      -9.010   5.716  72.624  1.00  0.00    -0.132 C  
ENDROOT
BRANCH   3   4
HETATM    4  C   UNL     1      -9.965   6.802  73.124  1.00  0.00    -0.192 C  
HETATM    5  H   UNL     1     -10.037   8.051  74.639  1.00  0.00     0.000 HD 
HETATM    6  O   UNL     1      -9.445   7.377  74.328  1.00  0.00    -0.213 OA 
BRANCH   4   7
HETATM    7  C   UNL     1     -10.223   7.897  72.079  1.00  0.00    -0.211 C  
BRANCH   7   8
HETATM    8  O   UNL     1      -9.068   8.070  71.243  1.00  0.00    -0.132 OA 
BRANCH   8   9
HETATM    9  C   UNL     1      -9.319   8.385  69.932  1.00  0.00    -0.155 A  
HETATM   10  C   UNL     1      -9.976   7.564  69.010  1.00  0.00    -0.175 A  
HETATM   11  C   UNL     1     -10.178   7.991  67.696  1.00  0.00    -0.291 A  
HETATM   12  C   UNL     1      -9.727   9.244  67.297  1.00  0.00    -0.167 A  
HETATM   13  C   UNL     1      -9.071  10.074  68.202  1.00  0.00    -0.121 A  
HETATM   14 CL   UNL     1      -9.981   9.768  65.678  1.00  0.00    -0.375 Cl 
HETATM   15  C   UNL     1      -8.867   9.643  69.519  1.00  0.00    -0.197 A  
ENDBRANCH   8   9
ENDBRANCH   7   8
ENDBRANCH   4   7
ENDBRANCH   3   4
TORSDOF 4
ENDMDL
MODEL      195
REMARK 921   NORMALIZED FREE ENERGY PREDICTED BY IDOCK:   -2.24 KCAL/MOL
REMARK 922        TOTAL FREE ENERGY PREDICTED BY IDOCK:   -2.95 KCAL/MOL
REMARK 923 INTER-LIGAND FREE ENERGY PREDICTED BY IDOCK:   -2.68 KCAL/MOL
REMARK 924 INTRA-LIGAND FREE ENERGY PREDICTED BY IDOCK:   -0.26 KCAL/MOL
REMARK 927      BINDING AFFINITY PREDICTED BY RF-SCORE:    0.00 PKD
ROOT
HETATM    1  O   UNL     1      -9.861   6.209  73.006  1.00  0.00    -0.165 OA 
HETATM    2  H   UNL     1      -9.312   6.558  73.698  1.00  0.00     0.000 HD 
HETATM    3  C   UNL     1     -11.072   6.943  72.899  1.00  0.00    -0.261 C  
ENDROOT
BRANCH   3   4
HETATM    4  C   UNL     1     -11.956   6.380  71.783  1.00  0.00    -0.316 C  
HETATM    5  H   UNL     1     -13.460   7.021  70.694  1.00  0.00     0.000 HD 
HETATM    6  O   UNL     1     -12.911   7.370  71.386  1.00  0.00    -0.360 OA 
BRANCH   4   7
HETATM    7  C   UNL     1     -11.150   5.899  70.568  1.00  0.00    -0.277 C  
BRANCH   7   8
HETATM    8  O   UNL     1     -11.230   6.862  69.505  1.00  0.00    -0.247 OA 
BRANCH   8   9
HETATM    9  C   UNL     1     -10.220   7.789  69.459  1.00  0.00    -0.207 A  
HETATM   10  C   UNL     1     -10.355   9.153  69.736  1.00  0.00    -0.226 A  
HETATM   11  C   UNL     1      -9.252  10.007  69.659  1.00  0.00    -0.236 A  
HETATM   12  C   UNL     1      -8.006   9.500  69.306  1.00  0.00    -0.094 A  
HETATM   13  C   UNL     1      -7.855   8.144  69.026  1.00  0.00    -0.108 A  
HETATM   14 CL   UNL     1      -6.650  10.554  69.215  1.00  0.00    -0.053 Cl 
HETATM   15  C   UNL     1      -8.963   7.291  69.102  1.00  0.00    -0.135 A  
ENDBRANCH   8   9
ENDBRANCH   7   8
ENDBRANCH   4   7
ENDBRANCH   3   4
TORSDOF 4
ENDMDL
MODEL      196
REMARK 921   NORMALIZED FREE ENERGY PREDICTED BY IDOCK:   -2.23 KCAL/MOL
REMARK 922        TOTAL FREE ENERGY PREDICTED BY IDOCK:   -2.95 KCAL/MOL
REMARK 923 INTER-LIGAND FREE ENERGY PREDICTED BY IDOCK:   -2.65 KCAL/MOL
REMARK 924 INTRA-LIGAND FREE ENERGY PREDICTED BY IDOCK:   -0.30 KCAL/MOL
REMARK 927      BINDING AFFINITY PREDICTED BY RF-SCORE:    0.00 PKD
ROOT
HETATM    1  O   UNL     1     -11.933   6.601  69.454  1.00  0.00    -0.611 OA 
HETATM    2  H   UNL     1     -12.421   5.789  69.513  1.00  0.00     0.000 HD 
HETATM    3  C   UNL     1     -10.836   6.470  68.561  1.00  0.00    -0.288 C  
ENDROOT
BRANCH   3   4
HETATM    4  C   UNL     1     -10.048   7.779  68.466  1.00  0.00    -0.199 C  
HETATM    5  H   UNL     1      -9.856   9.238  67.165  1.00  0.00     0.000 HD 
HETATM    6  O   UNL     1     -10.345   8.426  67.224  1.00  0.00    -0.248 OA 
BRANCH   4   7
HETATM    7  C   UNL     1     -10.325   8.729  69.641  1.00  0.00    -0.213 C  
BRANCH   7   8
HETATM    8  O   UNL     1      -9.100   9.053  70.317  1.00  0.00    -0.169 OA 
BRANCH   8   9
HETATM    9  C   UNL     1      -8.676   8.148  71.256  1.00  0.00    -0.145 A  
HETATM   10  C   UNL     1      -7.451   7.473  71.241  1.00  0.00    -0.079 A  
HETATM   11  C   UNL     1      -7.124   6.570  72.255  1.00  0.00    -0.077 A  
HETATM   12  C   UNL     1      -8.020   6.339  73.293  1.00  0.00    -0.105 A  
HETATM   13  C   UNL     1      -9.244   7.003  73.324  1.00  0.00    -0.173 A  
HETATM   14 CL   UNL     1      -7.611   5.230  74.542  1.00  0.00    -0.089 Cl 
HETATM   15  C   UNL     1      -9.570   7.906  72.305  1.00  0.00    -0.255 A  
ENDBRANCH   8   9
ENDBRANCH   7   8
ENDBRANCH   4   7
ENDBRANCH   3   4
TORSDOF 4
ENDMDL
MODEL      197
REMARK 921   NORMALIZED FREE ENERGY PREDICTED BY IDOCK:   -2.22 KCAL/MOL
REMARK 922        TOTAL FREE ENERGY PREDICTED BY IDOCK:   -2.93 KCAL/MOL
REMARK 923 INTER-LIGAND FREE ENERGY PREDICTED BY IDOCK:   -2.70 KCAL/MOL
REMARK 924 INTRA-LIGAND FREE ENERGY PREDICTED BY IDOCK:   -0.23 KCAL/MOL
REMARK 927      BINDING AFFINITY PREDICTED BY RF-SCORE:    0.00 PKD
ROOT
HETATM    1  O   UNL     1      -8.454   7.235  65.616  1.00  0.00    -0.139 OA 
HETATM    2  H   UNL     1      -7.745   7.118  64.996  1.00  0.00     0.000 HD 
HETATM    3  C   UNL     1      -8.964   5.981  66.047  1.00  0.00    -0.147 C  
ENDROOT
BRANCH   3   4
HETATM    4  C   UNL     1     -10.107   6.169  67.047  1.00  0.00    -0.177 C  
HETATM    5  H   UNL     1     -10.932   5.117  68.486  1.00  0.00     0.000 HD 
HETATM    6  O   UNL     1     -10.223   5.000  67.866  1.00  0.00    -0.148 OA 
BRANCH   4   7
HETATM    7  C   UNL     1      -9.934   7.418  67.924  1.00  0.00    -0.165 C  
BRANCH   7   8
HETATM    8  O   UNL     1     -10.901   7.419  68.986  1.00  0.00    -0.184 OA 
BRANCH   8   9
HETATM    9  C   UNL     1     -10.403   7.614  70.249  1.00  0.00    -0.214 A  
HETATM   10  C   UNL     1     -11.168   7.836  71.399  1.00  0.00    -0.276 A  
HETATM   11  C   UNL     1     -10.550   8.020  72.639  1.00  0.00    -0.419 A  
HETATM   12  C   UNL     1      -9.164   7.981  72.735  1.00  0.00    -0.252 A  
HETATM   13  C   UNL     1      -8.388   7.761  71.600  1.00  0.00    -0.125 A  
HETATM   14 CL   UNL     1      -8.408   8.204  74.264  1.00  0.00    -0.302 Cl 
HETATM   15  C   UNL     1      -9.009   7.579  70.358  1.00  0.00    -0.152 A  
ENDBRANCH   8   9
ENDBRANCH   7   8
ENDBRANCH   4   7
ENDBRANCH   3   4
TORSDOF 4
ENDMDL
MODEL      198
REMARK 921   NORMALIZED FREE ENERGY PREDICTED BY IDOCK:   -2.22 KCAL/MOL
REMARK 922        TOTAL FREE ENERGY PREDICTED BY IDOCK:   -2.93 KCAL/MOL
REMARK 923 INTER-LIGAND FREE ENERGY PREDICTED BY IDOCK:   -2.71 KCAL/MOL
REMARK 924 INTRA-LIGAND FREE ENERGY PREDICTED BY IDOCK:   -0.22 KCAL/MOL
REMARK 927      BINDING AFFINITY PREDICTED BY RF-SCORE:    0.00 PKD
ROOT
HETATM    1  O   UNL     1      -9.509   6.350  73.751  1.00  0.00    -0.140 OA 
HETATM    2  H   UNL     1      -9.388   6.048  74.643  1.00  0.00     0.000 HD 
HETATM    3  C   UNL     1     -10.786   6.950  73.587  1.00  0.00    -0.274 C  
ENDROOT
BRANCH   3   4
HETATM    4  C   UNL     1     -10.981   7.437  72.149  1.00  0.00    -0.245 C  
HETATM    5  H   UNL     1     -10.707   9.112  71.160  1.00  0.00     0.000 HD 
HETATM    6  O   UNL     1     -10.586   8.810  72.052  1.00  0.00    -0.324 OA 
BRANCH   4   7
HETATM    7  C   UNL     1     -10.215   6.589  71.123  1.00  0.00    -0.192 C  
BRANCH   7   8
HETATM    8  O   UNL     1     -11.016   6.388  69.947  1.00  0.00    -0.278 OA 
BRANCH   8   9
HETATM    9  C   UNL     1     -10.419   6.707  68.754  1.00  0.00    -0.213 A  
HETATM   10  C   UNL     1     -10.761   6.176  67.506  1.00  0.00    -0.393 A  
HETATM   11  C   UNL     1     -10.082   6.577  66.353  1.00  0.00    -0.061 A  
HETATM   12  C   UNL     1      -9.058   7.513  66.441  1.00  0.00    -0.173 A  
HETATM   13  C   UNL     1      -8.704   8.052  67.676  1.00  0.00    -0.126 A  
HETATM   14 CL   UNL     1      -8.227   8.007  65.019  1.00  0.00    -0.148 Cl 
HETATM   15  C   UNL     1      -9.385   7.646  68.831  1.00  0.00    -0.145 A  
ENDBRANCH   8   9
ENDBRANCH   7   8
ENDBRANCH   4   7
ENDBRANCH   3   4
TORSDOF 4
ENDMDL
MODEL      199
REMARK 921   NORMALIZED FREE ENERGY PREDICTED BY IDOCK:   -2.20 KCAL/MOL
REMARK 922        TOTAL FREE ENERGY PREDICTED BY IDOCK:   -2.91 KCAL/MOL
REMARK 923 INTER-LIGAND FREE ENERGY PREDICTED BY IDOCK:   -2.73 KCAL/MOL
REMARK 924 INTRA-LIGAND FREE ENERGY PREDICTED BY IDOCK:   -0.18 KCAL/MOL
REMARK 927      BINDING AFFINITY PREDICTED BY RF-SCORE:    0.00 PKD
ROOT
HETATM    1  O   UNL     1      -9.905   9.395  70.715  1.00  0.00    -0.264 OA 
HETATM    2  H   UNL     1      -9.938  10.304  70.442  1.00  0.00     0.000 HD 
HETATM    3  C   UNL     1     -11.204   8.820  70.724  1.00  0.00    -0.266 C  
ENDROOT
BRANCH   3   4
HETATM    4  C   UNL     1     -11.150   7.355  71.165  1.00  0.00    -0.252 C  
HETATM    5  H   UNL     1     -11.969   6.258  72.574  1.00  0.00     0.000 HD 
HETATM    6  O   UNL     1     -12.002   7.167  72.300  1.00  0.00    -0.280 OA 
BRANCH   4   7
HETATM    7  C   UNL     1     -11.534   6.380  70.042  1.00  0.00    -0.428 C  
BRANCH   7   8
HETATM    8  O   UNL     1     -10.562   5.327  69.944  1.00  0.00    -0.306 OA 
BRANCH   8   9
HETATM    9  C   UNL     1      -9.903   5.230  68.744  1.00  0.00    -0.161 A  
HETATM   10  C   UNL     1      -8.529   5.023  68.585  1.00  0.00    -0.087 A  
HETATM   11  C   UNL     1      -7.966   4.939  67.310  1.00  0.00    -0.095 A  
HETATM   12  C   UNL     1      -8.775   5.060  66.185  1.00  0.00    -0.120 A  
HETATM   13  C   UNL     1     -10.145   5.267  66.326  1.00  0.00    -0.239 A  
HETATM   14 CL   UNL     1      -8.077   4.953  64.617  1.00  0.00    -0.105 Cl 
HETATM   15  C   UNL     1     -10.706   5.353  67.606  1.00  0.00    -0.125 A  
ENDBRANCH   8   9
ENDBRANCH   7   8
ENDBRANCH   4   7
ENDBRANCH   3   4
TORSDOF 4
ENDMDL
MODEL      200
REMARK 921   NORMALIZED FREE ENERGY PREDICTED BY IDOCK:   -2.17 KCAL/MOL
REMARK 922        TOTAL FREE ENERGY PREDICTED BY IDOCK:   -2.86 KCAL/MOL
REMARK 923 INTER-LIGAND FREE ENERGY PREDICTED BY IDOCK:   -2.44 KCAL/MOL
REMARK 924 INTRA-LIGAND FREE ENERGY PREDICTED BY IDOCK:   -0.43 KCAL/MOL
REMARK 927      BINDING AFFINITY PREDICTED BY RF-SCORE:    0.00 PKD
ROOT
HETATM    1  O   UNL     1      -8.093   7.477  69.824  1.00  0.00    -0.121 OA 
HETATM    2  H   UNL     1      -8.305   7.619  70.739  1.00  0.00     0.000 HD 
HETATM    3  C   UNL     1      -9.269   7.258  69.058  1.00  0.00    -0.139 C  
ENDROOT
BRANCH   3   4
HETATM    4  C   UNL     1      -8.928   7.030  67.584  1.00  0.00    -0.117 C  
HETATM    5  H   UNL     1      -9.720   6.063  66.068  1.00  0.00     0.000 HD 
HETATM    6  O   UNL     1      -9.932   6.205  66.983  1.00  0.00    -0.139 OA 
BRANCH   4   7
HETATM    7  C   UNL     1      -8.773   8.339  66.797  1.00  0.00    -0.133 C  
BRANCH   7   8
HETATM    8  O   UNL     1      -8.471   9.424  67.689  1.00  0.00    -0.118 OA 
BRANCH   8   9
HETATM    9  C   UNL     1      -9.115  10.607  67.433  1.00  0.00    -0.139 A  
HETATM   10  C   UNL     1     -10.466  10.742  67.094  1.00  0.00    -0.285 A  
HETATM   11  C   UNL     1     -11.017  12.003  66.856  1.00  0.00    -0.328 A  
HETATM   12  C   UNL     1     -10.220  13.138  66.958  1.00  0.00    -0.250 A  
HETATM   13  C   UNL     1      -8.874  13.022  67.295  1.00  0.00    -0.208 A  
HETATM   14 CL   UNL     1     -10.903  14.690  66.667  1.00  0.00    -0.306 Cl 
HETATM   15  C   UNL     1      -8.323  11.756  67.531  1.00  0.00    -0.154 A  
ENDBRANCH   8   9
ENDBRANCH   7   8
ENDBRANCH   4   7
ENDBRANCH   3   4
TORSDOF 4
ENDMDL
MODEL      201
REMARK 921   NORMALIZED FREE ENERGY PREDICTED BY IDOCK:   -2.16 KCAL/MOL
REMARK 922        TOTAL FREE ENERGY PREDICTED BY IDOCK:   -2.86 KCAL/MOL
REMARK 923 INTER-LIGAND FREE ENERGY PREDICTED BY IDOCK:   -2.67 KCAL/MOL
REMARK 924 INTRA-LIGAND FREE ENERGY PREDICTED BY IDOCK:   -0.19 KCAL/MOL
REMARK 927      BINDING AFFINITY PREDICTED BY RF-SCORE:    0.00 PKD
ROOT
HETATM    1  O   UNL     1     -14.031   8.067  71.017  1.00  0.00    -0.600 OA 
HETATM    2  H   UNL     1     -14.786   8.615  71.195  1.00  0.00     0.000 HD 
HETATM    3  C   UNL     1     -12.855   8.621  71.590  1.00  0.00    -0.345 C  
ENDROOT
BRANCH   3   4
HETATM    4  C   UNL     1     -11.639   7.736  71.304  1.00  0.00    -0.277 C  
HETATM    5  H   UNL     1      -9.823   7.991  70.599  1.00  0.00     0.000 HD 
HETATM    6  O   UNL     1     -10.577   8.540  70.777  1.00  0.00    -0.197 OA 
BRANCH   4   7
HETATM    7  C   UNL     1     -11.158   6.963  72.541  1.00  0.00    -0.266 C  
BRANCH   7   8
HETATM    8  O   UNL     1     -11.092   5.557  72.254  1.00  0.00    -0.250 OA 
BRANCH   8   9
HETATM    9  C   UNL     1      -9.832   5.032  72.122  1.00  0.00    -0.170 A  
HETATM   10  C   UNL     1      -9.533   3.724  71.727  1.00  0.00    -0.214 A  
HETATM   11  C   UNL     1      -8.207   3.297  71.625  1.00  0.00    -0.066 A  
HETATM   12  C   UNL     1      -7.171   4.178  71.916  1.00  0.00    -0.058 A  
HETATM   13  C   UNL     1      -7.451   5.484  72.311  1.00  0.00    -0.096 A  
HETATM   14 CL   UNL     1      -5.539   3.650  71.785  1.00  0.00    -0.008 Cl 
HETATM   15  C   UNL     1      -8.781   5.908  72.415  1.00  0.00    -0.127 A  
ENDBRANCH   8   9
ENDBRANCH   7   8
ENDBRANCH   4   7
ENDBRANCH   3   4
TORSDOF 4
ENDMDL
MODEL      202
REMARK 921   NORMALIZED FREE ENERGY PREDICTED BY IDOCK:   -2.12 KCAL/MOL
REMARK 922        TOTAL FREE ENERGY PREDICTED BY IDOCK:   -2.80 KCAL/MOL
REMARK 923 INTER-LIGAND FREE ENERGY PREDICTED BY IDOCK:   -2.68 KCAL/MOL
REMARK 924 INTRA-LIGAND FREE ENERGY PREDICTED BY IDOCK:   -0.12 KCAL/MOL
REMARK 927      BINDING AFFINITY PREDICTED BY RF-SCORE:    0.00 PKD
ROOT
HETATM    1  O   UNL     1      -7.913   5.812  74.447  1.00  0.00    -0.104 OA 
HETATM    2  H   UNL     1      -7.740   5.385  75.278  1.00  0.00     0.000 HD 
HETATM    3  C   UNL     1      -9.030   5.223  73.796  1.00  0.00    -0.123 C  
ENDROOT
BRANCH   3   4
HETATM    4  C   UNL     1      -9.308   5.912  72.458  1.00  0.00    -0.141 C  
HETATM    5  H   UNL     1      -9.534   5.357  70.587  1.00  0.00     0.000 HD 
HETATM    6  O   UNL     1      -9.362   4.930  71.417  1.00  0.00    -0.141 OA 
BRANCH   4   7
HETATM    7  C   UNL     1     -10.599   6.744  72.472  1.00  0.00    -0.221 C  
BRANCH   7   8
HETATM    8  O   UNL     1     -10.290   8.139  72.619  1.00  0.00    -0.295 OA 
BRANCH   8   9
HETATM    9  C   UNL     1      -9.880   8.785  71.481  1.00  0.00    -0.301 A  
HETATM   10  C   UNL     1      -8.551   9.008  71.106  1.00  0.00    -0.250 A  
HETATM   11  C   UNL     1      -8.250   9.679  69.919  1.00  0.00    -0.184 A  
HETATM   12  C   UNL     1      -9.278  10.128  69.097  1.00  0.00    -0.197 A  
HETATM   13  C   UNL     1     -10.606   9.914  69.455  1.00  0.00    -0.250 A  
HETATM   14 CL   UNL     1      -8.903  10.950  67.633  1.00  0.00    -0.133 Cl 
HETATM   15  C   UNL     1     -10.905   9.243  70.647  1.00  0.00    -0.339 A  
ENDBRANCH   8   9
ENDBRANCH   7   8
ENDBRANCH   4   7
ENDBRANCH   3   4
TORSDOF 4
ENDMDL
MODEL      203
REMARK 921   NORMALIZED FREE ENERGY PREDICTED BY IDOCK:   -2.11 KCAL/MOL
REMARK 922        TOTAL FREE ENERGY PREDICTED BY IDOCK:   -2.79 KCAL/MOL
REMARK 923 INTER-LIGAND FREE ENERGY PREDICTED BY IDOCK:   -2.62 KCAL/MOL
REMARK 924 INTRA-LIGAND FREE ENERGY PREDICTED BY IDOCK:   -0.17 KCAL/MOL
REMARK 927      BINDING AFFINITY PREDICTED BY RF-SCORE:    0.00 PKD
ROOT
HETATM    1  O   UNL     1      -6.635   4.954  69.943  1.00  0.00    -0.034 OA 
HETATM    2  H   UNL     1      -6.579   4.013  70.055  1.00  0.00     0.000 HD 
HETATM    3  C   UNL     1      -7.989   5.376  69.856  1.00  0.00    -0.081 C  
ENDROOT
BRANCH   3   4
HETATM    4  C   UNL     1      -8.079   6.893  69.677  1.00  0.00    -0.126 C  
HETATM    5  H   UNL     1      -6.891   8.330  69.058  1.00  0.00     0.000 HD 
HETATM    6  O   UNL     1      -6.836   7.389  69.169  1.00  0.00    -0.057 OA 
BRANCH   4   7
HETATM    7  C   UNL     1      -9.236   7.318  68.761  1.00  0.00    -0.137 C  
BRANCH   7   8
HETATM    8  O   UNL     1      -8.741   8.109  67.668  1.00  0.00    -0.129 OA 
BRANCH   8   9
HETATM    9  C   UNL     1      -9.512   9.185  67.310  1.00  0.00    -0.148 A  
HETATM   10  C   UNL     1     -10.497   9.780  68.105  1.00  0.00    -0.258 A  
HETATM   11  C   UNL     1     -11.222  10.878  67.635  1.00  0.00    -0.379 A  
HETATM   12  C   UNL     1     -10.963  11.389  66.368  1.00  0.00    -0.260 A  
HETATM   13  C   UNL     1      -9.985  10.809  65.564  1.00  0.00    -0.321 A  
HETATM   14 CL   UNL     1     -11.855  12.744  65.795  1.00  0.00    -0.458 Cl 
HETATM   15  C   UNL     1      -9.262   9.706  66.036  1.00  0.00    -0.232 A  
ENDBRANCH   8   9
ENDBRANCH   7   8
ENDBRANCH   4   7
ENDBRANCH   3   4
TORSDOF 4
ENDMDL
MODEL      204
REMARK 921   NORMALIZED FREE ENERGY PREDICTED BY IDOCK:   -2.09 KCAL/MOL
REMARK 922        TOTAL FREE ENERGY PREDICTED BY IDOCK:   -2.77 KCAL/MOL
REMARK 923 INTER-LIGAND FREE ENERGY PREDICTED BY IDOCK:   -2.60 KCAL/MOL
REMARK 924 INTRA-LIGAND FREE ENERGY PREDICTED BY IDOCK:   -0.16 KCAL/MOL
REMARK 927      BINDING AFFINITY PREDICTED BY RF-SCORE:    0.00 PKD
ROOT
HETATM    1  O   UNL     1      -8.285   4.093  64.148  1.00  0.00    -0.089 OA 
HETATM    2  H   UNL     1      -7.798   3.318  63.893  1.00  0.00     0.000 HD 
HETATM    3  C   UNL     1      -8.710   4.004  65.501  1.00  0.00    -0.119 C  
ENDROOT
BRANCH   3   4
HETATM    4  C   UNL     1      -9.493   5.254  65.911  1.00  0.00    -0.142 C  
HETATM    5  H   UNL     1     -11.317   5.660  66.515  1.00  0.00     0.000 HD 
HETATM    6  O   UNL     1     -10.831   4.885  66.261  1.00  0.00    -0.259 OA 
BRANCH   4   7
HETATM    7  C   UNL     1      -8.832   6.020  67.066  1.00  0.00    -0.113 C  
BRANCH   7   8
HETATM    8  O   UNL     1      -9.799   6.309  68.089  1.00  0.00    -0.124 OA 
BRANCH   8   9
HETATM    9  C   UNL     1     -10.000   7.637  68.365  1.00  0.00    -0.176 A  
HETATM   10  C   UNL     1      -9.866   8.236  69.622  1.00  0.00    -0.184 A  
HETATM   11  C   UNL     1     -10.096   9.605  69.785  1.00  0.00    -0.258 A  
HETATM   12  C   UNL     1     -10.457  10.383  68.691  1.00  0.00    -0.196 A  
HETATM   13  C   UNL     1     -10.594   9.802  67.432  1.00  0.00    -0.330 A  
HETATM   14 CL   UNL     1     -10.734  12.068  68.896  1.00  0.00    -0.241 Cl 
HETATM   15  C   UNL     1     -10.366   8.430  67.272  1.00  0.00    -0.369 A  
ENDBRANCH   8   9
ENDBRANCH   7   8
ENDBRANCH   4   7
ENDBRANCH   3   4
TORSDOF 4
ENDMDL
MODEL      205
REMARK 921   NORMALIZED FREE ENERGY PREDICTED BY IDOCK:   -2.04 KCAL/MOL
REMARK 922        TOTAL FREE ENERGY PREDICTED BY IDOCK:   -2.71 KCAL/MOL
REMARK 923 INTER-LIGAND FREE ENERGY PREDICTED BY IDOCK:   -2.27 KCAL/MOL
REMARK 924 INTRA-LIGAND FREE ENERGY PREDICTED BY IDOCK:   -0.44 KCAL/MOL
REMARK 927      BINDING AFFINITY PREDICTED BY RF-SCORE:    0.00 PKD
ROOT
HETATM    1  O   UNL     1     -12.246  12.139  68.674  1.00  0.00    -0.254 OA 
HETATM    2  H   UNL     1     -12.938  12.206  68.027  1.00  0.00     0.000 HD 
HETATM    3  C   UNL     1     -12.090  10.798  69.114  1.00  0.00    -0.156 C  
ENDROOT
BRANCH   3   4
HETATM    4  C   UNL     1     -10.974  10.690  70.156  1.00  0.00    -0.222 C  
HETATM    5  H   UNL     1     -10.713   9.780  71.877  1.00  0.00     0.000 HD 
HETATM    6  O   UNL     1     -11.405   9.847  71.231  1.00  0.00    -0.368 OA 
BRANCH   4   7
HETATM    7  C   UNL     1      -9.655  10.170  69.567  1.00  0.00    -0.221 C  
BRANCH   7   8
HETATM    8  O   UNL     1      -9.357  10.851  68.337  1.00  0.00    -0.157 OA 
BRANCH   8   9
HETATM    9  C   UNL     1      -8.472  11.894  68.430  1.00  0.00    -0.155 A  
HETATM   10  C   UNL     1      -7.128  11.791  68.805  1.00  0.00    -0.111 A  
HETATM   11  C   UNL     1      -6.317  12.926  68.863  1.00  0.00    -0.090 A  
HETATM   12  C   UNL     1      -6.844  14.172  68.543  1.00  0.00    -0.102 A  
HETATM   13  C   UNL     1      -8.180  14.293  68.167  1.00  0.00    -0.146 A  
HETATM   14 CL   UNL     1      -5.841  15.568  68.613  1.00  0.00    -0.096 Cl 
HETATM   15  C   UNL     1      -8.992  13.154  68.112  1.00  0.00    -0.195 A  
ENDBRANCH   8   9
ENDBRANCH   7   8
ENDBRANCH   4   7
ENDBRANCH   3   4
TORSDOF 4
ENDMDL
MODEL      206
REMARK 921   NORMALIZED FREE ENERGY PREDICTED BY IDOCK:   -2.03 KCAL/MOL
REMARK 922        TOTAL FREE ENERGY PREDICTED BY IDOCK:   -2.69 KCAL/MOL
REMARK 923 INTER-LIGAND FREE ENERGY PREDICTED BY IDOCK:   -2.32 KCAL/MOL
REMARK 924 INTRA-LIGAND FREE ENERGY PREDICTED BY IDOCK:   -0.37 KCAL/MOL
REMARK 927      BINDING AFFINITY PREDICTED BY RF-SCORE:    0.00 PKD
ROOT
HETATM    1  O   UNL     1     -12.237  12.146  68.660  1.00  0.00    -0.254 OA 
HETATM    2  H   UNL     1     -12.989  12.243  68.089  1.00  0.00     0.000 HD 
HETATM    3  C   UNL     1     -12.066  10.791  69.052  1.00  0.00    -0.098 C  
ENDROOT
BRANCH   3   4
HETATM    4  C   UNL     1     -10.853  10.636  69.972  1.00  0.00    -0.217 C  
HETATM    5  H   UNL     1     -10.420   9.638  71.608  1.00  0.00     0.000 HD 
HETATM    6  O   UNL     1     -11.173   9.734  71.037  1.00  0.00    -0.330 OA 
BRANCH   4   7
HETATM    7  C   UNL     1      -9.597  10.157  69.228  1.00  0.00    -0.225 C  
BRANCH   7   8
HETATM    8  O   UNL     1      -9.418  10.912  68.019  1.00  0.00    -0.156 OA 
BRANCH   8   9
HETATM    9  C   UNL     1      -8.857  10.234  66.967  1.00  0.00    -0.136 A  
HETATM   10  C   UNL     1      -9.235   8.961  66.526  1.00  0.00    -0.231 A  
HETATM   11  C   UNL     1      -8.592   8.366  65.438  1.00  0.00    -0.193 A  
HETATM   12  C   UNL     1      -7.568   9.041  64.783  1.00  0.00    -0.105 A  
HETATM   13  C   UNL     1      -7.179  10.309  65.209  1.00  0.00    -0.134 A  
HETATM   14 CL   UNL     1      -6.781   8.306  63.442  1.00  0.00    -0.084 Cl 
HETATM   15  C   UNL     1      -7.824  10.902  66.302  1.00  0.00    -0.158 A  
ENDBRANCH   8   9
ENDBRANCH   7   8
ENDBRANCH   4   7
ENDBRANCH   3   4
TORSDOF 4
ENDMDL
MODEL      207
REMARK 921   NORMALIZED FREE ENERGY PREDICTED BY IDOCK:   -1.98 KCAL/MOL
REMARK 922        TOTAL FREE ENERGY PREDICTED BY IDOCK:   -2.63 KCAL/MOL
REMARK 923 INTER-LIGAND FREE ENERGY PREDICTED BY IDOCK:   -2.46 KCAL/MOL
REMARK 924 INTRA-LIGAND FREE ENERGY PREDICTED BY IDOCK:   -0.17 KCAL/MOL
REMARK 927      BINDING AFFINITY PREDICTED BY RF-SCORE:    0.00 PKD
ROOT
HETATM    1  O   UNL     1      -6.155   6.916  67.795  1.00  0.00    -0.030 OA 
HETATM    2  H   UNL     1      -5.219   7.018  67.915  1.00  0.00     0.000 HD 
HETATM    3  C   UNL     1      -6.498   5.549  67.618  1.00  0.00    -0.051 C  
ENDROOT
BRANCH   3   4
HETATM    4  C   UNL     1      -8.008   5.384  67.425  1.00  0.00    -0.101 C  
HETATM    5  H   UNL     1      -9.247   3.904  67.061  1.00  0.00     0.000 HD 
HETATM    6  O   UNL     1      -8.310   4.006  67.182  1.00  0.00    -0.099 OA 
BRANCH   4   7
HETATM    7  C   UNL     1      -8.823   5.907  68.617  1.00  0.00    -0.111 C  
BRANCH   7   8
HETATM    8  O   UNL     1     -10.124   6.332  68.181  1.00  0.00    -0.134 OA 
BRANCH   8   9
HETATM    9  C   UNL     1     -10.405   7.664  68.345  1.00  0.00    -0.194 A  
HETATM   10  C   UNL     1     -10.536   8.601  67.314  1.00  0.00    -0.360 A  
HETATM   11  C   UNL     1     -10.826   9.937  67.600  1.00  0.00    -0.318 A  
HETATM   12  C   UNL     1     -10.990  10.344  68.919  1.00  0.00    -0.245 A  
HETATM   13  C   UNL     1     -10.863   9.425  69.957  1.00  0.00    -0.271 A  
HETATM   14 CL   UNL     1     -11.351  11.989  69.266  1.00  0.00    -0.323 Cl 
HETATM   15  C   UNL     1     -10.570   8.086  69.668  1.00  0.00    -0.223 A  
ENDBRANCH   8   9
ENDBRANCH   7   8
ENDBRANCH   4   7
ENDBRANCH   3   4
TORSDOF 4
ENDMDL
MODEL      208
REMARK 921   NORMALIZED FREE ENERGY PREDICTED BY IDOCK:   -1.96 KCAL/MOL
REMARK 922        TOTAL FREE ENERGY PREDICTED BY IDOCK:   -2.61 KCAL/MOL
REMARK 923 INTER-LIGAND FREE ENERGY PREDICTED BY IDOCK:   -2.54 KCAL/MOL
REMARK 924 INTRA-LIGAND FREE ENERGY PREDICTED BY IDOCK:   -0.08 KCAL/MOL
REMARK 927      BINDING AFFINITY PREDICTED BY RF-SCORE:    0.00 PKD
ROOT
HETATM    1  O   UNL     1      -7.837   9.934  69.132  1.00  0.00    -0.089 OA 
HETATM    2  H   UNL     1      -8.014  10.576  68.456  1.00  0.00     0.000 HD 
HETATM    3  C   UNL     1      -8.950   9.794  70.004  1.00  0.00    -0.222 C  
ENDROOT
BRANCH   3   4
HETATM    4  C   UNL     1      -8.664   8.758  71.094  1.00  0.00    -0.212 C  
HETATM    5  H   UNL     1      -7.327   8.509  72.510  1.00  0.00     0.000 HD 
HETATM    6  O   UNL     1      -7.504   9.151  71.834  1.00  0.00    -0.338 OA 
BRANCH   4   7
HETATM    7  C   UNL     1      -9.854   8.544  72.040  1.00  0.00    -0.312 C  
BRANCH   7   8
HETATM    8  O   UNL     1     -10.707   7.501  71.540  1.00  0.00    -0.218 OA 
BRANCH   8   9
HETATM    9  C   UNL     1     -10.206   6.227  71.621  1.00  0.00    -0.194 A  
HETATM   10  C   UNL     1     -10.402   5.214  70.677  1.00  0.00    -0.305 A  
HETATM   11  C   UNL     1      -9.840   3.949  70.864  1.00  0.00    -0.213 A  
HETATM   12  C   UNL     1      -9.076   3.691  71.996  1.00  0.00    -0.108 A  
HETATM   13  C   UNL     1      -8.871   4.688  72.947  1.00  0.00    -0.118 A  
HETATM   14 CL   UNL     1      -8.383   2.132  72.221  1.00  0.00    -0.054 Cl 
HETATM   15  C   UNL     1      -9.437   5.954  72.758  1.00  0.00    -0.153 A  
ENDBRANCH   8   9
ENDBRANCH   7   8
ENDBRANCH   4   7
ENDBRANCH   3   4
TORSDOF 4
ENDMDL
MODEL      209
REMARK 921   NORMALIZED FREE ENERGY PREDICTED BY IDOCK:   -1.94 KCAL/MOL
REMARK 922        TOTAL FREE ENERGY PREDICTED BY IDOCK:   -2.59 KCAL/MOL
REMARK 923 INTER-LIGAND FREE ENERGY PREDICTED BY IDOCK:   -2.49 KCAL/MOL
REMARK 924 INTRA-LIGAND FREE ENERGY PREDICTED BY IDOCK:   -0.10 KCAL/MOL
REMARK 927      BINDING AFFINITY PREDICTED BY RF-SCORE:    0.00 PKD
ROOT
HETATM    1  O   UNL     1      -7.318   3.091  64.698  1.00  0.00    -0.067 OA 
HETATM    2  H   UNL     1      -6.943   2.275  65.007  1.00  0.00     0.000 HD 
HETATM    3  C   UNL     1      -7.805   3.870  65.782  1.00  0.00    -0.090 C  
ENDROOT
BRANCH   3   4
HETATM    4  C   UNL     1      -8.410   5.184  65.282  1.00  0.00    -0.139 C  
HETATM    5  H   UNL     1     -10.171   6.053  65.329  1.00  0.00     0.000 HD 
HETATM    6  O   UNL     1      -9.795   5.238  65.638  1.00  0.00    -0.094 OA 
BRANCH   4   7
HETATM    7  C   UNL     1      -7.674   6.421  65.818  1.00  0.00    -0.092 C  
BRANCH   7   8
HETATM    8  O   UNL     1      -8.586   7.274  66.528  1.00  0.00    -0.121 OA 
BRANCH   8   9
HETATM    9  C   UNL     1      -9.006   8.393  65.856  1.00  0.00    -0.178 A  
HETATM   10  C   UNL     1      -8.590   8.778  64.577  1.00  0.00    -0.125 A  
HETATM   11  C   UNL     1      -9.089   9.943  63.988  1.00  0.00    -0.300 A  
HETATM   12  C   UNL     1     -10.008  10.728  64.674  1.00  0.00    -0.324 A  
HETATM   13  C   UNL     1     -10.432  10.360  65.948  1.00  0.00    -0.196 A  
HETATM   14 CL   UNL     1     -10.622  12.159  63.943  1.00  0.00    -0.405 Cl 
HETATM   15  C   UNL     1      -9.929   9.193  66.538  1.00  0.00    -0.359 A  
ENDBRANCH   8   9
ENDBRANCH   7   8
ENDBRANCH   4   7
ENDBRANCH   3   4
TORSDOF 4
ENDMDL
MODEL      210
REMARK 921   NORMALIZED FREE ENERGY PREDICTED BY IDOCK:   -1.94 KCAL/MOL
REMARK 922        TOTAL FREE ENERGY PREDICTED BY IDOCK:   -2.58 KCAL/MOL
REMARK 923 INTER-LIGAND FREE ENERGY PREDICTED BY IDOCK:   -2.37 KCAL/MOL
REMARK 924 INTRA-LIGAND FREE ENERGY PREDICTED BY IDOCK:   -0.21 KCAL/MOL
REMARK 927      BINDING AFFINITY PREDICTED BY RF-SCORE:    0.00 PKD
ROOT
HETATM    1  O   UNL     1      -7.631   3.516  65.357  1.00  0.00    -0.076 OA 
HETATM    2  H   UNL     1      -7.502   2.580  65.260  1.00  0.00     0.000 HD 
HETATM    3  C   UNL     1      -8.215   3.820  66.615  1.00  0.00    -0.096 C  
ENDROOT
BRANCH   3   4
HETATM    4  C   UNL     1      -8.422   5.329  66.772  1.00  0.00    -0.107 C  
HETATM    5  H   UNL     1      -9.932   6.581  66.662  1.00  0.00     0.000 HD 
HETATM    6  O   UNL     1      -9.803   5.645  66.565  1.00  0.00    -0.152 OA 
BRANCH   4   7
HETATM    7  C   UNL     1      -7.953   5.857  68.135  1.00  0.00    -0.109 C  
BRANCH   7   8
HETATM    8  O   UNL     1      -9.017   6.572  68.785  1.00  0.00    -0.125 OA 
BRANCH   8   9
HETATM    9  C   UNL     1      -9.476   6.027  69.957  1.00  0.00    -0.156 A  
HETATM   10  C   UNL     1      -8.858   4.995  70.671  1.00  0.00    -0.152 A  
HETATM   11  C   UNL     1      -9.417   4.519  71.859  1.00  0.00    -0.201 A  
HETATM   12  C   UNL     1     -10.597   5.075  72.341  1.00  0.00    -0.215 A  
HETATM   13  C   UNL     1     -11.225   6.103  71.643  1.00  0.00    -0.342 A  
HETATM   14 CL   UNL     1     -11.281   4.488  73.807  1.00  0.00    -0.329 Cl 
HETATM   15  C   UNL     1     -10.664   6.577  70.451  1.00  0.00    -0.306 A  
ENDBRANCH   8   9
ENDBRANCH   7   8
ENDBRANCH   4   7
ENDBRANCH   3   4
TORSDOF 4
ENDMDL
MODEL      211
REMARK 921   NORMALIZED FREE ENERGY PREDICTED BY IDOCK:   -1.90 KCAL/MOL
REMARK 922        TOTAL FREE ENERGY PREDICTED BY IDOCK:   -2.54 KCAL/MOL
REMARK 923 INTER-LIGAND FREE ENERGY PREDICTED BY IDOCK:   -2.34 KCAL/MOL
REMARK 924 INTRA-LIGAND FREE ENERGY PREDICTED BY IDOCK:   -0.20 KCAL/MOL
REMARK 927      BINDING AFFINITY PREDICTED BY RF-SCORE:    0.00 PKD
ROOT
HETATM    1  O   UNL     1     -11.860   6.923  69.927  1.00  0.00    -0.602 OA 
HETATM    2  H   UNL     1     -12.539   6.301  70.160  1.00  0.00     0.000 HD 
HETATM    3  C   UNL     1     -11.066   6.431  68.857  1.00  0.00    -0.348 C  
ENDROOT
BRANCH   3   4
HETATM    4  C   UNL     1      -9.973   7.433  68.480  1.00  0.00    -0.165 C  
HETATM    5  H   UNL     1      -9.280   9.126  69.198  1.00  0.00     0.000 HD 
HETATM    6  O   UNL     1      -9.958   8.503  69.431  1.00  0.00    -0.185 OA 
BRANCH   4   7
HETATM    7  C   UNL     1      -8.582   6.791  68.379  1.00  0.00    -0.125 C  
BRANCH   7   8
HETATM    8  O   UNL     1      -8.214   6.615  67.001  1.00  0.00    -0.111 OA 
BRANCH   8   9
HETATM    9  C   UNL     1      -8.474   5.379  66.465  1.00  0.00    -0.113 A  
HETATM   10  C   UNL     1      -7.800   4.196  66.783  1.00  0.00    -0.097 A  
HETATM   11  C   UNL     1      -8.154   2.990  66.173  1.00  0.00    -0.086 A  
HETATM   12  C   UNL     1      -9.187   2.961  65.242  1.00  0.00    -0.139 A  
HETATM   13  C   UNL     1      -9.869   4.130  64.915  1.00  0.00    -0.202 A  
HETATM   14 CL   UNL     1      -9.621   1.474  64.496  1.00  0.00    -0.111 Cl 
HETATM   15  C   UNL     1      -9.510   5.338  65.526  1.00  0.00    -0.055 A  
ENDBRANCH   8   9
ENDBRANCH   7   8
ENDBRANCH   4   7
ENDBRANCH   3   4
TORSDOF 4
ENDMDL
MODEL      212
REMARK 921   NORMALIZED FREE ENERGY PREDICTED BY IDOCK:   -1.79 KCAL/MOL
REMARK 922        TOTAL FREE ENERGY PREDICTED BY IDOCK:   -2.40 KCAL/MOL
REMARK 923 INTER-LIGAND FREE ENERGY PREDICTED BY IDOCK:   -2.24 KCAL/MOL
REMARK 924 INTRA-LIGAND FREE ENERGY PREDICTED BY IDOCK:   -0.16 KCAL/MOL
REMARK 927      BINDING AFFINITY PREDICTED BY RF-SCORE:    0.00 PKD
ROOT
HETATM    1  O   UNL     1      -5.233   5.937  67.436  1.00  0.00    -0.004 OA 
HETATM    2  H   UNL     1      -4.700   6.142  66.678  1.00  0.00     0.000 HD 
HETATM    3  C   UNL     1      -6.552   5.578  67.047  1.00  0.00    -0.056 C  
ENDROOT
BRANCH   3   4
HETATM    4  C   UNL     1      -7.411   5.247  68.270  1.00  0.00    -0.076 C  
HETATM    5  H   UNL     1      -7.525   3.789  69.581  1.00  0.00     0.000 HD 
HETATM    6  O   UNL     1      -6.992   3.994  68.823  1.00  0.00    -0.046 OA 
BRANCH   4   7
HETATM    7  C   UNL     1      -7.370   6.344  69.343  1.00  0.00    -0.092 C  
BRANCH   7   8
HETATM    8  O   UNL     1      -8.537   6.267  70.178  1.00  0.00    -0.131 OA 
BRANCH   8   9
HETATM    9  C   UNL     1      -9.248   7.432  70.323  1.00  0.00    -0.154 A  
HETATM   10  C   UNL     1      -9.726   7.948  71.532  1.00  0.00    -0.201 A  
HETATM   11  C   UNL     1     -10.439   9.149  71.559  1.00  0.00    -0.422 A  
HETATM   12  C   UNL     1     -10.675   9.842  70.378  1.00  0.00    -0.318 A  
HETATM   13  C   UNL     1     -10.206   9.343  69.165  1.00  0.00    -0.209 A  
HETATM   14 CL   UNL     1     -11.550  11.322  70.417  1.00  0.00    -0.379 Cl 
HETATM   15  C   UNL     1      -9.493   8.137  69.140  1.00  0.00    -0.155 A  
ENDBRANCH   8   9
ENDBRANCH   7   8
ENDBRANCH   4   7
ENDBRANCH   3   4
TORSDOF 4
ENDMDL
MODEL      213
REMARK 921   NORMALIZED FREE ENERGY PREDICTED BY IDOCK:   -1.77 KCAL/MOL
REMARK 922        TOTAL FREE ENERGY PREDICTED BY IDOCK:   -2.38 KCAL/MOL
REMARK 923 INTER-LIGAND FREE ENERGY PREDICTED BY IDOCK:   -2.15 KCAL/MOL
REMARK 924 INTRA-LIGAND FREE ENERGY PREDICTED BY IDOCK:   -0.23 KCAL/MOL
REMARK 927      BINDING AFFINITY PREDICTED BY RF-SCORE:    0.00 PKD
ROOT
HETATM    1  O   UNL     1      -8.999   6.527  65.281  1.00  0.00    -0.366 OA 
HETATM    2  H   UNL     1      -8.329   6.783  64.659  1.00  0.00     0.000 HD 
HETATM    3  C   UNL     1      -9.133   5.113  65.331  1.00  0.00    -0.140 C  
ENDROOT
BRANCH   3   4
HETATM    4  C   UNL     1     -10.214   4.701  66.334  1.00  0.00    -0.260 C  
HETATM    5  H   UNL     1     -10.521   3.202  67.565  1.00  0.00     0.000 HD 
HETATM    6  O   UNL     1      -9.850   3.458  66.943  1.00  0.00    -0.059 OA 
BRANCH   4   7
HETATM    7  C   UNL     1     -10.468   5.767  67.409  1.00  0.00    -0.254 C  
BRANCH   7   8
HETATM    8  O   UNL     1     -10.534   5.158  68.708  1.00  0.00    -0.148 OA 
BRANCH   8   9
HETATM    9  C   UNL     1      -9.568   5.545  69.601  1.00  0.00    -0.158 A  
HETATM   10  C   UNL     1      -8.280   5.978  69.269  1.00  0.00    -0.115 A  
HETATM   11  C   UNL     1      -7.376   6.351  70.267  1.00  0.00    -0.089 A  
HETATM   12  C   UNL     1      -7.757   6.295  71.603  1.00  0.00    -0.100 A  
HETATM   13  C   UNL     1      -9.035   5.866  71.951  1.00  0.00    -0.139 A  
HETATM   14 CL   UNL     1      -6.642   6.758  72.828  1.00  0.00    -0.065 Cl 
HETATM   15  C   UNL     1      -9.939   5.491  70.949  1.00  0.00    -0.260 A  
ENDBRANCH   8   9
ENDBRANCH   7   8
ENDBRANCH   4   7
ENDBRANCH   3   4
TORSDOF 4
ENDMDL
MODEL      214
REMARK 921   NORMALIZED FREE ENERGY PREDICTED BY IDOCK:   -1.68 KCAL/MOL
REMARK 922        TOTAL FREE ENERGY PREDICTED BY IDOCK:   -2.26 KCAL/MOL
REMARK 923 INTER-LIGAND FREE ENERGY PREDICTED BY IDOCK:   -2.10 KCAL/MOL
REMARK 924 INTRA-LIGAND FREE ENERGY PREDICTED BY IDOCK:   -0.17 KCAL/MOL
REMARK 927      BINDING AFFINITY PREDICTED BY RF-SCORE:    0.00 PKD
ROOT
HETATM    1  O   UNL     1     -11.888   8.276  72.544  1.00  0.00    -0.387 OA 
HETATM    2  H   UNL     1     -12.489   8.213  73.277  1.00  0.00     0.000 HD 
HETATM    3  C   UNL     1     -12.277   9.314  71.656  1.00  0.00    -0.370 C  
ENDROOT
BRANCH   3   4
HETATM    4  C   UNL     1     -11.308   9.415  70.475  1.00  0.00    -0.274 C  
HETATM    5  H   UNL     1      -9.562  10.246  70.129  1.00  0.00     0.000 HD 
HETATM    6  O   UNL     1     -10.163  10.183  70.862  1.00  0.00     0.029 OA 
BRANCH   4   7
HETATM    7  C   UNL     1     -10.873   8.043  69.940  1.00  0.00    -0.217 C  
BRANCH   7   8
HETATM    8  O   UNL     1     -10.062   8.201  68.765  1.00  0.00    -0.189 OA 
BRANCH   8   9
HETATM    9  C   UNL     1      -9.125   7.223  68.548  1.00  0.00    -0.136 A  
HETATM   10  C   UNL     1      -7.764   7.439  68.308  1.00  0.00    -0.120 A  
HETATM   11  C   UNL     1      -6.899   6.362  68.102  1.00  0.00    -0.071 A  
HETATM   12  C   UNL     1      -7.391   5.061  68.136  1.00  0.00    -0.074 A  
HETATM   13  C   UNL     1      -8.743   4.829  68.374  1.00  0.00    -0.112 A  
HETATM   14 CL   UNL     1      -6.321   3.738  67.884  1.00  0.00    -0.036 Cl 
HETATM   15  C   UNL     1      -9.609   5.911  68.578  1.00  0.00    -0.142 A  
ENDBRANCH   8   9
ENDBRANCH   7   8
ENDBRANCH   4   7
ENDBRANCH   3   4
TORSDOF 4
ENDMDL
MODEL      215
REMARK 921   NORMALIZED FREE ENERGY PREDICTED BY IDOCK:   -1.68 KCAL/MOL
REMARK 922        TOTAL FREE ENERGY PREDICTED BY IDOCK:   -2.26 KCAL/MOL
REMARK 923 INTER-LIGAND FREE ENERGY PREDICTED BY IDOCK:   -2.12 KCAL/MOL
REMARK 924 INTRA-LIGAND FREE ENERGY PREDICTED BY IDOCK:   -0.15 KCAL/MOL
REMARK 927      BINDING AFFINITY PREDICTED BY RF-SCORE:    0.00 PKD
ROOT
HETATM    1  O   UNL     1      -9.501   8.654  72.978  1.00  0.00    -0.159 OA 
HETATM    2  H   UNL     1     -10.022   8.378  73.722  1.00  0.00     0.000 HD 
HETATM    3  C   UNL     1      -9.032   7.533  72.243  1.00  0.00    -0.133 C  
ENDROOT
BRANCH   3   4
HETATM    4  C   UNL     1      -8.192   7.977  71.043  1.00  0.00    -0.104 C  
HETATM    5  H   UNL     1      -6.579   9.060  70.753  1.00  0.00     0.000 HD 
HETATM    6  O   UNL     1      -7.100   8.784  71.497  1.00  0.00    -0.088 OA 
BRANCH   4   7
HETATM    7  C   UNL     1      -7.672   6.798  70.208  1.00  0.00    -0.101 C  
BRANCH   7   8
HETATM    8  O   UNL     1      -8.647   6.416  69.224  1.00  0.00    -0.124 OA 
BRANCH   8   9
HETATM    9  C   UNL     1      -8.923   7.352  68.261  1.00  0.00    -0.130 A  
HETATM   10  C   UNL     1     -10.116   8.075  68.148  1.00  0.00    -0.234 A  
HETATM   11  C   UNL     1     -10.286   9.009  67.123  1.00  0.00    -0.342 A  
HETATM   12  C   UNL     1      -9.264   9.226  66.206  1.00  0.00    -0.186 A  
HETATM   13  C   UNL     1      -8.071   8.515  66.304  1.00  0.00    -0.107 A  
HETATM   14 CL   UNL     1      -9.477  10.379  64.947  1.00  0.00    -0.290 Cl 
HETATM   15  C   UNL     1      -7.903   7.578  67.331  1.00  0.00    -0.118 A  
ENDBRANCH   8   9
ENDBRANCH   7   8
ENDBRANCH   4   7
ENDBRANCH   3   4
TORSDOF 4
ENDMDL
