MODEL        1
REMARK 921   NORMALIZED FREE ENERGY PREDICTED BY IDOCK:   -5.73 KCAL/MOL
REMARK 922        TOTAL FREE ENERGY PREDICTED BY IDOCK:   -8.45 KCAL/MOL
REMARK 923 INTER-LIGAND FREE ENERGY PREDICTED BY IDOCK:   -7.75 KCAL/MOL
REMARK 924 INTRA-LIGAND FREE ENERGY PREDICTED BY IDOCK:   -0.70 KCAL/MOL
REMARK 927      BINDING AFFINITY PREDICTED BY RF-SCORE:    0.00 PKD
ROOT
HETATM    1  C   UNL     1      -9.566  11.446  63.058  1.00  0.00    -0.397 C  
HETATM    2  C   UNL     1     -10.809  11.262  63.917  1.00  0.00    -0.427 C  
ENDROOT
BRANCH   2   3
HETATM    3  C   UNL     1     -12.009  12.043  63.386  1.00  0.00    -0.471 C  
BRANCH   3   4
HETATM    4  N   UNL     1     -12.827  12.612  64.439  1.00  0.00    -0.752 N  
HETATM    5  H   UNL     1     -13.541  12.038  64.887  1.00  0.00     0.000 HD 
BRANCH   4   6
HETATM    6  C   UNL     1     -12.656  13.905  64.838  1.00  0.00    -0.347 C  
HETATM    7  O   UNL     1     -12.584  14.845  64.066  1.00  0.00    -0.832 OA 
BRANCH   6   8
HETATM    8  N   UNL     1     -12.608  14.051  66.212  1.00  0.00    -0.489 N  
HETATM    9  H   UNL     1     -13.311  14.641  66.658  1.00  0.00     0.000 HD 
BRANCH   8  10
HETATM   10  S   UNL     1     -11.469  13.318  67.179  1.00  0.00    -0.361 S  
HETATM   11  O   UNL     1     -10.159  13.569  66.621  1.00  0.00    -0.264 OA 
HETATM   12  O   UNL     1     -11.942  11.964  67.382  1.00  0.00    -0.603 OA 
BRANCH  10  13
HETATM   13  C   UNL     1     -11.613  14.151  68.743  1.00  0.00    -0.327 A  
HETATM   14  C   UNL     1     -11.172  15.474  68.863  1.00  0.00    -0.306 A  
HETATM   15  C   UNL     1     -11.265  16.118  70.100  1.00  0.00    -0.374 A  
HETATM   16  C   UNL     1     -11.807  15.445  71.197  1.00  0.00    -0.371 A  
HETATM   17  C   UNL     1     -12.260  14.132  71.072  1.00  0.00    -0.432 A  
HETATM   18 CL   UNL     1     -11.914  16.243  72.718  1.00  0.00    -0.637 Cl 
HETATM   19  C   UNL     1     -12.164  13.479  69.840  1.00  0.00    -0.356 A  
ENDBRANCH  10  13
ENDBRANCH   8  10
ENDBRANCH   6   8
ENDBRANCH   4   6
ENDBRANCH   3   4
ENDBRANCH   2   3
TORSDOF 6
ENDMDL
MODEL        2
REMARK 921   NORMALIZED FREE ENERGY PREDICTED BY IDOCK:   -5.70 KCAL/MOL
REMARK 922        TOTAL FREE ENERGY PREDICTED BY IDOCK:   -8.40 KCAL/MOL
REMARK 923 INTER-LIGAND FREE ENERGY PREDICTED BY IDOCK:   -7.73 KCAL/MOL
REMARK 924 INTRA-LIGAND FREE ENERGY PREDICTED BY IDOCK:   -0.67 KCAL/MOL
REMARK 927      BINDING AFFINITY PREDICTED BY RF-SCORE:    0.00 PKD
ROOT
HETATM    1  C   UNL     1     -10.335  10.967  64.311  1.00  0.00    -0.430 C  
HETATM    2  C   UNL     1     -10.802  12.048  63.347  1.00  0.00    -0.471 C  
ENDROOT
BRANCH   2   3
HETATM    3  C   UNL     1     -12.199  12.567  63.680  1.00  0.00    -0.550 C  
BRANCH   3   4
HETATM    4  N   UNL     1     -12.372  13.972  63.370  1.00  0.00    -1.154 N  
HETATM    5  H   UNL     1     -12.659  14.249  62.432  1.00  0.00     0.000 HD 
BRANCH   4   6
HETATM    6  C   UNL     1     -12.157  14.930  64.318  1.00  0.00    -0.353 C  
HETATM    7  O   UNL     1     -11.944  16.101  64.057  1.00  0.00    -0.897 OA 
BRANCH   6   8
HETATM    8  N   UNL     1     -12.242  14.448  65.612  1.00  0.00    -0.372 N  
HETATM    9  H   UNL     1     -13.116  14.012  65.906  1.00  0.00     0.000 HD 
BRANCH   8  10
HETATM   10  S   UNL     1     -10.998  14.539  66.713  1.00  0.00    -0.323 S  
HETATM   11  O   UNL     1     -10.965  15.876  67.263  1.00  0.00    -0.310 OA 
HETATM   12  O   UNL     1      -9.840  13.985  66.041  1.00  0.00    -0.300 OA 
BRANCH  10  13
HETATM   13  C   UNL     1     -11.450  13.387  67.989  1.00  0.00    -0.304 A  
HETATM   14  C   UNL     1     -11.504  12.019  67.696  1.00  0.00    -0.392 A  
HETATM   15  C   UNL     1     -11.882  11.118  68.695  1.00  0.00    -0.357 A  
HETATM   16  C   UNL     1     -12.188  11.585  69.975  1.00  0.00    -0.278 A  
HETATM   17  C   UNL     1     -12.119  12.946  70.270  1.00  0.00    -0.377 A  
HETATM   18 CL   UNL     1     -12.658  10.470  71.199  1.00  0.00    -0.479 Cl 
HETATM   19  C   UNL     1     -11.748  13.854  69.275  1.00  0.00    -0.381 A  
ENDBRANCH  10  13
ENDBRANCH   8  10
ENDBRANCH   6   8
ENDBRANCH   4   6
ENDBRANCH   3   4
ENDBRANCH   2   3
TORSDOF 6
ENDMDL
MODEL        3
REMARK 921   NORMALIZED FREE ENERGY PREDICTED BY IDOCK:   -5.66 KCAL/MOL
REMARK 922        TOTAL FREE ENERGY PREDICTED BY IDOCK:   -8.35 KCAL/MOL
REMARK 923 INTER-LIGAND FREE ENERGY PREDICTED BY IDOCK:   -7.65 KCAL/MOL
REMARK 924 INTRA-LIGAND FREE ENERGY PREDICTED BY IDOCK:   -0.70 KCAL/MOL
REMARK 927      BINDING AFFINITY PREDICTED BY RF-SCORE:    0.00 PKD
ROOT
HETATM    1  C   UNL     1      -9.754  11.272  63.026  1.00  0.00    -0.389 C  
HETATM    2  C   UNL     1     -10.860  11.380  64.066  1.00  0.00    -0.450 C  
ENDROOT
BRANCH   2   3
HETATM    3  C   UNL     1     -12.073  12.153  63.554  1.00  0.00    -0.550 C  
BRANCH   3   4
HETATM    4  N   UNL     1     -12.830  12.789  64.614  1.00  0.00    -0.743 N  
HETATM    5  H   UNL     1     -13.551  12.260  65.104  1.00  0.00     0.000 HD 
BRANCH   4   6
HETATM    6  C   UNL     1     -12.592  14.085  64.964  1.00  0.00    -0.390 C  
HETATM    7  O   UNL     1     -12.517  14.999  64.161  1.00  0.00    -0.756 OA 
BRANCH   6   8
HETATM    8  N   UNL     1     -12.479  14.271  66.330  1.00  0.00    -0.506 N  
HETATM    9  H   UNL     1     -13.063  14.982  66.769  1.00  0.00     0.000 HD 
BRANCH   8  10
HETATM   10  S   UNL     1     -11.444  13.396  67.297  1.00  0.00    -0.360 S  
HETATM   11  O   UNL     1     -10.103  13.524  66.772  1.00  0.00    -0.257 OA 
HETATM   12  O   UNL     1     -12.060  12.094  67.452  1.00  0.00    -0.553 OA 
BRANCH  10  13
HETATM   13  C   UNL     1     -11.535  14.198  68.882  1.00  0.00    -0.293 A  
HETATM   14  C   UNL     1     -12.179  13.554  69.944  1.00  0.00    -0.356 A  
HETATM   15  C   UNL     1     -12.269  14.195  71.182  1.00  0.00    -0.435 A  
HETATM   16  C   UNL     1     -11.707  15.463  71.353  1.00  0.00    -0.395 A  
HETATM   17  C   UNL     1     -11.052  16.097  70.297  1.00  0.00    -0.375 A  
HETATM   18 CL   UNL     1     -11.826  16.250  72.878  1.00  0.00    -0.588 Cl 
HETATM   19  C   UNL     1     -10.964  15.464  69.054  1.00  0.00    -0.252 A  
ENDBRANCH  10  13
ENDBRANCH   8  10
ENDBRANCH   6   8
ENDBRANCH   4   6
ENDBRANCH   3   4
ENDBRANCH   2   3
TORSDOF 6
ENDMDL
MODEL        4
REMARK 921   NORMALIZED FREE ENERGY PREDICTED BY IDOCK:   -5.58 KCAL/MOL
REMARK 922        TOTAL FREE ENERGY PREDICTED BY IDOCK:   -8.24 KCAL/MOL
REMARK 923 INTER-LIGAND FREE ENERGY PREDICTED BY IDOCK:   -7.73 KCAL/MOL
REMARK 924 INTRA-LIGAND FREE ENERGY PREDICTED BY IDOCK:   -0.52 KCAL/MOL
REMARK 927      BINDING AFFINITY PREDICTED BY RF-SCORE:    0.00 PKD
ROOT
HETATM    1  C   UNL     1     -10.701  19.379  67.266  1.00  0.00    -0.603 C  
HETATM    2  C   UNL     1     -10.604  17.871  67.445  1.00  0.00    -0.370 C  
ENDROOT
BRANCH   2   3
HETATM    3  C   UNL     1      -9.916  17.184  66.267  1.00  0.00    -0.304 C  
BRANCH   3   4
HETATM    4  N   UNL     1     -10.550  15.938  65.886  1.00  0.00    -0.336 N  
HETATM    5  H   UNL     1     -10.622  15.181  66.567  1.00  0.00     0.000 HD 
BRANCH   4   6
HETATM    6  C   UNL     1     -11.052  15.763  64.630  1.00  0.00    -0.361 C  
HETATM    7  O   UNL     1     -11.458  16.676  63.932  1.00  0.00    -1.186 OA 
BRANCH   6   8
HETATM    8  N   UNL     1     -11.021  14.446  64.208  1.00  0.00    -0.593 N  
HETATM    9  H   UNL     1     -10.206  14.127  63.684  1.00  0.00     0.000 HD 
BRANCH   8  10
HETATM   10  S   UNL     1     -12.240  13.353  64.507  1.00  0.00    -0.388 S  
HETATM   11  O   UNL     1     -12.608  12.718  63.262  1.00  0.00    -0.676 OA 
HETATM   12  O   UNL     1     -13.223  14.070  65.294  1.00  0.00    -0.782 OA 
BRANCH  10  13
HETATM   13  C   UNL     1     -11.500  12.149  65.588  1.00  0.00    -0.355 A  
HETATM   14  C   UNL     1     -11.779  12.189  66.959  1.00  0.00    -0.373 A  
HETATM   15  C   UNL     1     -11.178  11.256  67.808  1.00  0.00    -0.354 A  
HETATM   16  C   UNL     1     -10.319  10.288  67.283  1.00  0.00    -0.232 A  
HETATM   17  C   UNL     1     -10.055  10.240  65.915  1.00  0.00    -0.319 A  
HETATM   18 CL   UNL     1      -9.578   9.146  68.336  1.00  0.00    -0.157 Cl 
HETATM   19  C   UNL     1     -10.646  11.174  65.060  1.00  0.00    -0.340 A  
ENDBRANCH  10  13
ENDBRANCH   8  10
ENDBRANCH   6   8
ENDBRANCH   4   6
ENDBRANCH   3   4
ENDBRANCH   2   3
TORSDOF 6
ENDMDL
MODEL        5
REMARK 921   NORMALIZED FREE ENERGY PREDICTED BY IDOCK:   -5.36 KCAL/MOL
REMARK 922        TOTAL FREE ENERGY PREDICTED BY IDOCK:   -7.94 KCAL/MOL
REMARK 923 INTER-LIGAND FREE ENERGY PREDICTED BY IDOCK:   -7.07 KCAL/MOL
REMARK 924 INTRA-LIGAND FREE ENERGY PREDICTED BY IDOCK:   -0.87 KCAL/MOL
REMARK 927      BINDING AFFINITY PREDICTED BY RF-SCORE:    0.00 PKD
ROOT
HETATM    1  C   UNL     1     -10.262  17.596  66.105  1.00  0.00    -0.345 C  
HETATM    2  C   UNL     1     -10.095  16.188  65.553  1.00  0.00    -0.308 C  
ENDROOT
BRANCH   2   3
HETATM    3  C   UNL     1     -11.305  15.730  64.741  1.00  0.00    -0.314 C  
BRANCH   3   4
HETATM    4  N   UNL     1     -11.257  14.323  64.395  1.00  0.00    -0.593 N  
HETATM    5  H   UNL     1     -10.488  13.971  63.825  1.00  0.00     0.000 HD 
BRANCH   4   6
HETATM    6  C   UNL     1     -12.227  13.463  64.822  1.00  0.00    -0.409 C  
HETATM    7  O   UNL     1     -12.808  12.683  64.087  1.00  0.00    -0.695 OA 
BRANCH   6   8
HETATM    8  N   UNL     1     -12.462  13.536  66.183  1.00  0.00    -0.399 N  
HETATM    9  H   UNL     1     -13.268  14.072  66.504  1.00  0.00     0.000 HD 
BRANCH   8  10
HETATM   10  S   UNL     1     -11.502  12.799  67.325  1.00  0.00    -0.357 S  
HETATM   11  O   UNL     1     -10.127  12.857  66.881  1.00  0.00    -0.234 OA 
HETATM   12  O   UNL     1     -12.137  11.527  67.607  1.00  0.00    -0.623 OA 
BRANCH  10  13
HETATM   13  C   UNL     1     -11.695  13.802  68.781  1.00  0.00    -0.356 A  
HETATM   14  C   UNL     1     -11.428  15.174  68.713  1.00  0.00    -0.335 A  
HETATM   15  C   UNL     1     -11.559  15.955  69.864  1.00  0.00    -0.337 A  
HETATM   16  C   UNL     1     -11.966  15.367  71.063  1.00  0.00    -0.359 A  
HETATM   17  C   UNL     1     -12.247  14.002  71.125  1.00  0.00    -0.417 A  
HETATM   18 CL   UNL     1     -12.120  16.334  72.478  1.00  0.00    -0.615 Cl 
HETATM   19  C   UNL     1     -12.112  13.213  69.980  1.00  0.00    -0.375 A  
ENDBRANCH  10  13
ENDBRANCH   8  10
ENDBRANCH   6   8
ENDBRANCH   4   6
ENDBRANCH   3   4
ENDBRANCH   2   3
TORSDOF 6
ENDMDL
MODEL        6
REMARK 921   NORMALIZED FREE ENERGY PREDICTED BY IDOCK:   -5.34 KCAL/MOL
REMARK 922        TOTAL FREE ENERGY PREDICTED BY IDOCK:   -7.92 KCAL/MOL
REMARK 923 INTER-LIGAND FREE ENERGY PREDICTED BY IDOCK:   -7.46 KCAL/MOL
REMARK 924 INTRA-LIGAND FREE ENERGY PREDICTED BY IDOCK:   -0.46 KCAL/MOL
REMARK 927      BINDING AFFINITY PREDICTED BY RF-SCORE:    0.00 PKD
ROOT
HETATM    1  C   UNL     1      -9.784  19.082  67.795  1.00  0.00    -0.383 C  
HETATM    2  C   UNL     1     -10.287  17.674  67.510  1.00  0.00    -0.365 C  
ENDROOT
BRANCH   2   3
HETATM    3  C   UNL     1      -9.835  17.155  66.147  1.00  0.00    -0.262 C  
BRANCH   3   4
HETATM    4  N   UNL     1     -10.415  15.871  65.807  1.00  0.00    -0.351 N  
HETATM    5  H   UNL     1     -10.296  15.081  66.440  1.00  0.00     0.000 HD 
BRANCH   4   6
HETATM    6  C   UNL     1     -11.120  15.706  64.651  1.00  0.00    -0.373 C  
HETATM    7  O   UNL     1     -11.608  16.628  64.020  1.00  0.00    -1.197 OA 
BRANCH   6   8
HETATM    8  N   UNL     1     -11.196  14.387  64.240  1.00  0.00    -0.611 N  
HETATM    9  H   UNL     1     -10.507  14.052  63.568  1.00  0.00     0.000 HD 
BRANCH   8  10
HETATM   10  S   UNL     1     -12.351  13.318  64.784  1.00  0.00    -0.392 S  
HETATM   11  O   UNL     1     -12.672  12.401  63.713  1.00  0.00    -0.693 OA 
HETATM   12  O   UNL     1     -13.380  14.133  65.397  1.00  0.00    -0.705 OA 
BRANCH  10  13
HETATM   13  C   UNL     1     -11.548  12.432  66.100  1.00  0.00    -0.396 A  
HETATM   14  C   UNL     1     -10.685  11.374  65.792  1.00  0.00    -0.309 A  
HETATM   15  C   UNL     1     -10.074  10.664  66.829  1.00  0.00    -0.272 A  
HETATM   16  C   UNL     1     -10.316  11.023  68.157  1.00  0.00    -0.182 A  
HETATM   17  C   UNL     1     -11.164  12.087  68.461  1.00  0.00    -0.306 A  
HETATM   18 CL   UNL     1      -9.565  10.141  69.429  1.00  0.00    -0.237 Cl 
HETATM   19  C   UNL     1     -11.785  12.797  67.430  1.00  0.00    -0.425 A  
ENDBRANCH  10  13
ENDBRANCH   8  10
ENDBRANCH   6   8
ENDBRANCH   4   6
ENDBRANCH   3   4
ENDBRANCH   2   3
TORSDOF 6
ENDMDL
MODEL        7
REMARK 921   NORMALIZED FREE ENERGY PREDICTED BY IDOCK:   -5.33 KCAL/MOL
REMARK 922        TOTAL FREE ENERGY PREDICTED BY IDOCK:   -7.91 KCAL/MOL
REMARK 923 INTER-LIGAND FREE ENERGY PREDICTED BY IDOCK:   -7.08 KCAL/MOL
REMARK 924 INTRA-LIGAND FREE ENERGY PREDICTED BY IDOCK:   -0.83 KCAL/MOL
REMARK 927      BINDING AFFINITY PREDICTED BY RF-SCORE:    0.00 PKD
ROOT
HETATM    1  C   UNL     1     -10.880  11.499  63.689  1.00  0.00    -0.488 C  
HETATM    2  C   UNL     1     -12.239  12.150  63.478  1.00  0.00    -0.670 C  
ENDROOT
BRANCH   2   3
HETATM    3  C   UNL     1     -12.155  13.674  63.417  1.00  0.00    -0.188 C  
BRANCH   3   4
HETATM    4  N   UNL     1     -11.097  14.218  64.245  1.00  0.00    -0.605 N  
HETATM    5  H   UNL     1     -10.242  13.680  64.386  1.00  0.00     0.000 HD 
BRANCH   4   6
HETATM    6  C   UNL     1     -11.229  15.440  64.836  1.00  0.00    -0.403 C  
HETATM    7  O   UNL     1     -11.362  16.480  64.215  1.00  0.00    -1.020 OA 
BRANCH   6   8
HETATM    8  N   UNL     1     -11.235  15.381  66.218  1.00  0.00    -0.230 N  
HETATM    9  H   UNL     1     -11.123  16.251  66.738  1.00  0.00     0.000 HD 
BRANCH   8  10
HETATM   10  S   UNL     1     -11.416  13.968  67.079  1.00  0.00    -0.370 S  
HETATM   11  O   UNL     1     -10.220  13.172  66.918  1.00  0.00    -0.240 OA 
HETATM   12  O   UNL     1     -12.713  13.444  66.702  1.00  0.00    -0.155 OA 
BRANCH  10  13
HETATM   13  C   UNL     1     -11.550  14.495  68.772  1.00  0.00    -0.312 A  
HETATM   14  C   UNL     1     -11.054  15.750  69.145  1.00  0.00    -0.283 A  
HETATM   15  C   UNL     1     -11.140  16.152  70.481  1.00  0.00    -0.338 A  
HETATM   16  C   UNL     1     -11.730  15.310  71.426  1.00  0.00    -0.389 A  
HETATM   17  C   UNL     1     -12.238  14.066  71.049  1.00  0.00    -0.430 A  
HETATM   18 CL   UNL     1     -11.828  15.808  73.069  1.00  0.00    -0.563 Cl 
HETATM   19  C   UNL     1     -12.149  13.654  69.717  1.00  0.00    -0.396 A  
ENDBRANCH  10  13
ENDBRANCH   8  10
ENDBRANCH   6   8
ENDBRANCH   4   6
ENDBRANCH   3   4
ENDBRANCH   2   3
TORSDOF 6
ENDMDL
MODEL        8
REMARK 921   NORMALIZED FREE ENERGY PREDICTED BY IDOCK:   -5.30 KCAL/MOL
REMARK 922        TOTAL FREE ENERGY PREDICTED BY IDOCK:   -7.86 KCAL/MOL
REMARK 923 INTER-LIGAND FREE ENERGY PREDICTED BY IDOCK:   -7.34 KCAL/MOL
REMARK 924 INTRA-LIGAND FREE ENERGY PREDICTED BY IDOCK:   -0.53 KCAL/MOL
REMARK 927      BINDING AFFINITY PREDICTED BY RF-SCORE:    0.00 PKD
ROOT
HETATM    1  C   UNL     1     -10.204  19.503  68.351  1.00  0.00    -0.536 C  
HETATM    2  C   UNL     1     -10.829  18.477  67.417  1.00  0.00    -0.342 C  
ENDROOT
BRANCH   2   3
HETATM    3  C   UNL     1      -9.815  17.871  66.450  1.00  0.00    -0.337 C  
BRANCH   3   4
HETATM    4  N   UNL     1     -10.080  16.478  66.147  1.00  0.00    -0.331 N  
HETATM    5  H   UNL     1      -9.697  15.751  66.751  1.00  0.00     0.000 HD 
BRANCH   4   6
HETATM    6  C   UNL     1     -10.835  16.128  65.067  1.00  0.00    -0.363 C  
HETATM    7  O   UNL     1     -11.280  16.931  64.266  1.00  0.00    -1.204 OA 
BRANCH   6   8
HETATM    8  N   UNL     1     -11.018  14.762  64.948  1.00  0.00    -0.442 N  
HETATM    9  H   UNL     1     -10.452  14.259  64.264  1.00  0.00     0.000 HD 
BRANCH   8  10
HETATM   10  S   UNL     1     -12.109  13.894  65.857  1.00  0.00    -0.459 S  
HETATM   11  O   UNL     1     -13.324  13.732  65.090  1.00  0.00    -0.688 OA 
HETATM   12  O   UNL     1     -12.131  14.535  67.156  1.00  0.00    -0.397 OA 
BRANCH  10  13
HETATM   13  C   UNL     1     -11.337  12.308  66.081  1.00  0.00    -0.353 A  
HETATM   14  C   UNL     1     -10.567  11.764  65.047  1.00  0.00    -0.338 A  
HETATM   15  C   UNL     1      -9.980  10.507  65.217  1.00  0.00    -0.364 A  
HETATM   16  C   UNL     1     -10.154   9.814  66.417  1.00  0.00    -0.243 A  
HETATM   17  C   UNL     1     -10.909  10.364  67.452  1.00  0.00    -0.344 A  
HETATM   18 CL   UNL     1      -9.434   8.264  66.618  1.00  0.00    -0.247 Cl 
HETATM   19  C   UNL     1     -11.504  11.618  67.287  1.00  0.00    -0.350 A  
ENDBRANCH  10  13
ENDBRANCH   8  10
ENDBRANCH   6   8
ENDBRANCH   4   6
ENDBRANCH   3   4
ENDBRANCH   2   3
TORSDOF 6
ENDMDL
MODEL        9
REMARK 921   NORMALIZED FREE ENERGY PREDICTED BY IDOCK:   -5.22 KCAL/MOL
REMARK 922        TOTAL FREE ENERGY PREDICTED BY IDOCK:   -7.76 KCAL/MOL
REMARK 923 INTER-LIGAND FREE ENERGY PREDICTED BY IDOCK:   -6.97 KCAL/MOL
REMARK 924 INTRA-LIGAND FREE ENERGY PREDICTED BY IDOCK:   -0.79 KCAL/MOL
REMARK 927      BINDING AFFINITY PREDICTED BY RF-SCORE:    0.00 PKD
ROOT
HETATM    1  C   UNL     1     -12.490  12.341  63.368  1.00  0.00    -0.592 C  
HETATM    2  C   UNL     1     -11.264  11.507  63.714  1.00  0.00    -0.456 C  
ENDROOT
BRANCH   2   3
HETATM    3  C   UNL     1     -10.052  12.366  64.065  1.00  0.00    -0.315 C  
BRANCH   3   4
HETATM    4  N   UNL     1     -10.380  13.767  64.241  1.00  0.00    -0.617 N  
HETATM    5  H   UNL     1     -10.799  14.287  63.470  1.00  0.00     0.000 HD 
BRANCH   4   6
HETATM    6  C   UNL     1     -10.135  14.400  65.424  1.00  0.00    -0.359 C  
HETATM    7  O   UNL     1      -9.789  15.566  65.507  1.00  0.00    -0.337 OA 
BRANCH   6   8
HETATM    8  N   UNL     1     -10.356  13.598  66.529  1.00  0.00    -0.278 N  
HETATM    9  H   UNL     1      -9.551  13.150  66.968  1.00  0.00     0.000 HD 
BRANCH   8  10
HETATM   10  S   UNL     1     -11.862  13.324  67.183  1.00  0.00    -0.358 S  
HETATM   11  O   UNL     1     -11.998  11.911  67.454  1.00  0.00    -0.603 OA 
HETATM   12  O   UNL     1     -12.796  14.007  66.311  1.00  0.00    -0.331 OA 
BRANCH  10  13
HETATM   13  C   UNL     1     -11.847  14.220  68.720  1.00  0.00    -0.341 A  
HETATM   14  C   UNL     1     -11.295  15.505  68.763  1.00  0.00    -0.339 A  
HETATM   15  C   UNL     1     -11.264  16.198  69.976  1.00  0.00    -0.359 A  
HETATM   16  C   UNL     1     -11.794  15.611  71.127  1.00  0.00    -0.408 A  
HETATM   17  C   UNL     1     -12.358  14.336  71.079  1.00  0.00    -0.431 A  
HETATM   18 CL   UNL     1     -11.748  16.467  72.619  1.00  0.00    -0.535 Cl 
HETATM   19  C   UNL     1     -12.386  13.635  69.871  1.00  0.00    -0.310 A  
ENDBRANCH  10  13
ENDBRANCH   8  10
ENDBRANCH   6   8
ENDBRANCH   4   6
ENDBRANCH   3   4
ENDBRANCH   2   3
TORSDOF 6
ENDMDL
MODEL       10
REMARK 921   NORMALIZED FREE ENERGY PREDICTED BY IDOCK:   -5.19 KCAL/MOL
REMARK 922        TOTAL FREE ENERGY PREDICTED BY IDOCK:   -7.72 KCAL/MOL
REMARK 923 INTER-LIGAND FREE ENERGY PREDICTED BY IDOCK:   -6.98 KCAL/MOL
REMARK 924 INTRA-LIGAND FREE ENERGY PREDICTED BY IDOCK:   -0.74 KCAL/MOL
REMARK 927      BINDING AFFINITY PREDICTED BY RF-SCORE:    0.00 PKD
ROOT
HETATM    1  C   UNL     1     -13.832  13.986  72.427  1.00  0.00    -0.653 C  
HETATM    2  C   UNL     1     -13.379  15.386  72.039  1.00  0.00    -0.545 C  
ENDROOT
BRANCH   2   3
HETATM    3  C   UNL     1     -11.859  15.505  71.947  1.00  0.00    -0.434 C  
BRANCH   3   4
HETATM    4  N   UNL     1     -11.297  14.759  70.839  1.00  0.00    -0.494 N  
HETATM    5  H   UNL     1     -10.577  14.059  71.016  1.00  0.00     0.000 HD 
BRANCH   4   6
HETATM    6  C   UNL     1     -11.719  14.981  69.560  1.00  0.00    -0.322 C  
HETATM    7  O   UNL     1     -11.607  16.051  68.989  1.00  0.00    -0.367 OA 
BRANCH   6   8
HETATM    8  N   UNL     1     -12.255  13.856  68.959  1.00  0.00    -0.452 N  
HETATM    9  H   UNL     1     -13.270  13.764  68.928  1.00  0.00     0.000 HD 
BRANCH   8  10
HETATM   10  S   UNL     1     -11.334  12.646  68.282  1.00  0.00    -0.321 S  
HETATM   11  O   UNL     1      -9.976  13.122  68.141  1.00  0.00    -0.223 OA 
HETATM   12  O   UNL     1     -12.082  12.184  67.130  1.00  0.00    -0.575 OA 
BRANCH  10  13
HETATM   13  C   UNL     1     -11.378  11.334  69.481  1.00  0.00    -0.294 A  
HETATM   14  C   UNL     1     -12.448  11.255  70.380  1.00  0.00    -0.355 A  
HETATM   15  C   UNL     1     -12.468  10.237  71.336  1.00  0.00    -0.528 A  
HETATM   16  C   UNL     1     -11.432   9.301  71.378  1.00  0.00    -0.369 A  
HETATM   17  C   UNL     1     -10.375   9.371  70.472  1.00  0.00    -0.341 A  
HETATM   18 CL   UNL     1     -11.460   8.052  72.562  1.00  0.00    -0.445 Cl 
HETATM   19  C   UNL     1     -10.344  10.391  69.518  1.00  0.00    -0.264 A  
ENDBRANCH  10  13
ENDBRANCH   8  10
ENDBRANCH   6   8
ENDBRANCH   4   6
ENDBRANCH   3   4
ENDBRANCH   2   3
TORSDOF 6
ENDMDL
MODEL       11
REMARK 921   NORMALIZED FREE ENERGY PREDICTED BY IDOCK:   -5.17 KCAL/MOL
REMARK 922        TOTAL FREE ENERGY PREDICTED BY IDOCK:   -7.68 KCAL/MOL
REMARK 923 INTER-LIGAND FREE ENERGY PREDICTED BY IDOCK:   -6.91 KCAL/MOL
REMARK 924 INTRA-LIGAND FREE ENERGY PREDICTED BY IDOCK:   -0.77 KCAL/MOL
REMARK 927      BINDING AFFINITY PREDICTED BY RF-SCORE:    0.00 PKD
ROOT
HETATM    1  C   UNL     1     -10.498  10.871  64.276  1.00  0.00    -0.405 C  
HETATM    2  C   UNL     1     -11.245  11.865  63.399  1.00  0.00    -0.463 C  
ENDROOT
BRANCH   2   3
HETATM    3  C   UNL     1     -12.664  12.133  63.893  1.00  0.00    -0.377 C  
BRANCH   3   4
HETATM    4  N   UNL     1     -12.811  13.430  64.523  1.00  0.00    -0.661 N  
HETATM    5  H   UNL     1     -13.241  14.196  64.005  1.00  0.00     0.000 HD 
BRANCH   4   6
HETATM    6  C   UNL     1     -12.381  13.641  65.801  1.00  0.00    -0.482 C  
HETATM    7  O   UNL     1     -12.363  12.775  66.658  1.00  0.00    -0.456 OA 
BRANCH   6   8
HETATM    8  N   UNL     1     -11.929  14.930  66.020  1.00  0.00    -0.138 N  
HETATM    9  H   UNL     1     -12.273  15.427  66.842  1.00  0.00     0.000 HD 
BRANCH   8  10
HETATM   10  S   UNL     1     -10.856  15.714  65.018  1.00  0.00    -0.404 S  
HETATM   11  O   UNL     1     -11.605  16.493  64.058  1.00  0.00    -1.154 OA 
HETATM   12  O   UNL     1      -9.918  14.700  64.581  1.00  0.00    -0.174 OA 
BRANCH  10  13
HETATM   13  C   UNL     1      -9.961  16.808  66.097  1.00  0.00    -0.327 A  
HETATM   14  C   UNL     1      -8.768  16.373  66.685  1.00  0.00    -0.291 A  
HETATM   15  C   UNL     1      -8.079  17.227  67.550  1.00  0.00    -0.197 A  
HETATM   16  C   UNL     1      -8.576  18.506  67.810  1.00  0.00    -0.271 A  
HETATM   17  C   UNL     1      -9.758  18.943  67.211  1.00  0.00    -0.355 A  
HETATM   18 CL   UNL     1      -7.726  19.550  68.881  1.00  0.00    -0.394 Cl 
HETATM   19  C   UNL     1     -10.456  18.093  66.350  1.00  0.00    -0.364 A  
ENDBRANCH  10  13
ENDBRANCH   8  10
ENDBRANCH   6   8
ENDBRANCH   4   6
ENDBRANCH   3   4
ENDBRANCH   2   3
TORSDOF 6
ENDMDL
MODEL       12
REMARK 921   NORMALIZED FREE ENERGY PREDICTED BY IDOCK:   -5.12 KCAL/MOL
REMARK 922        TOTAL FREE ENERGY PREDICTED BY IDOCK:   -7.62 KCAL/MOL
REMARK 923 INTER-LIGAND FREE ENERGY PREDICTED BY IDOCK:   -7.02 KCAL/MOL
REMARK 924 INTRA-LIGAND FREE ENERGY PREDICTED BY IDOCK:   -0.60 KCAL/MOL
REMARK 927      BINDING AFFINITY PREDICTED BY RF-SCORE:    0.00 PKD
ROOT
HETATM    1  C   UNL     1      -9.623  11.324  62.869  1.00  0.00    -0.377 C  
HETATM    2  C   UNL     1     -10.641  11.345  64.001  1.00  0.00    -0.444 C  
ENDROOT
BRANCH   2   3
HETATM    3  C   UNL     1     -11.963  11.988  63.588  1.00  0.00    -0.515 C  
BRANCH   3   4
HETATM    4  N   UNL     1     -12.686  12.567  64.703  1.00  0.00    -0.667 N  
HETATM    5  H   UNL     1     -13.251  11.965  65.303  1.00  0.00     0.000 HD 
BRANCH   4   6
HETATM    6  C   UNL     1     -12.621  13.904  64.961  1.00  0.00    -0.390 C  
HETATM    7  O   UNL     1     -12.619  14.760  64.093  1.00  0.00    -0.784 OA 
BRANCH   6   8
HETATM    8  N   UNL     1     -12.595  14.200  66.312  1.00  0.00    -0.501 N  
HETATM    9  H   UNL     1     -13.482  14.385  66.782  1.00  0.00     0.000 HD 
BRANCH   8  10
HETATM   10  S   UNL     1     -11.198  14.270  67.214  1.00  0.00    -0.333 S  
HETATM   11  O   UNL     1     -10.154  13.566  66.504  1.00  0.00    -0.268 OA 
HETATM   12  O   UNL     1     -11.579  13.877  68.556  1.00  0.00    -0.288 OA 
BRANCH  10  13
HETATM   13  C   UNL     1     -10.800  16.002  67.281  1.00  0.00    -0.255 A  
HETATM   14  C   UNL     1     -10.898  16.686  68.498  1.00  0.00    -0.356 A  
HETATM   15  C   UNL     1     -10.607  18.052  68.543  1.00  0.00    -0.186 A  
HETATM   16  C   UNL     1     -10.210  18.718  67.382  1.00  0.00    -0.395 A  
HETATM   17  C   UNL     1     -10.098  18.032  66.173  1.00  0.00    -0.334 A  
HETATM   18 CL   UNL     1      -9.859  20.401  67.443  1.00  0.00    -0.586 Cl 
HETATM   19  C   UNL     1     -10.394  16.667  66.118  1.00  0.00    -0.340 A  
ENDBRANCH  10  13
ENDBRANCH   8  10
ENDBRANCH   6   8
ENDBRANCH   4   6
ENDBRANCH   3   4
ENDBRANCH   2   3
TORSDOF 6
ENDMDL
MODEL       13
REMARK 921   NORMALIZED FREE ENERGY PREDICTED BY IDOCK:   -5.12 KCAL/MOL
REMARK 922        TOTAL FREE ENERGY PREDICTED BY IDOCK:   -7.62 KCAL/MOL
REMARK 923 INTER-LIGAND FREE ENERGY PREDICTED BY IDOCK:   -6.93 KCAL/MOL
REMARK 924 INTRA-LIGAND FREE ENERGY PREDICTED BY IDOCK:   -0.69 KCAL/MOL
REMARK 927      BINDING AFFINITY PREDICTED BY RF-SCORE:    0.00 PKD
ROOT
HETATM    1  C   UNL     1     -12.493  12.026  63.675  1.00  0.00    -0.637 C  
HETATM    2  C   UNL     1     -12.493  12.640  65.068  1.00  0.00    -0.556 C  
ENDROOT
BRANCH   2   3
HETATM    3  C   UNL     1     -12.486  14.166  65.035  1.00  0.00    -0.419 C  
BRANCH   3   4
HETATM    4  N   UNL     1     -11.309  14.715  64.391  1.00  0.00    -0.629 N  
HETATM    5  H   UNL     1     -10.831  14.175  63.669  1.00  0.00     0.000 HD 
BRANCH   4   6
HETATM    6  C   UNL     1     -10.831  15.945  64.736  1.00  0.00    -0.324 C  
HETATM    7  O   UNL     1     -11.323  16.992  64.353  1.00  0.00    -1.140 OA 
BRANCH   6   8
HETATM    8  N   UNL     1      -9.750  15.890  65.598  1.00  0.00    -0.316 N  
HETATM    9  H   UNL     1      -8.848  15.600  65.221  1.00  0.00     0.000 HD 
BRANCH   8  10
HETATM   10  S   UNL     1      -9.842  16.271  67.216  1.00  0.00    -0.247 S  
HETATM   11  O   UNL     1     -10.769  17.367  67.381  1.00  0.00    -0.333 OA 
HETATM   12  O   UNL     1      -8.470  16.384  67.668  1.00  0.00    -0.167 OA 
BRANCH  10  13
HETATM   13  C   UNL     1     -10.512  14.810  67.977  1.00  0.00    -0.246 A  
HETATM   14  C   UNL     1     -11.622  14.921  68.824  1.00  0.00    -0.348 A  
HETATM   15  C   UNL     1     -12.133  13.775  69.439  1.00  0.00    -0.377 A  
HETATM   16  C   UNL     1     -11.544  12.532  69.194  1.00  0.00    -0.320 A  
HETATM   17  C   UNL     1     -10.448  12.421  68.339  1.00  0.00    -0.245 A  
HETATM   18 CL   UNL     1     -12.174  11.126  69.959  1.00  0.00    -0.395 Cl 
HETATM   19  C   UNL     1      -9.928  13.564  67.725  1.00  0.00    -0.232 A  
ENDBRANCH  10  13
ENDBRANCH   8  10
ENDBRANCH   6   8
ENDBRANCH   4   6
ENDBRANCH   3   4
ENDBRANCH   2   3
TORSDOF 6
ENDMDL
MODEL       14
REMARK 921   NORMALIZED FREE ENERGY PREDICTED BY IDOCK:   -5.09 KCAL/MOL
REMARK 922        TOTAL FREE ENERGY PREDICTED BY IDOCK:   -7.58 KCAL/MOL
REMARK 923 INTER-LIGAND FREE ENERGY PREDICTED BY IDOCK:   -6.94 KCAL/MOL
REMARK 924 INTRA-LIGAND FREE ENERGY PREDICTED BY IDOCK:   -0.64 KCAL/MOL
REMARK 927      BINDING AFFINITY PREDICTED BY RF-SCORE:    0.00 PKD
ROOT
HETATM    1  C   UNL     1     -12.782  10.309  71.673  1.00  0.00    -0.561 C  
HETATM    2  C   UNL     1     -13.134  11.786  71.772  1.00  0.00    -0.480 C  
ENDROOT
BRANCH   2   3
HETATM    3  C   UNL     1     -12.458  12.623  70.689  1.00  0.00    -0.239 C  
BRANCH   3   4
HETATM    4  N   UNL     1     -12.036  13.928  71.159  1.00  0.00    -0.467 N  
HETATM    5  H   UNL     1     -11.223  14.003  71.770  1.00  0.00     0.000 HD 
BRANCH   4   6
HETATM    6  C   UNL     1     -12.711  15.056  70.796  1.00  0.00    -0.381 C  
HETATM    7  O   UNL     1     -13.311  15.766  71.584  1.00  0.00    -0.487 OA 
BRANCH   6   8
HETATM    8  N   UNL     1     -12.618  15.338  69.445  1.00  0.00    -0.599 N  
HETATM    9  H   UNL     1     -13.476  15.346  68.895  1.00  0.00     0.000 HD 
BRANCH   8  10
HETATM   10  S   UNL     1     -11.182  15.665  68.669  1.00  0.00    -0.358 S  
HETATM   11  O   UNL     1     -10.099  15.111  69.449  1.00  0.00    -0.234 OA 
HETATM   12  O   UNL     1     -11.223  17.078  68.353  1.00  0.00    -0.261 OA 
BRANCH  10  13
HETATM   13  C   UNL     1     -11.305  14.791  67.125  1.00  0.00    -0.356 A  
HETATM   14  C   UNL     1     -12.007  13.582  67.070  1.00  0.00    -0.440 A  
HETATM   15  C   UNL     1     -12.082  12.886  65.861  1.00  0.00    -0.503 A  
HETATM   16  C   UNL     1     -11.471  13.407  64.718  1.00  0.00    -0.336 A  
HETATM   17  C   UNL     1     -10.785  14.621  64.771  1.00  0.00    -0.399 A  
HETATM   18 CL   UNL     1     -11.562  12.543  63.233  1.00  0.00    -0.510 Cl 
HETATM   19  C   UNL     1     -10.700  15.319  65.978  1.00  0.00    -0.324 A  
ENDBRANCH  10  13
ENDBRANCH   8  10
ENDBRANCH   6   8
ENDBRANCH   4   6
ENDBRANCH   3   4
ENDBRANCH   2   3
TORSDOF 6
ENDMDL
MODEL       15
REMARK 921   NORMALIZED FREE ENERGY PREDICTED BY IDOCK:   -5.09 KCAL/MOL
REMARK 922        TOTAL FREE ENERGY PREDICTED BY IDOCK:   -7.58 KCAL/MOL
REMARK 923 INTER-LIGAND FREE ENERGY PREDICTED BY IDOCK:   -6.97 KCAL/MOL
REMARK 924 INTRA-LIGAND FREE ENERGY PREDICTED BY IDOCK:   -0.61 KCAL/MOL
REMARK 927      BINDING AFFINITY PREDICTED BY RF-SCORE:    0.00 PKD
ROOT
HETATM    1  C   UNL     1     -12.347  12.053  63.510  1.00  0.00    -0.661 C  
HETATM    2  C   UNL     1     -11.013  11.581  64.071  1.00  0.00    -0.454 C  
ENDROOT
BRANCH   2   3
HETATM    3  C   UNL     1     -10.578  12.381  65.297  1.00  0.00    -0.290 C  
BRANCH   3   4
HETATM    4  N   UNL     1     -11.692  12.825  66.111  1.00  0.00    -0.382 N  
HETATM    5  H   UNL     1     -12.384  12.147  66.429  1.00  0.00     0.000 HD 
BRANCH   4   6
HETATM    6  C   UNL     1     -11.826  14.137  66.458  1.00  0.00    -0.419 C  
HETATM    7  O   UNL     1     -11.504  15.063  65.734  1.00  0.00    -0.327 OA 
BRANCH   6   8
HETATM    8  N   UNL     1     -12.400  14.318  67.704  1.00  0.00    -0.582 N  
HETATM    9  H   UNL     1     -13.416  14.398  67.758  1.00  0.00     0.000 HD 
BRANCH   8  10
HETATM   10  S   UNL     1     -11.527  14.410  69.117  1.00  0.00    -0.313 S  
HETATM   11  O   UNL     1     -11.892  15.627  69.807  1.00  0.00    -0.332 OA 
HETATM   12  O   UNL     1     -10.151  14.153  68.743  1.00  0.00    -0.230 OA 
BRANCH  10  13
HETATM   13  C   UNL     1     -12.070  13.008  70.066  1.00  0.00    -0.297 A  
HETATM   14  C   UNL     1     -12.762  13.213  71.265  1.00  0.00    -0.396 A  
HETATM   15  C   UNL     1     -13.168  12.110  72.021  1.00  0.00    -0.496 A  
HETATM   16  C   UNL     1     -12.893  10.817  71.569  1.00  0.00    -0.462 A  
HETATM   17  C   UNL     1     -12.217  10.615  70.366  1.00  0.00    -0.432 A  
HETATM   18 CL   UNL     1     -13.390   9.463  72.506  1.00  0.00    -0.478 Cl 
HETATM   19  C   UNL     1     -11.802  11.713  69.609  1.00  0.00    -0.419 A  
ENDBRANCH  10  13
ENDBRANCH   8  10
ENDBRANCH   6   8
ENDBRANCH   4   6
ENDBRANCH   3   4
ENDBRANCH   2   3
TORSDOF 6
ENDMDL
MODEL       16
REMARK 921   NORMALIZED FREE ENERGY PREDICTED BY IDOCK:   -5.08 KCAL/MOL
REMARK 922        TOTAL FREE ENERGY PREDICTED BY IDOCK:   -7.57 KCAL/MOL
REMARK 923 INTER-LIGAND FREE ENERGY PREDICTED BY IDOCK:   -6.92 KCAL/MOL
REMARK 924 INTRA-LIGAND FREE ENERGY PREDICTED BY IDOCK:   -0.65 KCAL/MOL
REMARK 927      BINDING AFFINITY PREDICTED BY RF-SCORE:    0.00 PKD
ROOT
HETATM    1  C   UNL     1     -12.527  11.855  63.515  1.00  0.00    -0.609 C  
HETATM    2  C   UNL     1     -11.049  12.218  63.541  1.00  0.00    -0.533 C  
ENDROOT
BRANCH   2   3
HETATM    3  C   UNL     1     -10.628  12.870  64.856  1.00  0.00    -0.323 C  
BRANCH   3   4
HETATM    4  N   UNL     1     -10.152  14.229  64.689  1.00  0.00    -0.606 N  
HETATM    5  H   UNL     1      -9.276  14.398  64.194  1.00  0.00     0.000 HD 
BRANCH   4   6
HETATM    6  C   UNL     1     -10.859  15.284  65.184  1.00  0.00    -0.426 C  
HETATM    7  O   UNL     1     -11.013  16.334  64.585  1.00  0.00    -0.674 OA 
BRANCH   6   8
HETATM    8  N   UNL     1     -11.421  15.034  66.423  1.00  0.00    -0.281 N  
HETATM    9  H   UNL     1     -12.353  14.621  66.455  1.00  0.00     0.000 HD 
BRANCH   8  10
HETATM   10  S   UNL     1     -10.658  15.366  67.865  1.00  0.00    -0.274 S  
HETATM   11  O   UNL     1     -11.046  16.689  68.298  1.00  0.00    -0.361 OA 
HETATM   12  O   UNL     1      -9.264  15.033  67.655  1.00  0.00    -0.179 OA 
BRANCH  10  13
HETATM   13  C   UNL     1     -11.308  14.160  68.998  1.00  0.00    -0.275 A  
HETATM   14  C   UNL     1     -11.045  12.802  68.785  1.00  0.00    -0.303 A  
HETATM   15  C   UNL     1     -11.576  11.854  69.664  1.00  0.00    -0.387 A  
HETATM   16  C   UNL     1     -12.349  12.269  70.752  1.00  0.00    -0.290 A  
HETATM   17  C   UNL     1     -12.596  13.623  70.971  1.00  0.00    -0.441 A  
HETATM   18 CL   UNL     1     -13.005  11.097  71.827  1.00  0.00    -0.562 Cl 
HETATM   19  C   UNL     1     -12.075  14.576  70.093  1.00  0.00    -0.394 A  
ENDBRANCH  10  13
ENDBRANCH   8  10
ENDBRANCH   6   8
ENDBRANCH   4   6
ENDBRANCH   3   4
ENDBRANCH   2   3
TORSDOF 6
ENDMDL
MODEL       17
REMARK 921   NORMALIZED FREE ENERGY PREDICTED BY IDOCK:   -5.06 KCAL/MOL
REMARK 922        TOTAL FREE ENERGY PREDICTED BY IDOCK:   -7.53 KCAL/MOL
REMARK 923 INTER-LIGAND FREE ENERGY PREDICTED BY IDOCK:   -6.88 KCAL/MOL
REMARK 924 INTRA-LIGAND FREE ENERGY PREDICTED BY IDOCK:   -0.65 KCAL/MOL
REMARK 927      BINDING AFFINITY PREDICTED BY RF-SCORE:    0.00 PKD
ROOT
HETATM    1  C   UNL     1     -12.567  15.668  74.115  1.00  0.00    -0.763 C  
HETATM    2  C   UNL     1     -13.057  14.798  72.966  1.00  0.00    -0.614 C  
ENDROOT
BRANCH   2   3
HETATM    3  C   UNL     1     -13.032  15.529  71.626  1.00  0.00    -0.464 C  
BRANCH   3   4
HETATM    4  N   UNL     1     -13.105  14.633  70.488  1.00  0.00    -0.551 N  
HETATM    5  H   UNL     1     -13.921  14.662  69.877  1.00  0.00     0.000 HD 
BRANCH   4   6
HETATM    6  C   UNL     1     -12.098  13.752  70.226  1.00  0.00    -0.355 C  
HETATM    7  O   UNL     1     -12.268  12.552  70.096  1.00  0.00    -0.302 OA 
BRANCH   6   8
HETATM    8  N   UNL     1     -10.864  14.359  70.082  1.00  0.00    -0.461 N  
HETATM    9  H   UNL     1     -10.165  14.208  70.809  1.00  0.00     0.000 HD 
BRANCH   8  10
HETATM   10  S   UNL     1     -10.456  15.323  68.787  1.00  0.00    -0.246 S  
HETATM   11  O   UNL     1      -9.032  15.571  68.826  1.00  0.00    -0.178 OA 
HETATM   12  O   UNL     1     -11.402  16.420  68.804  1.00  0.00    -0.336 OA 
BRANCH  10  13
HETATM   13  C   UNL     1     -10.844  14.335  67.360  1.00  0.00    -0.285 A  
HETATM   14  C   UNL     1      -9.892  13.438  66.862  1.00  0.00    -0.256 A  
HETATM   15  C   UNL     1     -10.191  12.680  65.727  1.00  0.00    -0.288 A  
HETATM   16  C   UNL     1     -11.437  12.811  65.110  1.00  0.00    -0.321 A  
HETATM   17  C   UNL     1     -12.390  13.694  65.617  1.00  0.00    -0.518 A  
HETATM   18 CL   UNL     1     -11.797  11.879  63.710  1.00  0.00    -0.551 Cl 
HETATM   19  C   UNL     1     -12.096  14.461  66.747  1.00  0.00    -0.393 A  
ENDBRANCH  10  13
ENDBRANCH   8  10
ENDBRANCH   6   8
ENDBRANCH   4   6
ENDBRANCH   3   4
ENDBRANCH   2   3
TORSDOF 6
ENDMDL
MODEL       18
REMARK 921   NORMALIZED FREE ENERGY PREDICTED BY IDOCK:   -5.05 KCAL/MOL
REMARK 922        TOTAL FREE ENERGY PREDICTED BY IDOCK:   -7.53 KCAL/MOL
REMARK 923 INTER-LIGAND FREE ENERGY PREDICTED BY IDOCK:   -6.67 KCAL/MOL
REMARK 924 INTRA-LIGAND FREE ENERGY PREDICTED BY IDOCK:   -0.86 KCAL/MOL
REMARK 927      BINDING AFFINITY PREDICTED BY RF-SCORE:    0.00 PKD
ROOT
HETATM    1  C   UNL     1     -11.149  10.825  68.234  1.00  0.00    -0.327 C  
HETATM    2  C   UNL     1      -9.959  11.302  67.414  1.00  0.00    -0.206 C  
ENDROOT
BRANCH   2   3
HETATM    3  C   UNL     1      -9.918  10.677  66.022  1.00  0.00    -0.239 C  
BRANCH   3   4
HETATM    4  N   UNL     1      -9.457  11.596  65.000  1.00  0.00    -0.391 N  
HETATM    5  H   UNL     1      -8.621  12.156  65.166  1.00  0.00     0.000 HD 
BRANCH   4   6
HETATM    6  C   UNL     1     -10.127  11.721  63.818  1.00  0.00    -0.391 C  
HETATM    7  O   UNL     1     -10.256  10.812  63.016  1.00  0.00    -0.265 OA 
BRANCH   6   8
HETATM    8  N   UNL     1     -10.681  12.975  63.633  1.00  0.00    -0.500 N  
HETATM    9  H   UNL     1     -10.237  13.603  62.963  1.00  0.00     0.000 HD 
BRANCH   8  10
HETATM   10  S   UNL     1     -12.030  13.514  64.444  1.00  0.00    -0.434 S  
HETATM   11  O   UNL     1     -12.640  12.394  65.123  1.00  0.00    -0.622 OA 
HETATM   12  O   UNL     1     -12.779  14.295  63.480  1.00  0.00    -0.767 OA 
BRANCH  10  13
HETATM   13  C   UNL     1     -11.396  14.660  65.648  1.00  0.00    -0.338 A  
HETATM   14  C   UNL     1     -11.767  14.524  66.991  1.00  0.00    -0.412 A  
HETATM   15  C   UNL     1     -11.285  15.439  67.930  1.00  0.00    -0.329 A  
HETATM   16  C   UNL     1     -10.430  16.468  67.527  1.00  0.00    -0.310 A  
HETATM   17  C   UNL     1     -10.049  16.591  66.191  1.00  0.00    -0.365 A  
HETATM   18 CL   UNL     1      -9.845  17.594  68.688  1.00  0.00    -0.331 Cl 
HETATM   19  C   UNL     1     -10.532  15.685  65.244  1.00  0.00    -0.439 A  
ENDBRANCH  10  13
ENDBRANCH   8  10
ENDBRANCH   6   8
ENDBRANCH   4   6
ENDBRANCH   3   4
ENDBRANCH   2   3
TORSDOF 6
ENDMDL
MODEL       19
REMARK 921   NORMALIZED FREE ENERGY PREDICTED BY IDOCK:   -5.00 KCAL/MOL
REMARK 922        TOTAL FREE ENERGY PREDICTED BY IDOCK:   -7.45 KCAL/MOL
REMARK 923 INTER-LIGAND FREE ENERGY PREDICTED BY IDOCK:   -6.78 KCAL/MOL
REMARK 924 INTRA-LIGAND FREE ENERGY PREDICTED BY IDOCK:   -0.67 KCAL/MOL
REMARK 927      BINDING AFFINITY PREDICTED BY RF-SCORE:    0.00 PKD
ROOT
HETATM    1  C   UNL     1     -10.884  11.545  63.395  1.00  0.00    -0.423 C  
HETATM    2  C   UNL     1     -12.145  12.394  63.461  1.00  0.00    -0.651 C  
ENDROOT
BRANCH   2   3
HETATM    3  C   UNL     1     -12.556  12.722  64.894  1.00  0.00    -0.470 C  
BRANCH   3   4
HETATM    4  N   UNL     1     -12.808  14.134  65.104  1.00  0.00    -0.718 N  
HETATM    5  H   UNL     1     -13.705  14.434  65.487  1.00  0.00     0.000 HD 
BRANCH   4   6
HETATM    6  C   UNL     1     -11.862  15.067  64.796  1.00  0.00    -0.341 C  
HETATM    7  O   UNL     1     -12.060  16.005  64.044  1.00  0.00    -0.810 OA 
BRANCH   6   8
HETATM    8  N   UNL     1     -10.662  14.866  65.454  1.00  0.00    -0.349 N  
HETATM    9  H   UNL     1      -9.871  14.514  64.914  1.00  0.00     0.000 HD 
BRANCH   8  10
HETATM   10  S   UNL     1     -10.437  15.168  67.075  1.00  0.00    -0.287 S  
HETATM   11  O   UNL     1      -9.506  14.195  67.601  1.00  0.00    -0.203 OA 
HETATM   12  O   UNL     1     -11.767  15.303  67.635  1.00  0.00    -0.308 OA 
BRANCH  10  13
HETATM   13  C   UNL     1      -9.694  16.783  67.126  1.00  0.00    -0.251 A  
HETATM   14  C   UNL     1     -10.245  17.770  67.951  1.00  0.00    -0.362 A  
HETATM   15  C   UNL     1      -9.673  19.045  67.971  1.00  0.00    -0.399 A  
HETATM   16  C   UNL     1      -8.554  19.319  67.183  1.00  0.00    -0.287 A  
HETATM   17  C   UNL     1      -7.996  18.330  66.374  1.00  0.00    -0.290 A  
HETATM   18 CL   UNL     1      -7.857  20.892  67.209  1.00  0.00    -0.320 Cl 
HETATM   19  C   UNL     1      -8.566  17.054  66.342  1.00  0.00    -0.311 A  
ENDBRANCH  10  13
ENDBRANCH   8  10
ENDBRANCH   6   8
ENDBRANCH   4   6
ENDBRANCH   3   4
ENDBRANCH   2   3
TORSDOF 6
ENDMDL
MODEL       20
REMARK 921   NORMALIZED FREE ENERGY PREDICTED BY IDOCK:   -4.99 KCAL/MOL
REMARK 922        TOTAL FREE ENERGY PREDICTED BY IDOCK:   -7.45 KCAL/MOL
REMARK 923 INTER-LIGAND FREE ENERGY PREDICTED BY IDOCK:   -7.22 KCAL/MOL
REMARK 924 INTRA-LIGAND FREE ENERGY PREDICTED BY IDOCK:   -0.23 KCAL/MOL
REMARK 927      BINDING AFFINITY PREDICTED BY RF-SCORE:    0.00 PKD
ROOT
HETATM    1  C   UNL     1      -9.236   9.381  65.377  1.00  0.00    -0.305 C  
HETATM    2  C   UNL     1     -10.335  10.395  65.091  1.00  0.00    -0.260 C  
ENDROOT
BRANCH   2   3
HETATM    3  C   UNL     1     -10.132  11.120  63.762  1.00  0.00    -0.361 C  
BRANCH   3   4
HETATM    4  N   UNL     1     -11.377  11.417  63.082  1.00  0.00    -0.864 N  
HETATM    5  H   UNL     1     -11.594  10.949  62.202  1.00  0.00     0.000 HD 
BRANCH   4   6
HETATM    6  C   UNL     1     -12.262  12.315  63.602  1.00  0.00    -0.567 C  
HETATM    7  O   UNL     1     -13.286  11.995  64.179  1.00  0.00    -0.725 OA 
BRANCH   6   8
HETATM    8  N   UNL     1     -11.864  13.630  63.444  1.00  0.00    -0.708 N  
HETATM    9  H   UNL     1     -11.327  13.874  62.611  1.00  0.00     0.000 HD 
BRANCH   8  10
HETATM   10  S   UNL     1     -12.212  14.837  64.536  1.00  0.00    -0.329 S  
HETATM   11  O   UNL     1     -13.497  14.559  65.136  1.00  0.00    -0.308 OA 
HETATM   12  O   UNL     1     -11.974  16.081  63.833  1.00  0.00    -0.855 OA 
BRANCH  10  13
HETATM   13  C   UNL     1     -10.941  14.696  65.772  1.00  0.00    -0.330 A  
HETATM   14  C   UNL     1      -9.832  15.548  65.720  1.00  0.00    -0.392 A  
HETATM   15  C   UNL     1      -8.823  15.420  66.679  1.00  0.00    -0.330 A  
HETATM   16  C   UNL     1      -8.936  14.457  67.684  1.00  0.00    -0.192 A  
HETATM   17  C   UNL     1     -10.049  13.620  67.743  1.00  0.00    -0.242 A  
HETATM   18 CL   UNL     1      -7.688  14.301  68.858  1.00  0.00    -0.133 Cl 
HETATM   19  C   UNL     1     -11.059  13.737  66.784  1.00  0.00    -0.316 A  
ENDBRANCH  10  13
ENDBRANCH   8  10
ENDBRANCH   6   8
ENDBRANCH   4   6
ENDBRANCH   3   4
ENDBRANCH   2   3
TORSDOF 6
ENDMDL
MODEL       21
REMARK 921   NORMALIZED FREE ENERGY PREDICTED BY IDOCK:   -4.98 KCAL/MOL
REMARK 922        TOTAL FREE ENERGY PREDICTED BY IDOCK:   -7.42 KCAL/MOL
REMARK 923 INTER-LIGAND FREE ENERGY PREDICTED BY IDOCK:   -6.86 KCAL/MOL
REMARK 924 INTRA-LIGAND FREE ENERGY PREDICTED BY IDOCK:   -0.56 KCAL/MOL
REMARK 927      BINDING AFFINITY PREDICTED BY RF-SCORE:    0.00 PKD
ROOT
HETATM    1  C   UNL     1      -9.560  11.113  63.192  1.00  0.00    -0.388 C  
HETATM    2  C   UNL     1     -10.762  11.093  64.124  1.00  0.00    -0.415 C  
ENDROOT
BRANCH   2   3
HETATM    3  C   UNL     1     -11.963  11.839  63.548  1.00  0.00    -0.380 C  
BRANCH   3   4
HETATM    4  N   UNL     1     -12.537  12.795  64.475  1.00  0.00    -0.659 N  
HETATM    5  H   UNL     1     -13.255  12.490  65.132  1.00  0.00     0.000 HD 
BRANCH   4   6
HETATM    6  C   UNL     1     -12.129  14.096  64.480  1.00  0.00    -0.468 C  
HETATM    7  O   UNL     1     -12.777  15.008  63.998  1.00  0.00    -0.772 OA 
BRANCH   6   8
HETATM    8  N   UNL     1     -10.919  14.287  65.123  1.00  0.00    -0.341 N  
HETATM    9  H   UNL     1     -10.076  14.356  64.553  1.00  0.00     0.000 HD 
BRANCH   8  10
HETATM   10  S   UNL     1     -10.763  14.412  66.776  1.00  0.00    -0.296 S  
HETATM   11  O   UNL     1      -9.564  13.713  67.180  1.00  0.00    -0.226 OA 
HETATM   12  O   UNL     1     -12.055  14.045  67.318  1.00  0.00    -0.409 OA 
BRANCH  10  13
HETATM   13  C   UNL     1     -10.559  16.153  67.071  1.00  0.00    -0.292 A  
HETATM   14  C   UNL     1     -10.262  17.005  66.001  1.00  0.00    -0.337 A  
HETATM   15  C   UNL     1     -10.080  18.369  66.239  1.00  0.00    -0.409 A  
HETATM   16  C   UNL     1     -10.209  18.873  67.536  1.00  0.00    -0.391 A  
HETATM   17  C   UNL     1     -10.521  18.026  68.599  1.00  0.00    -0.236 A  
HETATM   18 CL   UNL     1      -9.978  20.554  67.824  1.00  0.00    -0.490 Cl 
HETATM   19  C   UNL     1     -10.697  16.659  68.369  1.00  0.00    -0.353 A  
ENDBRANCH  10  13
ENDBRANCH   8  10
ENDBRANCH   6   8
ENDBRANCH   4   6
ENDBRANCH   3   4
ENDBRANCH   2   3
TORSDOF 6
ENDMDL
MODEL       22
REMARK 921   NORMALIZED FREE ENERGY PREDICTED BY IDOCK:   -4.94 KCAL/MOL
REMARK 922        TOTAL FREE ENERGY PREDICTED BY IDOCK:   -7.38 KCAL/MOL
REMARK 923 INTER-LIGAND FREE ENERGY PREDICTED BY IDOCK:   -6.70 KCAL/MOL
REMARK 924 INTRA-LIGAND FREE ENERGY PREDICTED BY IDOCK:   -0.68 KCAL/MOL
REMARK 927      BINDING AFFINITY PREDICTED BY RF-SCORE:    0.00 PKD
ROOT
HETATM    1  C   UNL     1      -8.862  18.023  66.571  1.00  0.00    -0.276 C  
HETATM    2  C   UNL     1     -10.275  17.492  66.379  1.00  0.00    -0.354 C  
ENDROOT
BRANCH   2   3
HETATM    3  C   UNL     1     -10.337  15.967  66.414  1.00  0.00    -0.306 C  
BRANCH   3   4
HETATM    4  N   UNL     1     -10.527  15.375  65.104  1.00  0.00    -0.410 N  
HETATM    5  H   UNL     1      -9.734  14.953  64.622  1.00  0.00     0.000 HD 
BRANCH   4   6
HETATM    6  C   UNL     1     -11.754  15.376  64.507  1.00  0.00    -0.277 C  
HETATM    7  O   UNL     1     -12.126  16.239  63.731  1.00  0.00    -0.959 OA 
BRANCH   6   8
HETATM    8  N   UNL     1     -12.525  14.278  64.841  1.00  0.00    -0.579 N  
HETATM    9  H   UNL     1     -13.383  14.434  65.370  1.00  0.00     0.000 HD 
BRANCH   8  10
HETATM   10  S   UNL     1     -12.131  12.715  64.426  1.00  0.00    -0.444 S  
HETATM   11  O   UNL     1     -11.117  12.752  63.397  1.00  0.00    -0.408 OA 
HETATM   12  O   UNL     1     -13.394  12.040  64.200  1.00  0.00    -0.725 OA 
BRANCH  10  13
HETATM   13  C   UNL     1     -11.440  12.023  65.911  1.00  0.00    -0.333 A  
HETATM   14  C   UNL     1     -11.893  12.472  67.157  1.00  0.00    -0.386 A  
HETATM   15  C   UNL     1     -11.331  11.943  68.322  1.00  0.00    -0.335 A  
HETATM   16  C   UNL     1     -10.338  10.965  68.235  1.00  0.00    -0.173 A  
HETATM   17  C   UNL     1      -9.900  10.507  66.993  1.00  0.00    -0.223 A  
HETATM   18 CL   UNL     1      -9.647  10.322  69.674  1.00  0.00    -0.222 Cl 
HETATM   19  C   UNL     1     -10.451  11.036  65.823  1.00  0.00    -0.290 A  
ENDBRANCH  10  13
ENDBRANCH   8  10
ENDBRANCH   6   8
ENDBRANCH   4   6
ENDBRANCH   3   4
ENDBRANCH   2   3
TORSDOF 6
ENDMDL
MODEL       23
REMARK 921   NORMALIZED FREE ENERGY PREDICTED BY IDOCK:   -4.94 KCAL/MOL
REMARK 922        TOTAL FREE ENERGY PREDICTED BY IDOCK:   -7.37 KCAL/MOL
REMARK 923 INTER-LIGAND FREE ENERGY PREDICTED BY IDOCK:   -6.70 KCAL/MOL
REMARK 924 INTRA-LIGAND FREE ENERGY PREDICTED BY IDOCK:   -0.67 KCAL/MOL
REMARK 927      BINDING AFFINITY PREDICTED BY RF-SCORE:    0.00 PKD
ROOT
HETATM    1  C   UNL     1     -10.523  19.094  66.295  1.00  0.00    -0.551 C  
HETATM    2  C   UNL     1     -10.587  19.367  67.791  1.00  0.00    -0.538 C  
ENDROOT
BRANCH   2   3
HETATM    3  C   UNL     1      -9.685  18.433  68.596  1.00  0.00    -0.361 C  
BRANCH   3   4
HETATM    4  N   UNL     1     -10.287  17.138  68.845  1.00  0.00    -0.335 N  
HETATM    5  H   UNL     1     -11.287  17.010  68.694  1.00  0.00     0.000 HD 
BRANCH   4   6
HETATM    6  C   UNL     1      -9.533  16.088  69.281  1.00  0.00    -0.245 C  
HETATM    7  O   UNL     1      -8.317  16.055  69.208  1.00  0.00    -0.243 OA 
BRANCH   6   8
HETATM    8  N   UNL     1     -10.282  15.076  69.851  1.00  0.00    -0.461 N  
HETATM    9  H   UNL     1      -9.828  14.463  70.528  1.00  0.00     0.000 HD 
BRANCH   8  10
HETATM   10  S   UNL     1     -11.885  14.803  69.494  1.00  0.00    -0.335 S  
HETATM   11  O   UNL     1     -12.018  14.633  68.065  1.00  0.00    -0.326 OA 
HETATM   12  O   UNL     1     -12.622  15.838  70.191  1.00  0.00    -0.347 OA 
BRANCH  10  13
HETATM   13  C   UNL     1     -12.265  13.268  70.309  1.00  0.00    -0.321 A  
HETATM   14  C   UNL     1     -11.807  12.064  69.761  1.00  0.00    -0.401 A  
HETATM   15  C   UNL     1     -12.126  10.859  70.391  1.00  0.00    -0.453 A  
HETATM   16  C   UNL     1     -12.884  10.864  71.563  1.00  0.00    -0.454 A  
HETATM   17  C   UNL     1     -13.327  12.066  72.117  1.00  0.00    -0.396 A  
HETATM   18 CL   UNL     1     -13.279   9.376  72.331  1.00  0.00    -0.507 Cl 
HETATM   19  C   UNL     1     -13.017  13.275  71.489  1.00  0.00    -0.426 A  
ENDBRANCH  10  13
ENDBRANCH   8  10
ENDBRANCH   6   8
ENDBRANCH   4   6
ENDBRANCH   3   4
ENDBRANCH   2   3
TORSDOF 6
ENDMDL
MODEL       24
REMARK 921   NORMALIZED FREE ENERGY PREDICTED BY IDOCK:   -4.89 KCAL/MOL
REMARK 922        TOTAL FREE ENERGY PREDICTED BY IDOCK:   -7.31 KCAL/MOL
REMARK 923 INTER-LIGAND FREE ENERGY PREDICTED BY IDOCK:   -6.59 KCAL/MOL
REMARK 924 INTRA-LIGAND FREE ENERGY PREDICTED BY IDOCK:   -0.72 KCAL/MOL
REMARK 927      BINDING AFFINITY PREDICTED BY RF-SCORE:    0.00 PKD
ROOT
HETATM    1  C   UNL     1     -10.084  11.330  67.046  1.00  0.00    -0.238 C  
HETATM    2  C   UNL     1      -9.880  10.571  65.742  1.00  0.00    -0.295 C  
ENDROOT
BRANCH   2   3
HETATM    3  C   UNL     1     -10.674  11.171  64.585  1.00  0.00    -0.280 C  
BRANCH   3   4
HETATM    4  N   UNL     1     -11.663  12.140  65.016  1.00  0.00    -0.340 N  
HETATM    5  H   UNL     1     -11.897  12.214  66.006  1.00  0.00     0.000 HD 
BRANCH   4   6
HETATM    6  C   UNL     1     -12.283  12.955  64.115  1.00  0.00    -0.414 C  
HETATM    7  O   UNL     1     -12.713  12.571  63.042  1.00  0.00    -0.485 OA 
BRANCH   6   8
HETATM    8  N   UNL     1     -12.412  14.260  64.556  1.00  0.00    -0.660 N  
HETATM    9  H   UNL     1     -13.353  14.636  64.678  1.00  0.00     0.000 HD 
BRANCH   8  10
HETATM   10  S   UNL     1     -11.118  15.249  64.899  1.00  0.00    -0.399 S  
HETATM   11  O   UNL     1     -11.303  16.507  64.211  1.00  0.00    -1.020 OA 
HETATM   12  O   UNL     1      -9.938  14.442  64.667  1.00  0.00    -0.204 OA 
BRANCH  10  13
HETATM   13  C   UNL     1     -11.219  15.516  66.655  1.00  0.00    -0.118 A  
HETATM   14  C   UNL     1     -10.658  16.673  67.209  1.00  0.00    -0.281 A  
HETATM   15  C   UNL     1     -10.718  16.869  68.592  1.00  0.00    -0.345 A  
HETATM   16  C   UNL     1     -11.346  15.922  69.403  1.00  0.00    -0.349 A  
HETATM   17  C   UNL     1     -11.918  14.778  68.847  1.00  0.00    -0.298 A  
HETATM   18 CL   UNL     1     -11.412  16.167  71.105  1.00  0.00    -0.457 Cl 
HETATM   19  C   UNL     1     -11.856  14.571  67.467  1.00  0.00    -0.404 A  
ENDBRANCH  10  13
ENDBRANCH   8  10
ENDBRANCH   6   8
ENDBRANCH   4   6
ENDBRANCH   3   4
ENDBRANCH   2   3
TORSDOF 6
ENDMDL
MODEL       25
REMARK 921   NORMALIZED FREE ENERGY PREDICTED BY IDOCK:   -4.89 KCAL/MOL
REMARK 922        TOTAL FREE ENERGY PREDICTED BY IDOCK:   -7.30 KCAL/MOL
REMARK 923 INTER-LIGAND FREE ENERGY PREDICTED BY IDOCK:   -6.84 KCAL/MOL
REMARK 924 INTRA-LIGAND FREE ENERGY PREDICTED BY IDOCK:   -0.47 KCAL/MOL
REMARK 927      BINDING AFFINITY PREDICTED BY RF-SCORE:    0.00 PKD
ROOT
HETATM    1  C   UNL     1     -10.200  10.970  64.253  1.00  0.00    -0.414 C  
HETATM    2  C   UNL     1     -11.181  11.637  63.299  1.00  0.00    -0.305 C  
ENDROOT
BRANCH   2   3
HETATM    3  C   UNL     1     -11.862  12.856  63.916  1.00  0.00    -0.473 C  
BRANCH   3   4
HETATM    4  N   UNL     1     -10.944  13.947  64.178  1.00  0.00    -0.581 N  
HETATM    5  H   UNL     1      -9.954  13.836  63.960  1.00  0.00     0.000 HD 
BRANCH   4   6
HETATM    6  C   UNL     1     -11.387  15.122  64.713  1.00  0.00    -0.395 C  
HETATM    7  O   UNL     1     -11.558  16.137  64.061  1.00  0.00    -0.790 OA 
BRANCH   6   8
HETATM    8  N   UNL     1     -11.660  15.038  66.066  1.00  0.00    -0.230 N  
HETATM    9  H   UNL     1     -12.591  14.734  66.351  1.00  0.00     0.000 HD 
BRANCH   8  10
HETATM   10  S   UNL     1     -10.554  15.405  67.254  1.00  0.00    -0.298 S  
HETATM   11  O   UNL     1     -10.316  16.831  67.240  1.00  0.00    -0.294 OA 
HETATM   12  O   UNL     1      -9.463  14.468  67.075  1.00  0.00    -0.222 OA 
BRANCH  10  13
HETATM   13  C   UNL     1     -11.368  14.958  68.771  1.00  0.00    -0.287 A  
HETATM   14  C   UNL     1     -11.780  15.962  69.654  1.00  0.00    -0.322 A  
HETATM   15  C   UNL     1     -12.399  15.607  70.855  1.00  0.00    -0.479 A  
HETATM   16  C   UNL     1     -12.613  14.260  71.158  1.00  0.00    -0.362 A  
HETATM   17  C   UNL     1     -12.215  13.261  70.269  1.00  0.00    -0.391 A  
HETATM   18 CL   UNL     1     -13.370  13.829  72.641  1.00  0.00    -0.639 Cl 
HETATM   19  C   UNL     1     -11.589  13.608  69.069  1.00  0.00    -0.356 A  
ENDBRANCH  10  13
ENDBRANCH   8  10
ENDBRANCH   6   8
ENDBRANCH   4   6
ENDBRANCH   3   4
ENDBRANCH   2   3
TORSDOF 6
ENDMDL
MODEL       26
REMARK 921   NORMALIZED FREE ENERGY PREDICTED BY IDOCK:   -4.89 KCAL/MOL
REMARK 922        TOTAL FREE ENERGY PREDICTED BY IDOCK:   -7.30 KCAL/MOL
REMARK 923 INTER-LIGAND FREE ENERGY PREDICTED BY IDOCK:   -6.15 KCAL/MOL
REMARK 924 INTRA-LIGAND FREE ENERGY PREDICTED BY IDOCK:   -1.15 KCAL/MOL
REMARK 927      BINDING AFFINITY PREDICTED BY RF-SCORE:    0.00 PKD
ROOT
HETATM    1  C   UNL     1     -10.758  11.768  63.277  1.00  0.00    -0.414 C  
HETATM    2  C   UNL     1     -12.051  12.341  63.840  1.00  0.00    -0.598 C  
ENDROOT
BRANCH   2   3
HETATM    3  C   UNL     1     -12.336  13.753  63.333  1.00  0.00     0.001 C  
BRANCH   3   4
HETATM    4  N   UNL     1     -12.330  14.747  64.389  1.00  0.00    -0.589 N  
HETATM    5  H   UNL     1     -13.113  14.794  65.040  1.00  0.00     0.000 HD 
BRANCH   4   6
HETATM    6  C   UNL     1     -11.291  15.620  64.522  1.00  0.00    -0.320 C  
HETATM    7  O   UNL     1     -11.293  16.747  64.059  1.00  0.00    -1.153 OA 
BRANCH   6   8
HETATM    8  N   UNL     1     -10.244  15.114  65.271  1.00  0.00    -0.370 N  
HETATM    9  H   UNL     1      -9.371  14.894  64.791  1.00  0.00     0.000 HD 
BRANCH   8  10
HETATM   10  S   UNL     1     -10.329  14.844  66.911  1.00  0.00    -0.269 S  
HETATM   11  O   UNL     1     -11.570  15.395  67.406  1.00  0.00    -0.269 OA 
HETATM   12  O   UNL     1      -9.056  15.284  67.446  1.00  0.00    -0.184 OA 
BRANCH  10  13
HETATM   13  C   UNL     1     -10.366  13.073  67.067  1.00  0.00    -0.247 A  
HETATM   14  C   UNL     1      -9.285  12.317  66.598  1.00  0.00    -0.208 A  
HETATM   15  C   UNL     1      -9.327  10.924  66.702  1.00  0.00    -0.191 A  
HETATM   16  C   UNL     1     -10.434  10.301  67.282  1.00  0.00    -0.253 A  
HETATM   17  C   UNL     1     -11.502  11.057  67.764  1.00  0.00    -0.339 A  
HETATM   18 CL   UNL     1     -10.482   8.585  67.402  1.00  0.00    -0.350 Cl 
HETATM   19  C   UNL     1     -11.471  12.450  67.657  1.00  0.00    -0.399 A  
ENDBRANCH  10  13
ENDBRANCH   8  10
ENDBRANCH   6   8
ENDBRANCH   4   6
ENDBRANCH   3   4
ENDBRANCH   2   3
TORSDOF 6
ENDMDL
MODEL       27
REMARK 921   NORMALIZED FREE ENERGY PREDICTED BY IDOCK:   -4.87 KCAL/MOL
REMARK 922        TOTAL FREE ENERGY PREDICTED BY IDOCK:   -7.29 KCAL/MOL
REMARK 923 INTER-LIGAND FREE ENERGY PREDICTED BY IDOCK:   -6.53 KCAL/MOL
REMARK 924 INTRA-LIGAND FREE ENERGY PREDICTED BY IDOCK:   -0.76 KCAL/MOL
REMARK 927      BINDING AFFINITY PREDICTED BY RF-SCORE:    0.00 PKD
ROOT
HETATM    1  C   UNL     1      -9.440  10.669  65.268  1.00  0.00    -0.270 C  
HETATM    2  C   UNL     1     -10.386  10.958  64.110  1.00  0.00    -0.432 C  
ENDROOT
BRANCH   2   3
HETATM    3  C   UNL     1     -10.658  12.450  63.935  1.00  0.00    -0.437 C  
BRANCH   3   4
HETATM    4  N   UNL     1     -10.057  13.263  64.973  1.00  0.00    -0.511 N  
HETATM    5  H   UNL     1      -9.081  13.112  65.229  1.00  0.00     0.000 HD 
BRANCH   4   6
HETATM    6  C   UNL     1     -10.778  14.228  65.613  1.00  0.00    -0.316 C  
HETATM    7  O   UNL     1     -11.555  14.977  65.046  1.00  0.00    -0.366 OA 
BRANCH   6   8
HETATM    8  N   UNL     1     -10.570  14.251  66.980  1.00  0.00    -0.278 N  
HETATM    9  H   UNL     1     -10.151  15.086  67.389  1.00  0.00     0.000 HD 
BRANCH   8  10
HETATM   10  S   UNL     1     -10.967  12.992  67.994  1.00  0.00    -0.263 S  
HETATM   11  O   UNL     1      -9.749  12.344  68.425  1.00  0.00    -0.217 OA 
HETATM   12  O   UNL     1     -12.001  12.246  67.304  1.00  0.00    -0.546 OA 
BRANCH  10  13
HETATM   13  C   UNL     1     -11.746  13.774  69.388  1.00  0.00    -0.325 A  
HETATM   14  C   UNL     1     -12.379  12.987  70.356  1.00  0.00    -0.351 A  
HETATM   15  C   UNL     1     -13.009  13.606  71.439  1.00  0.00    -0.427 A  
HETATM   16  C   UNL     1     -12.991  14.998  71.553  1.00  0.00    -0.358 A  
HETATM   17  C   UNL     1     -12.346  15.780  70.595  1.00  0.00    -0.412 A  
HETATM   18 CL   UNL     1     -13.774  15.754  72.886  1.00  0.00    -0.666 Cl 
HETATM   19  C   UNL     1     -11.719  15.169  69.506  1.00  0.00    -0.351 A  
ENDBRANCH  10  13
ENDBRANCH   8  10
ENDBRANCH   6   8
ENDBRANCH   4   6
ENDBRANCH   3   4
ENDBRANCH   2   3
TORSDOF 6
ENDMDL
MODEL       28
REMARK 921   NORMALIZED FREE ENERGY PREDICTED BY IDOCK:   -4.85 KCAL/MOL
REMARK 922        TOTAL FREE ENERGY PREDICTED BY IDOCK:   -7.26 KCAL/MOL
REMARK 923 INTER-LIGAND FREE ENERGY PREDICTED BY IDOCK:   -6.61 KCAL/MOL
REMARK 924 INTRA-LIGAND FREE ENERGY PREDICTED BY IDOCK:   -0.64 KCAL/MOL
REMARK 927      BINDING AFFINITY PREDICTED BY RF-SCORE:    0.00 PKD
ROOT
HETATM    1  C   UNL     1     -12.135  13.137  63.350  1.00  0.00    -0.558 C  
HETATM    2  C   UNL     1     -11.568  11.753  63.633  1.00  0.00    -0.521 C  
ENDROOT
BRANCH   2   3
HETATM    3  C   UNL     1     -10.119  11.800  64.112  1.00  0.00    -0.310 C  
BRANCH   3   4
HETATM    4  N   UNL     1      -9.889  12.810  65.126  1.00  0.00    -0.480 N  
HETATM    5  H   UNL     1      -9.676  13.767  64.845  1.00  0.00     0.000 HD 
BRANCH   4   6
HETATM    6  C   UNL     1      -9.953  12.497  66.452  1.00  0.00    -0.252 C  
HETATM    7  O   UNL     1      -9.956  11.355  66.877  1.00  0.00    -0.201 OA 
BRANCH   6   8
HETATM    8  N   UNL     1      -9.976  13.609  67.275  1.00  0.00    -0.237 N  
HETATM    9  H   UNL     1      -9.155  13.799  67.850  1.00  0.00     0.000 HD 
BRANCH   8  10
HETATM   10  S   UNL     1     -11.269  14.652  67.380  1.00  0.00    -0.355 S  
HETATM   11  O   UNL     1     -12.385  14.078  66.663  1.00  0.00    -0.451 OA 
HETATM   12  O   UNL     1     -10.748  15.956  67.022  1.00  0.00    -0.316 OA 
BRANCH  10  13
HETATM   13  C   UNL     1     -11.650  14.712  69.116  1.00  0.00    -0.301 A  
HETATM   14  C   UNL     1     -12.115  13.559  69.760  1.00  0.00    -0.381 A  
HETATM   15  C   UNL     1     -12.436  13.615  71.119  1.00  0.00    -0.442 A  
HETATM   16  C   UNL     1     -12.278  14.810  71.823  1.00  0.00    -0.347 A  
HETATM   17  C   UNL     1     -11.800  15.954  71.183  1.00  0.00    -0.483 A  
HETATM   18 CL   UNL     1     -12.681  14.874  73.495  1.00  0.00    -0.637 Cl 
HETATM   19  C   UNL     1     -11.484  15.908  69.823  1.00  0.00    -0.342 A  
ENDBRANCH  10  13
ENDBRANCH   8  10
ENDBRANCH   6   8
ENDBRANCH   4   6
ENDBRANCH   3   4
ENDBRANCH   2   3
TORSDOF 6
ENDMDL
MODEL       29
REMARK 921   NORMALIZED FREE ENERGY PREDICTED BY IDOCK:   -4.84 KCAL/MOL
REMARK 922        TOTAL FREE ENERGY PREDICTED BY IDOCK:   -7.24 KCAL/MOL
REMARK 923 INTER-LIGAND FREE ENERGY PREDICTED BY IDOCK:   -6.43 KCAL/MOL
REMARK 924 INTRA-LIGAND FREE ENERGY PREDICTED BY IDOCK:   -0.81 KCAL/MOL
REMARK 927      BINDING AFFINITY PREDICTED BY RF-SCORE:    0.00 PKD
ROOT
HETATM    1  C   UNL     1     -13.002   8.549  71.610  1.00  0.00    -0.369 C  
HETATM    2  C   UNL     1     -12.063   9.747  71.637  1.00  0.00    -0.475 C  
ENDROOT
BRANCH   2   3
HETATM    3  C   UNL     1     -10.779   9.503  70.847  1.00  0.00    -0.333 C  
BRANCH   3   4
HETATM    4  N   UNL     1     -10.483  10.563  69.903  1.00  0.00    -0.418 N  
HETATM    5  H   UNL     1      -9.763  11.249  70.127  1.00  0.00     0.000 HD 
BRANCH   4   6
HETATM    6  C   UNL     1     -11.154  10.654  68.720  1.00  0.00    -0.265 C  
HETATM    7  O   UNL     1     -11.048   9.840  67.819  1.00  0.00    -0.245 OA 
BRANCH   6   8
HETATM    8  N   UNL     1     -12.001  11.746  68.654  1.00  0.00    -0.300 N  
HETATM    9  H   UNL     1     -13.006  11.580  68.709  1.00  0.00     0.000 HD 
BRANCH   8  10
HETATM   10  S   UNL     1     -11.470  13.315  68.489  1.00  0.00    -0.337 S  
HETATM   11  O   UNL     1     -12.225  13.950  67.433  1.00  0.00    -0.378 OA 
HETATM   12  O   UNL     1     -10.025  13.234  68.424  1.00  0.00    -0.235 OA 
BRANCH  10  13
HETATM   13  C   UNL     1     -11.869  14.083  70.043  1.00  0.00    -0.320 A  
HETATM   14  C   UNL     1     -12.639  13.383  70.980  1.00  0.00    -0.425 A  
HETATM   15  C   UNL     1     -12.970  13.998  72.191  1.00  0.00    -0.458 A  
HETATM   16  C   UNL     1     -12.522  15.292  72.461  1.00  0.00    -0.363 A  
HETATM   17  C   UNL     1     -11.742  15.981  71.533  1.00  0.00    -0.554 A  
HETATM   18 CL   UNL     1     -12.938  16.045  73.951  1.00  0.00    -0.615 Cl 
HETATM   19  C   UNL     1     -11.412  15.377  70.317  1.00  0.00    -0.339 A  
ENDBRANCH  10  13
ENDBRANCH   8  10
ENDBRANCH   6   8
ENDBRANCH   4   6
ENDBRANCH   3   4
ENDBRANCH   2   3
TORSDOF 6
ENDMDL
MODEL       30
REMARK 921   NORMALIZED FREE ENERGY PREDICTED BY IDOCK:   -4.81 KCAL/MOL
REMARK 922        TOTAL FREE ENERGY PREDICTED BY IDOCK:   -7.20 KCAL/MOL
REMARK 923 INTER-LIGAND FREE ENERGY PREDICTED BY IDOCK:   -6.55 KCAL/MOL
REMARK 924 INTRA-LIGAND FREE ENERGY PREDICTED BY IDOCK:   -0.65 KCAL/MOL
REMARK 927      BINDING AFFINITY PREDICTED BY RF-SCORE:    0.00 PKD
ROOT
HETATM    1  C   UNL     1     -13.475  12.506  72.068  1.00  0.00    -0.486 C  
HETATM    2  C   UNL     1     -13.658  13.929  72.573  1.00  0.00    -0.680 C  
ENDROOT
BRANCH   2   3
HETATM    3  C   UNL     1     -14.211  14.865  71.501  1.00  0.00    -0.527 C  
BRANCH   3   4
HETATM    4  N   UNL     1     -13.265  15.129  70.435  1.00  0.00    -0.679 N  
HETATM    5  H   UNL     1     -13.565  15.041  69.463  1.00  0.00     0.000 HD 
BRANCH   4   6
HETATM    6  C   UNL     1     -11.981  15.493  70.712  1.00  0.00    -0.378 C  
HETATM    7  O   UNL     1     -11.686  16.422  71.444  1.00  0.00    -0.425 OA 
BRANCH   6   8
HETATM    8  N   UNL     1     -11.039  14.679  70.109  1.00  0.00    -0.436 N  
HETATM    9  H   UNL     1     -10.505  14.042  70.699  1.00  0.00     0.000 HD 
BRANCH   8  10
HETATM   10  S   UNL     1     -10.729  14.683  68.473  1.00  0.00    -0.255 S  
HETATM   11  O   UNL     1     -11.967  14.437  67.769  1.00  0.00    -0.370 OA 
HETATM   12  O   UNL     1      -9.585  13.813  68.291  1.00  0.00    -0.211 OA 
BRANCH  10  13
HETATM   13  C   UNL     1     -10.174  16.338  68.132  1.00  0.00    -0.258 A  
HETATM   14  C   UNL     1      -9.011  16.816  68.746  1.00  0.00    -0.254 A  
HETATM   15  C   UNL     1      -8.590  18.124  68.493  1.00  0.00    -0.307 A  
HETATM   16  C   UNL     1      -9.322  18.935  67.623  1.00  0.00    -0.296 A  
HETATM   17  C   UNL     1     -10.472  18.452  67.000  1.00  0.00    -0.429 A  
HETATM   18 CL   UNL     1      -8.801  20.547  67.320  1.00  0.00    -0.440 Cl 
HETATM   19  C   UNL     1     -10.903  17.147  67.253  1.00  0.00    -0.118 A  
ENDBRANCH  10  13
ENDBRANCH   8  10
ENDBRANCH   6   8
ENDBRANCH   4   6
ENDBRANCH   3   4
ENDBRANCH   2   3
TORSDOF 6
ENDMDL
MODEL       31
REMARK 921   NORMALIZED FREE ENERGY PREDICTED BY IDOCK:   -4.80 KCAL/MOL
REMARK 922        TOTAL FREE ENERGY PREDICTED BY IDOCK:   -7.19 KCAL/MOL
REMARK 923 INTER-LIGAND FREE ENERGY PREDICTED BY IDOCK:   -6.58 KCAL/MOL
REMARK 924 INTRA-LIGAND FREE ENERGY PREDICTED BY IDOCK:   -0.61 KCAL/MOL
REMARK 927      BINDING AFFINITY PREDICTED BY RF-SCORE:    0.00 PKD
ROOT
HETATM    1  C   UNL     1     -14.243  14.719  72.068  1.00  0.00    -0.626 C  
HETATM    2  C   UNL     1     -13.282  13.632  71.609  1.00  0.00    -0.447 C  
ENDROOT
BRANCH   2   3
HETATM    3  C   UNL     1     -12.258  14.144  70.599  1.00  0.00    -0.362 C  
BRANCH   3   4
HETATM    4  N   UNL     1     -11.527  13.079  69.941  1.00  0.00    -0.512 N  
HETATM    5  H   UNL     1     -10.736  12.643  70.415  1.00  0.00     0.000 HD 
BRANCH   4   6
HETATM    6  C   UNL     1     -11.883  12.651  68.695  1.00  0.00    -0.302 C  
HETATM    7  O   UNL     1     -12.121  11.487  68.424  1.00  0.00    -0.556 OA 
BRANCH   6   8
HETATM    8  N   UNL     1     -11.985  13.677  67.773  1.00  0.00    -0.367 N  
HETATM    9  H   UNL     1     -12.865  14.190  67.719  1.00  0.00     0.000 HD 
BRANCH   8  10
HETATM   10  S   UNL     1     -10.752  14.121  66.748  1.00  0.00    -0.288 S  
HETATM   11  O   UNL     1     -11.168  13.867  65.387  1.00  0.00    -0.298 OA 
HETATM   12  O   UNL     1      -9.556  13.505  67.285  1.00  0.00    -0.222 OA 
BRANCH  10  13
HETATM   13  C   UNL     1     -10.580  15.874  66.995  1.00  0.00    -0.306 A  
HETATM   14  C   UNL     1     -10.522  16.724  65.885  1.00  0.00    -0.311 A  
HETATM   15  C   UNL     1     -10.363  18.099  66.081  1.00  0.00    -0.394 A  
HETATM   16  C   UNL     1     -10.279  18.612  67.377  1.00  0.00    -0.384 A  
HETATM   17  C   UNL     1     -10.353  17.765  68.482  1.00  0.00    -0.366 A  
HETATM   18 CL   UNL     1     -10.078  20.305  67.612  1.00  0.00    -0.539 Cl 
HETATM   19  C   UNL     1     -10.504  16.388  68.294  1.00  0.00    -0.302 A  
ENDBRANCH  10  13
ENDBRANCH   8  10
ENDBRANCH   6   8
ENDBRANCH   4   6
ENDBRANCH   3   4
ENDBRANCH   2   3
TORSDOF 6
ENDMDL
MODEL       32
REMARK 921   NORMALIZED FREE ENERGY PREDICTED BY IDOCK:   -4.80 KCAL/MOL
REMARK 922        TOTAL FREE ENERGY PREDICTED BY IDOCK:   -7.19 KCAL/MOL
REMARK 923 INTER-LIGAND FREE ENERGY PREDICTED BY IDOCK:   -6.60 KCAL/MOL
REMARK 924 INTRA-LIGAND FREE ENERGY PREDICTED BY IDOCK:   -0.59 KCAL/MOL
REMARK 927      BINDING AFFINITY PREDICTED BY RF-SCORE:    0.00 PKD
ROOT
HETATM    1  C   UNL     1      -8.551   9.179  64.230  1.00  0.00    -0.197 C  
HETATM    2  C   UNL     1      -9.781  10.048  64.451  1.00  0.00    -0.277 C  
ENDROOT
BRANCH   2   3
HETATM    3  C   UNL     1      -9.866  11.206  63.459  1.00  0.00    -0.353 C  
BRANCH   3   4
HETATM    4  N   UNL     1     -11.180  11.349  62.865  1.00  0.00    -0.726 N  
HETATM    5  H   UNL     1     -11.447  10.751  62.083  1.00  0.00     0.000 HD 
BRANCH   4   6
HETATM    6  C   UNL     1     -12.065  12.273  63.337  1.00  0.00    -0.516 C  
HETATM    7  O   UNL     1     -13.265  12.079  63.419  1.00  0.00    -0.687 OA 
BRANCH   6   8
HETATM    8  N   UNL     1     -11.461  13.446  63.753  1.00  0.00    -0.615 N  
HETATM    9  H   UNL     1     -10.777  13.881  63.133  1.00  0.00     0.000 HD 
BRANCH   8  10
HETATM   10  S   UNL     1     -11.788  14.187  65.207  1.00  0.00    -0.385 S  
HETATM   11  O   UNL     1     -13.221  14.241  65.386  1.00  0.00    -0.688 OA 
HETATM   12  O   UNL     1     -10.993  15.398  65.216  1.00  0.00    -0.353 OA 
BRANCH  10  13
HETATM   13  C   UNL     1     -11.082  13.102  66.425  1.00  0.00    -0.289 A  
HETATM   14  C   UNL     1      -9.827  13.399  66.969  1.00  0.00    -0.250 A  
HETATM   15  C   UNL     1      -9.264  12.532  67.910  1.00  0.00    -0.200 A  
HETATM   16  C   UNL     1      -9.961  11.389  68.308  1.00  0.00    -0.198 A  
HETATM   17  C   UNL     1     -11.218  11.103  67.777  1.00  0.00    -0.359 A  
HETATM   18 CL   UNL     1      -9.260  10.323  69.463  1.00  0.00    -0.216 Cl 
HETATM   19  C   UNL     1     -11.784  11.961  66.831  1.00  0.00    -0.291 A  
ENDBRANCH  10  13
ENDBRANCH   8  10
ENDBRANCH   6   8
ENDBRANCH   4   6
ENDBRANCH   3   4
ENDBRANCH   2   3
TORSDOF 6
ENDMDL
MODEL       33
REMARK 921   NORMALIZED FREE ENERGY PREDICTED BY IDOCK:   -4.79 KCAL/MOL
REMARK 922        TOTAL FREE ENERGY PREDICTED BY IDOCK:   -7.18 KCAL/MOL
REMARK 923 INTER-LIGAND FREE ENERGY PREDICTED BY IDOCK:   -6.46 KCAL/MOL
REMARK 924 INTRA-LIGAND FREE ENERGY PREDICTED BY IDOCK:   -0.72 KCAL/MOL
REMARK 927      BINDING AFFINITY PREDICTED BY RF-SCORE:    0.00 PKD
ROOT
HETATM    1  C   UNL     1      -9.671   8.278  66.801  1.00  0.00    -0.307 C  
HETATM    2  C   UNL     1     -10.494   9.557  66.777  1.00  0.00    -0.263 C  
ENDROOT
BRANCH   2   3
HETATM    3  C   UNL     1      -9.897  10.621  65.858  1.00  0.00    -0.243 C  
BRANCH   3   4
HETATM    4  N   UNL     1     -10.714  10.889  64.692  1.00  0.00    -0.264 N  
HETATM    5  H   UNL     1     -11.549  10.327  64.522  1.00  0.00     0.000 HD 
BRANCH   4   6
HETATM    6  C   UNL     1     -10.383  11.882  63.818  1.00  0.00    -0.415 C  
HETATM    7  O   UNL     1      -9.925  11.678  62.707  1.00  0.00    -0.263 OA 
BRANCH   6   8
HETATM    8  N   UNL     1     -10.654  13.149  64.302  1.00  0.00    -0.421 N  
HETATM    9  H   UNL     1      -9.893  13.828  64.325  1.00  0.00     0.000 HD 
BRANCH   8  10
HETATM   10  S   UNL     1     -12.152  13.627  64.847  1.00  0.00    -0.419 S  
HETATM   11  O   UNL     1     -13.037  12.484  64.829  1.00  0.00    -0.853 OA 
HETATM   12  O   UNL     1     -12.475  14.827  64.102  1.00  0.00    -0.758 OA 
BRANCH  10  13
HETATM   13  C   UNL     1     -11.871  14.129  66.530  1.00  0.00    -0.419 A  
HETATM   14  C   UNL     1     -11.405  15.422  66.795  1.00  0.00    -0.125 A  
HETATM   15  C   UNL     1     -11.163  15.806  68.117  1.00  0.00    -0.344 A  
HETATM   16  C   UNL     1     -11.401  14.906  69.158  1.00  0.00    -0.292 A  
HETATM   17  C   UNL     1     -11.881  13.624  68.893  1.00  0.00    -0.402 A  
HETATM   18 CL   UNL     1     -11.096  15.384  70.783  1.00  0.00    -0.361 Cl 
HETATM   19  C   UNL     1     -12.118  13.230  67.574  1.00  0.00    -0.312 A  
ENDBRANCH  10  13
ENDBRANCH   8  10
ENDBRANCH   6   8
ENDBRANCH   4   6
ENDBRANCH   3   4
ENDBRANCH   2   3
TORSDOF 6
ENDMDL
MODEL       34
REMARK 921   NORMALIZED FREE ENERGY PREDICTED BY IDOCK:   -4.75 KCAL/MOL
REMARK 922        TOTAL FREE ENERGY PREDICTED BY IDOCK:   -7.11 KCAL/MOL
REMARK 923 INTER-LIGAND FREE ENERGY PREDICTED BY IDOCK:   -6.81 KCAL/MOL
REMARK 924 INTRA-LIGAND FREE ENERGY PREDICTED BY IDOCK:   -0.31 KCAL/MOL
REMARK 927      BINDING AFFINITY PREDICTED BY RF-SCORE:    0.00 PKD
ROOT
HETATM    1  C   UNL     1     -14.333  15.219  71.898  1.00  0.00    -0.691 C  
HETATM    2  C   UNL     1     -13.160  14.471  71.280  1.00  0.00    -0.417 C  
ENDROOT
BRANCH   2   3
HETATM    3  C   UNL     1     -12.237  15.387  70.481  1.00  0.00    -0.394 C  
BRANCH   3   4
HETATM    4  N   UNL     1     -12.411  15.258  69.047  1.00  0.00    -0.602 N  
HETATM    5  H   UNL     1     -13.152  15.780  68.581  1.00  0.00     0.000 HD 
BRANCH   4   6
HETATM    6  C   UNL     1     -11.596  14.447  68.313  1.00  0.00    -0.328 C  
HETATM    7  O   UNL     1     -10.431  14.227  68.595  1.00  0.00    -0.238 OA 
BRANCH   6   8
HETATM    8  N   UNL     1     -12.233  13.863  67.233  1.00  0.00    -0.489 N  
HETATM    9  H   UNL     1     -12.986  13.201  67.419  1.00  0.00     0.000 HD 
BRANCH   8  10
HETATM   10  S   UNL     1     -11.840  14.184  65.648  1.00  0.00    -0.390 S  
HETATM   11  O   UNL     1     -10.969  15.337  65.612  1.00  0.00    -0.334 OA 
HETATM   12  O   UNL     1     -13.097  14.180  64.926  1.00  0.00    -0.677 OA 
BRANCH  10  13
HETATM   13  C   UNL     1     -10.939  12.747  65.116  1.00  0.00    -0.293 A  
HETATM   14  C   UNL     1     -10.251  11.976  66.060  1.00  0.00    -0.256 A  
HETATM   15  C   UNL     1      -9.524  10.860  65.636  1.00  0.00    -0.252 A  
HETATM   16  C   UNL     1      -9.502  10.516  64.282  1.00  0.00    -0.285 A  
HETATM   17  C   UNL     1     -10.202  11.276  63.345  1.00  0.00    -0.454 A  
HETATM   18 CL   UNL     1      -8.601   9.144  63.766  1.00  0.00    -0.204 Cl 
HETATM   19  C   UNL     1     -10.925  12.397  63.760  1.00  0.00    -0.501 A  
ENDBRANCH  10  13
ENDBRANCH   8  10
ENDBRANCH   6   8
ENDBRANCH   4   6
ENDBRANCH   3   4
ENDBRANCH   2   3
TORSDOF 6
ENDMDL
MODEL       35
REMARK 921   NORMALIZED FREE ENERGY PREDICTED BY IDOCK:   -4.75 KCAL/MOL
REMARK 922        TOTAL FREE ENERGY PREDICTED BY IDOCK:   -7.11 KCAL/MOL
REMARK 923 INTER-LIGAND FREE ENERGY PREDICTED BY IDOCK:   -6.59 KCAL/MOL
REMARK 924 INTRA-LIGAND FREE ENERGY PREDICTED BY IDOCK:   -0.52 KCAL/MOL
REMARK 927      BINDING AFFINITY PREDICTED BY RF-SCORE:    0.00 PKD
ROOT
HETATM    1  C   UNL     1     -10.346  19.460  66.326  1.00  0.00    -0.584 C  
HETATM    2  C   UNL     1     -10.166  17.955  66.463  1.00  0.00    -0.379 C  
ENDROOT
BRANCH   2   3
HETATM    3  C   UNL     1     -10.604  17.434  67.830  1.00  0.00    -0.383 C  
BRANCH   3   4
HETATM    4  N   UNL     1     -10.858  16.007  67.840  1.00  0.00    -0.326 N  
HETATM    5  H   UNL     1     -10.454  15.419  67.111  1.00  0.00     0.000 HD 
BRANCH   4   6
HETATM    6  C   UNL     1     -11.630  15.440  68.811  1.00  0.00    -0.368 C  
HETATM    7  O   UNL     1     -11.800  15.934  69.912  1.00  0.00    -0.336 OA 
BRANCH   6   8
HETATM    8  N   UNL     1     -12.235  14.262  68.410  1.00  0.00    -0.595 N  
HETATM    9  H   UNL     1     -13.253  14.236  68.362  1.00  0.00     0.000 HD 
BRANCH   8  10
HETATM   10  S   UNL     1     -11.392  12.885  68.003  1.00  0.00    -0.315 S  
HETATM   11  O   UNL     1      -9.982  13.201  67.964  1.00  0.00    -0.220 OA 
HETATM   12  O   UNL     1     -12.065  12.346  66.838  1.00  0.00    -0.564 OA 
BRANCH  10  13
HETATM   13  C   UNL     1     -11.709  11.760  69.343  1.00  0.00    -0.341 A  
HETATM   14  C   UNL     1     -11.255  10.438  69.255  1.00  0.00    -0.304 A  
HETATM   15  C   UNL     1     -11.525   9.550  70.300  1.00  0.00    -0.256 A  
HETATM   16  C   UNL     1     -12.229   9.989  71.423  1.00  0.00    -0.416 A  
HETATM   17  C   UNL     1     -12.667  11.310  71.516  1.00  0.00    -0.481 A  
HETATM   18 CL   UNL     1     -12.564   8.889  72.703  1.00  0.00    -0.366 Cl 
HETATM   19  C   UNL     1     -12.406  12.203  70.472  1.00  0.00    -0.358 A  
ENDBRANCH  10  13
ENDBRANCH   8  10
ENDBRANCH   6   8
ENDBRANCH   4   6
ENDBRANCH   3   4
ENDBRANCH   2   3
TORSDOF 6
ENDMDL
MODEL       36
REMARK 921   NORMALIZED FREE ENERGY PREDICTED BY IDOCK:   -4.74 KCAL/MOL
REMARK 922        TOTAL FREE ENERGY PREDICTED BY IDOCK:   -7.10 KCAL/MOL
REMARK 923 INTER-LIGAND FREE ENERGY PREDICTED BY IDOCK:   -6.01 KCAL/MOL
REMARK 924 INTRA-LIGAND FREE ENERGY PREDICTED BY IDOCK:   -1.10 KCAL/MOL
REMARK 927      BINDING AFFINITY PREDICTED BY RF-SCORE:    0.00 PKD
ROOT
HETATM    1  C   UNL     1     -10.415  11.532  63.893  1.00  0.00    -0.439 C  
HETATM    2  C   UNL     1     -11.856  12.000  64.040  1.00  0.00    -0.500 C  
ENDROOT
BRANCH   2   3
HETATM    3  C   UNL     1     -12.141  13.275  63.250  1.00  0.00    -0.337 C  
BRANCH   3   4
HETATM    4  N   UNL     1     -12.492  14.400  64.095  1.00  0.00    -0.795 N  
HETATM    5  H   UNL     1     -13.433  14.465  64.481  1.00  0.00     0.000 HD 
BRANCH   4   6
HETATM    6  C   UNL     1     -11.579  15.373  64.379  1.00  0.00    -0.264 C  
HETATM    7  O   UNL     1     -11.590  16.479  63.867  1.00  0.00    -1.175 OA 
BRANCH   6   8
HETATM    8  N   UNL     1     -10.657  14.995  65.338  1.00  0.00    -0.349 N  
HETATM    9  H   UNL     1      -9.678  14.923  65.063  1.00  0.00     0.000 HD 
BRANCH   8  10
HETATM   10  S   UNL     1     -11.058  14.650  66.917  1.00  0.00    -0.340 S  
HETATM   11  O   UNL     1     -12.485  14.432  66.994  1.00  0.00    -0.260 OA 
HETATM   12  O   UNL     1     -10.419  15.677  67.715  1.00  0.00    -0.261 OA 
BRANCH  10  13
HETATM   13  C   UNL     1     -10.208  13.127  67.267  1.00  0.00    -0.243 A  
HETATM   14  C   UNL     1     -10.894  12.085  67.902  1.00  0.00    -0.254 A  
HETATM   15  C   UNL     1     -10.218  10.898  68.196  1.00  0.00    -0.197 A  
HETATM   16  C   UNL     1      -8.874  10.756  67.843  1.00  0.00    -0.132 A  
HETATM   17  C   UNL     1      -8.197  11.790  67.197  1.00  0.00    -0.169 A  
HETATM   18 CL   UNL     1      -8.045   9.294  68.214  1.00  0.00    -0.106 Cl 
HETATM   19  C   UNL     1      -8.864  12.982  66.905  1.00  0.00    -0.184 A  
ENDBRANCH  10  13
ENDBRANCH   8  10
ENDBRANCH   6   8
ENDBRANCH   4   6
ENDBRANCH   3   4
ENDBRANCH   2   3
TORSDOF 6
ENDMDL
MODEL       37
REMARK 921   NORMALIZED FREE ENERGY PREDICTED BY IDOCK:   -4.73 KCAL/MOL
REMARK 922        TOTAL FREE ENERGY PREDICTED BY IDOCK:   -7.10 KCAL/MOL
REMARK 923 INTER-LIGAND FREE ENERGY PREDICTED BY IDOCK:   -6.67 KCAL/MOL
REMARK 924 INTRA-LIGAND FREE ENERGY PREDICTED BY IDOCK:   -0.42 KCAL/MOL
REMARK 927      BINDING AFFINITY PREDICTED BY RF-SCORE:    0.00 PKD
ROOT
HETATM    1  C   UNL     1     -12.664  15.282  73.480  1.00  0.00    -0.690 C  
HETATM    2  C   UNL     1     -12.883  15.539  71.996  1.00  0.00    -0.500 C  
ENDROOT
BRANCH   2   3
HETATM    3  C   UNL     1     -13.114  14.253  71.207  1.00  0.00    -0.355 C  
BRANCH   3   4
HETATM    4  N   UNL     1     -11.883  13.636  70.753  1.00  0.00    -0.519 N  
HETATM    5  H   UNL     1     -11.246  13.223  71.434  1.00  0.00     0.000 HD 
BRANCH   4   6
HETATM    6  C   UNL     1     -11.565  13.600  69.427  1.00  0.00    -0.312 C  
HETATM    7  O   UNL     1     -12.080  14.320  68.590  1.00  0.00    -0.325 OA 
BRANCH   6   8
HETATM    8  N   UNL     1     -10.569  12.688  69.128  1.00  0.00    -0.439 N  
HETATM    9  H   UNL     1      -9.599  12.972  69.267  1.00  0.00     0.000 HD 
BRANCH   8  10
HETATM   10  S   UNL     1     -10.865  11.154  68.554  1.00  0.00    -0.223 S  
HETATM   11  O   UNL     1      -9.804  10.788  67.644  1.00  0.00    -0.167 OA 
HETATM   12  O   UNL     1     -12.247  11.160  68.120  1.00  0.00    -0.612 OA 
BRANCH  10  13
HETATM   13  C   UNL     1     -10.787  10.119  69.998  1.00  0.00    -0.307 A  
HETATM   14  C   UNL     1      -9.576   9.509  70.345  1.00  0.00    -0.326 A  
HETATM   15  C   UNL     1      -9.523   8.678  71.467  1.00  0.00    -0.320 A  
HETATM   16  C   UNL     1     -10.670   8.473  72.237  1.00  0.00    -0.341 A  
HETATM   17  C   UNL     1     -11.872   9.094  71.899  1.00  0.00    -0.439 A  
HETATM   18 CL   UNL     1     -10.599   7.444  73.614  1.00  0.00    -0.390 Cl 
HETATM   19  C   UNL     1     -11.934   9.921  70.775  1.00  0.00    -0.410 A  
ENDBRANCH  10  13
ENDBRANCH   8  10
ENDBRANCH   6   8
ENDBRANCH   4   6
ENDBRANCH   3   4
ENDBRANCH   2   3
TORSDOF 6
ENDMDL
MODEL       38
REMARK 921   NORMALIZED FREE ENERGY PREDICTED BY IDOCK:   -4.72 KCAL/MOL
REMARK 922        TOTAL FREE ENERGY PREDICTED BY IDOCK:   -7.08 KCAL/MOL
REMARK 923 INTER-LIGAND FREE ENERGY PREDICTED BY IDOCK:   -6.47 KCAL/MOL
REMARK 924 INTRA-LIGAND FREE ENERGY PREDICTED BY IDOCK:   -0.61 KCAL/MOL
REMARK 927      BINDING AFFINITY PREDICTED BY RF-SCORE:    0.00 PKD
ROOT
HETATM    1  C   UNL     1     -11.446  11.926  63.986  1.00  0.00    -0.480 C  
HETATM    2  C   UNL     1     -11.007  13.271  64.545  1.00  0.00    -0.398 C  
ENDROOT
BRANCH   2   3
HETATM    3  C   UNL     1     -11.379  13.443  66.016  1.00  0.00    -0.309 C  
BRANCH   3   4
HETATM    4  N   UNL     1     -10.227  13.453  66.896  1.00  0.00    -0.249 N  
HETATM    5  H   UNL     1      -9.766  14.336  67.113  1.00  0.00     0.000 HD 
BRANCH   4   6
HETATM    6  C   UNL     1      -9.751  12.295  67.439  1.00  0.00    -0.185 C  
HETATM    7  O   UNL     1      -9.141  11.453  66.804  1.00  0.00    -0.166 OA 
BRANCH   6   8
HETATM    8  N   UNL     1      -9.996  12.187  68.796  1.00  0.00    -0.402 N  
HETATM    9  H   UNL     1      -9.314  12.584  69.442  1.00  0.00     0.000 HD 
BRANCH   8  10
HETATM   10  S   UNL     1     -11.342  11.443  69.433  1.00  0.00    -0.312 S  
HETATM   11  O   UNL     1     -10.910  10.400  70.336  1.00  0.00    -0.289 OA 
HETATM   12  O   UNL     1     -12.193  11.140  68.300  1.00  0.00    -0.613 OA 
BRANCH  10  13
HETATM   13  C   UNL     1     -12.159  12.724  70.358  1.00  0.00    -0.302 A  
HETATM   14  C   UNL     1     -12.887  12.388  71.505  1.00  0.00    -0.377 A  
HETATM   15  C   UNL     1     -13.546  13.393  72.218  1.00  0.00    -0.703 A  
HETATM   16  C   UNL     1     -13.463  14.720  71.789  1.00  0.00    -0.380 A  
HETATM   17  C   UNL     1     -12.723  15.055  70.655  1.00  0.00    -0.428 A  
HETATM   18 CL   UNL     1     -14.282  15.952  72.668  1.00  0.00    -0.475 Cl 
HETATM   19  C   UNL     1     -12.067  14.054  69.934  1.00  0.00    -0.406 A  
ENDBRANCH  10  13
ENDBRANCH   8  10
ENDBRANCH   6   8
ENDBRANCH   4   6
ENDBRANCH   3   4
ENDBRANCH   2   3
TORSDOF 6
ENDMDL
MODEL       39
REMARK 921   NORMALIZED FREE ENERGY PREDICTED BY IDOCK:   -4.72 KCAL/MOL
REMARK 922        TOTAL FREE ENERGY PREDICTED BY IDOCK:   -7.08 KCAL/MOL
REMARK 923 INTER-LIGAND FREE ENERGY PREDICTED BY IDOCK:   -6.14 KCAL/MOL
REMARK 924 INTRA-LIGAND FREE ENERGY PREDICTED BY IDOCK:   -0.94 KCAL/MOL
REMARK 927      BINDING AFFINITY PREDICTED BY RF-SCORE:    0.00 PKD
ROOT
HETATM    1  C   UNL     1      -7.969  13.247  67.206  1.00  0.00    -0.134 C  
HETATM    2  C   UNL     1      -8.809  14.459  67.581  1.00  0.00    -0.193 C  
ENDROOT
BRANCH   2   3
HETATM    3  C   UNL     1      -9.023  15.410  66.405  1.00  0.00    -0.316 C  
BRANCH   3   4
HETATM    4  N   UNL     1     -10.366  15.950  66.348  1.00  0.00    -0.296 N  
HETATM    5  H   UNL     1     -10.719  16.505  67.128  1.00  0.00     0.000 HD 
BRANCH   4   6
HETATM    6  C   UNL     1     -11.166  15.727  65.266  1.00  0.00    -0.190 C  
HETATM    7  O   UNL     1     -11.092  16.365  64.230  1.00  0.00    -0.845 OA 
BRANCH   6   8
HETATM    8  N   UNL     1     -12.047  14.676  65.444  1.00  0.00    -0.298 N  
HETATM    9  H   UNL     1     -12.974  14.883  65.814  1.00  0.00     0.000 HD 
BRANCH   8  10
HETATM   10  S   UNL     1     -11.677  13.093  65.087  1.00  0.00    -0.357 S  
HETATM   11  O   UNL     1     -10.401  13.058  64.408  1.00  0.00    -0.388 OA 
HETATM   12  O   UNL     1     -12.865  12.545  64.464  1.00  0.00    -0.701 OA 
BRANCH  10  13
HETATM   13  C   UNL     1     -11.523  12.305  66.674  1.00  0.00    -0.373 A  
HETATM   14  C   UNL     1     -11.026  10.999  66.750  1.00  0.00    -0.279 A  
HETATM   15  C   UNL     1     -10.927  10.375  67.997  1.00  0.00    -0.347 A  
HETATM   16  C   UNL     1     -11.310  11.060  69.152  1.00  0.00    -0.280 A  
HETATM   17  C   UNL     1     -11.790  12.367  69.075  1.00  0.00    -0.349 A  
HETATM   18 CL   UNL     1     -11.192  10.283  70.682  1.00  0.00    -0.404 Cl 
HETATM   19  C   UNL     1     -11.899  12.996  67.832  1.00  0.00    -0.389 A  
ENDBRANCH  10  13
ENDBRANCH   8  10
ENDBRANCH   6   8
ENDBRANCH   4   6
ENDBRANCH   3   4
ENDBRANCH   2   3
TORSDOF 6
ENDMDL
MODEL       40
REMARK 921   NORMALIZED FREE ENERGY PREDICTED BY IDOCK:   -4.70 KCAL/MOL
REMARK 922        TOTAL FREE ENERGY PREDICTED BY IDOCK:   -7.06 KCAL/MOL
REMARK 923 INTER-LIGAND FREE ENERGY PREDICTED BY IDOCK:   -6.78 KCAL/MOL
REMARK 924 INTRA-LIGAND FREE ENERGY PREDICTED BY IDOCK:   -0.28 KCAL/MOL
REMARK 927      BINDING AFFINITY PREDICTED BY RF-SCORE:    0.00 PKD
ROOT
HETATM    1  C   UNL     1     -13.591  15.230  72.481  1.00  0.00    -0.613 C  
HETATM    2  C   UNL     1     -13.182  15.230  71.015  1.00  0.00    -0.546 C  
ENDROOT
BRANCH   2   3
HETATM    3  C   UNL     1     -12.132  14.167  70.700  1.00  0.00    -0.351 C  
BRANCH   3   4
HETATM    4  N   UNL     1     -11.202  14.576  69.666  1.00  0.00    -0.272 N  
HETATM    5  H   UNL     1     -10.210  14.359  69.766  1.00  0.00     0.000 HD 
BRANCH   4   6
HETATM    6  C   UNL     1     -11.635  15.248  68.561  1.00  0.00    -0.352 C  
HETATM    7  O   UNL     1     -11.358  16.411  68.326  1.00  0.00    -0.350 OA 
BRANCH   6   8
HETATM    8  N   UNL     1     -12.392  14.466  67.708  1.00  0.00    -0.603 N  
HETATM    9  H   UNL     1     -13.317  14.170  68.019  1.00  0.00     0.000 HD 
BRANCH   8  10
HETATM   10  S   UNL     1     -11.878  13.982  66.200  1.00  0.00    -0.426 S  
HETATM   11  O   UNL     1     -10.774  14.823  65.796  1.00  0.00    -0.298 OA 
HETATM   12  O   UNL     1     -13.076  13.888  65.390  1.00  0.00    -0.752 OA 
BRANCH  10  13
HETATM   13  C   UNL     1     -11.294  12.320  66.445  1.00  0.00    -0.354 A  
HETATM   14  C   UNL     1     -10.609  11.671  65.411  1.00  0.00    -0.331 A  
HETATM   15  C   UNL     1     -10.171  10.357  65.598  1.00  0.00    -0.308 A  
HETATM   16  C   UNL     1     -10.408   9.709  66.812  1.00  0.00    -0.222 A  
HETATM   17  C   UNL     1     -11.077  10.363  67.846  1.00  0.00    -0.363 A  
HETATM   18 CL   UNL     1      -9.872   8.089  67.034  1.00  0.00    -0.267 Cl 
HETATM   19  C   UNL     1     -11.524  11.675  67.665  1.00  0.00    -0.373 A  
ENDBRANCH  10  13
ENDBRANCH   8  10
ENDBRANCH   6   8
ENDBRANCH   4   6
ENDBRANCH   3   4
ENDBRANCH   2   3
TORSDOF 6
ENDMDL
MODEL       41
REMARK 921   NORMALIZED FREE ENERGY PREDICTED BY IDOCK:   -4.70 KCAL/MOL
REMARK 922        TOTAL FREE ENERGY PREDICTED BY IDOCK:   -7.05 KCAL/MOL
REMARK 923 INTER-LIGAND FREE ENERGY PREDICTED BY IDOCK:   -6.32 KCAL/MOL
REMARK 924 INTRA-LIGAND FREE ENERGY PREDICTED BY IDOCK:   -0.73 KCAL/MOL
REMARK 927      BINDING AFFINITY PREDICTED BY RF-SCORE:    0.00 PKD
ROOT
HETATM    1  C   UNL     1     -11.344   6.224  69.559  1.00  0.00    -0.475 C  
HETATM    2  C   UNL     1     -11.935   6.946  70.761  1.00  0.00    -0.424 C  
ENDROOT
BRANCH   2   3
HETATM    3  C   UNL     1     -11.233   8.270  71.052  1.00  0.00    -0.259 C  
BRANCH   3   4
HETATM    4  N   UNL     1     -11.792   9.385  70.313  1.00  0.00    -0.466 N  
HETATM    5  H   UNL     1     -11.865   9.329  69.297  1.00  0.00     0.000 HD 
BRANCH   4   6
HETATM    6  C   UNL     1     -12.222  10.507  70.958  1.00  0.00    -0.400 C  
HETATM    7  O   UNL     1     -12.947  10.486  71.938  1.00  0.00    -0.450 OA 
BRANCH   6   8
HETATM    8  N   UNL     1     -11.724  11.676  70.412  1.00  0.00    -0.507 N  
HETATM    9  H   UNL     1     -11.665  12.500  71.011  1.00  0.00     0.000 HD 
BRANCH   8  10
HETATM   10  S   UNL     1     -11.216  11.814  68.833  1.00  0.00    -0.276 S  
HETATM   11  O   UNL     1     -12.232  11.254  67.971  1.00  0.00    -0.621 OA 
HETATM   12  O   UNL     1      -9.861  11.301  68.813  1.00  0.00    -0.205 OA 
BRANCH  10  13
HETATM   13  C   UNL     1     -11.105  13.566  68.555  1.00  0.00    -0.272 A  
HETATM   14  C   UNL     1     -10.239  14.055  67.569  1.00  0.00    -0.244 A  
HETATM   15  C   UNL     1     -10.137  15.434  67.368  1.00  0.00    -0.233 A  
HETATM   16  C   UNL     1     -10.906  16.309  68.138  1.00  0.00    -0.342 A  
HETATM   17  C   UNL     1     -11.780  15.820  69.109  1.00  0.00    -0.398 A  
HETATM   18 CL   UNL     1     -10.771  18.006  67.889  1.00  0.00    -0.385 Cl 
HETATM   19  C   UNL     1     -11.883  14.443  69.321  1.00  0.00    -0.365 A  
ENDBRANCH  10  13
ENDBRANCH   8  10
ENDBRANCH   6   8
ENDBRANCH   4   6
ENDBRANCH   3   4
ENDBRANCH   2   3
TORSDOF 6
ENDMDL
MODEL       42
REMARK 921   NORMALIZED FREE ENERGY PREDICTED BY IDOCK:   -4.68 KCAL/MOL
REMARK 922        TOTAL FREE ENERGY PREDICTED BY IDOCK:   -7.03 KCAL/MOL
REMARK 923 INTER-LIGAND FREE ENERGY PREDICTED BY IDOCK:   -6.57 KCAL/MOL
REMARK 924 INTRA-LIGAND FREE ENERGY PREDICTED BY IDOCK:   -0.46 KCAL/MOL
REMARK 927      BINDING AFFINITY PREDICTED BY RF-SCORE:    0.00 PKD
ROOT
HETATM    1  C   UNL     1     -10.403  19.576  68.056  1.00  0.00    -0.564 C  
HETATM    2  C   UNL     1      -9.633  18.294  68.338  1.00  0.00    -0.350 C  
ENDROOT
BRANCH   2   3
HETATM    3  C   UNL     1     -10.518  17.196  68.924  1.00  0.00    -0.346 C  
BRANCH   3   4
HETATM    4  N   UNL     1     -10.924  16.210  67.943  1.00  0.00    -0.334 N  
HETATM    5  H   UNL     1     -10.881  16.440  66.950  1.00  0.00     0.000 HD 
BRANCH   4   6
HETATM    6  C   UNL     1     -11.363  14.978  68.329  1.00  0.00    -0.318 C  
HETATM    7  O   UNL     1     -11.015  14.430  69.361  1.00  0.00    -0.251 OA 
BRANCH   6   8
HETATM    8  N   UNL     1     -12.276  14.422  67.451  1.00  0.00    -0.617 N  
HETATM    9  H   UNL     1     -13.211  14.210  67.799  1.00  0.00     0.000 HD 
BRANCH   8  10
HETATM   10  S   UNL     1     -11.934  14.082  65.858  1.00  0.00    -0.428 S  
HETATM   11  O   UNL     1     -10.950  15.029  65.384  1.00  0.00    -0.334 OA 
HETATM   12  O   UNL     1     -13.219  13.954  65.201  1.00  0.00    -0.768 OA 
BRANCH  10  13
HETATM   13  C   UNL     1     -11.215  12.456  65.897  1.00  0.00    -0.336 A  
HETATM   14  C   UNL     1     -11.334  11.677  67.054  1.00  0.00    -0.373 A  
HETATM   15  C   UNL     1     -10.749  10.409  67.091  1.00  0.00    -0.316 A  
HETATM   16  C   UNL     1     -10.065   9.924  65.973  1.00  0.00    -0.244 A  
HETATM   17  C   UNL     1      -9.962  10.695  64.815  1.00  0.00    -0.391 A  
HETATM   18 CL   UNL     1      -9.342   8.364  66.026  1.00  0.00    -0.263 Cl 
HETATM   19  C   UNL     1     -10.538  11.967  64.774  1.00  0.00    -0.340 A  
ENDBRANCH  10  13
ENDBRANCH   8  10
ENDBRANCH   6   8
ENDBRANCH   4   6
ENDBRANCH   3   4
ENDBRANCH   2   3
TORSDOF 6
ENDMDL
MODEL       43
REMARK 921   NORMALIZED FREE ENERGY PREDICTED BY IDOCK:   -4.68 KCAL/MOL
REMARK 922        TOTAL FREE ENERGY PREDICTED BY IDOCK:   -7.02 KCAL/MOL
REMARK 923 INTER-LIGAND FREE ENERGY PREDICTED BY IDOCK:   -6.52 KCAL/MOL
REMARK 924 INTRA-LIGAND FREE ENERGY PREDICTED BY IDOCK:   -0.50 KCAL/MOL
REMARK 927      BINDING AFFINITY PREDICTED BY RF-SCORE:    0.00 PKD
ROOT
HETATM    1  C   UNL     1      -9.360   5.698  69.895  1.00  0.00    -0.181 C  
HETATM    2  C   UNL     1     -10.816   5.868  69.484  1.00  0.00    -0.442 C  
ENDROOT
BRANCH   2   3
HETATM    3  C   UNL     1     -11.573   6.833  70.393  1.00  0.00    -0.367 C  
BRANCH   3   4
HETATM    4  N   UNL     1     -11.398   8.222  70.018  1.00  0.00    -0.452 N  
HETATM    5  H   UNL     1     -11.379   8.479  69.031  1.00  0.00     0.000 HD 
BRANCH   4   6
HETATM    6  C   UNL     1     -11.259   9.191  70.968  1.00  0.00    -0.312 C  
HETATM    7  O   UNL     1     -11.591   9.048  72.132  1.00  0.00    -0.355 OA 
BRANCH   6   8
HETATM    8  N   UNL     1     -10.666  10.345  70.488  1.00  0.00    -0.423 N  
HETATM    9  H   UNL     1      -9.737  10.588  70.832  1.00  0.00     0.000 HD 
BRANCH   8  10
HETATM   10  S   UNL     1     -11.385  11.359  69.381  1.00  0.00    -0.312 S  
HETATM   11  O   UNL     1     -12.409  10.622  68.677  1.00  0.00    -0.336 OA 
HETATM   12  O   UNL     1     -10.295  11.988  68.662  1.00  0.00    -0.216 OA 
BRANCH  10  13
HETATM   13  C   UNL     1     -12.144  12.627  70.370  1.00  0.00    -0.300 A  
HETATM   14  C   UNL     1     -11.921  13.973  70.056  1.00  0.00    -0.404 A  
HETATM   15  C   UNL     1     -12.501  14.967  70.848  1.00  0.00    -0.407 A  
HETATM   16  C   UNL     1     -13.306  14.613  71.933  1.00  0.00    -0.363 A  
HETATM   17  C   UNL     1     -13.540  13.271  72.235  1.00  0.00    -0.703 A  
HETATM   18 CL   UNL     1     -14.012  15.842  72.908  1.00  0.00    -0.596 Cl 
HETATM   19  C   UNL     1     -12.958  12.271  71.451  1.00  0.00    -0.354 A  
ENDBRANCH  10  13
ENDBRANCH   8  10
ENDBRANCH   6   8
ENDBRANCH   4   6
ENDBRANCH   3   4
ENDBRANCH   2   3
TORSDOF 6
ENDMDL
MODEL       44
REMARK 921   NORMALIZED FREE ENERGY PREDICTED BY IDOCK:   -4.68 KCAL/MOL
REMARK 922        TOTAL FREE ENERGY PREDICTED BY IDOCK:   -7.02 KCAL/MOL
REMARK 923 INTER-LIGAND FREE ENERGY PREDICTED BY IDOCK:   -6.26 KCAL/MOL
REMARK 924 INTRA-LIGAND FREE ENERGY PREDICTED BY IDOCK:   -0.76 KCAL/MOL
REMARK 927      BINDING AFFINITY PREDICTED BY RF-SCORE:    0.00 PKD
ROOT
HETATM    1  C   UNL     1     -12.224  13.044  63.571  1.00  0.00    -0.580 C  
HETATM    2  C   UNL     1     -12.500  12.705  65.028  1.00  0.00    -0.556 C  
ENDROOT
BRANCH   2   3
HETATM    3  C   UNL     1     -12.368  13.917  65.947  1.00  0.00    -0.483 C  
BRANCH   3   4
HETATM    4  N   UNL     1     -11.422  13.712  67.026  1.00  0.00    -0.327 N  
HETATM    5  H   UNL     1     -10.441  13.536  66.808  1.00  0.00     0.000 HD 
BRANCH   4   6
HETATM    6  C   UNL     1     -11.825  13.752  68.328  1.00  0.00    -0.378 C  
HETATM    7  O   UNL     1     -12.157  14.776  68.900  1.00  0.00    -0.279 OA 
BRANCH   6   8
HETATM    8  N   UNL     1     -11.856  12.507  68.930  1.00  0.00    -0.311 N  
HETATM    9  H   UNL     1     -12.541  12.347  69.669  1.00  0.00     0.000 HD 
BRANCH   8  10
HETATM   10  S   UNL     1     -10.840  11.257  68.514  1.00  0.00    -0.223 S  
HETATM   11  O   UNL     1      -9.519  11.794  68.278  1.00  0.00    -0.184 OA 
HETATM   12  O   UNL     1     -11.535  10.515  67.482  1.00  0.00    -0.431 OA 
BRANCH  10  13
HETATM   13  C   UNL     1     -10.804  10.216  69.956  1.00  0.00    -0.307 A  
HETATM   14  C   UNL     1      -9.674   9.431  70.213  1.00  0.00    -0.292 A  
HETATM   15  C   UNL     1      -9.659   8.598  71.334  1.00  0.00    -0.313 A  
HETATM   16  C   UNL     1     -10.759   8.565  72.193  1.00  0.00    -0.356 A  
HETATM   17  C   UNL     1     -11.878   9.360  71.944  1.00  0.00    -0.402 A  
HETATM   18 CL   UNL     1     -10.736   7.532  73.569  1.00  0.00    -0.394 Cl 
HETATM   19  C   UNL     1     -11.904  10.191  70.821  1.00  0.00    -0.443 A  
ENDBRANCH  10  13
ENDBRANCH   8  10
ENDBRANCH   6   8
ENDBRANCH   4   6
ENDBRANCH   3   4
ENDBRANCH   2   3
TORSDOF 6
ENDMDL
MODEL       45
REMARK 921   NORMALIZED FREE ENERGY PREDICTED BY IDOCK:   -4.65 KCAL/MOL
REMARK 922        TOTAL FREE ENERGY PREDICTED BY IDOCK:   -6.99 KCAL/MOL
REMARK 923 INTER-LIGAND FREE ENERGY PREDICTED BY IDOCK:   -6.28 KCAL/MOL
REMARK 924 INTRA-LIGAND FREE ENERGY PREDICTED BY IDOCK:   -0.71 KCAL/MOL
REMARK 927      BINDING AFFINITY PREDICTED BY RF-SCORE:    0.00 PKD
ROOT
HETATM    1  C   UNL     1     -10.504  19.375  67.393  1.00  0.00    -0.581 C  
HETATM    2  C   UNL     1      -9.968  17.967  67.179  1.00  0.00    -0.327 C  
ENDROOT
BRANCH   2   3
HETATM    3  C   UNL     1     -10.531  17.311  65.920  1.00  0.00    -0.262 C  
BRANCH   3   4
HETATM    4  N   UNL     1     -10.215  15.899  65.826  1.00  0.00    -0.342 N  
HETATM    5  H   UNL     1      -9.241  15.599  65.848  1.00  0.00     0.000 HD 
BRANCH   4   6
HETATM    6  C   UNL     1     -11.204  14.967  65.708  1.00  0.00    -0.334 C  
HETATM    7  O   UNL     1     -11.561  14.493  64.643  1.00  0.00    -0.391 OA 
BRANCH   6   8
HETATM    8  N   UNL     1     -11.739  14.581  66.923  1.00  0.00    -0.385 N  
HETATM    9  H   UNL     1     -12.710  14.822  67.120  1.00  0.00     0.000 HD 
BRANCH   8  10
HETATM   10  S   UNL     1     -10.886  13.743  68.081  1.00  0.00    -0.253 S  
HETATM   11  O   UNL     1      -9.486  14.079  67.958  1.00  0.00    -0.193 OA 
HETATM   12  O   UNL     1     -11.332  12.368  67.976  1.00  0.00    -0.246 OA 
BRANCH  10  13
HETATM   13  C   UNL     1     -11.508  14.365  69.627  1.00  0.00    -0.283 A  
HETATM   14  C   UNL     1     -11.090  15.621  70.083  1.00  0.00    -0.347 A  
HETATM   15  C   UNL     1     -11.563  16.098  71.308  1.00  0.00    -0.470 A  
HETATM   16  C   UNL     1     -12.455  15.328  72.058  1.00  0.00    -0.354 A  
HETATM   17  C   UNL     1     -12.883  14.084  71.595  1.00  0.00    -0.433 A  
HETATM   18 CL   UNL     1     -13.029  15.919  73.569  1.00  0.00    -0.666 Cl 
HETATM   19  C   UNL     1     -12.409  13.598  70.373  1.00  0.00    -0.415 A  
ENDBRANCH  10  13
ENDBRANCH   8  10
ENDBRANCH   6   8
ENDBRANCH   4   6
ENDBRANCH   3   4
ENDBRANCH   2   3
TORSDOF 6
ENDMDL
MODEL       46
REMARK 921   NORMALIZED FREE ENERGY PREDICTED BY IDOCK:   -4.65 KCAL/MOL
REMARK 922        TOTAL FREE ENERGY PREDICTED BY IDOCK:   -6.99 KCAL/MOL
REMARK 923 INTER-LIGAND FREE ENERGY PREDICTED BY IDOCK:   -6.73 KCAL/MOL
REMARK 924 INTRA-LIGAND FREE ENERGY PREDICTED BY IDOCK:   -0.26 KCAL/MOL
REMARK 927      BINDING AFFINITY PREDICTED BY RF-SCORE:    0.00 PKD
ROOT
HETATM    1  C   UNL     1     -13.256   9.219  72.158  1.00  0.00    -0.535 C  
HETATM    2  C   UNL     1     -12.967  10.626  71.655  1.00  0.00    -0.582 C  
ENDROOT
BRANCH   2   3
HETATM    3  C   UNL     1     -11.837  10.662  70.630  1.00  0.00    -0.363 C  
BRANCH   3   4
HETATM    4  N   UNL     1     -11.605  11.985  70.085  1.00  0.00    -0.531 N  
HETATM    5  H   UNL     1     -11.266  12.728  70.695  1.00  0.00     0.000 HD 
BRANCH   4   6
HETATM    6  C   UNL     1     -11.834  12.249  68.766  1.00  0.00    -0.306 C  
HETATM    7  O   UNL     1     -12.197  11.408  67.963  1.00  0.00    -0.607 OA 
BRANCH   6   8
HETATM    8  N   UNL     1     -11.651  13.579  68.435  1.00  0.00    -0.319 N  
HETATM    9  H   UNL     1     -11.711  14.274  69.180  1.00  0.00     0.000 HD 
BRANCH   8  10
HETATM   10  S   UNL     1     -11.336  14.109  66.889  1.00  0.00    -0.346 S  
HETATM   11  O   UNL     1     -12.565  14.073  66.129  1.00  0.00    -0.468 OA 
HETATM   12  O   UNL     1     -10.170  13.367  66.452  1.00  0.00    -0.280 OA 
BRANCH  10  13
HETATM   13  C   UNL     1     -10.820  15.798  67.096  1.00  0.00    -0.289 A  
HETATM   14  C   UNL     1     -10.953  16.412  68.347  1.00  0.00    -0.353 A  
HETATM   15  C   UNL     1     -10.568  17.746  68.501  1.00  0.00    -0.260 A  
HETATM   16  C   UNL     1     -10.043  18.450  67.414  1.00  0.00    -0.353 A  
HETATM   17  C   UNL     1      -9.897  17.832  66.173  1.00  0.00    -0.254 A  
HETATM   18 CL   UNL     1      -9.576  20.094  67.609  1.00  0.00    -0.513 Cl 
HETATM   19  C   UNL     1     -10.286  16.500  66.009  1.00  0.00    -0.372 A  
ENDBRANCH  10  13
ENDBRANCH   8  10
ENDBRANCH   6   8
ENDBRANCH   4   6
ENDBRANCH   3   4
ENDBRANCH   2   3
TORSDOF 6
ENDMDL
MODEL       47
REMARK 921   NORMALIZED FREE ENERGY PREDICTED BY IDOCK:   -4.60 KCAL/MOL
REMARK 922        TOTAL FREE ENERGY PREDICTED BY IDOCK:   -6.92 KCAL/MOL
REMARK 923 INTER-LIGAND FREE ENERGY PREDICTED BY IDOCK:   -6.35 KCAL/MOL
REMARK 924 INTRA-LIGAND FREE ENERGY PREDICTED BY IDOCK:   -0.57 KCAL/MOL
REMARK 927      BINDING AFFINITY PREDICTED BY RF-SCORE:    0.00 PKD
ROOT
HETATM    1  C   UNL     1      -5.321  20.932  68.495  1.00  0.00    -0.361 C  
HETATM    2  C   UNL     1      -6.610  20.210  68.861  1.00  0.00    -0.328 C  
ENDROOT
BRANCH   2   3
HETATM    3  C   UNL     1      -7.386  19.739  67.633  1.00  0.00    -0.271 C  
BRANCH   3   4
HETATM    4  N   UNL     1      -8.650  19.111  67.966  1.00  0.00    -0.300 N  
HETATM    5  H   UNL     1      -8.705  18.485  68.769  1.00  0.00     0.000 HD 
BRANCH   4   6
HETATM    6  C   UNL     1      -9.767  19.347  67.220  1.00  0.00    -0.334 C  
HETATM    7  O   UNL     1     -10.046  20.436  66.749  1.00  0.00    -0.444 OA 
BRANCH   6   8
HETATM    8  N   UNL     1     -10.537  18.217  67.015  1.00  0.00    -0.363 N  
HETATM    9  H   UNL     1     -11.390  18.110  67.564  1.00  0.00     0.000 HD 
BRANCH   8  10
HETATM   10  S   UNL     1     -10.149  17.022  65.923  1.00  0.00    -0.212 S  
HETATM   11  O   UNL     1      -8.715  17.012  65.740  1.00  0.00    -0.522 OA 
HETATM   12  O   UNL     1     -11.040  17.218  64.797  1.00  0.00    -0.954 OA 
BRANCH  10  13
HETATM   13  C   UNL     1     -10.652  15.514  66.719  1.00  0.00    -0.307 A  
HETATM   14  C   UNL     1     -11.399  15.574  67.901  1.00  0.00    -0.309 A  
HETATM   15  C   UNL     1     -11.774  14.387  68.537  1.00  0.00    -0.370 A  
HETATM   16  C   UNL     1     -11.415  13.157  67.983  1.00  0.00    -0.311 A  
HETATM   17  C   UNL     1     -10.684  13.099  66.796  1.00  0.00    -0.274 A  
HETATM   18 CL   UNL     1     -11.875  11.699  68.773  1.00  0.00    -0.385 Cl 
HETATM   19  C   UNL     1     -10.300  14.281  66.159  1.00  0.00    -0.305 A  
ENDBRANCH  10  13
ENDBRANCH   8  10
ENDBRANCH   6   8
ENDBRANCH   4   6
ENDBRANCH   3   4
ENDBRANCH   2   3
TORSDOF 6
ENDMDL
MODEL       48
REMARK 921   NORMALIZED FREE ENERGY PREDICTED BY IDOCK:   -4.58 KCAL/MOL
REMARK 922        TOTAL FREE ENERGY PREDICTED BY IDOCK:   -6.90 KCAL/MOL
REMARK 923 INTER-LIGAND FREE ENERGY PREDICTED BY IDOCK:   -6.29 KCAL/MOL
REMARK 924 INTRA-LIGAND FREE ENERGY PREDICTED BY IDOCK:   -0.61 KCAL/MOL
REMARK 927      BINDING AFFINITY PREDICTED BY RF-SCORE:    0.00 PKD
ROOT
HETATM    1  C   UNL     1     -11.789  13.503  69.524  1.00  0.00    -0.392 C  
HETATM    2  C   UNL     1     -10.766  14.069  68.550  1.00  0.00    -0.266 C  
ENDROOT
BRANCH   2   3
HETATM    3  C   UNL     1     -11.363  15.120  67.618  1.00  0.00    -0.321 C  
BRANCH   3   4
HETATM    4  N   UNL     1     -11.626  14.615  66.285  1.00  0.00    -0.363 N  
HETATM    5  H   UNL     1     -12.458  14.051  66.115  1.00  0.00     0.000 HD 
BRANCH   4   6
HETATM    6  C   UNL     1     -10.774  14.884  65.254  1.00  0.00    -0.393 C  
HETATM    7  O   UNL     1     -10.669  15.981  64.735  1.00  0.00    -0.611 OA 
BRANCH   6   8
HETATM    8  N   UNL     1     -10.009  13.794  64.878  1.00  0.00    -0.620 N  
HETATM    9  H   UNL     1      -9.006  13.825  65.057  1.00  0.00     0.000 HD 
BRANCH   8  10
HETATM   10  S   UNL     1     -10.637  12.436  64.149  1.00  0.00    -0.417 S  
HETATM   11  O   UNL     1      -9.781  12.068  63.043  1.00  0.00    -0.383 OA 
HETATM   12  O   UNL     1     -12.042  12.720  63.938  1.00  0.00    -0.414 OA 
BRANCH  10  13
HETATM   13  C   UNL     1     -10.551  11.180  65.405  1.00  0.00    -0.227 A  
HETATM   14  C   UNL     1     -11.246  11.358  66.607  1.00  0.00    -0.298 A  
HETATM   15  C   UNL     1     -11.159  10.380  67.601  1.00  0.00    -0.361 A  
HETATM   16  C   UNL     1     -10.394   9.232  67.383  1.00  0.00    -0.263 A  
HETATM   17  C   UNL     1      -9.715   9.049  66.179  1.00  0.00    -0.354 A  
HETATM   18 CL   UNL     1     -10.286   8.034  68.614  1.00  0.00    -0.217 Cl 
HETATM   19  C   UNL     1      -9.792  10.025  65.182  1.00  0.00    -0.388 A  
ENDBRANCH  10  13
ENDBRANCH   8  10
ENDBRANCH   6   8
ENDBRANCH   4   6
ENDBRANCH   3   4
ENDBRANCH   2   3
TORSDOF 6
ENDMDL
MODEL       49
REMARK 921   NORMALIZED FREE ENERGY PREDICTED BY IDOCK:   -4.56 KCAL/MOL
REMARK 922        TOTAL FREE ENERGY PREDICTED BY IDOCK:   -6.86 KCAL/MOL
REMARK 923 INTER-LIGAND FREE ENERGY PREDICTED BY IDOCK:   -6.35 KCAL/MOL
REMARK 924 INTRA-LIGAND FREE ENERGY PREDICTED BY IDOCK:   -0.51 KCAL/MOL
REMARK 927      BINDING AFFINITY PREDICTED BY RF-SCORE:    0.00 PKD
ROOT
HETATM    1  C   UNL     1     -10.531  11.745  63.537  1.00  0.00    -0.500 C  
HETATM    2  C   UNL     1     -11.787  12.593  63.404  1.00  0.00    -0.594 C  
ENDROOT
BRANCH   2   3
HETATM    3  C   UNL     1     -11.845  13.719  64.434  1.00  0.00    -0.427 C  
BRANCH   3   4
HETATM    4  N   UNL     1     -10.581  14.410  64.592  1.00  0.00    -0.588 N  
HETATM    5  H   UNL     1     -10.191  14.933  63.808  1.00  0.00     0.000 HD 
BRANCH   4   6
HETATM    6  C   UNL     1      -9.904  14.368  65.776  1.00  0.00    -0.302 C  
HETATM    7  O   UNL     1      -9.792  13.362  66.455  1.00  0.00    -0.283 OA 
BRANCH   6   8
HETATM    8  N   UNL     1      -9.322  15.576  66.115  1.00  0.00    -0.322 N  
HETATM    9  H   UNL     1      -8.305  15.618  66.185  1.00  0.00     0.000 HD 
BRANCH   8  10
HETATM   10  S   UNL     1     -10.188  16.965  66.416  1.00  0.00    -0.313 S  
HETATM   11  O   UNL     1     -11.088  16.718  67.520  1.00  0.00    -0.196 OA 
HETATM   12  O   UNL     1     -10.693  17.397  65.128  1.00  0.00    -0.684 OA 
BRANCH  10  13
HETATM   13  C   UNL     1      -8.962  18.154  66.910  1.00  0.00    -0.271 A  
HETATM   14  C   UNL     1      -7.837  17.729  67.626  1.00  0.00    -0.212 A  
HETATM   15  C   UNL     1      -6.887  18.669  68.032  1.00  0.00    -0.236 A  
HETATM   16  C   UNL     1      -7.057  20.017  67.710  1.00  0.00    -0.281 A  
HETATM   17  C   UNL     1      -8.170  20.437  66.982  1.00  0.00    -0.349 A  
HETATM   18 CL   UNL     1      -5.886  21.170  68.218  1.00  0.00    -0.377 Cl 
HETATM   19  C   UNL     1      -9.129  19.504  66.578  1.00  0.00    -0.416 A  
ENDBRANCH  10  13
ENDBRANCH   8  10
ENDBRANCH   6   8
ENDBRANCH   4   6
ENDBRANCH   3   4
ENDBRANCH   2   3
TORSDOF 6
ENDMDL
MODEL       50
REMARK 921   NORMALIZED FREE ENERGY PREDICTED BY IDOCK:   -4.55 KCAL/MOL
REMARK 922        TOTAL FREE ENERGY PREDICTED BY IDOCK:   -6.85 KCAL/MOL
REMARK 923 INTER-LIGAND FREE ENERGY PREDICTED BY IDOCK:   -6.08 KCAL/MOL
REMARK 924 INTRA-LIGAND FREE ENERGY PREDICTED BY IDOCK:   -0.76 KCAL/MOL
REMARK 927      BINDING AFFINITY PREDICTED BY RF-SCORE:    0.00 PKD
ROOT
HETATM    1  C   UNL     1     -11.129   9.660  71.219  1.00  0.00    -0.426 C  
HETATM    2  C   UNL     1     -12.487  10.327  71.061  1.00  0.00    -0.484 C  
ENDROOT
BRANCH   2   3
HETATM    3  C   UNL     1     -12.375  11.802  70.683  1.00  0.00    -0.328 C  
BRANCH   3   4
HETATM    4  N   UNL     1     -11.317  12.065  69.727  1.00  0.00    -0.490 N  
HETATM    5  H   UNL     1     -10.345  11.917  69.999  1.00  0.00     0.000 HD 
BRANCH   4   6
HETATM    6  C   UNL     1     -11.603  12.506  68.469  1.00  0.00    -0.321 C  
HETATM    7  O   UNL     1     -11.912  11.769  67.549  1.00  0.00    -0.607 OA 
BRANCH   6   8
HETATM    8  N   UNL     1     -11.547  13.883  68.347  1.00  0.00    -0.311 N  
HETATM    9  H   UNL     1     -12.255  14.345  67.776  1.00  0.00     0.000 HD 
BRANCH   8  10
HETATM   10  S   UNL     1     -10.389  14.827  69.080  1.00  0.00    -0.234 S  
HETATM   11  O   UNL     1      -9.113  14.155  68.979  1.00  0.00    -0.052 OA 
HETATM   12  O   UNL     1     -10.939  15.188  70.371  1.00  0.00    -0.264 OA 
BRANCH  10  13
HETATM   13  C   UNL     1     -10.350  16.315  68.106  1.00  0.00    -0.277 A  
HETATM   14  C   UNL     1     -10.257  17.556  68.747  1.00  0.00    -0.373 A  
HETATM   15  C   UNL     1     -10.250  18.725  67.981  1.00  0.00    -0.438 A  
HETATM   16  C   UNL     1     -10.320  18.645  66.589  1.00  0.00    -0.415 A  
HETATM   17  C   UNL     1     -10.396  17.407  65.951  1.00  0.00    -0.276 A  
HETATM   18 CL   UNL     1     -10.316  20.088  65.651  1.00  0.00    -0.493 Cl 
HETATM   19  C   UNL     1     -10.411  16.235  66.710  1.00  0.00    -0.296 A  
ENDBRANCH  10  13
ENDBRANCH   8  10
ENDBRANCH   6   8
ENDBRANCH   4   6
ENDBRANCH   3   4
ENDBRANCH   2   3
TORSDOF 6
ENDMDL
MODEL       51
REMARK 921   NORMALIZED FREE ENERGY PREDICTED BY IDOCK:   -4.55 KCAL/MOL
REMARK 922        TOTAL FREE ENERGY PREDICTED BY IDOCK:   -6.84 KCAL/MOL
REMARK 923 INTER-LIGAND FREE ENERGY PREDICTED BY IDOCK:   -5.99 KCAL/MOL
REMARK 924 INTRA-LIGAND FREE ENERGY PREDICTED BY IDOCK:   -0.86 KCAL/MOL
REMARK 927      BINDING AFFINITY PREDICTED BY RF-SCORE:    0.00 PKD
ROOT
HETATM    1  C   UNL     1     -12.049  14.573  65.078  1.00  0.00    -0.390 C  
HETATM    2  C   UNL     1     -12.375  13.111  64.810  1.00  0.00    -0.477 C  
ENDROOT
BRANCH   2   3
HETATM    3  C   UNL     1     -12.137  12.715  63.355  1.00  0.00    -0.525 C  
BRANCH   3   4
HETATM    4  N   UNL     1     -11.619  11.369  63.210  1.00  0.00    -0.848 N  
HETATM    5  H   UNL     1     -12.262  10.600  63.016  1.00  0.00     0.000 HD 
BRANCH   4   6
HETATM    6  C   UNL     1     -10.285  11.115  63.330  1.00  0.00    -0.350 C  
HETATM    7  O   UNL     1      -9.418  11.812  62.830  1.00  0.00    -0.364 OA 
BRANCH   6   8
HETATM    8  N   UNL     1     -10.006  10.007  64.109  1.00  0.00    -0.466 N  
HETATM    9  H   UNL     1     -10.427   9.116  63.847  1.00  0.00     0.000 HD 
BRANCH   8  10
HETATM   10  S   UNL     1      -9.021  10.047  65.450  1.00  0.00    -0.196 S  
HETATM   11  O   UNL     1      -7.738  10.591  65.066  1.00  0.00    -0.128 OA 
HETATM   12  O   UNL     1      -9.121   8.731  66.048  1.00  0.00    -0.185 OA 
BRANCH  10  13
HETATM   13  C   UNL     1      -9.831  11.176  66.561  1.00  0.00    -0.208 A  
HETATM   14  C   UNL     1     -10.969  10.758  67.260  1.00  0.00    -0.359 A  
HETATM   15  C   UNL     1     -11.617  11.654  68.114  1.00  0.00    -0.389 A  
HETATM   16  C   UNL     1     -11.118  12.949  68.274  1.00  0.00    -0.264 A  
HETATM   17  C   UNL     1      -9.975  13.358  67.588  1.00  0.00    -0.229 A  
HETATM   18 CL   UNL     1     -11.924  14.049  69.323  1.00  0.00    -0.377 Cl 
HETATM   19  C   UNL     1      -9.326  12.470  66.727  1.00  0.00    -0.230 A  
ENDBRANCH  10  13
ENDBRANCH   8  10
ENDBRANCH   6   8
ENDBRANCH   4   6
ENDBRANCH   3   4
ENDBRANCH   2   3
TORSDOF 6
ENDMDL
MODEL       52
REMARK 921   NORMALIZED FREE ENERGY PREDICTED BY IDOCK:   -4.53 KCAL/MOL
REMARK 922        TOTAL FREE ENERGY PREDICTED BY IDOCK:   -6.83 KCAL/MOL
REMARK 923 INTER-LIGAND FREE ENERGY PREDICTED BY IDOCK:   -6.08 KCAL/MOL
REMARK 924 INTRA-LIGAND FREE ENERGY PREDICTED BY IDOCK:   -0.75 KCAL/MOL
REMARK 927      BINDING AFFINITY PREDICTED BY RF-SCORE:    0.00 PKD
ROOT
HETATM    1  C   UNL     1     -10.702  12.278  63.886  1.00  0.00    -0.463 C  
HETATM    2  C   UNL     1     -11.189  13.657  64.304  1.00  0.00    -0.355 C  
ENDROOT
BRANCH   2   3
HETATM    3  C   UNL     1     -10.357  14.253  65.438  1.00  0.00    -0.370 C  
BRANCH   3   4
HETATM    4  N   UNL     1     -10.597  13.612  66.716  1.00  0.00    -0.272 N  
HETATM    5  H   UNL     1     -11.528  13.648  67.131  1.00  0.00     0.000 HD 
BRANCH   4   6
HETATM    6  C   UNL     1      -9.594  12.960  67.371  1.00  0.00    -0.203 C  
HETATM    7  O   UNL     1      -8.443  12.920  66.974  1.00  0.00    -0.192 OA 
BRANCH   6   8
HETATM    8  N   UNL     1     -10.003  12.377  68.557  1.00  0.00    -0.326 N  
HETATM    9  H   UNL     1      -9.313  12.258  69.298  1.00  0.00     0.000 HD 
BRANCH   8  10
HETATM   10  S   UNL     1     -11.560  11.862  68.841  1.00  0.00    -0.335 S  
HETATM   11  O   UNL     1     -12.070  11.245  67.637  1.00  0.00    -0.600 OA 
HETATM   12  O   UNL     1     -12.242  12.990  69.443  1.00  0.00    -0.237 OA 
BRANCH  10  13
HETATM   13  C   UNL     1     -11.393  10.628  70.111  1.00  0.00    -0.323 A  
HETATM   14  C   UNL     1     -10.174   9.959  70.266  1.00  0.00    -0.322 A  
HETATM   15  C   UNL     1     -10.052   8.974  71.250  1.00  0.00    -0.384 A  
HETATM   16  C   UNL     1     -11.139   8.676  72.076  1.00  0.00    -0.367 A  
HETATM   17  C   UNL     1     -12.348   9.355  71.930  1.00  0.00    -0.450 A  
HETATM   18 CL   UNL     1     -10.985   7.458  73.281  1.00  0.00    -0.413 Cl 
HETATM   19  C   UNL     1     -12.479  10.336  70.944  1.00  0.00    -0.466 A  
ENDBRANCH  10  13
ENDBRANCH   8  10
ENDBRANCH   6   8
ENDBRANCH   4   6
ENDBRANCH   3   4
ENDBRANCH   2   3
TORSDOF 6
ENDMDL
MODEL       53
REMARK 921   NORMALIZED FREE ENERGY PREDICTED BY IDOCK:   -4.53 KCAL/MOL
REMARK 922        TOTAL FREE ENERGY PREDICTED BY IDOCK:   -6.83 KCAL/MOL
REMARK 923 INTER-LIGAND FREE ENERGY PREDICTED BY IDOCK:   -6.20 KCAL/MOL
REMARK 924 INTRA-LIGAND FREE ENERGY PREDICTED BY IDOCK:   -0.62 KCAL/MOL
REMARK 927      BINDING AFFINITY PREDICTED BY RF-SCORE:    0.00 PKD
ROOT
HETATM    1  C   UNL     1     -13.990  14.304  72.150  1.00  0.00    -0.618 C  
HETATM    2  C   UNL     1     -12.557  14.799  72.283  1.00  0.00    -0.414 C  
ENDROOT
BRANCH   2   3
HETATM    3  C   UNL     1     -12.010  15.368  70.976  1.00  0.00    -0.359 C  
BRANCH   3   4
HETATM    4  N   UNL     1     -12.501  14.671  69.804  1.00  0.00    -0.533 N  
HETATM    5  H   UNL     1     -13.221  13.957  69.907  1.00  0.00     0.000 HD 
BRANCH   4   6
HETATM    6  C   UNL     1     -12.011  14.957  68.563  1.00  0.00    -0.241 C  
HETATM    7  O   UNL     1     -11.521  16.032  68.262  1.00  0.00    -0.355 OA 
BRANCH   6   8
HETATM    8  N   UNL     1     -12.091  13.892  67.684  1.00  0.00    -0.463 N  
HETATM    9  H   UNL     1     -12.558  14.039  66.790  1.00  0.00     0.000 HD 
BRANCH   8  10
HETATM   10  S   UNL     1     -11.465  12.383  68.006  1.00  0.00    -0.343 S  
HETATM   11  O   UNL     1     -12.528  11.538  68.502  1.00  0.00    -0.328 OA 
HETATM   12  O   UNL     1     -10.272  12.616  68.794  1.00  0.00    -0.185 OA 
BRANCH  10  13
HETATM   13  C   UNL     1     -10.923  11.782  66.422  1.00  0.00    -0.294 A  
HETATM   14  C   UNL     1      -9.902  10.827  66.360  1.00  0.00    -0.254 A  
HETATM   15  C   UNL     1      -9.462  10.373  65.113  1.00  0.00    -0.303 A  
HETATM   16  C   UNL     1     -10.052  10.864  63.946  1.00  0.00    -0.361 A  
HETATM   17  C   UNL     1     -11.080  11.804  64.011  1.00  0.00    -0.461 A  
HETATM   18 CL   UNL     1      -9.502  10.305  62.414  1.00  0.00    -0.294 Cl 
HETATM   19  C   UNL     1     -11.520  12.267  65.253  1.00  0.00    -0.399 A  
ENDBRANCH  10  13
ENDBRANCH   8  10
ENDBRANCH   6   8
ENDBRANCH   4   6
ENDBRANCH   3   4
ENDBRANCH   2   3
TORSDOF 6
ENDMDL
MODEL       54
REMARK 921   NORMALIZED FREE ENERGY PREDICTED BY IDOCK:   -4.52 KCAL/MOL
REMARK 922        TOTAL FREE ENERGY PREDICTED BY IDOCK:   -6.81 KCAL/MOL
REMARK 923 INTER-LIGAND FREE ENERGY PREDICTED BY IDOCK:   -6.26 KCAL/MOL
REMARK 924 INTRA-LIGAND FREE ENERGY PREDICTED BY IDOCK:   -0.56 KCAL/MOL
REMARK 927      BINDING AFFINITY PREDICTED BY RF-SCORE:    0.00 PKD
ROOT
HETATM    1  C   UNL     1      -9.202   9.731  64.398  1.00  0.00    -0.301 C  
HETATM    2  C   UNL     1     -10.053  10.712  65.192  1.00  0.00    -0.374 C  
ENDROOT
BRANCH   2   3
HETATM    3  C   UNL     1      -9.223  11.574  66.140  1.00  0.00    -0.219 C  
BRANCH   3   4
HETATM    4  N   UNL     1      -9.446  12.995  65.957  1.00  0.00    -0.454 N  
HETATM    5  H   UNL     1      -9.648  13.357  65.026  1.00  0.00     0.000 HD 
BRANCH   4   6
HETATM    6  C   UNL     1      -9.389  13.854  67.015  1.00  0.00    -0.251 C  
HETATM    7  O   UNL     1      -8.849  14.945  66.971  1.00  0.00    -0.205 OA 
BRANCH   6   8
HETATM    8  N   UNL     1     -10.042  13.381  68.139  1.00  0.00    -0.238 N  
HETATM    9  H   UNL     1      -9.476  13.046  68.919  1.00  0.00     0.000 HD 
BRANCH   8  10
HETATM   10  S   UNL     1     -11.699  13.327  68.290  1.00  0.00    -0.361 S  
HETATM   11  O   UNL     1     -12.118  11.944  68.296  1.00  0.00    -0.485 OA 
HETATM   12  O   UNL     1     -12.210  14.254  67.300  1.00  0.00    -0.393 OA 
BRANCH  10  13
HETATM   13  C   UNL     1     -12.022  14.049  69.882  1.00  0.00    -0.336 A  
HETATM   14  C   UNL     1     -11.631  15.369  70.134  1.00  0.00    -0.351 A  
HETATM   15  C   UNL     1     -11.866  15.926  71.393  1.00  0.00    -0.524 A  
HETATM   16  C   UNL     1     -12.499  15.170  72.382  1.00  0.00    -0.352 A  
HETATM   17  C   UNL     1     -12.902  13.860  72.125  1.00  0.00    -0.392 A  
HETATM   18 CL   UNL     1     -12.780  15.860  73.933  1.00  0.00    -0.690 Cl 
HETATM   19  C   UNL     1     -12.665  13.294  70.870  1.00  0.00    -0.332 A  
ENDBRANCH  10  13
ENDBRANCH   8  10
ENDBRANCH   6   8
ENDBRANCH   4   6
ENDBRANCH   3   4
ENDBRANCH   2   3
TORSDOF 6
ENDMDL
MODEL       55
REMARK 921   NORMALIZED FREE ENERGY PREDICTED BY IDOCK:   -4.51 KCAL/MOL
REMARK 922        TOTAL FREE ENERGY PREDICTED BY IDOCK:   -6.79 KCAL/MOL
REMARK 923 INTER-LIGAND FREE ENERGY PREDICTED BY IDOCK:   -6.17 KCAL/MOL
REMARK 924 INTRA-LIGAND FREE ENERGY PREDICTED BY IDOCK:   -0.62 KCAL/MOL
REMARK 927      BINDING AFFINITY PREDICTED BY RF-SCORE:    0.00 PKD
ROOT
HETATM    1  C   UNL     1     -10.516   9.131  66.342  1.00  0.00    -0.141 C  
HETATM    2  C   UNL     1      -9.529  10.156  65.801  1.00  0.00    -0.262 C  
ENDROOT
BRANCH   2   3
HETATM    3  C   UNL     1     -10.157  11.082  64.761  1.00  0.00    -0.308 C  
BRANCH   3   4
HETATM    4  N   UNL     1     -10.532  12.373  65.303  1.00  0.00    -0.279 N  
HETATM    5  H   UNL     1      -9.830  13.109  65.382  1.00  0.00     0.000 HD 
BRANCH   4   6
HETATM    6  C   UNL     1     -11.811  12.618  65.709  1.00  0.00    -0.444 C  
HETATM    7  O   UNL     1     -12.790  12.416  65.012  1.00  0.00    -0.673 OA 
BRANCH   6   8
HETATM    8  N   UNL     1     -11.893  13.084  67.009  1.00  0.00    -0.381 N  
HETATM    9  H   UNL     1     -12.586  12.664  67.628  1.00  0.00     0.000 HD 
BRANCH   8  10
HETATM   10  S   UNL     1     -10.922  14.291  67.617  1.00  0.00    -0.284 S  
HETATM   11  O   UNL     1     -11.152  15.498  66.855  1.00  0.00    -0.306 OA 
HETATM   12  O   UNL     1      -9.596  13.715  67.714  1.00  0.00    -0.211 OA 
BRANCH  10  13
HETATM   13  C   UNL     1     -11.500  14.527  69.283  1.00  0.00    -0.288 A  
HETATM   14  C   UNL     1     -12.221  13.506  69.913  1.00  0.00    -0.356 A  
HETATM   15  C   UNL     1     -12.693  13.703  71.214  1.00  0.00    -0.443 A  
HETATM   16  C   UNL     1     -12.431  14.904  71.876  1.00  0.00    -0.333 A  
HETATM   17  C   UNL     1     -11.699  15.914  71.252  1.00  0.00    -0.504 A  
HETATM   18 CL   UNL     1     -13.021  15.142  73.475  1.00  0.00    -0.621 Cl 
HETATM   19  C   UNL     1     -11.229  15.727  69.949  1.00  0.00    -0.335 A  
ENDBRANCH  10  13
ENDBRANCH   8  10
ENDBRANCH   6   8
ENDBRANCH   4   6
ENDBRANCH   3   4
ENDBRANCH   2   3
TORSDOF 6
ENDMDL
MODEL       56
REMARK 921   NORMALIZED FREE ENERGY PREDICTED BY IDOCK:   -4.50 KCAL/MOL
REMARK 922        TOTAL FREE ENERGY PREDICTED BY IDOCK:   -6.78 KCAL/MOL
REMARK 923 INTER-LIGAND FREE ENERGY PREDICTED BY IDOCK:   -6.17 KCAL/MOL
REMARK 924 INTRA-LIGAND FREE ENERGY PREDICTED BY IDOCK:   -0.61 KCAL/MOL
REMARK 927      BINDING AFFINITY PREDICTED BY RF-SCORE:    0.00 PKD
ROOT
HETATM    1  C   UNL     1      -6.457  21.155  66.966  1.00  0.00    -0.414 C  
HETATM    2  C   UNL     1      -6.898  19.749  67.347  1.00  0.00    -0.243 C  
ENDROOT
BRANCH   2   3
HETATM    3  C   UNL     1      -8.054  19.244  66.487  1.00  0.00    -0.299 C  
BRANCH   3   4
HETATM    4  N   UNL     1      -9.225  18.887  67.262  1.00  0.00    -0.281 N  
HETATM    5  H   UNL     1      -9.257  19.107  68.258  1.00  0.00     0.000 HD 
BRANCH   4   6
HETATM    6  C   UNL     1     -10.287  18.260  66.678  1.00  0.00    -0.381 C  
HETATM    7  O   UNL     1     -10.584  18.389  65.504  1.00  0.00    -0.627 OA 
BRANCH   6   8
HETATM    8  N   UNL     1     -10.975  17.429  67.544  1.00  0.00    -0.189 N  
HETATM    9  H   UNL     1     -11.866  17.756  67.918  1.00  0.00     0.000 HD 
BRANCH   8  10
HETATM   10  S   UNL     1     -10.430  15.927  68.009  1.00  0.00    -0.283 S  
HETATM   11  O   UNL     1     -11.087  15.558  69.242  1.00  0.00    -0.248 OA 
HETATM   12  O   UNL     1      -8.985  15.994  67.929  1.00  0.00    -0.184 OA 
BRANCH  10  13
HETATM   13  C   UNL     1     -10.965  14.840  66.707  1.00  0.00    -0.327 A  
HETATM   14  C   UNL     1     -10.160  14.672  65.574  1.00  0.00    -0.405 A  
HETATM   15  C   UNL     1     -10.594  13.835  64.543  1.00  0.00    -0.405 A  
HETATM   16  C   UNL     1     -11.814  13.165  64.656  1.00  0.00    -0.370 A  
HETATM   17  C   UNL     1     -12.607  13.321  65.792  1.00  0.00    -0.413 A  
HETATM   18 CL   UNL     1     -12.345  12.140  63.380  1.00  0.00    -0.669 Cl 
HETATM   19  C   UNL     1     -12.184  14.161  66.825  1.00  0.00    -0.429 A  
ENDBRANCH  10  13
ENDBRANCH   8  10
ENDBRANCH   6   8
ENDBRANCH   4   6
ENDBRANCH   3   4
ENDBRANCH   2   3
TORSDOF 6
ENDMDL
MODEL       57
REMARK 921   NORMALIZED FREE ENERGY PREDICTED BY IDOCK:   -4.49 KCAL/MOL
REMARK 922        TOTAL FREE ENERGY PREDICTED BY IDOCK:   -6.77 KCAL/MOL
REMARK 923 INTER-LIGAND FREE ENERGY PREDICTED BY IDOCK:   -6.36 KCAL/MOL
REMARK 924 INTRA-LIGAND FREE ENERGY PREDICTED BY IDOCK:   -0.41 KCAL/MOL
REMARK 927      BINDING AFFINITY PREDICTED BY RF-SCORE:    0.00 PKD
ROOT
HETATM    1  C   UNL     1     -11.869   9.671  71.459  1.00  0.00    -0.483 C  
HETATM    2  C   UNL     1     -11.287  10.158  70.140  1.00  0.00    -0.372 C  
ENDROOT
BRANCH   2   3
HETATM    3  C   UNL     1     -12.004  11.394  69.604  1.00  0.00    -0.348 C  
BRANCH   3   4
HETATM    4  N   UNL     1     -11.953  12.520  70.515  1.00  0.00    -0.526 N  
HETATM    5  H   UNL     1     -11.891  12.353  71.519  1.00  0.00     0.000 HD 
BRANCH   4   6
HETATM    6  C   UNL     1     -11.986  13.801  70.047  1.00  0.00    -0.338 C  
HETATM    7  O   UNL     1     -12.912  14.568  70.244  1.00  0.00    -0.289 OA 
BRANCH   6   8
HETATM    8  N   UNL     1     -10.843  14.160  69.354  1.00  0.00    -0.397 N  
HETATM    9  H   UNL     1      -9.969  14.235  69.874  1.00  0.00     0.000 HD 
BRANCH   8  10
HETATM   10  S   UNL     1     -10.817  14.475  67.720  1.00  0.00    -0.270 S  
HETATM   11  O   UNL     1     -12.117  14.170  67.169  1.00  0.00    -0.426 OA 
HETATM   12  O   UNL     1      -9.625  13.823  67.216  1.00  0.00    -0.224 OA 
BRANCH  10  13
HETATM   13  C   UNL     1     -10.526  16.227  67.612  1.00  0.00    -0.295 A  
HETATM   14  C   UNL     1     -10.419  16.982  68.785  1.00  0.00    -0.347 A  
HETATM   15  C   UNL     1     -10.214  18.361  68.697  1.00  0.00    -0.370 A  
HETATM   16  C   UNL     1     -10.104  18.970  67.445  1.00  0.00    -0.370 A  
HETATM   17  C   UNL     1     -10.195  18.214  66.277  1.00  0.00    -0.401 A  
HETATM   18 CL   UNL     1      -9.857  20.670  67.343  1.00  0.00    -0.594 Cl 
HETATM   19  C   UNL     1     -10.407  16.835  66.357  1.00  0.00    -0.309 A  
ENDBRANCH  10  13
ENDBRANCH   8  10
ENDBRANCH   6   8
ENDBRANCH   4   6
ENDBRANCH   3   4
ENDBRANCH   2   3
TORSDOF 6
ENDMDL
MODEL       58
REMARK 921   NORMALIZED FREE ENERGY PREDICTED BY IDOCK:   -4.49 KCAL/MOL
REMARK 922        TOTAL FREE ENERGY PREDICTED BY IDOCK:   -6.77 KCAL/MOL
REMARK 923 INTER-LIGAND FREE ENERGY PREDICTED BY IDOCK:   -6.21 KCAL/MOL
REMARK 924 INTRA-LIGAND FREE ENERGY PREDICTED BY IDOCK:   -0.56 KCAL/MOL
REMARK 927      BINDING AFFINITY PREDICTED BY RF-SCORE:    0.00 PKD
ROOT
HETATM    1  C   UNL     1      -9.855  10.411  66.992  1.00  0.00    -0.234 C  
HETATM    2  C   UNL     1      -9.933  10.351  65.473  1.00  0.00    -0.348 C  
ENDROOT
BRANCH   2   3
HETATM    3  C   UNL     1     -10.228  11.713  64.847  1.00  0.00    -0.270 C  
BRANCH   3   4
HETATM    4  N   UNL     1     -10.853  12.639  65.770  1.00  0.00    -0.269 N  
HETATM    5  H   UNL     1     -10.430  12.802  66.684  1.00  0.00     0.000 HD 
BRANCH   4   6
HETATM    6  C   UNL     1     -12.000  13.296  65.433  1.00  0.00    -0.395 C  
HETATM    7  O   UNL     1     -12.953  12.759  64.896  1.00  0.00    -0.805 OA 
BRANCH   6   8
HETATM    8  N   UNL     1     -11.992  14.631  65.796  1.00  0.00    -0.287 N  
HETATM    9  H   UNL     1     -12.615  14.930  66.546  1.00  0.00     0.000 HD 
BRANCH   8  10
HETATM   10  S   UNL     1     -11.020  15.776  65.077  1.00  0.00    -0.365 S  
HETATM   11  O   UNL     1     -11.743  16.370  63.975  1.00  0.00    -1.044 OA 
HETATM   12  O   UNL     1      -9.743  15.125  64.862  1.00  0.00    -0.070 OA 
BRANCH  10  13
HETATM   13  C   UNL     1     -10.765  16.998  66.343  1.00  0.00    -0.075 A  
HETATM   14  C   UNL     1     -10.605  18.341  65.983  1.00  0.00    -0.318 A  
HETATM   15  C   UNL     1     -10.382  19.296  66.978  1.00  0.00    -0.526 A  
HETATM   16  C   UNL     1     -10.334  18.908  68.319  1.00  0.00    -0.335 A  
HETATM   17  C   UNL     1     -10.509  17.571  68.677  1.00  0.00    -0.338 A  
HETATM   18 CL   UNL     1     -10.053  20.088  69.539  1.00  0.00    -0.224 Cl 
HETATM   19  C   UNL     1     -10.726  16.609  67.687  1.00  0.00    -0.306 A  
ENDBRANCH  10  13
ENDBRANCH   8  10
ENDBRANCH   6   8
ENDBRANCH   4   6
ENDBRANCH   3   4
ENDBRANCH   2   3
TORSDOF 6
ENDMDL
MODEL       59
REMARK 921   NORMALIZED FREE ENERGY PREDICTED BY IDOCK:   -4.48 KCAL/MOL
REMARK 922        TOTAL FREE ENERGY PREDICTED BY IDOCK:   -6.76 KCAL/MOL
REMARK 923 INTER-LIGAND FREE ENERGY PREDICTED BY IDOCK:   -5.91 KCAL/MOL
REMARK 924 INTRA-LIGAND FREE ENERGY PREDICTED BY IDOCK:   -0.85 KCAL/MOL
REMARK 927      BINDING AFFINITY PREDICTED BY RF-SCORE:    0.00 PKD
ROOT
HETATM    1  C   UNL     1      -9.238  18.667  67.592  1.00  0.00    -0.300 C  
HETATM    2  C   UNL     1      -9.994  18.885  66.290  1.00  0.00    -0.429 C  
ENDROOT
BRANCH   2   3
HETATM    3  C   UNL     1     -10.646  17.606  65.770  1.00  0.00    -0.177 C  
BRANCH   3   4
HETATM    4  N   UNL     1     -10.052  16.403  66.318  1.00  0.00    -0.313 N  
HETATM    5  H   UNL     1      -9.279  16.479  66.979  1.00  0.00     0.000 HD 
BRANCH   4   6
HETATM    6  C   UNL     1     -10.512  15.170  65.960  1.00  0.00    -0.319 C  
HETATM    7  O   UNL     1     -10.446  14.727  64.826  1.00  0.00    -0.406 OA 
BRANCH   6   8
HETATM    8  N   UNL     1     -11.030  14.450  67.022  1.00  0.00    -0.298 N  
HETATM    9  H   UNL     1     -11.462  13.547  66.827  1.00  0.00     0.000 HD 
BRANCH   8  10
HETATM   10  S   UNL     1     -10.988  14.977  68.600  1.00  0.00    -0.271 S  
HETATM   11  O   UNL     1     -11.904  16.086  68.742  1.00  0.00    -0.375 OA 
HETATM   12  O   UNL     1      -9.584  15.128  68.924  1.00  0.00    -0.205 OA 
BRANCH  10  13
HETATM   13  C   UNL     1     -11.585  13.594  69.545  1.00  0.00    -0.301 A  
HETATM   14  C   UNL     1     -11.297  12.292  69.119  1.00  0.00    -0.330 A  
HETATM   15  C   UNL     1     -11.787  11.207  69.850  1.00  0.00    -0.439 A  
HETATM   16  C   UNL     1     -12.544  11.428  71.003  1.00  0.00    -0.386 A  
HETATM   17  C   UNL     1     -12.816  12.726  71.435  1.00  0.00    -0.371 A  
HETATM   18 CL   UNL     1     -13.149  10.088  71.897  1.00  0.00    -0.541 Cl 
HETATM   19  C   UNL     1     -12.335  13.817  70.705  1.00  0.00    -0.451 A  
ENDBRANCH  10  13
ENDBRANCH   8  10
ENDBRANCH   6   8
ENDBRANCH   4   6
ENDBRANCH   3   4
ENDBRANCH   2   3
TORSDOF 6
ENDMDL
MODEL       60
REMARK 921   NORMALIZED FREE ENERGY PREDICTED BY IDOCK:   -4.48 KCAL/MOL
REMARK 922        TOTAL FREE ENERGY PREDICTED BY IDOCK:   -6.75 KCAL/MOL
REMARK 923 INTER-LIGAND FREE ENERGY PREDICTED BY IDOCK:   -6.18 KCAL/MOL
REMARK 924 INTRA-LIGAND FREE ENERGY PREDICTED BY IDOCK:   -0.57 KCAL/MOL
REMARK 927      BINDING AFFINITY PREDICTED BY RF-SCORE:    0.00 PKD
ROOT
HETATM    1  C   UNL     1     -10.492  19.600  66.161  1.00  0.00    -0.624 C  
HETATM    2  C   UNL     1      -9.501  20.156  67.174  1.00  0.00    -0.537 C  
ENDROOT
BRANCH   2   3
HETATM    3  C   UNL     1      -8.184  19.384  67.190  1.00  0.00    -0.271 C  
BRANCH   3   4
HETATM    4  N   UNL     1      -7.904  18.763  68.469  1.00  0.00    -0.326 N  
HETATM    5  H   UNL     1      -7.957  19.321  69.322  1.00  0.00     0.000 HD 
BRANCH   4   6
HETATM    6  C   UNL     1      -7.573  17.442  68.549  1.00  0.00    -0.254 C  
HETATM    7  O   UNL     1      -6.642  17.020  69.213  1.00  0.00    -0.215 OA 
BRANCH   6   8
HETATM    8  N   UNL     1      -8.422  16.621  67.831  1.00  0.00    -0.191 N  
HETATM    9  H   UNL     1      -8.101  16.266  66.930  1.00  0.00     0.000 HD 
BRANCH   8  10
HETATM   10  S   UNL     1      -9.939  16.178  68.355  1.00  0.00    -0.237 S  
HETATM   11  O   UNL     1     -10.745  17.370  68.496  1.00  0.00    -0.348 OA 
HETATM   12  O   UNL     1      -9.719  15.293  69.481  1.00  0.00    -0.238 OA 
BRANCH  10  13
HETATM   13  C   UNL     1     -10.589  15.178  67.037  1.00  0.00    -0.300 A  
HETATM   14  C   UNL     1      -9.832  14.992  65.875  1.00  0.00    -0.369 A  
HETATM   15  C   UNL     1     -10.355  14.224  64.831  1.00  0.00    -0.429 A  
HETATM   16  C   UNL     1     -11.618  13.641  64.960  1.00  0.00    -0.332 A  
HETATM   17  C   UNL     1     -12.364  13.815  66.125  1.00  0.00    -0.496 A  
HETATM   18 CL   UNL     1     -12.259  12.701  63.669  1.00  0.00    -0.597 Cl 
HETATM   19  C   UNL     1     -11.850  14.586  67.170  1.00  0.00    -0.412 A  
ENDBRANCH  10  13
ENDBRANCH   8  10
ENDBRANCH   6   8
ENDBRANCH   4   6
ENDBRANCH   3   4
ENDBRANCH   2   3
TORSDOF 6
ENDMDL
MODEL       61
REMARK 921   NORMALIZED FREE ENERGY PREDICTED BY IDOCK:   -4.46 KCAL/MOL
REMARK 922        TOTAL FREE ENERGY PREDICTED BY IDOCK:   -6.73 KCAL/MOL
REMARK 923 INTER-LIGAND FREE ENERGY PREDICTED BY IDOCK:   -6.13 KCAL/MOL
REMARK 924 INTRA-LIGAND FREE ENERGY PREDICTED BY IDOCK:   -0.60 KCAL/MOL
REMARK 927      BINDING AFFINITY PREDICTED BY RF-SCORE:    0.00 PKD
ROOT
HETATM    1  C   UNL     1      -6.921  20.135  65.897  1.00  0.00    -0.298 C  
HETATM    2  C   UNL     1      -7.516  20.694  67.181  1.00  0.00    -0.381 C  
ENDROOT
BRANCH   2   3
HETATM    3  C   UNL     1      -8.273  19.638  67.984  1.00  0.00    -0.312 C  
BRANCH   3   4
HETATM    4  N   UNL     1      -9.612  19.396  67.483  1.00  0.00    -0.315 N  
HETATM    5  H   UNL     1     -10.032  20.057  66.830  1.00  0.00     0.000 HD 
BRANCH   4   6
HETATM    6  C   UNL     1     -10.317  18.296  67.873  1.00  0.00    -0.399 C  
HETATM    7  O   UNL     1     -10.345  17.884  69.020  1.00  0.00    -0.361 OA 
BRANCH   6   8
HETATM    8  N   UNL     1     -11.032  17.711  66.843  1.00  0.00    -0.011 N  
HETATM    9  H   UNL     1     -12.039  17.868  66.806  1.00  0.00     0.000 HD 
BRANCH   8  10
HETATM   10  S   UNL     1     -10.339  16.765  65.662  1.00  0.00    -0.186 S  
HETATM   11  O   UNL     1      -8.914  17.011  65.649  1.00  0.00    -0.492 OA 
HETATM   12  O   UNL     1     -11.140  16.975  64.473  1.00  0.00    -1.098 OA 
BRANCH  10  13
HETATM   13  C   UNL     1     -10.643  15.096  66.196  1.00  0.00    -0.313 A  
HETATM   14  C   UNL     1     -10.300  14.030  65.356  1.00  0.00    -0.377 A  
HETATM   15  C   UNL     1     -10.562  12.721  65.769  1.00  0.00    -0.295 A  
HETATM   16  C   UNL     1     -11.148  12.486  67.015  1.00  0.00    -0.281 A  
HETATM   17  C   UNL     1     -11.474  13.549  67.857  1.00  0.00    -0.353 A  
HETATM   18 CL   UNL     1     -11.472  10.872  67.514  1.00  0.00    -0.319 Cl 
HETATM   19  C   UNL     1     -11.222  14.862  67.448  1.00  0.00    -0.343 A  
ENDBRANCH  10  13
ENDBRANCH   8  10
ENDBRANCH   6   8
ENDBRANCH   4   6
ENDBRANCH   3   4
ENDBRANCH   2   3
TORSDOF 6
ENDMDL
MODEL       62
REMARK 921   NORMALIZED FREE ENERGY PREDICTED BY IDOCK:   -4.46 KCAL/MOL
REMARK 922        TOTAL FREE ENERGY PREDICTED BY IDOCK:   -6.73 KCAL/MOL
REMARK 923 INTER-LIGAND FREE ENERGY PREDICTED BY IDOCK:   -6.14 KCAL/MOL
REMARK 924 INTRA-LIGAND FREE ENERGY PREDICTED BY IDOCK:   -0.59 KCAL/MOL
REMARK 927      BINDING AFFINITY PREDICTED BY RF-SCORE:    0.00 PKD
ROOT
HETATM    1  C   UNL     1     -10.808   6.849  66.960  1.00  0.00    -0.436 C  
HETATM    2  C   UNL     1     -10.510   8.338  67.072  1.00  0.00    -0.384 C  
ENDROOT
BRANCH   2   3
HETATM    3  C   UNL     1      -9.628   8.845  65.934  1.00  0.00    -0.223 C  
BRANCH   3   4
HETATM    4  N   UNL     1     -10.070  10.117  65.396  1.00  0.00    -0.300 N  
HETATM    5  H   UNL     1     -10.315  10.188  64.409  1.00  0.00     0.000 HD 
BRANCH   4   6
HETATM    6  C   UNL     1     -10.163  11.220  66.193  1.00  0.00    -0.245 C  
HETATM    7  O   UNL     1      -9.245  11.638  66.876  1.00  0.00    -0.175 OA 
BRANCH   6   8
HETATM    8  N   UNL     1     -11.396  11.843  66.122  1.00  0.00    -0.339 N  
HETATM    9  H   UNL     1     -12.143  11.504  66.729  1.00  0.00     0.000 HD 
BRANCH   8  10
HETATM   10  S   UNL     1     -11.728  13.115  65.101  1.00  0.00    -0.357 S  
HETATM   11  O   UNL     1     -13.150  13.142  64.843  1.00  0.00    -0.744 OA 
HETATM   12  O   UNL     1     -10.777  13.002  64.014  1.00  0.00    -0.400 OA 
BRANCH  10  13
HETATM   13  C   UNL     1     -11.271  14.560  66.032  1.00  0.00    -0.337 A  
HETATM   14  C   UNL     1     -11.506  14.595  67.412  1.00  0.00    -0.384 A  
HETATM   15  C   UNL     1     -11.167  15.740  68.136  1.00  0.00    -0.344 A  
HETATM   16  C   UNL     1     -10.586  16.831  67.485  1.00  0.00    -0.309 A  
HETATM   17  C   UNL     1     -10.338  16.788  66.113  1.00  0.00    -0.338 A  
HETATM   18 CL   UNL     1     -10.176  18.241  68.382  1.00  0.00    -0.397 Cl 
HETATM   19  C   UNL     1     -10.681  15.649  65.380  1.00  0.00    -0.424 A  
ENDBRANCH  10  13
ENDBRANCH   8  10
ENDBRANCH   6   8
ENDBRANCH   4   6
ENDBRANCH   3   4
ENDBRANCH   2   3
TORSDOF 6
ENDMDL
MODEL       63
REMARK 921   NORMALIZED FREE ENERGY PREDICTED BY IDOCK:   -4.44 KCAL/MOL
REMARK 922        TOTAL FREE ENERGY PREDICTED BY IDOCK:   -6.70 KCAL/MOL
REMARK 923 INTER-LIGAND FREE ENERGY PREDICTED BY IDOCK:   -5.86 KCAL/MOL
REMARK 924 INTRA-LIGAND FREE ENERGY PREDICTED BY IDOCK:   -0.84 KCAL/MOL
REMARK 927      BINDING AFFINITY PREDICTED BY RF-SCORE:    0.00 PKD
ROOT
HETATM    1  C   UNL     1     -11.493  12.207  67.850  1.00  0.00    -0.392 C  
HETATM    2  C   UNL     1     -11.625  11.972  66.352  1.00  0.00    -0.381 C  
ENDROOT
BRANCH   2   3
HETATM    3  C   UNL     1     -12.535  12.995  65.676  1.00  0.00    -0.390 C  
BRANCH   3   4
HETATM    4  N   UNL     1     -11.832  13.851  64.741  1.00  0.00    -0.377 N  
HETATM    5  H   UNL     1     -12.319  14.639  64.315  1.00  0.00     0.000 HD 
BRANCH   4   6
HETATM    6  C   UNL     1     -10.526  13.617  64.424  1.00  0.00    -0.300 C  
HETATM    7  O   UNL     1     -10.173  12.934  63.478  1.00  0.00    -0.306 OA 
BRANCH   6   8
HETATM    8  N   UNL     1      -9.635  14.263  65.262  1.00  0.00    -0.520 N  
HETATM    9  H   UNL     1      -8.824  13.743  65.595  1.00  0.00     0.000 HD 
BRANCH   8  10
HETATM   10  S   UNL     1      -9.814  15.843  65.756  1.00  0.00    -0.319 S  
HETATM   11  O   UNL     1     -10.890  16.444  65.000  1.00  0.00    -0.591 OA 
HETATM   12  O   UNL     1      -8.482  16.412  65.733  1.00  0.00    -0.346 OA 
BRANCH  10  13
HETATM   13  C   UNL     1     -10.290  15.721  67.465  1.00  0.00    -0.280 A  
HETATM   14  C   UNL     1     -11.643  15.802  67.812  1.00  0.00    -0.097 A  
HETATM   15  C   UNL     1     -12.012  15.729  69.157  1.00  0.00    -0.312 A  
HETATM   16  C   UNL     1     -11.034  15.563  70.140  1.00  0.00    -0.321 A  
HETATM   17  C   UNL     1      -9.687  15.467  69.791  1.00  0.00    -0.247 A  
HETATM   18 CL   UNL     1     -11.494  15.480  71.796  1.00  0.00    -0.489 Cl 
HETATM   19  C   UNL     1      -9.309  15.546  68.448  1.00  0.00    -0.192 A  
ENDBRANCH  10  13
ENDBRANCH   8  10
ENDBRANCH   6   8
ENDBRANCH   4   6
ENDBRANCH   3   4
ENDBRANCH   2   3
TORSDOF 6
ENDMDL
MODEL       64
REMARK 921   NORMALIZED FREE ENERGY PREDICTED BY IDOCK:   -4.43 KCAL/MOL
REMARK 922        TOTAL FREE ENERGY PREDICTED BY IDOCK:   -6.69 KCAL/MOL
REMARK 923 INTER-LIGAND FREE ENERGY PREDICTED BY IDOCK:   -6.54 KCAL/MOL
REMARK 924 INTRA-LIGAND FREE ENERGY PREDICTED BY IDOCK:   -0.15 KCAL/MOL
REMARK 927      BINDING AFFINITY PREDICTED BY RF-SCORE:    0.00 PKD
ROOT
HETATM    1  C   UNL     1     -10.611  19.677  66.355  1.00  0.00    -0.592 C  
HETATM    2  C   UNL     1     -10.455  18.826  67.607  1.00  0.00    -0.495 C  
ENDROOT
BRANCH   2   3
HETATM    3  C   UNL     1      -9.256  17.884  67.529  1.00  0.00    -0.249 C  
BRANCH   3   4
HETATM    4  N   UNL     1      -9.153  17.201  66.254  1.00  0.00    -0.250 N  
HETATM    5  H   UNL     1      -8.807  17.706  65.439  1.00  0.00     0.000 HD 
BRANCH   4   6
HETATM    6  C   UNL     1      -9.511  15.890  66.131  1.00  0.00    -0.340 C  
HETATM    7  O   UNL     1      -8.798  14.961  66.469  1.00  0.00    -0.266 OA 
BRANCH   6   8
HETATM    8  N   UNL     1     -10.784  15.717  65.619  1.00  0.00    -0.352 N  
HETATM    9  H   UNL     1     -11.368  16.543  65.492  1.00  0.00     0.000 HD 
BRANCH   8  10
HETATM   10  S   UNL     1     -11.415  14.235  65.199  1.00  0.00    -0.369 S  
HETATM   11  O   UNL     1     -10.457  13.545  64.365  1.00  0.00    -0.430 OA 
HETATM   12  O   UNL     1     -12.757  14.502  64.724  1.00  0.00    -0.606 OA 
BRANCH  10  13
HETATM   13  C   UNL     1     -11.581  13.370  66.744  1.00  0.00    -0.365 A  
HETATM   14  C   UNL     1     -11.361  11.989  66.789  1.00  0.00    -0.398 A  
HETATM   15  C   UNL     1     -11.515  11.309  68.000  1.00  0.00    -0.369 A  
HETATM   16  C   UNL     1     -11.872  12.011  69.153  1.00  0.00    -0.311 A  
HETATM   17  C   UNL     1     -12.075  13.390  69.110  1.00  0.00    -0.306 A  
HETATM   18 CL   UNL     1     -12.065  11.167  70.640  1.00  0.00    -0.458 Cl 
HETATM   19  C   UNL     1     -11.930  14.076  67.902  1.00  0.00    -0.387 A  
ENDBRANCH  10  13
ENDBRANCH   8  10
ENDBRANCH   6   8
ENDBRANCH   4   6
ENDBRANCH   3   4
ENDBRANCH   2   3
TORSDOF 6
ENDMDL
MODEL       65
REMARK 921   NORMALIZED FREE ENERGY PREDICTED BY IDOCK:   -4.43 KCAL/MOL
REMARK 922        TOTAL FREE ENERGY PREDICTED BY IDOCK:   -6.69 KCAL/MOL
REMARK 923 INTER-LIGAND FREE ENERGY PREDICTED BY IDOCK:   -5.73 KCAL/MOL
REMARK 924 INTRA-LIGAND FREE ENERGY PREDICTED BY IDOCK:   -0.96 KCAL/MOL
REMARK 927      BINDING AFFINITY PREDICTED BY RF-SCORE:    0.00 PKD
ROOT
HETATM    1  C   UNL     1     -10.743  17.315  65.456  1.00  0.00    -0.105 C  
HETATM    2  C   UNL     1     -10.537  15.852  65.093  1.00  0.00    -0.421 C  
ENDROOT
BRANCH   2   3
HETATM    3  C   UNL     1     -11.726  15.261  64.339  1.00  0.00    -0.285 C  
BRANCH   3   4
HETATM    4  N   UNL     1     -11.531  13.874  63.968  1.00  0.00    -0.615 N  
HETATM    5  H   UNL     1     -10.734  13.615  63.387  1.00  0.00     0.000 HD 
BRANCH   4   6
HETATM    6  C   UNL     1     -12.400  12.909  64.387  1.00  0.00    -0.398 C  
HETATM    7  O   UNL     1     -13.080  12.238  63.629  1.00  0.00    -0.780 OA 
BRANCH   6   8
HETATM    8  N   UNL     1     -12.407  12.737  65.759  1.00  0.00    -0.411 N  
HETATM    9  H   UNL     1     -13.161  13.168  66.294  1.00  0.00     0.000 HD 
BRANCH   8  10
HETATM   10  S   UNL     1     -11.254  11.867  66.585  1.00  0.00    -0.329 S  
HETATM   11  O   UNL     1     -10.471  11.115  65.631  1.00  0.00    -0.254 OA 
HETATM   12  O   UNL     1     -11.963  11.196  67.656  1.00  0.00    -0.613 OA 
BRANCH  10  13
HETATM   13  C   UNL     1     -10.227  13.103  67.347  1.00  0.00    -0.232 A  
HETATM   14  C   UNL     1      -8.856  13.129  67.067  1.00  0.00    -0.212 A  
HETATM   15  C   UNL     1      -8.048  14.087  67.685  1.00  0.00    -0.180 A  
HETATM   16  C   UNL     1      -8.615  15.015  68.562  1.00  0.00    -0.166 A  
HETATM   17  C   UNL     1      -9.984  14.997  68.828  1.00  0.00    -0.228 A  
HETATM   18 CL   UNL     1      -7.613  16.189  69.324  1.00  0.00    -0.232 Cl 
HETATM   19  C   UNL     1     -10.797  14.038  68.219  1.00  0.00    -0.268 A  
ENDBRANCH  10  13
ENDBRANCH   8  10
ENDBRANCH   6   8
ENDBRANCH   4   6
ENDBRANCH   3   4
ENDBRANCH   2   3
TORSDOF 6
ENDMDL
MODEL       66
REMARK 921   NORMALIZED FREE ENERGY PREDICTED BY IDOCK:   -4.43 KCAL/MOL
REMARK 922        TOTAL FREE ENERGY PREDICTED BY IDOCK:   -6.69 KCAL/MOL
REMARK 923 INTER-LIGAND FREE ENERGY PREDICTED BY IDOCK:   -5.94 KCAL/MOL
REMARK 924 INTRA-LIGAND FREE ENERGY PREDICTED BY IDOCK:   -0.76 KCAL/MOL
REMARK 927      BINDING AFFINITY PREDICTED BY RF-SCORE:    0.00 PKD
ROOT
HETATM    1  C   UNL     1      -8.716  10.224  62.902  1.00  0.00    -0.212 C  
HETATM    2  C   UNL     1      -9.919  10.960  63.473  1.00  0.00    -0.419 C  
ENDROOT
BRANCH   2   3
HETATM    3  C   UNL     1     -10.061  10.769  64.981  1.00  0.00    -0.313 C  
BRANCH   3   4
HETATM    4  N   UNL     1     -11.267  11.369  65.519  1.00  0.00    -0.142 N  
HETATM    5  H   UNL     1     -12.100  11.434  64.935  1.00  0.00     0.000 HD 
BRANCH   4   6
HETATM    6  C   UNL     1     -11.301  11.846  66.796  1.00  0.00    -0.330 C  
HETATM    7  O   UNL     1     -11.672  11.189  67.753  1.00  0.00    -0.560 OA 
BRANCH   6   8
HETATM    8  N   UNL     1     -10.837  13.145  66.907  1.00  0.00    -0.263 N  
HETATM    9  H   UNL     1     -10.228  13.373  67.693  1.00  0.00     0.000 HD 
BRANCH   8  10
HETATM   10  S   UNL     1     -11.218  14.355  65.829  1.00  0.00    -0.333 S  
HETATM   11  O   UNL     1     -12.636  14.299  65.554  1.00  0.00    -0.458 OA 
HETATM   12  O   UNL     1     -10.248  14.243  64.758  1.00  0.00    -0.412 OA 
BRANCH  10  13
HETATM   13  C   UNL     1     -10.845  15.859  66.702  1.00  0.00    -0.213 A  
HETATM   14  C   UNL     1     -10.921  15.882  68.099  1.00  0.00    -0.335 A  
HETATM   15  C   UNL     1     -10.649  17.071  68.781  1.00  0.00    -0.346 A  
HETATM   16  C   UNL     1     -10.292  18.218  68.067  1.00  0.00    -0.391 A  
HETATM   17  C   UNL     1     -10.201  18.188  66.676  1.00  0.00    -0.388 A  
HETATM   18 CL   UNL     1      -9.964  19.680  68.913  1.00  0.00    -0.541 Cl 
HETATM   19  C   UNL     1     -10.478  17.005  65.987  1.00  0.00    -0.280 A  
ENDBRANCH  10  13
ENDBRANCH   8  10
ENDBRANCH   6   8
ENDBRANCH   4   6
ENDBRANCH   3   4
ENDBRANCH   2   3
TORSDOF 6
ENDMDL
MODEL       67
REMARK 921   NORMALIZED FREE ENERGY PREDICTED BY IDOCK:   -4.43 KCAL/MOL
REMARK 922        TOTAL FREE ENERGY PREDICTED BY IDOCK:   -6.68 KCAL/MOL
REMARK 923 INTER-LIGAND FREE ENERGY PREDICTED BY IDOCK:   -6.42 KCAL/MOL
REMARK 924 INTRA-LIGAND FREE ENERGY PREDICTED BY IDOCK:   -0.26 KCAL/MOL
REMARK 927      BINDING AFFINITY PREDICTED BY RF-SCORE:    0.00 PKD
ROOT
HETATM    1  C   UNL     1      -8.437  19.579  68.082  1.00  0.00    -0.361 C  
HETATM    2  C   UNL     1      -9.590  20.037  67.201  1.00  0.00    -0.533 C  
ENDROOT
BRANCH   2   3
HETATM    3  C   UNL     1     -10.750  19.044  67.190  1.00  0.00    -0.456 C  
BRANCH   3   4
HETATM    4  N   UNL     1     -10.361  17.711  67.607  1.00  0.00    -0.354 N  
HETATM    5  H   UNL     1      -9.931  17.576  68.521  1.00  0.00     0.000 HD 
BRANCH   4   6
HETATM    6  C   UNL     1     -10.562  16.636  66.792  1.00  0.00    -0.214 C  
HETATM    7  O   UNL     1     -10.513  16.693  65.575  1.00  0.00    -0.509 OA 
BRANCH   6   8
HETATM    8  N   UNL     1     -10.791  15.461  67.484  1.00  0.00    -0.299 N  
HETATM    9  H   UNL     1     -10.715  15.478  68.501  1.00  0.00     0.000 HD 
BRANCH   8  10
HETATM   10  S   UNL     1     -11.184  14.020  66.749  1.00  0.00    -0.326 S  
HETATM   11  O   UNL     1     -10.032  13.546  66.016  1.00  0.00    -0.295 OA 
HETATM   12  O   UNL     1     -12.446  14.256  66.077  1.00  0.00    -0.442 OA 
BRANCH  10  13
HETATM   13  C   UNL     1     -11.521  12.912  68.098  1.00  0.00    -0.315 A  
HETATM   14  C   UNL     1     -11.912  13.433  69.337  1.00  0.00    -0.369 A  
HETATM   15  C   UNL     1     -12.154  12.561  70.402  1.00  0.00    -0.380 A  
HETATM   16  C   UNL     1     -12.019  11.183  70.219  1.00  0.00    -0.373 A  
HETATM   17  C   UNL     1     -11.645  10.665  68.980  1.00  0.00    -0.332 A  
HETATM   18 CL   UNL     1     -12.313  10.116  71.536  1.00  0.00    -0.490 Cl 
HETATM   19  C   UNL     1     -11.394  11.531  67.912  1.00  0.00    -0.372 A  
ENDBRANCH  10  13
ENDBRANCH   8  10
ENDBRANCH   6   8
ENDBRANCH   4   6
ENDBRANCH   3   4
ENDBRANCH   2   3
TORSDOF 6
ENDMDL
MODEL       68
REMARK 921   NORMALIZED FREE ENERGY PREDICTED BY IDOCK:   -4.41 KCAL/MOL
REMARK 922        TOTAL FREE ENERGY PREDICTED BY IDOCK:   -6.66 KCAL/MOL
REMARK 923 INTER-LIGAND FREE ENERGY PREDICTED BY IDOCK:   -5.87 KCAL/MOL
REMARK 924 INTRA-LIGAND FREE ENERGY PREDICTED BY IDOCK:   -0.79 KCAL/MOL
REMARK 927      BINDING AFFINITY PREDICTED BY RF-SCORE:    0.00 PKD
ROOT
HETATM    1  C   UNL     1      -8.205  10.273  63.779  1.00  0.00    -0.153 C  
HETATM    2  C   UNL     1      -8.957  10.980  62.661  1.00  0.00    -0.355 C  
ENDROOT
BRANCH   2   3
HETATM    3  C   UNL     1     -10.461  11.045  62.916  1.00  0.00     0.120 C  
BRANCH   3   4
HETATM    4  N   UNL     1     -10.855  12.204  63.693  1.00  0.00    -0.425 N  
HETATM    5  H   UNL     1     -10.171  12.934  63.890  1.00  0.00     0.000 HD 
BRANCH   4   6
HETATM    6  C   UNL     1     -12.129  12.331  64.164  1.00  0.00    -0.436 C  
HETATM    7  O   UNL     1     -13.120  12.257  63.458  1.00  0.00    -0.766 OA 
BRANCH   6   8
HETATM    8  N   UNL     1     -12.190  12.514  65.534  1.00  0.00    -0.431 N  
HETATM    9  H   UNL     1     -13.107  12.641  65.962  1.00  0.00     0.000 HD 
BRANCH   8  10
HETATM   10  S   UNL     1     -10.850  12.539  66.521  1.00  0.00    -0.265 S  
HETATM   11  O   UNL     1     -10.060  13.705  66.198  1.00  0.00    -0.291 OA 
HETATM   12  O   UNL     1     -10.280  11.209  66.439  1.00  0.00    -0.219 OA 
BRANCH  10  13
HETATM   13  C   UNL     1     -11.513  12.712  68.162  1.00  0.00    -0.313 A  
HETATM   14  C   UNL     1     -11.842  13.984  68.643  1.00  0.00    -0.396 A  
HETATM   15  C   UNL     1     -12.341  14.119  69.941  1.00  0.00    -0.382 A  
HETATM   16  C   UNL     1     -12.520  12.988  70.740  1.00  0.00    -0.302 A  
HETATM   17  C   UNL     1     -12.206  11.719  70.254  1.00  0.00    -0.381 A  
HETATM   18 CL   UNL     1     -13.130  13.161  72.340  1.00  0.00    -0.476 Cl 
HETATM   19  C   UNL     1     -11.700  11.576  68.959  1.00  0.00    -0.400 A  
ENDBRANCH  10  13
ENDBRANCH   8  10
ENDBRANCH   6   8
ENDBRANCH   4   6
ENDBRANCH   3   4
ENDBRANCH   2   3
TORSDOF 6
ENDMDL
MODEL       69
REMARK 921   NORMALIZED FREE ENERGY PREDICTED BY IDOCK:   -4.39 KCAL/MOL
REMARK 922        TOTAL FREE ENERGY PREDICTED BY IDOCK:   -6.63 KCAL/MOL
REMARK 923 INTER-LIGAND FREE ENERGY PREDICTED BY IDOCK:   -5.85 KCAL/MOL
REMARK 924 INTRA-LIGAND FREE ENERGY PREDICTED BY IDOCK:   -0.78 KCAL/MOL
REMARK 927      BINDING AFFINITY PREDICTED BY RF-SCORE:    0.00 PKD
ROOT
HETATM    1  C   UNL     1     -11.229   6.137  69.531  1.00  0.00    -0.482 C  
HETATM    2  C   UNL     1     -11.806   6.834  70.755  1.00  0.00    -0.446 C  
ENDROOT
BRANCH   2   3
HETATM    3  C   UNL     1     -11.220   8.228  70.966  1.00  0.00    -0.259 C  
BRANCH   3   4
HETATM    4  N   UNL     1     -11.064   8.972  69.731  1.00  0.00    -0.396 N  
HETATM    5  H   UNL     1     -11.793   8.924  69.019  1.00  0.00     0.000 HD 
BRANCH   4   6
HETATM    6  C   UNL     1      -9.956   9.735  69.509  1.00  0.00    -0.214 C  
HETATM    7  O   UNL     1      -8.852   9.272  69.282  1.00  0.00    -0.136 OA 
BRANCH   6   8
HETATM    8  N   UNL     1     -10.215  11.094  69.530  1.00  0.00    -0.438 N  
HETATM    9  H   UNL     1      -9.432  11.731  69.679  1.00  0.00     0.000 HD 
BRANCH   8  10
HETATM   10  S   UNL     1     -11.732  11.747  69.325  1.00  0.00    -0.347 S  
HETATM   11  O   UNL     1     -12.451  11.647  70.575  1.00  0.00    -0.308 OA 
HETATM   12  O   UNL     1     -12.256  11.143  68.116  1.00  0.00    -0.612 OA 
BRANCH  10  13
HETATM   13  C   UNL     1     -11.431  13.459  68.952  1.00  0.00    -0.304 A  
HETATM   14  C   UNL     1     -11.352  14.389  69.996  1.00  0.00    -0.253 A  
HETATM   15  C   UNL     1     -11.138  15.737  69.698  1.00  0.00    -0.307 A  
HETATM   16  C   UNL     1     -10.991  16.143  68.370  1.00  0.00    -0.341 A  
HETATM   17  C   UNL     1     -11.055  15.213  67.333  1.00  0.00    -0.325 A  
HETATM   18 CL   UNL     1     -10.734  17.806  68.010  1.00  0.00    -0.366 Cl 
HETATM   19  C   UNL     1     -11.275  13.864  67.621  1.00  0.00    -0.316 A  
ENDBRANCH  10  13
ENDBRANCH   8  10
ENDBRANCH   6   8
ENDBRANCH   4   6
ENDBRANCH   3   4
ENDBRANCH   2   3
TORSDOF 6
ENDMDL
MODEL       70
REMARK 921   NORMALIZED FREE ENERGY PREDICTED BY IDOCK:   -4.37 KCAL/MOL
REMARK 922        TOTAL FREE ENERGY PREDICTED BY IDOCK:   -6.61 KCAL/MOL
REMARK 923 INTER-LIGAND FREE ENERGY PREDICTED BY IDOCK:   -6.57 KCAL/MOL
REMARK 924 INTRA-LIGAND FREE ENERGY PREDICTED BY IDOCK:   -0.04 KCAL/MOL
REMARK 927      BINDING AFFINITY PREDICTED BY RF-SCORE:    0.00 PKD
ROOT
HETATM    1  C   UNL     1      -7.079  17.377  67.689  1.00  0.00    -0.176 C  
HETATM    2  C   UNL     1      -8.058  17.516  66.533  1.00  0.00    -0.305 C  
ENDROOT
BRANCH   2   3
HETATM    3  C   UNL     1      -9.253  16.574  66.660  1.00  0.00    -0.250 C  
BRANCH   3   4
HETATM    4  N   UNL     1     -10.363  16.946  65.805  1.00  0.00    -0.328 N  
HETATM    5  H   UNL     1     -10.729  17.897  65.840  1.00  0.00     0.000 HD 
BRANCH   4   6
HETATM    6  C   UNL     1     -10.926  16.040  64.955  1.00  0.00    -0.384 C  
HETATM    7  O   UNL     1     -11.557  16.350  63.959  1.00  0.00    -1.071 OA 
BRANCH   6   8
HETATM    8  N   UNL     1     -10.678  14.727  65.313  1.00  0.00    -0.361 N  
HETATM    9  H   UNL     1      -9.716  14.390  65.270  1.00  0.00     0.000 HD 
BRANCH   8  10
HETATM   10  S   UNL     1     -11.862  13.667  65.808  1.00  0.00    -0.394 S  
HETATM   11  O   UNL     1     -11.438  12.321  65.496  1.00  0.00    -0.337 OA 
HETATM   12  O   UNL     1     -13.104  14.195  65.281  1.00  0.00    -0.763 OA 
BRANCH  10  13
HETATM   13  C   UNL     1     -11.928  13.871  67.574  1.00  0.00    -0.386 A  
HETATM   14  C   UNL     1     -11.889  12.742  68.400  1.00  0.00    -0.353 A  
HETATM   15  C   UNL     1     -11.964  12.904  69.786  1.00  0.00    -0.365 A  
HETATM   16  C   UNL     1     -12.062  14.185  70.334  1.00  0.00    -0.346 A  
HETATM   17  C   UNL     1     -12.084  15.309  69.509  1.00  0.00    -0.320 A  
HETATM   18 CL   UNL     1     -12.159  14.377  72.041  1.00  0.00    -0.284 Cl 
HETATM   19  C   UNL     1     -12.017  15.155  68.122  1.00  0.00    -0.151 A  
ENDBRANCH  10  13
ENDBRANCH   8  10
ENDBRANCH   6   8
ENDBRANCH   4   6
ENDBRANCH   3   4
ENDBRANCH   2   3
TORSDOF 6
ENDMDL
MODEL       71
REMARK 921   NORMALIZED FREE ENERGY PREDICTED BY IDOCK:   -4.37 KCAL/MOL
REMARK 922        TOTAL FREE ENERGY PREDICTED BY IDOCK:   -6.60 KCAL/MOL
REMARK 923 INTER-LIGAND FREE ENERGY PREDICTED BY IDOCK:   -5.99 KCAL/MOL
REMARK 924 INTRA-LIGAND FREE ENERGY PREDICTED BY IDOCK:   -0.62 KCAL/MOL
REMARK 927      BINDING AFFINITY PREDICTED BY RF-SCORE:    0.00 PKD
ROOT
HETATM    1  C   UNL     1      -6.992  12.820  67.505  1.00  0.00    -0.149 C  
HETATM    2  C   UNL     1      -8.076  11.848  67.062  1.00  0.00    -0.167 C  
ENDROOT
BRANCH   2   3
HETATM    3  C   UNL     1      -9.338  12.559  66.579  1.00  0.00    -0.233 C  
BRANCH   3   4
HETATM    4  N   UNL     1      -9.679  12.242  65.206  1.00  0.00    -0.425 N  
HETATM    5  H   UNL     1      -9.340  11.374  64.792  1.00  0.00     0.000 HD 
BRANCH   4   6
HETATM    6  C   UNL     1     -10.447  13.088  64.462  1.00  0.00    -0.392 C  
HETATM    7  O   UNL     1     -11.413  12.728  63.813  1.00  0.00    -0.407 OA 
BRANCH   6   8
HETATM    8  N   UNL     1     -10.044  14.409  64.546  1.00  0.00    -0.495 N  
HETATM    9  H   UNL     1      -9.103  14.646  64.233  1.00  0.00     0.000 HD 
BRANCH   8  10
HETATM   10  S   UNL     1     -11.011  15.632  65.129  1.00  0.00    -0.376 S  
HETATM   11  O   UNL     1     -11.966  15.065  66.054  1.00  0.00    -0.134 OA 
HETATM   12  O   UNL     1     -11.454  16.369  63.963  1.00  0.00    -1.048 OA 
BRANCH  10  13
HETATM   13  C   UNL     1      -9.894  16.696  66.014  1.00  0.00    -0.309 A  
HETATM   14  C   UNL     1      -8.603  16.244  66.313  1.00  0.00    -0.374 A  
HETATM   15  C   UNL     1      -7.735  17.074  67.028  1.00  0.00    -0.219 A  
HETATM   16  C   UNL     1      -8.155  18.345  67.425  1.00  0.00    -0.240 A  
HETATM   17  C   UNL     1      -9.436  18.799  67.112  1.00  0.00    -0.328 A  
HETATM   18 CL   UNL     1      -7.083  19.360  68.310  1.00  0.00    -0.308 Cl 
HETATM   19  C   UNL     1     -10.312  17.973  66.403  1.00  0.00    -0.382 A  
ENDBRANCH  10  13
ENDBRANCH   8  10
ENDBRANCH   6   8
ENDBRANCH   4   6
ENDBRANCH   3   4
ENDBRANCH   2   3
TORSDOF 6
ENDMDL
MODEL       72
REMARK 921   NORMALIZED FREE ENERGY PREDICTED BY IDOCK:   -4.35 KCAL/MOL
REMARK 922        TOTAL FREE ENERGY PREDICTED BY IDOCK:   -6.58 KCAL/MOL
REMARK 923 INTER-LIGAND FREE ENERGY PREDICTED BY IDOCK:   -5.52 KCAL/MOL
REMARK 924 INTRA-LIGAND FREE ENERGY PREDICTED BY IDOCK:   -1.07 KCAL/MOL
REMARK 927      BINDING AFFINITY PREDICTED BY RF-SCORE:    0.00 PKD
ROOT
HETATM    1  C   UNL     1     -11.726  13.705  67.000  1.00  0.00    -0.419 C  
HETATM    2  C   UNL     1     -11.027  14.390  65.835  1.00  0.00    -0.312 C  
ENDROOT
BRANCH   2   3
HETATM    3  C   UNL     1     -11.899  14.452  64.584  1.00  0.00    -0.451 C  
BRANCH   3   4
HETATM    4  N   UNL     1     -11.544  13.455  63.593  1.00  0.00    -0.660 N  
HETATM    5  H   UNL     1     -10.793  13.648  62.931  1.00  0.00     0.000 HD 
BRANCH   4   6
HETATM    6  C   UNL     1     -12.202  12.261  63.536  1.00  0.00    -0.568 C  
HETATM    7  O   UNL     1     -13.376  12.123  63.831  1.00  0.00    -0.711 OA 
BRANCH   6   8
HETATM    8  N   UNL     1     -11.413  11.224  63.070  1.00  0.00    -0.818 N  
HETATM    9  H   UNL     1     -11.849  10.517  62.479  1.00  0.00     0.000 HD 
BRANCH   8  10
HETATM   10  S   UNL     1      -9.793  11.069  63.420  1.00  0.00    -0.394 S  
HETATM   11  O   UNL     1      -9.126  12.304  63.075  1.00  0.00     0.166 OA 
HETATM   12  O   UNL     1      -9.384   9.812  62.826  1.00  0.00    -0.277 OA 
BRANCH  10  13
HETATM   13  C   UNL     1      -9.742  10.843  65.183  1.00  0.00    -0.262 A  
HETATM   14  C   UNL     1     -10.783  10.160  65.822  1.00  0.00     0.115 A  
HETATM   15  C   UNL     1     -10.751  10.004  67.210  1.00  0.00    -0.309 A  
HETATM   16  C   UNL     1      -9.679  10.516  67.944  1.00  0.00    -0.153 A  
HETATM   17  C   UNL     1      -8.634  11.182  67.304  1.00  0.00    -0.140 A  
HETATM   18 CL   UNL     1      -9.648  10.325  69.654  1.00  0.00    -0.222 Cl 
HETATM   19  C   UNL     1      -8.662  11.349  65.917  1.00  0.00    -0.101 A  
ENDBRANCH  10  13
ENDBRANCH   8  10
ENDBRANCH   6   8
ENDBRANCH   4   6
ENDBRANCH   3   4
ENDBRANCH   2   3
TORSDOF 6
ENDMDL
MODEL       73
REMARK 921   NORMALIZED FREE ENERGY PREDICTED BY IDOCK:   -4.35 KCAL/MOL
REMARK 922        TOTAL FREE ENERGY PREDICTED BY IDOCK:   -6.58 KCAL/MOL
REMARK 923 INTER-LIGAND FREE ENERGY PREDICTED BY IDOCK:   -6.19 KCAL/MOL
REMARK 924 INTRA-LIGAND FREE ENERGY PREDICTED BY IDOCK:   -0.39 KCAL/MOL
REMARK 927      BINDING AFFINITY PREDICTED BY RF-SCORE:    0.00 PKD
ROOT
HETATM    1  C   UNL     1     -11.423  12.982  63.991  1.00  0.00    -0.473 C  
HETATM    2  C   UNL     1     -10.749  13.629  65.192  1.00  0.00    -0.359 C  
ENDROOT
BRANCH   2   3
HETATM    3  C   UNL     1     -11.582  13.511  66.466  1.00  0.00    -0.359 C  
BRANCH   3   4
HETATM    4  N   UNL     1     -10.788  13.600  67.675  1.00  0.00    -0.254 N  
HETATM    5  H   UNL     1     -10.960  14.358  68.336  1.00  0.00     0.000 HD 
BRANCH   4   6
HETATM    6  C   UNL     1      -9.813  12.684  67.942  1.00  0.00    -0.218 C  
HETATM    7  O   UNL     1      -8.798  12.567  67.279  1.00  0.00    -0.178 OA 
BRANCH   6   8
HETATM    8  N   UNL     1     -10.073  11.921  69.066  1.00  0.00    -0.419 N  
HETATM    9  H   UNL     1      -9.285  11.637  69.648  1.00  0.00     0.000 HD 
BRANCH   8  10
HETATM   10  S   UNL     1     -11.600  11.441  69.522  1.00  0.00    -0.361 S  
HETATM   11  O   UNL     1     -12.285  10.915  68.363  1.00  0.00    -0.540 OA 
HETATM   12  O   UNL     1     -12.152  12.553  70.269  1.00  0.00    -0.349 OA 
BRANCH  10  13
HETATM   13  C   UNL     1     -11.322  10.129  70.689  1.00  0.00    -0.352 A  
HETATM   14  C   UNL     1     -12.381   9.678  71.485  1.00  0.00    -0.477 A  
HETATM   15  C   UNL     1     -12.154   8.662  72.418  1.00  0.00    -0.415 A  
HETATM   16  C   UNL     1     -10.882   8.097  72.537  1.00  0.00    -0.361 A  
HETATM   17  C   UNL     1      -9.832   8.537  71.732  1.00  0.00    -0.339 A  
HETATM   18 CL   UNL     1     -10.608   6.851  73.691  1.00  0.00    -0.384 Cl 
HETATM   19  C   UNL     1     -10.049   9.557  70.803  1.00  0.00    -0.352 A  
ENDBRANCH  10  13
ENDBRANCH   8  10
ENDBRANCH   6   8
ENDBRANCH   4   6
ENDBRANCH   3   4
ENDBRANCH   2   3
TORSDOF 6
ENDMDL
MODEL       74
REMARK 921   NORMALIZED FREE ENERGY PREDICTED BY IDOCK:   -4.33 KCAL/MOL
REMARK 922        TOTAL FREE ENERGY PREDICTED BY IDOCK:   -6.55 KCAL/MOL
REMARK 923 INTER-LIGAND FREE ENERGY PREDICTED BY IDOCK:   -5.88 KCAL/MOL
REMARK 924 INTRA-LIGAND FREE ENERGY PREDICTED BY IDOCK:   -0.67 KCAL/MOL
REMARK 927      BINDING AFFINITY PREDICTED BY RF-SCORE:    0.00 PKD
ROOT
HETATM    1  C   UNL     1     -11.212  11.646  63.794  1.00  0.00    -0.498 C  
HETATM    2  C   UNL     1     -11.733  13.053  64.048  1.00  0.00    -0.497 C  
ENDROOT
BRANCH   2   3
HETATM    3  C   UNL     1     -12.876  13.081  65.061  1.00  0.00    -0.295 C  
BRANCH   3   4
HETATM    4  N   UNL     1     -12.616  13.956  66.186  1.00  0.00    -0.432 N  
HETATM    5  H   UNL     1     -12.875  14.941  66.128  1.00  0.00     0.000 HD 
BRANCH   4   6
HETATM    6  C   UNL     1     -12.030  13.481  67.322  1.00  0.00    -0.365 C  
HETATM    7  O   UNL     1     -12.104  12.320  67.684  1.00  0.00    -0.502 OA 
BRANCH   6   8
HETATM    8  N   UNL     1     -11.308  14.441  68.008  1.00  0.00    -0.280 N  
HETATM    9  H   UNL     1     -11.781  14.962  68.747  1.00  0.00     0.000 HD 
BRANCH   8  10
HETATM   10  S   UNL     1      -9.712  14.792  67.695  1.00  0.00    -0.214 S  
HETATM   11  O   UNL     1      -9.352  14.213  66.421  1.00  0.00    -0.275 OA 
HETATM   12  O   UNL     1      -8.990  14.439  68.901  1.00  0.00    -0.159 OA 
BRANCH  10  13
HETATM   13  C   UNL     1      -9.664  16.565  67.572  1.00  0.00    -0.242 A  
HETATM   14  C   UNL     1     -10.408  17.207  66.575  1.00  0.00    -0.306 A  
HETATM   15  C   UNL     1     -10.351  18.599  66.466  1.00  0.00    -0.462 A  
HETATM   16  C   UNL     1      -9.567  19.337  67.357  1.00  0.00    -0.314 A  
HETATM   17  C   UNL     1      -8.840  18.696  68.359  1.00  0.00    -0.367 A  
HETATM   18 CL   UNL     1      -9.497  21.050  67.213  1.00  0.00    -0.401 Cl 
HETATM   19  C   UNL     1      -8.886  17.304  68.471  1.00  0.00    -0.269 A  
ENDBRANCH  10  13
ENDBRANCH   8  10
ENDBRANCH   6   8
ENDBRANCH   4   6
ENDBRANCH   3   4
ENDBRANCH   2   3
TORSDOF 6
ENDMDL
MODEL       75
REMARK 921   NORMALIZED FREE ENERGY PREDICTED BY IDOCK:   -4.32 KCAL/MOL
REMARK 922        TOTAL FREE ENERGY PREDICTED BY IDOCK:   -6.54 KCAL/MOL
REMARK 923 INTER-LIGAND FREE ENERGY PREDICTED BY IDOCK:   -5.88 KCAL/MOL
REMARK 924 INTRA-LIGAND FREE ENERGY PREDICTED BY IDOCK:   -0.65 KCAL/MOL
REMARK 927      BINDING AFFINITY PREDICTED BY RF-SCORE:    0.00 PKD
ROOT
HETATM    1  C   UNL     1      -7.330  13.901  67.482  1.00  0.00    -0.181 C  
HETATM    2  C   UNL     1      -8.018  15.181  67.935  1.00  0.00    -0.143 C  
ENDROOT
BRANCH   2   3
HETATM    3  C   UNL     1      -8.502  16.031  66.762  1.00  0.00    -0.260 C  
BRANCH   3   4
HETATM    4  N   UNL     1      -9.158  15.253  65.730  1.00  0.00    -0.408 N  
HETATM    5  H   UNL     1      -8.614  14.589  65.178  1.00  0.00     0.000 HD 
BRANCH   4   6
HETATM    6  C   UNL     1     -10.492  15.396  65.486  1.00  0.00    -0.380 C  
HETATM    7  O   UNL     1     -10.942  16.021  64.541  1.00  0.00    -0.592 OA 
BRANCH   6   8
HETATM    8  N   UNL     1     -11.290  14.729  66.399  1.00  0.00    -0.348 N  
HETATM    9  H   UNL     1     -11.353  15.103  67.346  1.00  0.00     0.000 HD 
BRANCH   8  10
HETATM   10  S   UNL     1     -12.152  13.353  66.036  1.00  0.00    -0.441 S  
HETATM   11  O   UNL     1     -13.241  13.708  65.155  1.00  0.00    -0.739 OA 
HETATM   12  O   UNL     1     -12.407  12.705  67.307  1.00  0.00    -0.352 OA 
BRANCH  10  13
HETATM   13  C   UNL     1     -10.996  12.324  65.160  1.00  0.00    -0.303 A  
HETATM   14  C   UNL     1      -9.969  11.686  65.865  1.00  0.00    -0.264 A  
HETATM   15  C   UNL     1      -9.048  10.896  65.171  1.00  0.00    -0.216 A  
HETATM   16  C   UNL     1      -9.168  10.739  63.788  1.00  0.00    -0.244 A  
HETATM   17  C   UNL     1     -10.201  11.363  63.090  1.00  0.00    -0.380 A  
HETATM   18 CL   UNL     1      -8.027   9.771  62.939  1.00  0.00    -0.126 Cl 
HETATM   19  C   UNL     1     -11.122  12.160  63.776  1.00  0.00    -0.505 A  
ENDBRANCH  10  13
ENDBRANCH   8  10
ENDBRANCH   6   8
ENDBRANCH   4   6
ENDBRANCH   3   4
ENDBRANCH   2   3
TORSDOF 6
ENDMDL
MODEL       76
REMARK 921   NORMALIZED FREE ENERGY PREDICTED BY IDOCK:   -4.29 KCAL/MOL
REMARK 922        TOTAL FREE ENERGY PREDICTED BY IDOCK:   -6.50 KCAL/MOL
REMARK 923 INTER-LIGAND FREE ENERGY PREDICTED BY IDOCK:   -5.64 KCAL/MOL
REMARK 924 INTRA-LIGAND FREE ENERGY PREDICTED BY IDOCK:   -0.86 KCAL/MOL
REMARK 927      BINDING AFFINITY PREDICTED BY RF-SCORE:    0.00 PKD
ROOT
HETATM    1  C   UNL     1      -6.856  13.733  67.632  1.00  0.00    -0.187 C  
HETATM    2  C   UNL     1      -8.254  13.687  68.231  1.00  0.00    -0.156 C  
ENDROOT
BRANCH   2   3
HETATM    3  C   UNL     1      -8.943  12.343  68.010  1.00  0.00    -0.194 C  
BRANCH   3   4
HETATM    4  N   UNL     1     -10.235  12.253  68.661  1.00  0.00    -0.338 N  
HETATM    5  H   UNL     1     -10.324  12.518  69.642  1.00  0.00     0.000 HD 
BRANCH   4   6
HETATM    6  C   UNL     1     -11.334  11.819  67.979  1.00  0.00    -0.288 C  
HETATM    7  O   UNL     1     -11.599  10.642  67.805  1.00  0.00    -0.501 OA 
BRANCH   6   8
HETATM    8  N   UNL     1     -12.143  12.848  67.534  1.00  0.00    -0.283 N  
HETATM    9  H   UNL     1     -12.960  13.094  68.092  1.00  0.00     0.000 HD 
BRANCH   8  10
HETATM   10  S   UNL     1     -11.857  13.708  66.137  1.00  0.00    -0.417 S  
HETATM   11  O   UNL     1     -13.126  14.083  65.557  1.00  0.00    -0.713 OA 
HETATM   12  O   UNL     1     -10.899  12.922  65.385  1.00  0.00    -0.276 OA 
BRANCH  10  13
HETATM   13  C   UNL     1     -11.002  15.169  66.684  1.00  0.00    -0.318 A  
HETATM   14  C   UNL     1     -10.099  15.802  65.823  1.00  0.00    -0.399 A  
HETATM   15  C   UNL     1      -9.412  16.937  66.264  1.00  0.00    -0.298 A  
HETATM   16  C   UNL     1      -9.642  17.435  67.548  1.00  0.00    -0.257 A  
HETATM   17  C   UNL     1     -10.554  16.812  68.399  1.00  0.00    -0.354 A  
HETATM   18 CL   UNL     1      -8.789  18.829  68.086  1.00  0.00    -0.322 Cl 
HETATM   19  C   UNL     1     -11.240  15.673  67.968  1.00  0.00    -0.339 A  
ENDBRANCH  10  13
ENDBRANCH   8  10
ENDBRANCH   6   8
ENDBRANCH   4   6
ENDBRANCH   3   4
ENDBRANCH   2   3
TORSDOF 6
ENDMDL
MODEL       77
REMARK 921   NORMALIZED FREE ENERGY PREDICTED BY IDOCK:   -4.27 KCAL/MOL
REMARK 922        TOTAL FREE ENERGY PREDICTED BY IDOCK:   -6.47 KCAL/MOL
REMARK 923 INTER-LIGAND FREE ENERGY PREDICTED BY IDOCK:   -5.79 KCAL/MOL
REMARK 924 INTRA-LIGAND FREE ENERGY PREDICTED BY IDOCK:   -0.67 KCAL/MOL
REMARK 927      BINDING AFFINITY PREDICTED BY RF-SCORE:    0.00 PKD
ROOT
HETATM    1  C   UNL     1      -8.133   8.076  65.645  1.00  0.00    -0.121 C  
HETATM    2  C   UNL     1      -8.944   9.260  65.140  1.00  0.00    -0.257 C  
ENDROOT
BRANCH   2   3
HETATM    3  C   UNL     1     -10.059   9.660  66.104  1.00  0.00    -0.258 C  
BRANCH   3   4
HETATM    4  N   UNL     1      -9.570  10.015  67.422  1.00  0.00    -0.152 N  
HETATM    5  H   UNL     1      -9.470   9.292  68.134  1.00  0.00     0.000 HD 
BRANCH   4   6
HETATM    6  C   UNL     1      -9.241  11.305  67.723  1.00  0.00    -0.156 C  
HETATM    7  O   UNL     1      -8.424  11.956  67.097  1.00  0.00    -0.160 OA 
BRANCH   6   8
HETATM    8  N   UNL     1      -9.958  11.817  68.790  1.00  0.00    -0.367 N  
HETATM    9  H   UNL     1      -9.547  12.585  69.321  1.00  0.00     0.000 HD 
BRANCH   8  10
HETATM   10  S   UNL     1     -11.452  11.250  69.254  1.00  0.00    -0.332 S  
HETATM   11  O   UNL     1     -11.268  10.049  70.037  1.00  0.00    -0.254 OA 
HETATM   12  O   UNL     1     -12.255  11.233  68.048  1.00  0.00    -0.621 OA 
BRANCH  10  13
HETATM   13  C   UNL     1     -12.111  12.535  70.290  1.00  0.00    -0.294 A  
HETATM   14  C   UNL     1     -12.790  12.194  71.466  1.00  0.00    -0.394 A  
HETATM   15  C   UNL     1     -13.327  13.205  72.266  1.00  0.00    -0.621 A  
HETATM   16  C   UNL     1     -13.171  14.543  71.897  1.00  0.00    -0.359 A  
HETATM   17  C   UNL     1     -12.480  14.882  70.734  1.00  0.00    -0.401 A  
HETATM   18 CL   UNL     1     -13.839  15.784  72.885  1.00  0.00    -0.641 Cl 
HETATM   19  C   UNL     1     -11.947  13.876  69.924  1.00  0.00    -0.405 A  
ENDBRANCH  10  13
ENDBRANCH   8  10
ENDBRANCH   6   8
ENDBRANCH   4   6
ENDBRANCH   3   4
ENDBRANCH   2   3
TORSDOF 6
ENDMDL
MODEL       78
REMARK 921   NORMALIZED FREE ENERGY PREDICTED BY IDOCK:   -4.23 KCAL/MOL
REMARK 922        TOTAL FREE ENERGY PREDICTED BY IDOCK:   -6.42 KCAL/MOL
REMARK 923 INTER-LIGAND FREE ENERGY PREDICTED BY IDOCK:   -5.79 KCAL/MOL
REMARK 924 INTRA-LIGAND FREE ENERGY PREDICTED BY IDOCK:   -0.63 KCAL/MOL
REMARK 927      BINDING AFFINITY PREDICTED BY RF-SCORE:    0.00 PKD
ROOT
HETATM    1  C   UNL     1     -12.548  12.423  63.479  1.00  0.00    -0.535 C  
HETATM    2  C   UNL     1     -11.167  12.927  63.869  1.00  0.00    -0.471 C  
ENDROOT
BRANCH   2   3
HETATM    3  C   UNL     1     -10.133  11.806  63.941  1.00  0.00    -0.368 C  
BRANCH   3   4
HETATM    4  N   UNL     1      -9.612  11.598  65.278  1.00  0.00    -0.304 N  
HETATM    5  H   UNL     1      -8.843  12.177  65.615  1.00  0.00     0.000 HD 
BRANCH   4   6
HETATM    6  C   UNL     1     -10.137  10.637  66.092  1.00  0.00    -0.249 C  
HETATM    7  O   UNL     1      -9.778   9.473  66.080  1.00  0.00    -0.232 OA 
BRANCH   6   8
HETATM    8  N   UNL     1     -11.094  11.123  66.965  1.00  0.00    -0.294 N  
HETATM    9  H   UNL     1     -12.075  10.939  66.754  1.00  0.00     0.000 HD 
BRANCH   8  10
HETATM   10  S   UNL     1     -10.733  11.990  68.339  1.00  0.00    -0.239 S  
HETATM   11  O   UNL     1     -11.703  13.051  68.484  1.00  0.00    -0.302 OA 
HETATM   12  O   UNL     1      -9.317  12.284  68.255  1.00  0.00    -0.203 OA 
BRANCH  10  13
HETATM   13  C   UNL     1     -10.935  10.821  69.665  1.00  0.00    -0.264 A  
HETATM   14  C   UNL     1     -12.136  10.794  70.383  1.00  0.00    -0.443 A  
HETATM   15  C   UNL     1     -12.283   9.891  71.439  1.00  0.00    -0.499 A  
HETATM   16  C   UNL     1     -11.242   9.017  71.759  1.00  0.00    -0.378 A  
HETATM   17  C   UNL     1     -10.052   9.035  71.032  1.00  0.00    -0.352 A  
HETATM   18 CL   UNL     1     -11.427   7.911  73.064  1.00  0.00    -0.365 Cl 
HETATM   19  C   UNL     1      -9.895   9.940  69.979  1.00  0.00    -0.291 A  
ENDBRANCH  10  13
ENDBRANCH   8  10
ENDBRANCH   6   8
ENDBRANCH   4   6
ENDBRANCH   3   4
ENDBRANCH   2   3
TORSDOF 6
ENDMDL
MODEL       79
REMARK 921   NORMALIZED FREE ENERGY PREDICTED BY IDOCK:   -4.22 KCAL/MOL
REMARK 922        TOTAL FREE ENERGY PREDICTED BY IDOCK:   -6.41 KCAL/MOL
REMARK 923 INTER-LIGAND FREE ENERGY PREDICTED BY IDOCK:   -5.93 KCAL/MOL
REMARK 924 INTRA-LIGAND FREE ENERGY PREDICTED BY IDOCK:   -0.48 KCAL/MOL
REMARK 927      BINDING AFFINITY PREDICTED BY RF-SCORE:    0.00 PKD
ROOT
HETATM    1  C   UNL     1      -9.677   8.843  67.058  1.00  0.00    -0.249 C  
HETATM    2  C   UNL     1     -10.461   7.564  67.312  1.00  0.00    -0.391 C  
ENDROOT
BRANCH   2   3
HETATM    3  C   UNL     1     -10.308   7.058  68.745  1.00  0.00    -0.187 C  
BRANCH   3   4
HETATM    4  N   UNL     1     -11.545   6.548  69.302  1.00  0.00    -0.643 N  
HETATM    5  H   UNL     1     -12.146   5.953  68.732  1.00  0.00     0.000 HD 
BRANCH   4   6
HETATM    6  C   UNL     1     -11.915   6.853  70.579  1.00  0.00    -0.305 C  
HETATM    7  O   UNL     1     -11.651   6.155  71.543  1.00  0.00    -0.295 OA 
BRANCH   6   8
HETATM    8  N   UNL     1     -12.591   8.056  70.680  1.00  0.00    -0.405 N  
HETATM    9  H   UNL     1     -13.339   8.245  70.014  1.00  0.00     0.000 HD 
BRANCH   8  10
HETATM   10  S   UNL     1     -12.250   9.210  71.829  1.00  0.00    -0.389 S  
HETATM   11  O   UNL     1     -10.956   8.921  72.406  1.00  0.00    -0.273 OA 
HETATM   12  O   UNL     1     -13.433   9.294  72.662  1.00  0.00    -0.444 OA 
BRANCH  10  13
HETATM   13  C   UNL     1     -12.160  10.733  70.914  1.00  0.00    -0.370 A  
HETATM   14  C   UNL     1     -12.597  11.922  71.510  1.00  0.00    -0.298 A  
HETATM   15  C   UNL     1     -12.546  13.113  70.780  1.00  0.00    -0.338 A  
HETATM   16  C   UNL     1     -12.050  13.109  69.475  1.00  0.00    -0.238 A  
HETATM   17  C   UNL     1     -11.601  11.926  68.889  1.00  0.00    -0.370 A  
HETATM   18 CL   UNL     1     -11.996  14.578  68.580  1.00  0.00    -0.350 Cl 
HETATM   19  C   UNL     1     -11.655  10.730  69.609  1.00  0.00    -0.388 A  
ENDBRANCH  10  13
ENDBRANCH   8  10
ENDBRANCH   6   8
ENDBRANCH   4   6
ENDBRANCH   3   4
ENDBRANCH   2   3
TORSDOF 6
ENDMDL
MODEL       80
REMARK 921   NORMALIZED FREE ENERGY PREDICTED BY IDOCK:   -4.22 KCAL/MOL
REMARK 922        TOTAL FREE ENERGY PREDICTED BY IDOCK:   -6.41 KCAL/MOL
REMARK 923 INTER-LIGAND FREE ENERGY PREDICTED BY IDOCK:   -5.67 KCAL/MOL
REMARK 924 INTRA-LIGAND FREE ENERGY PREDICTED BY IDOCK:   -0.74 KCAL/MOL
REMARK 927      BINDING AFFINITY PREDICTED BY RF-SCORE:    0.00 PKD
ROOT
HETATM    1  C   UNL     1     -11.770  12.017  69.663  1.00  0.00    -0.405 C  
HETATM    2  C   UNL     1     -11.551  10.513  69.592  1.00  0.00    -0.342 C  
ENDROOT
BRANCH   2   3
HETATM    3  C   UNL     1     -10.601  10.111  68.466  1.00  0.00    -0.216 C  
BRANCH   3   4
HETATM    4  N   UNL     1     -10.196  11.230  67.639  1.00  0.00    -0.178 N  
HETATM    5  H   UNL     1     -10.025  12.139  68.069  1.00  0.00     0.000 HD 
BRANCH   4   6
HETATM    6  C   UNL     1     -10.040  11.084  66.292  1.00  0.00    -0.235 C  
HETATM    7  O   UNL     1      -9.972  10.003  65.733  1.00  0.00    -0.258 OA 
BRANCH   6   8
HETATM    8  N   UNL     1     -10.003  12.288  65.612  1.00  0.00    -0.253 N  
HETATM    9  H   UNL     1      -9.104  12.613  65.257  1.00  0.00     0.000 HD 
BRANCH   8  10
HETATM   10  S   UNL     1     -11.345  13.235  65.341  1.00  0.00    -0.302 S  
HETATM   11  O   UNL     1     -12.495  12.586  65.929  1.00  0.00    -0.596 OA 
HETATM   12  O   UNL     1     -11.315  13.560  63.929  1.00  0.00    -0.333 OA 
BRANCH  10  13
HETATM   13  C   UNL     1     -11.006  14.744  66.220  1.00  0.00    -0.330 A  
HETATM   14  C   UNL     1     -10.362  15.797  65.560  1.00  0.00    -0.430 A  
HETATM   15  C   UNL     1     -10.077  16.973  66.259  1.00  0.00    -0.330 A  
HETATM   16  C   UNL     1     -10.448  17.093  67.600  1.00  0.00    -0.355 A  
HETATM   17  C   UNL     1     -11.104  16.049  68.252  1.00  0.00    -0.351 A  
HETATM   18 CL   UNL     1     -10.089  18.541  68.457  1.00  0.00    -0.404 Cl 
HETATM   19  C   UNL     1     -11.386  14.867  67.561  1.00  0.00    -0.351 A  
ENDBRANCH  10  13
ENDBRANCH   8  10
ENDBRANCH   6   8
ENDBRANCH   4   6
ENDBRANCH   3   4
ENDBRANCH   2   3
TORSDOF 6
ENDMDL
MODEL       81
REMARK 921   NORMALIZED FREE ENERGY PREDICTED BY IDOCK:   -4.21 KCAL/MOL
REMARK 922        TOTAL FREE ENERGY PREDICTED BY IDOCK:   -6.39 KCAL/MOL
REMARK 923 INTER-LIGAND FREE ENERGY PREDICTED BY IDOCK:   -5.65 KCAL/MOL
REMARK 924 INTRA-LIGAND FREE ENERGY PREDICTED BY IDOCK:   -0.74 KCAL/MOL
REMARK 927      BINDING AFFINITY PREDICTED BY RF-SCORE:    0.00 PKD
ROOT
HETATM    1  C   UNL     1     -13.551   9.675  72.155  1.00  0.00    -0.471 C  
HETATM    2  C   UNL     1     -14.400   8.413  72.215  1.00  0.00    -0.465 C  
ENDROOT
BRANCH   2   3
HETATM    3  C   UNL     1     -13.815   7.273  71.385  1.00  0.00    -0.304 C  
BRANCH   3   4
HETATM    4  N   UNL     1     -12.405   7.050  71.639  1.00  0.00    -0.351 N  
HETATM    5  H   UNL     1     -12.058   7.069  72.598  1.00  0.00     0.000 HD 
BRANCH   4   6
HETATM    6  C   UNL     1     -11.538   6.815  70.614  1.00  0.00    -0.370 C  
HETATM    7  O   UNL     1     -10.985   5.744  70.430  1.00  0.00    -0.298 OA 
BRANCH   6   8
HETATM    8  N   UNL     1     -11.373   7.903  69.775  1.00  0.00    -0.454 N  
HETATM    9  H   UNL     1     -11.990   7.985  68.967  1.00  0.00     0.000 HD 
BRANCH   8  10
HETATM   10  S   UNL     1     -10.226   9.085  70.014  1.00  0.00    -0.215 S  
HETATM   11  O   UNL     1      -8.985   8.652  69.414  1.00  0.00    -0.142 OA 
HETATM   12  O   UNL     1     -10.294   9.416  71.423  1.00  0.00    -0.324 OA 
BRANCH  10  13
HETATM   13  C   UNL     1     -10.851  10.493  69.126  1.00  0.00    -0.237 A  
HETATM   14  C   UNL     1     -10.880  10.469  67.727  1.00  0.00    -0.347 A  
HETATM   15  C   UNL     1     -11.350  11.586  67.031  1.00  0.00    -0.340 A  
HETATM   16  C   UNL     1     -11.798  12.707  67.734  1.00  0.00    -0.323 A  
HETATM   17  C   UNL     1     -11.783  12.723  69.129  1.00  0.00    -0.375 A  
HETATM   18 CL   UNL     1     -12.371  14.082  66.872  1.00  0.00    -0.406 Cl 
HETATM   19  C   UNL     1     -11.308  11.613  69.831  1.00  0.00    -0.230 A  
ENDBRANCH  10  13
ENDBRANCH   8  10
ENDBRANCH   6   8
ENDBRANCH   4   6
ENDBRANCH   3   4
ENDBRANCH   2   3
TORSDOF 6
ENDMDL
MODEL       82
REMARK 921   NORMALIZED FREE ENERGY PREDICTED BY IDOCK:   -4.20 KCAL/MOL
REMARK 922        TOTAL FREE ENERGY PREDICTED BY IDOCK:   -6.38 KCAL/MOL
REMARK 923 INTER-LIGAND FREE ENERGY PREDICTED BY IDOCK:   -5.77 KCAL/MOL
REMARK 924 INTRA-LIGAND FREE ENERGY PREDICTED BY IDOCK:   -0.61 KCAL/MOL
REMARK 927      BINDING AFFINITY PREDICTED BY RF-SCORE:    0.00 PKD
ROOT
HETATM    1  C   UNL     1     -13.056  11.024  71.938  1.00  0.00    -0.525 C  
HETATM    2  C   UNL     1     -12.130  10.117  71.141  1.00  0.00    -0.485 C  
ENDROOT
BRANCH   2   3
HETATM    3  C   UNL     1     -11.862  10.644  69.733  1.00  0.00    -0.304 C  
BRANCH   3   4
HETATM    4  N   UNL     1     -11.129  11.894  69.725  1.00  0.00    -0.475 N  
HETATM    5  H   UNL     1     -10.195  11.933  70.133  1.00  0.00     0.000 HD 
BRANCH   4   6
HETATM    6  C   UNL     1     -11.671  13.020  69.178  1.00  0.00    -0.326 C  
HETATM    7  O   UNL     1     -11.607  14.121  69.698  1.00  0.00    -0.263 OA 
BRANCH   6   8
HETATM    8  N   UNL     1     -12.272  12.798  67.952  1.00  0.00    -0.101 N  
HETATM    9  H   UNL     1     -13.290  12.747  67.918  1.00  0.00     0.000 HD 
BRANCH   8  10
HETATM   10  S   UNL     1     -11.426  12.610  66.532  1.00  0.00    -0.373 S  
HETATM   11  O   UNL     1     -12.368  12.542  65.438  1.00  0.00    -0.579 OA 
HETATM   12  O   UNL     1     -10.491  11.530  66.774  1.00  0.00    -0.222 OA 
BRANCH  10  13
HETATM   13  C   UNL     1     -10.463  14.098  66.389  1.00  0.00    -0.283 A  
HETATM   14  C   UNL     1      -9.164  14.131  66.908  1.00  0.00    -0.270 A  
HETATM   15  C   UNL     1      -8.418  15.309  66.815  1.00  0.00    -0.290 A  
HETATM   16  C   UNL     1      -8.966  16.434  66.196  1.00  0.00    -0.332 A  
HETATM   17  C   UNL     1     -10.256  16.395  65.666  1.00  0.00    -0.349 A  
HETATM   18 CL   UNL     1      -8.045  17.883  66.090  1.00  0.00    -0.250 Cl 
HETATM   19  C   UNL     1     -11.010  15.223  65.761  1.00  0.00    -0.340 A  
ENDBRANCH  10  13
ENDBRANCH   8  10
ENDBRANCH   6   8
ENDBRANCH   4   6
ENDBRANCH   3   4
ENDBRANCH   2   3
TORSDOF 6
ENDMDL
MODEL       83
REMARK 921   NORMALIZED FREE ENERGY PREDICTED BY IDOCK:   -4.20 KCAL/MOL
REMARK 922        TOTAL FREE ENERGY PREDICTED BY IDOCK:   -6.37 KCAL/MOL
REMARK 923 INTER-LIGAND FREE ENERGY PREDICTED BY IDOCK:   -5.69 KCAL/MOL
REMARK 924 INTRA-LIGAND FREE ENERGY PREDICTED BY IDOCK:   -0.68 KCAL/MOL
REMARK 927      BINDING AFFINITY PREDICTED BY RF-SCORE:    0.00 PKD
ROOT
HETATM    1  C   UNL     1      -8.565   6.599  67.271  1.00  0.00    -0.119 C  
HETATM    2  C   UNL     1      -9.952   6.589  66.646  1.00  0.00    -0.204 C  
ENDROOT
BRANCH   2   3
HETATM    3  C   UNL     1     -10.977   7.354  67.480  1.00  0.00    -0.106 C  
BRANCH   3   4
HETATM    4  N   UNL     1     -10.429   8.544  68.101  1.00  0.00    -0.329 N  
HETATM    5  H   UNL     1      -9.834   9.168  67.556  1.00  0.00     0.000 HD 
BRANCH   4   6
HETATM    6  C   UNL     1     -10.698   8.841  69.405  1.00  0.00    -0.169 C  
HETATM    7  O   UNL     1     -10.208   8.245  70.348  1.00  0.00    -0.196 OA 
BRANCH   6   8
HETATM    8  N   UNL     1     -11.558   9.915  69.555  1.00  0.00    -0.456 N  
HETATM    9  H   UNL     1     -12.375   9.797  70.154  1.00  0.00     0.000 HD 
BRANCH   8  10
HETATM   10  S   UNL     1     -11.331  11.387  68.813  1.00  0.00    -0.302 S  
HETATM   11  O   UNL     1     -12.089  11.407  67.583  1.00  0.00    -0.630 OA 
HETATM   12  O   UNL     1      -9.898  11.604  68.806  1.00  0.00    -0.193 OA 
BRANCH  10  13
HETATM   13  C   UNL     1     -12.021  12.567  69.951  1.00  0.00    -0.301 A  
HETATM   14  C   UNL     1     -12.603  12.118  71.142  1.00  0.00    -0.360 A  
HETATM   15  C   UNL     1     -13.165  13.045  72.023  1.00  0.00    -0.543 A  
HETATM   16  C   UNL     1     -13.130  14.407  71.717  1.00  0.00    -0.354 A  
HETATM   17  C   UNL     1     -12.536  14.854  70.537  1.00  0.00    -0.414 A  
HETATM   18 CL   UNL     1     -13.829  15.543  72.803  1.00  0.00    -0.618 Cl 
HETATM   19  C   UNL     1     -11.978  13.933  69.647  1.00  0.00    -0.399 A  
ENDBRANCH  10  13
ENDBRANCH   8  10
ENDBRANCH   6   8
ENDBRANCH   4   6
ENDBRANCH   3   4
ENDBRANCH   2   3
TORSDOF 6
ENDMDL
MODEL       84
REMARK 921   NORMALIZED FREE ENERGY PREDICTED BY IDOCK:   -4.18 KCAL/MOL
REMARK 922        TOTAL FREE ENERGY PREDICTED BY IDOCK:   -6.35 KCAL/MOL
REMARK 923 INTER-LIGAND FREE ENERGY PREDICTED BY IDOCK:   -5.79 KCAL/MOL
REMARK 924 INTRA-LIGAND FREE ENERGY PREDICTED BY IDOCK:   -0.55 KCAL/MOL
REMARK 927      BINDING AFFINITY PREDICTED BY RF-SCORE:    0.00 PKD
ROOT
HETATM    1  C   UNL     1     -13.040  14.329  72.709  1.00  0.00    -0.589 C  
HETATM    2  C   UNL     1     -12.991  14.045  71.215  1.00  0.00    -0.418 C  
ENDROOT
BRANCH   2   3
HETATM    3  C   UNL     1     -12.640  12.591  70.906  1.00  0.00    -0.241 C  
BRANCH   3   4
HETATM    4  N   UNL     1     -11.533  12.458  69.980  1.00  0.00    -0.526 N  
HETATM    5  H   UNL     1     -10.622  12.847  70.225  1.00  0.00     0.000 HD 
BRANCH   4   6
HETATM    6  C   UNL     1     -11.692  11.819  68.786  1.00  0.00    -0.329 C  
HETATM    7  O   UNL     1     -11.790  12.399  67.718  1.00  0.00    -0.361 OA 
BRANCH   6   8
HETATM    8  N   UNL     1     -11.694  10.440  68.899  1.00  0.00    -0.513 N  
HETATM    9  H   UNL     1     -12.594   9.960  68.923  1.00  0.00     0.000 HD 
BRANCH   8  10
HETATM   10  S   UNL     1     -10.309   9.522  68.999  1.00  0.00    -0.211 S  
HETATM   11  O   UNL     1      -9.237  10.354  69.494  1.00  0.00    -0.194 OA 
HETATM   12  O   UNL     1     -10.196   8.847  67.721  1.00  0.00    -0.201 OA 
BRANCH  10  13
HETATM   13  C   UNL     1     -10.692   8.272  70.205  1.00  0.00    -0.239 A  
HETATM   14  C   UNL     1     -10.795   8.626  71.555  1.00  0.00    -0.352 A  
HETATM   15  C   UNL     1     -11.074   7.638  72.503  1.00  0.00    -0.388 A  
HETATM   16  C   UNL     1     -11.260   6.315  72.097  1.00  0.00    -0.282 A  
HETATM   17  C   UNL     1     -11.173   5.968  70.749  1.00  0.00    -0.340 A  
HETATM   18 CL   UNL     1     -11.598   5.103  73.271  1.00  0.00    -0.317 Cl 
HETATM   19  C   UNL     1     -10.888   6.948  69.796  1.00  0.00    -0.295 A  
ENDBRANCH  10  13
ENDBRANCH   8  10
ENDBRANCH   6   8
ENDBRANCH   4   6
ENDBRANCH   3   4
ENDBRANCH   2   3
TORSDOF 6
ENDMDL
MODEL       85
REMARK 921   NORMALIZED FREE ENERGY PREDICTED BY IDOCK:   -4.16 KCAL/MOL
REMARK 922        TOTAL FREE ENERGY PREDICTED BY IDOCK:   -6.32 KCAL/MOL
REMARK 923 INTER-LIGAND FREE ENERGY PREDICTED BY IDOCK:   -6.13 KCAL/MOL
REMARK 924 INTRA-LIGAND FREE ENERGY PREDICTED BY IDOCK:   -0.19 KCAL/MOL
REMARK 927      BINDING AFFINITY PREDICTED BY RF-SCORE:    0.00 PKD
ROOT
HETATM    1  C   UNL     1     -13.751  13.945  72.376  1.00  0.00    -0.678 C  
HETATM    2  C   UNL     1     -13.016  12.998  71.438  1.00  0.00    -0.373 C  
ENDROOT
BRANCH   2   3
HETATM    3  C   UNL     1     -13.112  11.541  71.884  1.00  0.00    -0.387 C  
BRANCH   3   4
HETATM    4  N   UNL     1     -12.986  10.601  70.787  1.00  0.00    -0.350 N  
HETATM    5  H   UNL     1     -13.645   9.826  70.710  1.00  0.00     0.000 HD 
BRANCH   4   6
HETATM    6  C   UNL     1     -12.000  10.740  69.855  1.00  0.00    -0.342 C  
HETATM    7  O   UNL     1     -12.210  11.016  68.687  1.00  0.00    -0.571 OA 
BRANCH   6   8
HETATM    8  N   UNL     1     -10.729  10.575  70.375  1.00  0.00    -0.436 N  
HETATM    9  H   UNL     1     -10.103  11.380  70.382  1.00  0.00     0.000 HD 
BRANCH   8  10
HETATM   10  S   UNL     1     -10.166   9.135  70.992  1.00  0.00    -0.320 S  
HETATM   11  O   UNL     1     -11.037   8.721  72.069  1.00  0.00    -0.341 OA 
HETATM   12  O   UNL     1      -8.748   9.335  71.218  1.00  0.00    -0.301 OA 
BRANCH  10  13
HETATM   13  C   UNL     1     -10.311   7.988  69.641  1.00  0.00    -0.220 A  
HETATM   14  C   UNL     1     -10.340   8.469  68.327  1.00  0.00    -0.246 A  
HETATM   15  C   UNL     1     -10.477   7.567  67.269  1.00  0.00    -0.391 A  
HETATM   16  C   UNL     1     -10.571   6.198  67.528  1.00  0.00    -0.273 A  
HETATM   17  C   UNL     1     -10.526   5.719  68.837  1.00  0.00    -0.326 A  
HETATM   18 CL   UNL     1     -10.746   5.093  66.221  1.00  0.00    -0.344 Cl 
HETATM   19  C   UNL     1     -10.396   6.615  69.901  1.00  0.00    -0.232 A  
ENDBRANCH  10  13
ENDBRANCH   8  10
ENDBRANCH   6   8
ENDBRANCH   4   6
ENDBRANCH   3   4
ENDBRANCH   2   3
TORSDOF 6
ENDMDL
MODEL       86
REMARK 921   NORMALIZED FREE ENERGY PREDICTED BY IDOCK:   -4.15 KCAL/MOL
REMARK 922        TOTAL FREE ENERGY PREDICTED BY IDOCK:   -6.31 KCAL/MOL
REMARK 923 INTER-LIGAND FREE ENERGY PREDICTED BY IDOCK:   -5.59 KCAL/MOL
REMARK 924 INTRA-LIGAND FREE ENERGY PREDICTED BY IDOCK:   -0.73 KCAL/MOL
REMARK 927      BINDING AFFINITY PREDICTED BY RF-SCORE:    0.00 PKD
ROOT
HETATM    1  C   UNL     1     -13.305  12.434  72.083  1.00  0.00    -0.508 C  
HETATM    2  C   UNL     1     -12.512  11.705  71.008  1.00  0.00    -0.436 C  
ENDROOT
BRANCH   2   3
HETATM    3  C   UNL     1     -12.202  10.259  71.387  1.00  0.00    -0.383 C  
BRANCH   3   4
HETATM    4  N   UNL     1     -12.175   9.366  70.246  1.00  0.00    -0.453 N  
HETATM    5  H   UNL     1     -12.926   9.407  69.557  1.00  0.00     0.000 HD 
BRANCH   4   6
HETATM    6  C   UNL     1     -11.158   8.472  70.080  1.00  0.00    -0.188 C  
HETATM    7  O   UNL     1     -10.790   7.700  70.949  1.00  0.00    -0.233 OA 
BRANCH   6   8
HETATM    8  N   UNL     1     -10.607   8.499  68.812  1.00  0.00    -0.366 N  
HETATM    9  H   UNL     1     -10.940   7.820  68.127  1.00  0.00     0.000 HD 
BRANCH   8  10
HETATM   10  S   UNL     1      -9.431   9.579  68.341  1.00  0.00    -0.138 S  
HETATM   11  O   UNL     1      -8.289   8.836  67.857  1.00  0.00    -0.117 OA 
HETATM   12  O   UNL     1      -9.297  10.514  69.440  1.00  0.00    -0.190 OA 
BRANCH  10  13
HETATM   13  C   UNL     1     -10.166  10.475  66.993  1.00  0.00    -0.226 A  
HETATM   14  C   UNL     1     -11.090  11.492  67.263  1.00  0.00    -0.351 A  
HETATM   15  C   UNL     1     -11.683  12.179  66.201  1.00  0.00    -0.384 A  
HETATM   16  C   UNL     1     -11.342  11.857  64.885  1.00  0.00    -0.277 A  
HETATM   17  C   UNL     1     -10.410  10.854  64.619  1.00  0.00    -0.407 A  
HETATM   18 CL   UNL     1     -12.081  12.703  63.581  1.00  0.00    -0.585 Cl 
HETATM   19  C   UNL     1      -9.817  10.158  65.675  1.00  0.00    -0.347 A  
ENDBRANCH  10  13
ENDBRANCH   8  10
ENDBRANCH   6   8
ENDBRANCH   4   6
ENDBRANCH   3   4
ENDBRANCH   2   3
TORSDOF 6
ENDMDL
MODEL       87
REMARK 921   NORMALIZED FREE ENERGY PREDICTED BY IDOCK:   -4.15 KCAL/MOL
REMARK 922        TOTAL FREE ENERGY PREDICTED BY IDOCK:   -6.31 KCAL/MOL
REMARK 923 INTER-LIGAND FREE ENERGY PREDICTED BY IDOCK:   -5.53 KCAL/MOL
REMARK 924 INTRA-LIGAND FREE ENERGY PREDICTED BY IDOCK:   -0.79 KCAL/MOL
REMARK 927      BINDING AFFINITY PREDICTED BY RF-SCORE:    0.00 PKD
ROOT
HETATM    1  C   UNL     1     -12.187  15.487  72.208  1.00  0.00    -0.504 C  
HETATM    2  C   UNL     1     -12.844  15.455  70.836  1.00  0.00    -0.536 C  
ENDROOT
BRANCH   2   3
HETATM    3  C   UNL     1     -11.834  15.602  69.700  1.00  0.00    -0.362 C  
BRANCH   3   4
HETATM    4  N   UNL     1     -11.701  14.401  68.899  1.00  0.00    -0.303 N  
HETATM    5  H   UNL     1     -12.530  13.979  68.483  1.00  0.00     0.000 HD 
BRANCH   4   6
HETATM    6  C   UNL     1     -10.480  13.828  68.696  1.00  0.00    -0.239 C  
HETATM    7  O   UNL     1      -9.558  14.386  68.127  1.00  0.00    -0.205 OA 
BRANCH   6   8
HETATM    8  N   UNL     1     -10.376  12.557  69.233  1.00  0.00    -0.393 N  
HETATM    9  H   UNL     1      -9.451  12.224  69.505  1.00  0.00     0.000 HD 
BRANCH   8  10
HETATM   10  S   UNL     1     -11.676  11.543  69.461  1.00  0.00    -0.373 S  
HETATM   11  O   UNL     1     -12.341  11.352  68.191  1.00  0.00    -0.502 OA 
HETATM   12  O   UNL     1     -12.393  12.078  70.601  1.00  0.00    -0.356 OA 
BRANCH  10  13
HETATM   13  C   UNL     1     -10.953  10.006  69.986  1.00  0.00    -0.300 A  
HETATM   14  C   UNL     1     -10.047   9.348  69.146  1.00  0.00    -0.200 A  
HETATM   15  C   UNL     1      -9.498   8.129  69.552  1.00  0.00    -0.156 A  
HETATM   16  C   UNL     1      -9.844   7.586  70.791  1.00  0.00    -0.178 A  
HETATM   17  C   UNL     1     -10.735   8.252  71.633  1.00  0.00    -0.320 A  
HETATM   18 CL   UNL     1      -9.168   6.082  71.283  1.00  0.00    -0.153 Cl 
HETATM   19  C   UNL     1     -11.294   9.468  71.232  1.00  0.00    -0.446 A  
ENDBRANCH  10  13
ENDBRANCH   8  10
ENDBRANCH   6   8
ENDBRANCH   4   6
ENDBRANCH   3   4
ENDBRANCH   2   3
TORSDOF 6
ENDMDL
MODEL       88
REMARK 921   NORMALIZED FREE ENERGY PREDICTED BY IDOCK:   -4.14 KCAL/MOL
REMARK 922        TOTAL FREE ENERGY PREDICTED BY IDOCK:   -6.30 KCAL/MOL
REMARK 923 INTER-LIGAND FREE ENERGY PREDICTED BY IDOCK:   -5.98 KCAL/MOL
REMARK 924 INTRA-LIGAND FREE ENERGY PREDICTED BY IDOCK:   -0.32 KCAL/MOL
REMARK 927      BINDING AFFINITY PREDICTED BY RF-SCORE:    0.00 PKD
ROOT
HETATM    1  C   UNL     1     -10.730  11.382  63.516  1.00  0.00    -0.453 C  
HETATM    2  C   UNL     1     -12.129  11.968  63.387  1.00  0.00    -0.597 C  
ENDROOT
BRANCH   2   3
HETATM    3  C   UNL     1     -12.181  13.448  63.762  1.00  0.00    -0.417 C  
BRANCH   3   4
HETATM    4  N   UNL     1     -12.864  13.692  65.017  1.00  0.00    -0.733 N  
HETATM    5  H   UNL     1     -13.881  13.629  65.058  1.00  0.00     0.000 HD 
BRANCH   4   6
HETATM    6  C   UNL     1     -12.164  14.005  66.146  1.00  0.00    -0.465 C  
HETATM    7  O   UNL     1     -11.781  15.131  66.412  1.00  0.00    -0.194 OA 
BRANCH   6   8
HETATM    8  N   UNL     1     -11.962  12.922  66.982  1.00  0.00    -0.369 N  
HETATM    9  H   UNL     1     -12.090  11.986  66.597  1.00  0.00     0.000 HD 
BRANCH   8  10
HETATM   10  S   UNL     1     -11.520  13.062  68.581  1.00  0.00    -0.330 S  
HETATM   11  O   UNL     1     -12.586  13.724  69.298  1.00  0.00    -0.116 OA 
HETATM   12  O   UNL     1     -10.179  13.611  68.569  1.00  0.00    -0.237 OA 
BRANCH  10  13
HETATM   13  C   UNL     1     -11.381  11.383  69.150  1.00  0.00    -0.288 A  
HETATM   14  C   UNL     1     -11.868  11.041  70.417  1.00  0.00    -0.460 A  
HETATM   15  C   UNL     1     -11.737   9.726  70.871  1.00  0.00    -0.429 A  
HETATM   16  C   UNL     1     -11.136   8.764  70.055  1.00  0.00    -0.162 A  
HETATM   17  C   UNL     1     -10.665   9.103  68.787  1.00  0.00    -0.162 A  
HETATM   18 CL   UNL     1     -10.972   7.148  70.622  1.00  0.00    -0.271 Cl 
HETATM   19  C   UNL     1     -10.786  10.417  68.329  1.00  0.00    -0.299 A  
ENDBRANCH  10  13
ENDBRANCH   8  10
ENDBRANCH   6   8
ENDBRANCH   4   6
ENDBRANCH   3   4
ENDBRANCH   2   3
TORSDOF 6
ENDMDL
MODEL       89
REMARK 921   NORMALIZED FREE ENERGY PREDICTED BY IDOCK:   -4.13 KCAL/MOL
REMARK 922        TOTAL FREE ENERGY PREDICTED BY IDOCK:   -6.28 KCAL/MOL
REMARK 923 INTER-LIGAND FREE ENERGY PREDICTED BY IDOCK:   -6.15 KCAL/MOL
REMARK 924 INTRA-LIGAND FREE ENERGY PREDICTED BY IDOCK:   -0.14 KCAL/MOL
REMARK 927      BINDING AFFINITY PREDICTED BY RF-SCORE:    0.00 PKD
ROOT
HETATM    1  C   UNL     1     -12.561  11.750  63.216  1.00  0.00    -0.382 C  
HETATM    2  C   UNL     1     -11.521  12.601  63.931  1.00  0.00    -0.509 C  
ENDROOT
BRANCH   2   3
HETATM    3  C   UNL     1     -12.142  13.775  64.685  1.00  0.00    -0.421 C  
BRANCH   3   4
HETATM    4  N   UNL     1     -11.906  15.052  64.040  1.00  0.00    -0.846 N  
HETATM    5  H   UNL     1     -12.251  15.210  63.094  1.00  0.00     0.000 HD 
BRANCH   4   6
HETATM    6  C   UNL     1     -11.228  16.046  64.683  1.00  0.00    -0.330 C  
HETATM    7  O   UNL     1     -11.252  17.213  64.335  1.00  0.00    -1.143 OA 
BRANCH   6   8
HETATM    8  N   UNL     1     -10.537  15.605  65.797  1.00  0.00    -0.342 N  
HETATM    9  H   UNL     1     -10.607  14.619  66.048  1.00  0.00     0.000 HD 
BRANCH   8  10
HETATM   10  S   UNL     1      -9.597  16.594  66.750  1.00  0.00    -0.270 S  
HETATM   11  O   UNL     1     -10.445  17.232  67.731  1.00  0.00    -0.344 OA 
HETATM   12  O   UNL     1      -8.803  17.382  65.830  1.00  0.00    -0.522 OA 
BRANCH  10  13
HETATM   13  C   UNL     1      -8.477  15.483  67.571  1.00  0.00    -0.173 A  
HETATM   14  C   UNL     1      -8.401  14.149  67.156  1.00  0.00    -0.189 A  
HETATM   15  C   UNL     1      -7.537  13.273  67.819  1.00  0.00    -0.161 A  
HETATM   16  C   UNL     1      -6.749  13.737  68.875  1.00  0.00    -0.108 A  
HETATM   17  C   UNL     1      -6.815  15.071  69.277  1.00  0.00    -0.149 A  
HETATM   18 CL   UNL     1      -5.691  12.652  69.690  1.00  0.00    -0.096 Cl 
HETATM   19  C   UNL     1      -7.682  15.951  68.624  1.00  0.00    -0.161 A  
ENDBRANCH  10  13
ENDBRANCH   8  10
ENDBRANCH   6   8
ENDBRANCH   4   6
ENDBRANCH   3   4
ENDBRANCH   2   3
TORSDOF 6
ENDMDL
MODEL       90
REMARK 921   NORMALIZED FREE ENERGY PREDICTED BY IDOCK:   -4.12 KCAL/MOL
REMARK 922        TOTAL FREE ENERGY PREDICTED BY IDOCK:   -6.26 KCAL/MOL
REMARK 923 INTER-LIGAND FREE ENERGY PREDICTED BY IDOCK:   -5.59 KCAL/MOL
REMARK 924 INTRA-LIGAND FREE ENERGY PREDICTED BY IDOCK:   -0.68 KCAL/MOL
REMARK 927      BINDING AFFINITY PREDICTED BY RF-SCORE:    0.00 PKD
ROOT
HETATM    1  C   UNL     1      -6.668  13.382  67.550  1.00  0.00    -0.151 C  
HETATM    2  C   UNL     1      -7.652  14.468  67.960  1.00  0.00    -0.138 C  
ENDROOT
BRANCH   2   3
HETATM    3  C   UNL     1      -8.466  14.996  66.781  1.00  0.00    -0.204 C  
BRANCH   3   4
HETATM    4  N   UNL     1      -9.889  14.757  66.920  1.00  0.00    -0.238 N  
HETATM    5  H   UNL     1     -10.461  15.415  67.449  1.00  0.00     0.000 HD 
BRANCH   4   6
HETATM    6  C   UNL     1     -10.474  13.662  66.354  1.00  0.00    -0.288 C  
HETATM    7  O   UNL     1     -10.100  13.165  65.306  1.00  0.00    -0.287 OA 
BRANCH   6   8
HETATM    8  N   UNL     1     -11.513  13.146  67.106  1.00  0.00    -0.316 N  
HETATM    9  H   UNL     1     -12.468  13.320  66.792  1.00  0.00     0.000 HD 
BRANCH   8  10
HETATM   10  S   UNL     1     -11.291  12.255  68.495  1.00  0.00    -0.313 S  
HETATM   11  O   UNL     1      -9.873  12.123  68.737  1.00  0.00    -0.145 OA 
HETATM   12  O   UNL     1     -12.132  11.084  68.346  1.00  0.00    -0.594 OA 
BRANCH  10  13
HETATM   13  C   UNL     1     -12.020  13.247  69.778  1.00  0.00    -0.324 A  
HETATM   14  C   UNL     1     -12.612  12.622  70.881  1.00  0.00    -0.338 A  
HETATM   15  C   UNL     1     -13.204  13.403  71.877  1.00  0.00    -0.522 A  
HETATM   16  C   UNL     1     -13.187  14.796  71.772  1.00  0.00    -0.348 A  
HETATM   17  C   UNL     1     -12.582  15.418  70.680  1.00  0.00    -0.491 A  
HETATM   18 CL   UNL     1     -13.922  15.753  72.998  1.00  0.00    -0.523 Cl 
HETATM   19  C   UNL     1     -11.995  14.643  69.676  1.00  0.00    -0.368 A  
ENDBRANCH  10  13
ENDBRANCH   8  10
ENDBRANCH   6   8
ENDBRANCH   4   6
ENDBRANCH   3   4
ENDBRANCH   2   3
TORSDOF 6
ENDMDL
MODEL       91
REMARK 921   NORMALIZED FREE ENERGY PREDICTED BY IDOCK:   -4.12 KCAL/MOL
REMARK 922        TOTAL FREE ENERGY PREDICTED BY IDOCK:   -6.26 KCAL/MOL
REMARK 923 INTER-LIGAND FREE ENERGY PREDICTED BY IDOCK:   -5.63 KCAL/MOL
REMARK 924 INTRA-LIGAND FREE ENERGY PREDICTED BY IDOCK:   -0.63 KCAL/MOL
REMARK 927      BINDING AFFINITY PREDICTED BY RF-SCORE:    0.00 PKD
ROOT
HETATM    1  C   UNL     1     -12.407  15.109  70.600  1.00  0.00    -0.420 C  
HETATM    2  C   UNL     1     -11.850  15.584  69.266  1.00  0.00    -0.372 C  
ENDROOT
BRANCH   2   3
HETATM    3  C   UNL     1     -10.569  14.852  68.872  1.00  0.00    -0.247 C  
BRANCH   3   4
HETATM    4  N   UNL     1     -10.148  15.134  67.514  1.00  0.00    -0.231 N  
HETATM    5  H   UNL     1      -9.917  16.091  67.247  1.00  0.00     0.000 HD 
BRANCH   4   6
HETATM    6  C   UNL     1     -10.056  14.137  66.588  1.00  0.00    -0.275 C  
HETATM    7  O   UNL     1     -10.054  14.332  65.385  1.00  0.00    -0.346 OA 
BRANCH   6   8
HETATM    8  N   UNL     1      -9.926  12.880  67.149  1.00  0.00    -0.236 N  
HETATM    9  H   UNL     1      -9.145  12.714  67.784  1.00  0.00     0.000 HD 
BRANCH   8  10
HETATM   10  S   UNL     1     -10.975  11.623  66.847  1.00  0.00    -0.304 S  
HETATM   11  O   UNL     1     -10.340  10.701  65.932  1.00  0.00    -0.255 OA 
HETATM   12  O   UNL     1     -12.242  12.242  66.517  1.00  0.00    -0.588 OA 
BRANCH  10  13
HETATM   13  C   UNL     1     -11.186  10.833  68.427  1.00  0.00    -0.284 A  
HETATM   14  C   UNL     1     -10.582   9.593  68.664  1.00  0.00    -0.246 A  
HETATM   15  C   UNL     1     -10.769   8.965  69.898  1.00  0.00    -0.236 A  
HETATM   16  C   UNL     1     -11.542   9.582  70.885  1.00  0.00    -0.326 A  
HETATM   17  C   UNL     1     -12.130  10.824  70.651  1.00  0.00    -0.467 A  
HETATM   18 CL   UNL     1     -11.772   8.800  72.400  1.00  0.00    -0.396 Cl 
HETATM   19  C   UNL     1     -11.954  11.456  69.418  1.00  0.00    -0.407 A  
ENDBRANCH  10  13
ENDBRANCH   8  10
ENDBRANCH   6   8
ENDBRANCH   4   6
ENDBRANCH   3   4
ENDBRANCH   2   3
TORSDOF 6
ENDMDL
MODEL       92
REMARK 921   NORMALIZED FREE ENERGY PREDICTED BY IDOCK:   -4.11 KCAL/MOL
REMARK 922        TOTAL FREE ENERGY PREDICTED BY IDOCK:   -6.26 KCAL/MOL
REMARK 923 INTER-LIGAND FREE ENERGY PREDICTED BY IDOCK:   -5.61 KCAL/MOL
REMARK 924 INTRA-LIGAND FREE ENERGY PREDICTED BY IDOCK:   -0.65 KCAL/MOL
REMARK 927      BINDING AFFINITY PREDICTED BY RF-SCORE:    0.00 PKD
ROOT
HETATM    1  C   UNL     1     -10.938  19.744  67.256  1.00  0.00    -0.345 C  
HETATM    2  C   UNL     1      -9.866  19.913  66.190  1.00  0.00    -0.562 C  
ENDROOT
BRANCH   2   3
HETATM    3  C   UNL     1      -8.455  19.730  66.744  1.00  0.00    -0.321 C  
BRANCH   3   4
HETATM    4  N   UNL     1      -8.164  18.359  67.115  1.00  0.00    -0.240 N  
HETATM    5  H   UNL     1      -8.274  18.066  68.086  1.00  0.00     0.000 HD 
BRANCH   4   6
HETATM    6  C   UNL     1      -7.744  17.456  66.183  1.00  0.00    -0.276 C  
HETATM    7  O   UNL     1      -6.899  17.700  65.340  1.00  0.00    -0.253 OA 
BRANCH   6   8
HETATM    8  N   UNL     1      -8.346  16.217  66.313  1.00  0.00    -0.324 N  
HETATM    9  H   UNL     1      -7.748  15.403  66.452  1.00  0.00     0.000 HD 
BRANCH   8  10
HETATM   10  S   UNL     1      -9.993  15.982  66.254  1.00  0.00    -0.333 S  
HETATM   11  O   UNL     1     -10.471  16.385  64.950  1.00  0.00    -0.643 OA 
HETATM   12  O   UNL     1     -10.518  16.592  67.459  1.00  0.00    -0.299 OA 
BRANCH  10  13
HETATM   13  C   UNL     1     -10.196  14.225  66.439  1.00  0.00    -0.291 A  
HETATM   14  C   UNL     1     -11.469  13.660  66.302  1.00  0.00    -0.352 A  
HETATM   15  C   UNL     1     -11.630  12.282  66.471  1.00  0.00    -0.440 A  
HETATM   16  C   UNL     1     -10.522  11.482  66.759  1.00  0.00    -0.239 A  
HETATM   17  C   UNL     1      -9.252  12.044  66.879  1.00  0.00    -0.197 A  
HETATM   18 CL   UNL     1     -10.727   9.786  66.971  1.00  0.00    -0.278 Cl 
HETATM   19  C   UNL     1      -9.084  13.422  66.719  1.00  0.00    -0.221 A  
ENDBRANCH  10  13
ENDBRANCH   8  10
ENDBRANCH   6   8
ENDBRANCH   4   6
ENDBRANCH   3   4
ENDBRANCH   2   3
TORSDOF 6
ENDMDL
MODEL       93
REMARK 921   NORMALIZED FREE ENERGY PREDICTED BY IDOCK:   -4.11 KCAL/MOL
REMARK 922        TOTAL FREE ENERGY PREDICTED BY IDOCK:   -6.25 KCAL/MOL
REMARK 923 INTER-LIGAND FREE ENERGY PREDICTED BY IDOCK:   -5.72 KCAL/MOL
REMARK 924 INTRA-LIGAND FREE ENERGY PREDICTED BY IDOCK:   -0.54 KCAL/MOL
REMARK 927      BINDING AFFINITY PREDICTED BY RF-SCORE:    0.00 PKD
ROOT
HETATM    1  C   UNL     1      -9.107   8.034  67.580  1.00  0.00    -0.144 C  
HETATM    2  C   UNL     1     -10.261   8.656  66.808  1.00  0.00    -0.361 C  
ENDROOT
BRANCH   2   3
HETATM    3  C   UNL     1      -9.978  10.098  66.391  1.00  0.00    -0.234 C  
BRANCH   3   4
HETATM    4  N   UNL     1     -10.038  11.031  67.498  1.00  0.00    -0.177 N  
HETATM    5  H   UNL     1      -9.202  11.206  68.055  1.00  0.00     0.000 HD 
BRANCH   4   6
HETATM    6  C   UNL     1     -11.198  11.679  67.805  1.00  0.00    -0.268 C  
HETATM    7  O   UNL     1     -12.225  11.108  68.129  1.00  0.00    -0.612 OA 
BRANCH   6   8
HETATM    8  N   UNL     1     -11.086  13.057  67.751  1.00  0.00    -0.252 N  
HETATM    9  H   UNL     1     -10.902  13.560  68.619  1.00  0.00     0.000 HD 
BRANCH   8  10
HETATM   10  S   UNL     1     -11.235  13.939  66.347  1.00  0.00    -0.323 S  
HETATM   11  O   UNL     1     -12.608  13.868  65.900  1.00  0.00    -0.478 OA 
HETATM   12  O   UNL     1     -10.152  13.497  65.492  1.00  0.00    -0.295 OA 
BRANCH  10  13
HETATM   13  C   UNL     1     -10.857  15.608  66.830  1.00  0.00    -0.282 A  
HETATM   14  C   UNL     1     -10.888  15.957  68.185  1.00  0.00    -0.317 A  
HETATM   15  C   UNL     1     -10.613  17.275  68.560  1.00  0.00    -0.350 A  
HETATM   16  C   UNL     1     -10.298  18.225  67.586  1.00  0.00    -0.396 A  
HETATM   17  C   UNL     1     -10.252  17.871  66.238  1.00  0.00    -0.363 A  
HETATM   18 CL   UNL     1      -9.966  19.848  68.054  1.00  0.00    -0.529 Cl 
HETATM   19  C   UNL     1     -10.532  16.557  65.854  1.00  0.00    -0.335 A  
ENDBRANCH  10  13
ENDBRANCH   8  10
ENDBRANCH   6   8
ENDBRANCH   4   6
ENDBRANCH   3   4
ENDBRANCH   2   3
TORSDOF 6
ENDMDL
MODEL       94
REMARK 921   NORMALIZED FREE ENERGY PREDICTED BY IDOCK:   -4.11 KCAL/MOL
REMARK 922        TOTAL FREE ENERGY PREDICTED BY IDOCK:   -6.25 KCAL/MOL
REMARK 923 INTER-LIGAND FREE ENERGY PREDICTED BY IDOCK:   -5.62 KCAL/MOL
REMARK 924 INTRA-LIGAND FREE ENERGY PREDICTED BY IDOCK:   -0.63 KCAL/MOL
REMARK 927      BINDING AFFINITY PREDICTED BY RF-SCORE:    0.00 PKD
ROOT
HETATM    1  C   UNL     1      -6.242  12.353  69.711  1.00  0.00    -0.119 C  
HETATM    2  C   UNL     1      -6.389  13.831  69.377  1.00  0.00    -0.111 C  
ENDROOT
BRANCH   2   3
HETATM    3  C   UNL     1      -7.345  14.076  68.212  1.00  0.00    -0.115 C  
BRANCH   3   4
HETATM    4  N   UNL     1      -8.727  14.206  68.630  1.00  0.00    -0.278 N  
HETATM    5  H   UNL     1      -9.372  13.429  68.485  1.00  0.00     0.000 HD 
BRANCH   4   6
HETATM    6  C   UNL     1      -9.177  15.353  69.214  1.00  0.00    -0.259 C  
HETATM    7  O   UNL     1      -8.727  16.458  68.966  1.00  0.00    -0.248 OA 
BRANCH   6   8
HETATM    8  N   UNL     1     -10.226  15.145  70.092  1.00  0.00    -0.509 N  
HETATM    9  H   UNL     1     -10.028  15.169  71.092  1.00  0.00     0.000 HD 
BRANCH   8  10
HETATM   10  S   UNL     1     -11.792  14.858  69.607  1.00  0.00    -0.333 S  
HETATM   11  O   UNL     1     -11.820  14.775  68.164  1.00  0.00    -0.326 OA 
HETATM   12  O   UNL     1     -12.603  15.830  70.311  1.00  0.00    -0.384 OA 
BRANCH  10  13
HETATM   13  C   UNL     1     -12.185  13.267  70.297  1.00  0.00    -0.321 A  
HETATM   14  C   UNL     1     -12.996  13.190  71.435  1.00  0.00    -0.386 A  
HETATM   15  C   UNL     1     -13.284  11.940  71.989  1.00  0.00    -0.461 A  
HETATM   16  C   UNL     1     -12.775  10.782  71.397  1.00  0.00    -0.439 A  
HETATM   17  C   UNL     1     -11.980  10.859  70.254  1.00  0.00    -0.448 A  
HETATM   18 CL   UNL     1     -13.129   9.246  72.087  1.00  0.00    -0.485 Cl 
HETATM   19  C   UNL     1     -11.682  12.106  69.698  1.00  0.00    -0.396 A  
ENDBRANCH  10  13
ENDBRANCH   8  10
ENDBRANCH   6   8
ENDBRANCH   4   6
ENDBRANCH   3   4
ENDBRANCH   2   3
TORSDOF 6
ENDMDL
MODEL       95
REMARK 921   NORMALIZED FREE ENERGY PREDICTED BY IDOCK:   -4.10 KCAL/MOL
REMARK 922        TOTAL FREE ENERGY PREDICTED BY IDOCK:   -6.24 KCAL/MOL
REMARK 923 INTER-LIGAND FREE ENERGY PREDICTED BY IDOCK:   -5.63 KCAL/MOL
REMARK 924 INTRA-LIGAND FREE ENERGY PREDICTED BY IDOCK:   -0.60 KCAL/MOL
REMARK 927      BINDING AFFINITY PREDICTED BY RF-SCORE:    0.00 PKD
ROOT
HETATM    1  C   UNL     1      -8.852  10.386  65.882  1.00  0.00    -0.179 C  
HETATM    2  C   UNL     1     -10.207  10.412  65.189  1.00  0.00    -0.326 C  
ENDROOT
BRANCH   2   3
HETATM    3  C   UNL     1     -10.701  11.831  64.921  1.00  0.00    -0.295 C  
BRANCH   3   4
HETATM    4  N   UNL     1     -11.672  12.288  65.897  1.00  0.00    -0.408 N  
HETATM    5  H   UNL     1     -11.969  11.660  66.643  1.00  0.00     0.000 HD 
BRANCH   4   6
HETATM    6  C   UNL     1     -12.193  13.547  65.829  1.00  0.00    -0.461 C  
HETATM    7  O   UNL     1     -12.394  14.139  64.783  1.00  0.00    -0.451 OA 
BRANCH   6   8
HETATM    8  N   UNL     1     -12.508  14.075  67.068  1.00  0.00    -0.518 N  
HETATM    9  H   UNL     1     -13.481  14.316  67.255  1.00  0.00     0.000 HD 
BRANCH   8  10
HETATM   10  S   UNL     1     -11.387  14.338  68.271  1.00  0.00    -0.307 S  
HETATM   11  O   UNL     1     -10.568  13.155  68.406  1.00  0.00    -0.239 OA 
HETATM   12  O   UNL     1     -12.138  14.855  69.397  1.00  0.00    -0.298 OA 
BRANCH  10  13
HETATM   13  C   UNL     1     -10.391  15.679  67.661  1.00  0.00    -0.275 A  
HETATM   14  C   UNL     1      -9.350  15.412  66.764  1.00  0.00    -0.267 A  
HETATM   15  C   UNL     1      -8.555  16.465  66.304  1.00  0.00    -0.375 A  
HETATM   16  C   UNL     1      -8.811  17.770  66.730  1.00  0.00    -0.260 A  
HETATM   17  C   UNL     1      -9.858  18.036  67.612  1.00  0.00    -0.305 A  
HETATM   18 CL   UNL     1      -7.824  19.061  66.165  1.00  0.00    -0.299 Cl 
HETATM   19  C   UNL     1     -10.654  16.988  68.082  1.00  0.00    -0.369 A  
ENDBRANCH  10  13
ENDBRANCH   8  10
ENDBRANCH   6   8
ENDBRANCH   4   6
ENDBRANCH   3   4
ENDBRANCH   2   3
TORSDOF 6
ENDMDL
MODEL       96
REMARK 921   NORMALIZED FREE ENERGY PREDICTED BY IDOCK:   -4.09 KCAL/MOL
REMARK 922        TOTAL FREE ENERGY PREDICTED BY IDOCK:   -6.23 KCAL/MOL
REMARK 923 INTER-LIGAND FREE ENERGY PREDICTED BY IDOCK:   -5.64 KCAL/MOL
REMARK 924 INTRA-LIGAND FREE ENERGY PREDICTED BY IDOCK:   -0.60 KCAL/MOL
REMARK 927      BINDING AFFINITY PREDICTED BY RF-SCORE:    0.00 PKD
ROOT
HETATM    1  C   UNL     1      -6.762  11.397  68.749  1.00  0.00    -0.073 C  
HETATM    2  C   UNL     1      -7.079  12.289  67.558  1.00  0.00    -0.142 C  
ENDROOT
BRANCH   2   3
HETATM    3  C   UNL     1      -8.531  12.762  67.550  1.00  0.00    -0.181 C  
BRANCH   3   4
HETATM    4  N   UNL     1      -9.030  13.043  66.219  1.00  0.00    -0.450 N  
HETATM    5  H   UNL     1      -8.760  13.909  65.752  1.00  0.00     0.000 HD 
BRANCH   4   6
HETATM    6  C   UNL     1      -9.856  12.165  65.581  1.00  0.00    -0.237 C  
HETATM    7  O   UNL     1      -9.458  11.223  64.918  1.00  0.00    -0.218 OA 
BRANCH   6   8
HETATM    8  N   UNL     1     -11.199  12.425  65.792  1.00  0.00    -0.318 N  
HETATM    9  H   UNL     1     -11.825  11.633  65.937  1.00  0.00     0.000 HD 
BRANCH   8  10
HETATM   10  S   UNL     1     -11.847  13.957  65.821  1.00  0.00    -0.399 S  
HETATM   11  O   UNL     1     -13.235  13.880  65.424  1.00  0.00    -0.750 OA 
HETATM   12  O   UNL     1     -10.912  14.791  65.093  1.00  0.00    -0.344 OA 
BRANCH  10  13
HETATM   13  C   UNL     1     -11.748  14.447  67.527  1.00  0.00    -0.387 A  
HETATM   14  C   UNL     1     -12.076  13.527  68.529  1.00  0.00    -0.303 A  
HETATM   15  C   UNL     1     -12.019  13.921  69.869  1.00  0.00    -0.405 A  
HETATM   16  C   UNL     1     -11.625  15.221  70.196  1.00  0.00    -0.299 A  
HETATM   17  C   UNL     1     -11.284  16.132  69.197  1.00  0.00    -0.336 A  
HETATM   18 CL   UNL     1     -11.563  15.702  71.847  1.00  0.00    -0.516 Cl 
HETATM   19  C   UNL     1     -11.345  15.747  67.855  1.00  0.00    -0.277 A  
ENDBRANCH  10  13
ENDBRANCH   8  10
ENDBRANCH   6   8
ENDBRANCH   4   6
ENDBRANCH   3   4
ENDBRANCH   2   3
TORSDOF 6
ENDMDL
MODEL       97
REMARK 921   NORMALIZED FREE ENERGY PREDICTED BY IDOCK:   -4.09 KCAL/MOL
REMARK 922        TOTAL FREE ENERGY PREDICTED BY IDOCK:   -6.23 KCAL/MOL
REMARK 923 INTER-LIGAND FREE ENERGY PREDICTED BY IDOCK:   -5.60 KCAL/MOL
REMARK 924 INTRA-LIGAND FREE ENERGY PREDICTED BY IDOCK:   -0.63 KCAL/MOL
REMARK 927      BINDING AFFINITY PREDICTED BY RF-SCORE:    0.00 PKD
ROOT
HETATM    1  C   UNL     1     -14.073   8.371  71.928  1.00  0.00    -0.516 C  
HETATM    2  C   UNL     1     -13.218   7.179  71.522  1.00  0.00    -0.419 C  
ENDROOT
BRANCH   2   3
HETATM    3  C   UNL     1     -11.914   7.597  70.847  1.00  0.00    -0.229 C  
BRANCH   3   4
HETATM    4  N   UNL     1     -11.587   8.993  71.057  1.00  0.00    -0.288 N  
HETATM    5  H   UNL     1     -12.232   9.588  71.576  1.00  0.00     0.000 HD 
BRANCH   4   6
HETATM    6  C   UNL     1     -10.428   9.522  70.571  1.00  0.00    -0.296 C  
HETATM    7  O   UNL     1      -9.366   8.924  70.559  1.00  0.00    -0.171 OA 
BRANCH   6   8
HETATM    8  N   UNL     1     -10.582  10.795  70.054  1.00  0.00    -0.459 N  
HETATM    9  H   UNL     1      -9.767  11.409  70.033  1.00  0.00     0.000 HD 
BRANCH   8  10
HETATM   10  S   UNL     1     -12.023  11.382  69.463  1.00  0.00    -0.331 S  
HETATM   11  O   UNL     1     -13.010  11.331  70.518  1.00  0.00    -0.142 OA 
HETATM   12  O   UNL     1     -12.241  10.690  68.208  1.00  0.00    -0.345 OA 
BRANCH  10  13
HETATM   13  C   UNL     1     -11.678  13.079  69.058  1.00  0.00    -0.329 A  
HETATM   14  C   UNL     1     -11.420  13.433  67.729  1.00  0.00    -0.351 A  
HETATM   15  C   UNL     1     -11.127  14.763  67.418  1.00  0.00    -0.327 A  
HETATM   16  C   UNL     1     -11.107  15.727  68.428  1.00  0.00    -0.341 A  
HETATM   17  C   UNL     1     -11.380  15.375  69.750  1.00  0.00    -0.317 A  
HETATM   18 CL   UNL     1     -10.740  17.362  68.039  1.00  0.00    -0.390 Cl 
HETATM   19  C   UNL     1     -11.667  14.046  70.070  1.00  0.00    -0.349 A  
ENDBRANCH  10  13
ENDBRANCH   8  10
ENDBRANCH   6   8
ENDBRANCH   4   6
ENDBRANCH   3   4
ENDBRANCH   2   3
TORSDOF 6
ENDMDL
MODEL       98
REMARK 921   NORMALIZED FREE ENERGY PREDICTED BY IDOCK:   -4.08 KCAL/MOL
REMARK 922        TOTAL FREE ENERGY PREDICTED BY IDOCK:   -6.22 KCAL/MOL
REMARK 923 INTER-LIGAND FREE ENERGY PREDICTED BY IDOCK:   -5.71 KCAL/MOL
REMARK 924 INTRA-LIGAND FREE ENERGY PREDICTED BY IDOCK:   -0.51 KCAL/MOL
REMARK 927      BINDING AFFINITY PREDICTED BY RF-SCORE:    0.00 PKD
ROOT
HETATM    1  C   UNL     1      -8.399  17.210  67.633  1.00  0.00    -0.197 C  
HETATM    2  C   UNL     1      -9.282  17.057  66.403  1.00  0.00    -0.298 C  
ENDROOT
BRANCH   2   3
HETATM    3  C   UNL     1      -9.580  15.597  66.074  1.00  0.00    -0.351 C  
BRANCH   3   4
HETATM    4  N   UNL     1      -8.796  14.665  66.861  1.00  0.00    -0.239 N  
HETATM    5  H   UNL     1      -7.830  14.893  67.095  1.00  0.00     0.000 HD 
BRANCH   4   6
HETATM    6  C   UNL     1      -9.334  13.488  67.293  1.00  0.00    -0.233 C  
HETATM    7  O   UNL     1      -9.432  12.495  66.594  1.00  0.00    -0.230 OA 
BRANCH   6   8
HETATM    8  N   UNL     1      -9.724  13.520  68.620  1.00  0.00    -0.385 N  
HETATM    9  H   UNL     1      -9.071  13.173  69.322  1.00  0.00     0.000 HD 
BRANCH   8  10
HETATM   10  S   UNL     1     -11.200  14.094  69.132  1.00  0.00    -0.279 S  
HETATM   11  O   UNL     1     -12.024  14.352  67.973  1.00  0.00    -0.334 OA 
HETATM   12  O   UNL     1     -10.902  15.148  70.081  1.00  0.00    -0.258 OA 
BRANCH  10  13
HETATM   13  C   UNL     1     -11.898  12.749  70.065  1.00  0.00    -0.281 A  
HETATM   14  C   UNL     1     -12.748  13.025  71.142  1.00  0.00    -0.372 A  
HETATM   15  C   UNL     1     -13.277  11.967  71.886  1.00  0.00    -0.469 A  
HETATM   16  C   UNL     1     -12.966  10.650  71.543  1.00  0.00    -0.461 A  
HETATM   17  C   UNL     1     -12.131  10.377  70.460  1.00  0.00    -0.423 A  
HETATM   18 CL   UNL     1     -13.615   9.352  72.468  1.00  0.00    -0.493 Cl 
HETATM   19  C   UNL     1     -11.593  11.429  69.715  1.00  0.00    -0.407 A  
ENDBRANCH  10  13
ENDBRANCH   8  10
ENDBRANCH   6   8
ENDBRANCH   4   6
ENDBRANCH   3   4
ENDBRANCH   2   3
TORSDOF 6
ENDMDL
MODEL       99
REMARK 921   NORMALIZED FREE ENERGY PREDICTED BY IDOCK:   -4.08 KCAL/MOL
REMARK 922        TOTAL FREE ENERGY PREDICTED BY IDOCK:   -6.22 KCAL/MOL
REMARK 923 INTER-LIGAND FREE ENERGY PREDICTED BY IDOCK:   -5.51 KCAL/MOL
REMARK 924 INTRA-LIGAND FREE ENERGY PREDICTED BY IDOCK:   -0.71 KCAL/MOL
REMARK 927      BINDING AFFINITY PREDICTED BY RF-SCORE:    0.00 PKD
ROOT
HETATM    1  C   UNL     1     -11.720  12.485  66.803  1.00  0.00    -0.453 C  
HETATM    2  C   UNL     1     -11.830  12.367  68.316  1.00  0.00    -0.364 C  
ENDROOT
BRANCH   2   3
HETATM    3  C   UNL     1     -11.672  10.929  68.805  1.00  0.00    -0.286 C  
BRANCH   3   4
HETATM    4  N   UNL     1     -12.709  10.529  69.735  1.00  0.00    -0.500 N  
HETATM    5  H   UNL     1     -13.582  10.139  69.379  1.00  0.00     0.000 HD 
BRANCH   4   6
HETATM    6  C   UNL     1     -12.533  10.665  71.081  1.00  0.00    -0.418 C  
HETATM    7  O   UNL     1     -13.141  11.472  71.762  1.00  0.00    -0.472 OA 
BRANCH   6   8
HETATM    8  N   UNL     1     -11.621   9.768  71.607  1.00  0.00    -0.351 N  
HETATM    9  H   UNL     1     -10.725  10.128  71.933  1.00  0.00     0.000 HD 
BRANCH   8  10
HETATM   10  S   UNL     1     -11.906   8.133  71.737  1.00  0.00    -0.321 S  
HETATM   11  O   UNL     1     -13.307   7.887  71.482  1.00  0.00    -0.334 OA 
HETATM   12  O   UNL     1     -11.297   7.729  72.988  1.00  0.00    -0.399 OA 
BRANCH  10  13
HETATM   13  C   UNL     1     -10.933   7.409  70.437  1.00  0.00    -0.251 A  
HETATM   14  C   UNL     1      -9.697   7.975  70.104  1.00  0.00    -0.176 A  
HETATM   15  C   UNL     1      -8.945   7.417  69.066  1.00  0.00    -0.131 A  
HETATM   16  C   UNL     1      -9.423   6.297  68.383  1.00  0.00    -0.118 A  
HETATM   17  C   UNL     1     -10.648   5.725  68.727  1.00  0.00    -0.321 A  
HETATM   18 CL   UNL     1      -8.495   5.619  67.102  1.00  0.00    -0.111 Cl 
HETATM   19  C   UNL     1     -11.409   6.281  69.758  1.00  0.00    -0.506 A  
ENDBRANCH  10  13
ENDBRANCH   8  10
ENDBRANCH   6   8
ENDBRANCH   4   6
ENDBRANCH   3   4
ENDBRANCH   2   3
TORSDOF 6
ENDMDL
MODEL      100
REMARK 921   NORMALIZED FREE ENERGY PREDICTED BY IDOCK:   -4.08 KCAL/MOL
REMARK 922        TOTAL FREE ENERGY PREDICTED BY IDOCK:   -6.22 KCAL/MOL
REMARK 923 INTER-LIGAND FREE ENERGY PREDICTED BY IDOCK:   -5.62 KCAL/MOL
REMARK 924 INTRA-LIGAND FREE ENERGY PREDICTED BY IDOCK:   -0.60 KCAL/MOL
REMARK 927      BINDING AFFINITY PREDICTED BY RF-SCORE:    0.00 PKD
ROOT
HETATM    1  C   UNL     1     -11.699   8.543  72.348  1.00  0.00    -0.429 C  
HETATM    2  C   UNL     1     -11.652   7.188  71.656  1.00  0.00    -0.309 C  
ENDROOT
BRANCH   2   3
HETATM    3  C   UNL     1     -10.625   7.143  70.527  1.00  0.00    -0.225 C  
BRANCH   3   4
HETATM    4  N   UNL     1     -11.191   7.458  69.230  1.00  0.00    -0.451 N  
HETATM    5  H   UNL     1     -12.179   7.274  69.054  1.00  0.00     0.000 HD 
BRANCH   4   6
HETATM    6  C   UNL     1     -10.421   7.999  68.243  1.00  0.00    -0.161 C  
HETATM    7  O   UNL     1      -9.408   7.474  67.815  1.00  0.00    -0.140 OA 
BRANCH   6   8
HETATM    8  N   UNL     1     -10.924   9.187  67.745  1.00  0.00    -0.492 N  
HETATM    9  H   UNL     1     -11.360   9.176  66.823  1.00  0.00     0.000 HD 
BRANCH   8  10
HETATM   10  S   UNL     1     -10.858  10.632  68.567  1.00  0.00    -0.254 S  
HETATM   11  O   UNL     1      -9.501  10.844  69.021  1.00  0.00    -0.197 OA 
HETATM   12  O   UNL     1     -11.958  10.597  69.509  1.00  0.00    -0.288 OA 
BRANCH  10  13
HETATM   13  C   UNL     1     -11.269  11.857  67.345  1.00  0.00    -0.305 A  
HETATM   14  C   UNL     1     -11.744  13.108  67.754  1.00  0.00    -0.401 A  
HETATM   15  C   UNL     1     -12.088  14.060  66.791  1.00  0.00    -0.480 A  
HETATM   16  C   UNL     1     -11.942  13.762  65.434  1.00  0.00    -0.379 A  
HETATM   17  C   UNL     1     -11.454  12.521  65.028  1.00  0.00    -0.368 A  
HETATM   18 CL   UNL     1     -12.373  14.937  64.253  1.00  0.00    -0.448 Cl 
HETATM   19  C   UNL     1     -11.114  11.561  65.986  1.00  0.00    -0.289 A  
ENDBRANCH  10  13
ENDBRANCH   8  10
ENDBRANCH   6   8
ENDBRANCH   4   6
ENDBRANCH   3   4
ENDBRANCH   2   3
TORSDOF 6
ENDMDL
MODEL      101
REMARK 921   NORMALIZED FREE ENERGY PREDICTED BY IDOCK:   -4.08 KCAL/MOL
REMARK 922        TOTAL FREE ENERGY PREDICTED BY IDOCK:   -6.21 KCAL/MOL
REMARK 923 INTER-LIGAND FREE ENERGY PREDICTED BY IDOCK:   -5.44 KCAL/MOL
REMARK 924 INTRA-LIGAND FREE ENERGY PREDICTED BY IDOCK:   -0.77 KCAL/MOL
REMARK 927      BINDING AFFINITY PREDICTED BY RF-SCORE:    0.00 PKD
ROOT
HETATM    1  C   UNL     1     -13.186  10.712  71.905  1.00  0.00    -0.528 C  
HETATM    2  C   UNL     1     -13.064   9.279  72.402  1.00  0.00    -0.481 C  
ENDROOT
BRANCH   2   3
HETATM    3  C   UNL     1     -13.885   8.298  71.568  1.00  0.00    -0.328 C  
BRANCH   3   4
HETATM    4  N   UNL     1     -13.067   7.422  70.753  1.00  0.00    -0.585 N  
HETATM    5  H   UNL     1     -13.402   7.129  69.836  1.00  0.00     0.000 HD 
BRANCH   4   6
HETATM    6  C   UNL     1     -11.853   6.984  71.196  1.00  0.00    -0.338 C  
HETATM    7  O   UNL     1     -11.717   6.112  72.036  1.00  0.00    -0.312 OA 
BRANCH   6   8
HETATM    8  N   UNL     1     -10.786   7.602  70.570  1.00  0.00    -0.237 N  
HETATM    9  H   UNL     1     -10.264   8.306  71.091  1.00  0.00     0.000 HD 
BRANCH   8  10
HETATM   10  S   UNL     1     -10.308   7.261  69.013  1.00  0.00    -0.208 S  
HETATM   11  O   UNL     1     -11.210   6.278  68.457  1.00  0.00    -0.352 OA 
HETATM   12  O   UNL     1      -8.884   7.002  69.089  1.00  0.00    -0.135 OA 
BRANCH  10  13
HETATM   13  C   UNL     1     -10.503   8.799  68.142  1.00  0.00    -0.191 A  
HETATM   14  C   UNL     1     -10.055   8.905  66.820  1.00  0.00    -0.350 A  
HETATM   15  C   UNL     1     -10.189  10.122  66.146  1.00  0.00    -0.285 A  
HETATM   16  C   UNL     1     -10.777  11.213  66.789  1.00  0.00    -0.276 A  
HETATM   17  C   UNL     1     -11.237  11.101  68.101  1.00  0.00    -0.356 A  
HETATM   18 CL   UNL     1     -10.934  12.710  65.955  1.00  0.00    -0.303 Cl 
HETATM   19  C   UNL     1     -11.101   9.890  68.784  1.00  0.00    -0.179 A  
ENDBRANCH  10  13
ENDBRANCH   8  10
ENDBRANCH   6   8
ENDBRANCH   4   6
ENDBRANCH   3   4
ENDBRANCH   2   3
TORSDOF 6
ENDMDL
MODEL      102
REMARK 921   NORMALIZED FREE ENERGY PREDICTED BY IDOCK:   -4.07 KCAL/MOL
REMARK 922        TOTAL FREE ENERGY PREDICTED BY IDOCK:   -6.20 KCAL/MOL
REMARK 923 INTER-LIGAND FREE ENERGY PREDICTED BY IDOCK:   -5.61 KCAL/MOL
REMARK 924 INTRA-LIGAND FREE ENERGY PREDICTED BY IDOCK:   -0.59 KCAL/MOL
REMARK 927      BINDING AFFINITY PREDICTED BY RF-SCORE:    0.00 PKD
ROOT
HETATM    1  C   UNL     1     -12.420  12.481  64.668  1.00  0.00    -0.539 C  
HETATM    2  C   UNL     1     -11.345  13.309  65.356  1.00  0.00    -0.317 C  
ENDROOT
BRANCH   2   3
HETATM    3  C   UNL     1     -10.454  12.469  66.269  1.00  0.00    -0.246 C  
BRANCH   3   4
HETATM    4  N   UNL     1     -11.186  11.453  66.999  1.00  0.00    -0.303 N  
HETATM    5  H   UNL     1     -12.036  11.708  67.503  1.00  0.00     0.000 HD 
BRANCH   4   6
HETATM    6  C   UNL     1     -10.755  10.159  67.020  1.00  0.00    -0.196 C  
HETATM    7  O   UNL     1     -10.085   9.656  66.136  1.00  0.00    -0.277 OA 
BRANCH   6   8
HETATM    8  N   UNL     1     -11.122   9.479  68.168  1.00  0.00    -0.503 N  
HETATM    9  H   UNL     1     -11.667   8.623  68.067  1.00  0.00     0.000 HD 
BRANCH   8  10
HETATM   10  S   UNL     1     -10.723   9.980  69.704  1.00  0.00    -0.272 S  
HETATM   11  O   UNL     1     -11.665  10.995  70.119  1.00  0.00    -0.299 OA 
HETATM   12  O   UNL     1      -9.301  10.259  69.666  1.00  0.00    -0.205 OA 
BRANCH  10  13
HETATM   13  C   UNL     1     -10.934   8.531  70.712  1.00  0.00    -0.247 A  
HETATM   14  C   UNL     1     -10.934   8.654  72.106  1.00  0.00    -0.434 A  
HETATM   15  C   UNL     1     -11.078   7.511  72.896  1.00  0.00    -0.426 A  
HETATM   16  C   UNL     1     -11.233   6.261  72.291  1.00  0.00    -0.283 A  
HETATM   17  C   UNL     1     -11.249   6.142  70.902  1.00  0.00    -0.365 A  
HETATM   18 CL   UNL     1     -11.404   4.856  73.270  1.00  0.00    -0.415 Cl 
HETATM   19  C   UNL     1     -11.099   7.280  70.105  1.00  0.00    -0.281 A  
ENDBRANCH  10  13
ENDBRANCH   8  10
ENDBRANCH   6   8
ENDBRANCH   4   6
ENDBRANCH   3   4
ENDBRANCH   2   3
TORSDOF 6
ENDMDL
MODEL      103
REMARK 921   NORMALIZED FREE ENERGY PREDICTED BY IDOCK:   -4.06 KCAL/MOL
REMARK 922        TOTAL FREE ENERGY PREDICTED BY IDOCK:   -6.19 KCAL/MOL
REMARK 923 INTER-LIGAND FREE ENERGY PREDICTED BY IDOCK:   -5.45 KCAL/MOL
REMARK 924 INTRA-LIGAND FREE ENERGY PREDICTED BY IDOCK:   -0.74 KCAL/MOL
REMARK 927      BINDING AFFINITY PREDICTED BY RF-SCORE:    0.00 PKD
ROOT
HETATM    1  C   UNL     1      -7.181   8.493  71.514  1.00  0.00    -0.104 C  
HETATM    2  C   UNL     1      -7.996   9.314  70.525  1.00  0.00    -0.188 C  
ENDROOT
BRANCH   2   3
HETATM    3  C   UNL     1      -9.148   8.520  69.914  1.00  0.00    -0.150 C  
BRANCH   3   4
HETATM    4  N   UNL     1      -9.928   7.801  70.901  1.00  0.00    -0.183 N  
HETATM    5  H   UNL     1      -9.607   7.764  71.868  1.00  0.00     0.000 HD 
BRANCH   4   6
HETATM    6  C   UNL     1     -11.088   7.172  70.554  1.00  0.00    -0.271 C  
HETATM    7  O   UNL     1     -11.193   5.963  70.440  1.00  0.00    -0.321 OA 
BRANCH   6   8
HETATM    8  N   UNL     1     -12.150   8.041  70.380  1.00  0.00    -0.446 N  
HETATM    9  H   UNL     1     -12.510   8.179  69.435  1.00  0.00     0.000 HD 
BRANCH   8  10
HETATM   10  S   UNL     1     -12.874   8.874  71.626  1.00  0.00    -0.362 S  
HETATM   11  O   UNL     1     -12.133   8.623  72.841  1.00  0.00    -0.217 OA 
HETATM   12  O   UNL     1     -14.285   8.559  71.539  1.00  0.00    -0.413 OA 
BRANCH  10  13
HETATM   13  C   UNL     1     -12.702  10.585  71.174  1.00  0.00    -0.418 A  
HETATM   14  C   UNL     1     -11.991  10.925  70.017  1.00  0.00    -0.429 A  
HETATM   15  C   UNL     1     -11.838  12.271  69.676  1.00  0.00    -0.393 A  
HETATM   16  C   UNL     1     -12.406  13.262  70.481  1.00  0.00    -0.316 A  
HETATM   17  C   UNL     1     -13.128  12.921  71.624  1.00  0.00    -0.430 A  
HETATM   18 CL   UNL     1     -12.209  14.919  70.059  1.00  0.00    -0.373 Cl 
HETATM   19  C   UNL     1     -13.279  11.577  71.975  1.00  0.00    -0.443 A  
ENDBRANCH  10  13
ENDBRANCH   8  10
ENDBRANCH   6   8
ENDBRANCH   4   6
ENDBRANCH   3   4
ENDBRANCH   2   3
TORSDOF 6
ENDMDL
MODEL      104
REMARK 921   NORMALIZED FREE ENERGY PREDICTED BY IDOCK:   -4.05 KCAL/MOL
REMARK 922        TOTAL FREE ENERGY PREDICTED BY IDOCK:   -6.17 KCAL/MOL
REMARK 923 INTER-LIGAND FREE ENERGY PREDICTED BY IDOCK:   -5.53 KCAL/MOL
REMARK 924 INTRA-LIGAND FREE ENERGY PREDICTED BY IDOCK:   -0.64 KCAL/MOL
REMARK 927      BINDING AFFINITY PREDICTED BY RF-SCORE:    0.00 PKD
ROOT
HETATM    1  C   UNL     1      -8.986   8.614  66.384  1.00  0.00    -0.197 C  
HETATM    2  C   UNL     1      -8.471  10.007  66.715  1.00  0.00    -0.125 C  
ENDROOT
BRANCH   2   3
HETATM    3  C   UNL     1      -9.143  11.094  65.880  1.00  0.00    -0.203 C  
BRANCH   3   4
HETATM    4  N   UNL     1      -8.669  12.427  66.195  1.00  0.00    -0.408 N  
HETATM    5  H   UNL     1      -7.703  12.680  65.988  1.00  0.00     0.000 HD 
BRANCH   4   6
HETATM    6  C   UNL     1      -9.498  13.349  66.764  1.00  0.00    -0.261 C  
HETATM    7  O   UNL     1      -9.807  14.399  66.229  1.00  0.00    -0.279 OA 
BRANCH   6   8
HETATM    8  N   UNL     1      -9.987  12.957  67.997  1.00  0.00    -0.230 N  
HETATM    9  H   UNL     1      -9.318  12.779  68.746  1.00  0.00     0.000 HD 
BRANCH   8  10
HETATM   10  S   UNL     1     -11.607  12.762  68.327  1.00  0.00    -0.353 S  
HETATM   11  O   UNL     1     -12.277  12.340  67.118  1.00  0.00    -0.506 OA 
HETATM   12  O   UNL     1     -12.013  13.969  69.018  1.00  0.00    -0.332 OA 
BRANCH  10  13
HETATM   13  C   UNL     1     -11.660  11.445  69.521  1.00  0.00    -0.331 A  
HETATM   14  C   UNL     1     -10.865  10.309  69.331  1.00  0.00    -0.282 A  
HETATM   15  C   UNL     1     -10.926   9.266  70.259  1.00  0.00    -0.286 A  
HETATM   16  C   UNL     1     -11.764   9.371  71.371  1.00  0.00    -0.378 A  
HETATM   17  C   UNL     1     -12.544  10.511  71.567  1.00  0.00    -0.529 A  
HETATM   18 CL   UNL     1     -11.839   8.081  72.507  1.00  0.00    -0.429 Cl 
HETATM   19  C   UNL     1     -12.494  11.555  70.640  1.00  0.00    -0.405 A  
ENDBRANCH  10  13
ENDBRANCH   8  10
ENDBRANCH   6   8
ENDBRANCH   4   6
ENDBRANCH   3   4
ENDBRANCH   2   3
TORSDOF 6
ENDMDL
MODEL      105
REMARK 921   NORMALIZED FREE ENERGY PREDICTED BY IDOCK:   -4.05 KCAL/MOL
REMARK 922        TOTAL FREE ENERGY PREDICTED BY IDOCK:   -6.17 KCAL/MOL
REMARK 923 INTER-LIGAND FREE ENERGY PREDICTED BY IDOCK:   -5.46 KCAL/MOL
REMARK 924 INTRA-LIGAND FREE ENERGY PREDICTED BY IDOCK:   -0.71 KCAL/MOL
REMARK 927      BINDING AFFINITY PREDICTED BY RF-SCORE:    0.00 PKD
ROOT
HETATM    1  C   UNL     1      -7.935  20.178  67.603  1.00  0.00    -0.327 C  
HETATM    2  C   UNL     1      -7.457  19.496  68.877  1.00  0.00    -0.392 C  
ENDROOT
BRANCH   2   3
HETATM    3  C   UNL     1      -6.929  18.086  68.624  1.00  0.00    -0.260 C  
BRANCH   3   4
HETATM    4  N   UNL     1      -7.977  17.135  68.311  1.00  0.00    -0.227 N  
HETATM    5  H   UNL     1      -8.832  17.127  68.866  1.00  0.00     0.000 HD 
BRANCH   4   6
HETATM    6  C   UNL     1      -7.834  16.249  67.283  1.00  0.00    -0.173 C  
HETATM    7  O   UNL     1      -7.113  15.268  67.333  1.00  0.00    -0.183 OA 
BRANCH   6   8
HETATM    8  N   UNL     1      -8.621  16.553  66.187  1.00  0.00    -0.327 N  
HETATM    9  H   UNL     1      -8.159  16.889  65.341  1.00  0.00     0.000 HD 
BRANCH   8  10
HETATM   10  S   UNL     1     -10.278  16.401  66.170  1.00  0.00    -0.360 S  
HETATM   11  O   UNL     1     -10.749  16.617  64.821  1.00  0.00    -0.721 OA 
HETATM   12  O   UNL     1     -10.756  17.222  67.264  1.00  0.00    -0.310 OA 
BRANCH  10  13
HETATM   13  C   UNL     1     -10.572  14.709  66.634  1.00  0.00    -0.289 A  
HETATM   14  C   UNL     1     -10.060  13.677  65.839  1.00  0.00    -0.320 A  
HETATM   15  C   UNL     1     -10.312  12.349  66.193  1.00  0.00    -0.271 A  
HETATM   16  C   UNL     1     -11.057  12.063  67.339  1.00  0.00    -0.281 A  
HETATM   17  C   UNL     1     -11.552  13.093  68.139  1.00  0.00    -0.375 A  
HETATM   18 CL   UNL     1     -11.368  10.426  67.767  1.00  0.00    -0.317 Cl 
HETATM   19  C   UNL     1     -11.311  14.423  67.788  1.00  0.00    -0.331 A  
ENDBRANCH  10  13
ENDBRANCH   8  10
ENDBRANCH   6   8
ENDBRANCH   4   6
ENDBRANCH   3   4
ENDBRANCH   2   3
TORSDOF 6
ENDMDL
MODEL      106
REMARK 921   NORMALIZED FREE ENERGY PREDICTED BY IDOCK:   -4.03 KCAL/MOL
REMARK 922        TOTAL FREE ENERGY PREDICTED BY IDOCK:   -6.15 KCAL/MOL
REMARK 923 INTER-LIGAND FREE ENERGY PREDICTED BY IDOCK:   -5.64 KCAL/MOL
REMARK 924 INTRA-LIGAND FREE ENERGY PREDICTED BY IDOCK:   -0.51 KCAL/MOL
REMARK 927      BINDING AFFINITY PREDICTED BY RF-SCORE:    0.00 PKD
ROOT
HETATM    1  C   UNL     1     -13.221   9.735  71.657  1.00  0.00    -0.514 C  
HETATM    2  C   UNL     1     -12.851  11.193  71.424  1.00  0.00    -0.544 C  
ENDROOT
BRANCH   2   3
HETATM    3  C   UNL     1     -12.121  11.408  70.101  1.00  0.00    -0.357 C  
BRANCH   3   4
HETATM    4  N   UNL     1     -10.915  10.612  69.981  1.00  0.00    -0.393 N  
HETATM    5  H   UNL     1     -10.102  10.841  70.553  1.00  0.00     0.000 HD 
BRANCH   4   6
HETATM    6  C   UNL     1     -10.854   9.560  69.115  1.00  0.00    -0.173 C  
HETATM    7  O   UNL     1     -10.676   8.407  69.465  1.00  0.00    -0.227 OA 
BRANCH   6   8
HETATM    8  N   UNL     1     -11.052   9.926  67.796  1.00  0.00    -0.473 N  
HETATM    9  H   UNL     1     -12.011   9.983  67.451  1.00  0.00     0.000 HD 
BRANCH   8  10
HETATM   10  S   UNL     1      -9.814  10.279  66.741  1.00  0.00    -0.205 S  
HETATM   11  O   UNL     1      -9.809   9.290  65.687  1.00  0.00    -0.289 OA 
HETATM   12  O   UNL     1      -8.644  10.489  67.569  1.00  0.00    -0.121 OA 
BRANCH  10  13
HETATM   13  C   UNL     1     -10.250  11.863  66.061  1.00  0.00    -0.229 A  
HETATM   14  C   UNL     1      -9.898  13.030  66.749  1.00  0.00    -0.243 A  
HETATM   15  C   UNL     1     -10.262  14.273  66.224  1.00  0.00    -0.307 A  
HETATM   16  C   UNL     1     -10.958  14.341  65.015  1.00  0.00    -0.387 A  
HETATM   17  C   UNL     1     -11.294  13.178  64.322  1.00  0.00    -0.427 A  
HETATM   18 CL   UNL     1     -11.408  15.874  64.376  1.00  0.00    -0.383 Cl 
HETATM   19  C   UNL     1     -10.940  11.932  64.845  1.00  0.00    -0.367 A  
ENDBRANCH  10  13
ENDBRANCH   8  10
ENDBRANCH   6   8
ENDBRANCH   4   6
ENDBRANCH   3   4
ENDBRANCH   2   3
TORSDOF 6
ENDMDL
MODEL      107
REMARK 921   NORMALIZED FREE ENERGY PREDICTED BY IDOCK:   -4.02 KCAL/MOL
REMARK 922        TOTAL FREE ENERGY PREDICTED BY IDOCK:   -6.13 KCAL/MOL
REMARK 923 INTER-LIGAND FREE ENERGY PREDICTED BY IDOCK:   -5.50 KCAL/MOL
REMARK 924 INTRA-LIGAND FREE ENERGY PREDICTED BY IDOCK:   -0.64 KCAL/MOL
REMARK 927      BINDING AFFINITY PREDICTED BY RF-SCORE:    0.00 PKD
ROOT
HETATM    1  C   UNL     1     -13.335  13.188  72.125  1.00  0.00    -0.621 C  
HETATM    2  C   UNL     1     -12.670  12.380  71.020  1.00  0.00    -0.315 C  
ENDROOT
BRANCH   2   3
HETATM    3  C   UNL     1     -12.833  10.875  71.215  1.00  0.00    -0.433 C  
BRANCH   3   4
HETATM    4  N   UNL     1     -12.483  10.108  70.036  1.00  0.00    -0.522 N  
HETATM    5  H   UNL     1     -13.218   9.805  69.396  1.00  0.00     0.000 HD 
BRANCH   4   6
HETATM    6  C   UNL     1     -11.185   9.785  69.770  1.00  0.00    -0.202 C  
HETATM    7  O   UNL     1     -10.293   9.839  70.598  1.00  0.00    -0.289 OA 
BRANCH   6   8
HETATM    8  N   UNL     1     -10.983   9.353  68.471  1.00  0.00    -0.454 N  
HETATM    9  H   UNL     1     -11.506   8.538  68.149  1.00  0.00     0.000 HD 
BRANCH   8  10
HETATM   10  S   UNL     1      -9.936  10.087  67.407  1.00  0.00    -0.209 S  
HETATM   11  O   UNL     1     -10.258   9.652  66.067  1.00  0.00    -0.265 OA 
HETATM   12  O   UNL     1      -8.611   9.880  67.956  1.00  0.00    -0.120 OA 
BRANCH  10  13
HETATM   13  C   UNL     1     -10.290  11.823  67.565  1.00  0.00    -0.196 A  
HETATM   14  C   UNL     1      -9.311  12.682  68.078  1.00  0.00    -0.209 A  
HETATM   15  C   UNL     1      -9.600  14.042  68.222  1.00  0.00    -0.224 A  
HETATM   16  C   UNL     1     -10.851  14.533  67.842  1.00  0.00    -0.256 A  
HETATM   17  C   UNL     1     -11.819  13.678  67.316  1.00  0.00    -0.429 A  
HETATM   18 CL   UNL     1     -11.202  16.207  68.028  1.00  0.00    -0.329 Cl 
HETATM   19  C   UNL     1     -11.540  12.316  67.176  1.00  0.00    -0.423 A  
ENDBRANCH  10  13
ENDBRANCH   8  10
ENDBRANCH   6   8
ENDBRANCH   4   6
ENDBRANCH   3   4
ENDBRANCH   2   3
TORSDOF 6
ENDMDL
MODEL      108
REMARK 921   NORMALIZED FREE ENERGY PREDICTED BY IDOCK:   -4.01 KCAL/MOL
REMARK 922        TOTAL FREE ENERGY PREDICTED BY IDOCK:   -6.12 KCAL/MOL
REMARK 923 INTER-LIGAND FREE ENERGY PREDICTED BY IDOCK:   -5.57 KCAL/MOL
REMARK 924 INTRA-LIGAND FREE ENERGY PREDICTED BY IDOCK:   -0.55 KCAL/MOL
REMARK 927      BINDING AFFINITY PREDICTED BY RF-SCORE:    0.00 PKD
ROOT
HETATM    1  C   UNL     1     -10.773  19.478  67.079  1.00  0.00    -0.592 C  
HETATM    2  C   UNL     1      -9.658  18.489  67.388  1.00  0.00    -0.307 C  
ENDROOT
BRANCH   2   3
HETATM    3  C   UNL     1     -10.088  17.414  68.384  1.00  0.00    -0.347 C  
BRANCH   3   4
HETATM    4  N   UNL     1     -10.891  16.369  67.780  1.00  0.00    -0.328 N  
HETATM    5  H   UNL     1     -10.879  16.247  66.768  1.00  0.00     0.000 HD 
BRANCH   4   6
HETATM    6  C   UNL     1     -11.660  15.545  68.548  1.00  0.00    -0.368 C  
HETATM    7  O   UNL     1     -11.827  15.700  69.745  1.00  0.00    -0.332 OA 
BRANCH   6   8
HETATM    8  N   UNL     1     -12.267  14.533  67.826  1.00  0.00    -0.623 N  
HETATM    9  H   UNL     1     -13.285  14.535  67.757  1.00  0.00     0.000 HD 
BRANCH   8  10
HETATM   10  S   UNL     1     -11.429  13.314  67.064  1.00  0.00    -0.359 S  
HETATM   11  O   UNL     1     -10.166  13.843  66.598  1.00  0.00    -0.266 OA 
HETATM   12  O   UNL     1     -12.368  12.713  66.139  1.00  0.00    -0.570 OA 
BRANCH  10  13
HETATM   13  C   UNL     1     -11.131  12.115  68.343  1.00  0.00    -0.245 A  
HETATM   14  C   UNL     1     -12.215  11.537  69.012  1.00  0.00    -0.186 A  
HETATM   15  C   UNL     1     -11.978  10.612  70.033  1.00  0.00    -0.408 A  
HETATM   16  C   UNL     1     -10.667  10.263  70.365  1.00  0.00    -0.205 A  
HETATM   17  C   UNL     1      -9.588  10.829  69.687  1.00  0.00     0.136 A  
HETATM   18 CL   UNL     1     -10.381   9.128  71.627  1.00  0.00    -0.418 Cl 
HETATM   19  C   UNL     1      -9.817  11.760  68.670  1.00  0.00    -0.153 A  
ENDBRANCH  10  13
ENDBRANCH   8  10
ENDBRANCH   6   8
ENDBRANCH   4   6
ENDBRANCH   3   4
ENDBRANCH   2   3
TORSDOF 6
ENDMDL
MODEL      109
REMARK 921   NORMALIZED FREE ENERGY PREDICTED BY IDOCK:   -4.01 KCAL/MOL
REMARK 922        TOTAL FREE ENERGY PREDICTED BY IDOCK:   -6.12 KCAL/MOL
REMARK 923 INTER-LIGAND FREE ENERGY PREDICTED BY IDOCK:   -5.35 KCAL/MOL
REMARK 924 INTRA-LIGAND FREE ENERGY PREDICTED BY IDOCK:   -0.77 KCAL/MOL
REMARK 927      BINDING AFFINITY PREDICTED BY RF-SCORE:    0.00 PKD
ROOT
HETATM    1  C   UNL     1      -9.052   7.829  71.301  1.00  0.00    -0.153 C  
HETATM    2  C   UNL     1      -9.837   8.965  71.940  1.00  0.00    -0.364 C  
ENDROOT
BRANCH   2   3
HETATM    3  C   UNL     1     -11.346   8.799  71.776  1.00  0.00    -0.339 C  
BRANCH   3   4
HETATM    4  N   UNL     1     -11.875   9.509  70.628  1.00  0.00    -0.368 N  
HETATM    5  H   UNL     1     -11.830   9.078  69.705  1.00  0.00     0.000 HD 
BRANCH   4   6
HETATM    6  C   UNL     1     -12.432  10.746  70.766  1.00  0.00    -0.387 C  
HETATM    7  O   UNL     1     -13.154  11.062  71.696  1.00  0.00    -0.446 OA 
BRANCH   6   8
HETATM    8  N   UNL     1     -12.065  11.626  69.763  1.00  0.00    -0.303 N  
HETATM    9  H   UNL     1     -12.426  12.579  69.804  1.00  0.00     0.000 HD 
BRANCH   8  10
HETATM   10  S   UNL     1     -11.069  11.214  68.495  1.00  0.00    -0.270 S  
HETATM   11  O   UNL     1     -11.602  10.034  67.854  1.00  0.00    -0.161 OA 
HETATM   12  O   UNL     1      -9.725  11.223  69.036  1.00  0.00    -0.160 OA 
BRANCH  10  13
HETATM   13  C   UNL     1     -11.181  12.594  67.379  1.00  0.00    -0.290 A  
HETATM   14  C   UNL     1     -10.750  13.858  67.799  1.00  0.00    -0.252 A  
HETATM   15  C   UNL     1     -10.860  14.944  66.927  1.00  0.00    -0.319 A  
HETATM   16  C   UNL     1     -11.383  14.759  65.646  1.00  0.00    -0.343 A  
HETATM   17  C   UNL     1     -11.797  13.496  65.223  1.00  0.00    -0.373 A  
HETATM   18 CL   UNL     1     -11.521  16.103  64.579  1.00  0.00    -0.358 Cl 
HETATM   19  C   UNL     1     -11.697  12.406  66.091  1.00  0.00    -0.460 A  
ENDBRANCH  10  13
ENDBRANCH   8  10
ENDBRANCH   6   8
ENDBRANCH   4   6
ENDBRANCH   3   4
ENDBRANCH   2   3
TORSDOF 6
ENDMDL
MODEL      110
REMARK 921   NORMALIZED FREE ENERGY PREDICTED BY IDOCK:   -3.98 KCAL/MOL
REMARK 922        TOTAL FREE ENERGY PREDICTED BY IDOCK:   -6.09 KCAL/MOL
REMARK 923 INTER-LIGAND FREE ENERGY PREDICTED BY IDOCK:   -5.56 KCAL/MOL
REMARK 924 INTRA-LIGAND FREE ENERGY PREDICTED BY IDOCK:   -0.52 KCAL/MOL
REMARK 927      BINDING AFFINITY PREDICTED BY RF-SCORE:    0.00 PKD
ROOT
HETATM    1  C   UNL     1      -7.331  16.102  68.848  1.00  0.00    -0.186 C  
HETATM    2  C   UNL     1      -6.819  15.398  67.599  1.00  0.00    -0.208 C  
ENDROOT
BRANCH   2   3
HETATM    3  C   UNL     1      -6.964  13.880  67.681  1.00  0.00    -0.175 C  
BRANCH   3   4
HETATM    4  N   UNL     1      -8.331  13.452  67.906  1.00  0.00    -0.153 N  
HETATM    5  H   UNL     1      -8.806  13.717  68.769  1.00  0.00     0.000 HD 
BRANCH   4   6
HETATM    6  C   UNL     1      -8.990  12.698  66.980  1.00  0.00    -0.216 C  
HETATM    7  O   UNL     1      -8.763  11.516  66.787  1.00  0.00    -0.167 OA 
BRANCH   6   8
HETATM    8  N   UNL     1      -9.972  13.398  66.303  1.00  0.00    -0.291 N  
HETATM    9  H   UNL     1      -9.690  13.991  65.523  1.00  0.00     0.000 HD 
BRANCH   8  10
HETATM   10  S   UNL     1     -11.589  13.327  66.692  1.00  0.00    -0.385 S  
HETATM   11  O   UNL     1     -11.980  11.938  66.786  1.00  0.00    -0.613 OA 
HETATM   12  O   UNL     1     -12.253  14.225  65.769  1.00  0.00    -0.408 OA 
BRANCH  10  13
HETATM   13  C   UNL     1     -11.691  14.078  68.300  1.00  0.00    -0.357 A  
HETATM   14  C   UNL     1     -11.476  15.455  68.433  1.00  0.00    -0.365 A  
HETATM   15  C   UNL     1     -11.535  16.039  69.701  1.00  0.00    -0.326 A  
HETATM   16  C   UNL     1     -11.820  15.252  70.819  1.00  0.00    -0.338 A  
HETATM   17  C   UNL     1     -12.049  13.883  70.683  1.00  0.00    -0.417 A  
HETATM   18 CL   UNL     1     -11.885  15.976  72.378  1.00  0.00    -0.604 Cl 
HETATM   19  C   UNL     1     -11.986  13.290  69.419  1.00  0.00    -0.356 A  
ENDBRANCH  10  13
ENDBRANCH   8  10
ENDBRANCH   6   8
ENDBRANCH   4   6
ENDBRANCH   3   4
ENDBRANCH   2   3
TORSDOF 6
ENDMDL
MODEL      111
REMARK 921   NORMALIZED FREE ENERGY PREDICTED BY IDOCK:   -3.97 KCAL/MOL
REMARK 922        TOTAL FREE ENERGY PREDICTED BY IDOCK:   -6.07 KCAL/MOL
REMARK 923 INTER-LIGAND FREE ENERGY PREDICTED BY IDOCK:   -5.34 KCAL/MOL
REMARK 924 INTRA-LIGAND FREE ENERGY PREDICTED BY IDOCK:   -0.72 KCAL/MOL
REMARK 927      BINDING AFFINITY PREDICTED BY RF-SCORE:    0.00 PKD
ROOT
HETATM    1  C   UNL     1      -9.540  16.568  66.159  1.00  0.00    -0.344 C  
HETATM    2  C   UNL     1     -10.546  16.147  65.098  1.00  0.00    -0.366 C  
ENDROOT
BRANCH   2   3
HETATM    3  C   UNL     1     -11.055  14.722  65.306  1.00  0.00    -0.370 C  
BRANCH   3   4
HETATM    4  N   UNL     1     -10.106  13.712  64.881  1.00  0.00    -0.600 N  
HETATM    5  H   UNL     1      -9.248  13.995  64.408  1.00  0.00     0.000 HD 
BRANCH   4   6
HETATM    6  C   UNL     1     -10.345  12.388  65.107  1.00  0.00    -0.287 C  
HETATM    7  O   UNL     1     -11.406  11.843  64.861  1.00  0.00    -0.316 OA 
BRANCH   6   8
HETATM    8  N   UNL     1      -9.247  11.712  65.609  1.00  0.00    -0.359 N  
HETATM    9  H   UNL     1      -8.856  10.951  65.055  1.00  0.00     0.000 HD 
BRANCH   8  10
HETATM   10  S   UNL     1      -8.530  12.074  67.067  1.00  0.00    -0.177 S  
HETATM   11  O   UNL     1      -8.201  13.482  67.084  1.00  0.00    -0.178 OA 
HETATM   12  O   UNL     1      -7.503  11.070  67.257  1.00  0.00    -0.097 OA 
BRANCH  10  13
HETATM   13  C   UNL     1      -9.794  11.749  68.275  1.00  0.00    -0.198 A  
HETATM   14  C   UNL     1      -9.853  10.494  68.891  1.00  0.00    -0.209 A  
HETATM   15  C   UNL     1     -10.861  10.234  69.823  1.00  0.00    -0.332 A  
HETATM   16  C   UNL     1     -11.789  11.228  70.142  1.00  0.00    -0.364 A  
HETATM   17  C   UNL     1     -11.719  12.484  69.539  1.00  0.00    -0.375 A  
HETATM   18 CL   UNL     1     -13.031  10.900  71.286  1.00  0.00    -0.499 Cl 
HETATM   19  C   UNL     1     -10.718  12.749  68.601  1.00  0.00    -0.273 A  
ENDBRANCH  10  13
ENDBRANCH   8  10
ENDBRANCH   6   8
ENDBRANCH   4   6
ENDBRANCH   3   4
ENDBRANCH   2   3
TORSDOF 6
ENDMDL
MODEL      112
REMARK 921   NORMALIZED FREE ENERGY PREDICTED BY IDOCK:   -3.96 KCAL/MOL
REMARK 922        TOTAL FREE ENERGY PREDICTED BY IDOCK:   -6.06 KCAL/MOL
REMARK 923 INTER-LIGAND FREE ENERGY PREDICTED BY IDOCK:   -5.18 KCAL/MOL
REMARK 924 INTRA-LIGAND FREE ENERGY PREDICTED BY IDOCK:   -0.87 KCAL/MOL
REMARK 927      BINDING AFFINITY PREDICTED BY RF-SCORE:    0.00 PKD
ROOT
HETATM    1  C   UNL     1      -8.914   7.149  67.102  1.00  0.00    -0.129 C  
HETATM    2  C   UNL     1     -10.430   7.266  67.039  1.00  0.00    -0.398 C  
ENDROOT
BRANCH   2   3
HETATM    3  C   UNL     1     -11.126   6.446  68.123  1.00  0.00    -0.263 C  
BRANCH   3   4
HETATM    4  N   UNL     1     -10.666   6.765  69.460  1.00  0.00    -0.240 N  
HETATM    5  H   UNL     1      -9.667   6.859  69.640  1.00  0.00     0.000 HD 
BRANCH   4   6
HETATM    6  C   UNL     1     -11.553   6.941  70.482  1.00  0.00    -0.346 C  
HETATM    7  O   UNL     1     -11.780   6.097  71.331  1.00  0.00    -0.284 OA 
BRANCH   6   8
HETATM    8  N   UNL     1     -12.144   8.192  70.484  1.00  0.00    -0.482 N  
HETATM    9  H   UNL     1     -13.100   8.272  70.139  1.00  0.00     0.000 HD 
BRANCH   8  10
HETATM   10  S   UNL     1     -11.381   9.571  71.018  1.00  0.00    -0.383 S  
HETATM   11  O   UNL     1     -10.136   9.196  71.648  1.00  0.00    -0.327 OA 
HETATM   12  O   UNL     1     -12.387  10.317  71.746  1.00  0.00    -0.377 OA 
BRANCH  10  13
HETATM   13  C   UNL     1     -11.037  10.490  69.534  1.00  0.00    -0.268 A  
HETATM   14  C   UNL     1     -11.991  11.390  69.044  1.00  0.00    -0.387 A  
HETATM   15  C   UNL     1     -11.728  12.093  67.866  1.00  0.00    -0.403 A  
HETATM   16  C   UNL     1     -10.516  11.904  67.197  1.00  0.00    -0.221 A  
HETATM   17  C   UNL     1      -9.561  11.019  67.695  1.00  0.00    -0.181 A  
HETATM   18 CL   UNL     1     -10.201  12.769  65.743  1.00  0.00    -0.295 Cl 
HETATM   19  C   UNL     1      -9.819  10.307  68.869  1.00  0.00    -0.200 A  
ENDBRANCH  10  13
ENDBRANCH   8  10
ENDBRANCH   6   8
ENDBRANCH   4   6
ENDBRANCH   3   4
ENDBRANCH   2   3
TORSDOF 6
ENDMDL
MODEL      113
REMARK 921   NORMALIZED FREE ENERGY PREDICTED BY IDOCK:   -3.96 KCAL/MOL
REMARK 922        TOTAL FREE ENERGY PREDICTED BY IDOCK:   -6.05 KCAL/MOL
REMARK 923 INTER-LIGAND FREE ENERGY PREDICTED BY IDOCK:   -5.30 KCAL/MOL
REMARK 924 INTRA-LIGAND FREE ENERGY PREDICTED BY IDOCK:   -0.75 KCAL/MOL
REMARK 927      BINDING AFFINITY PREDICTED BY RF-SCORE:    0.00 PKD
ROOT
HETATM    1  C   UNL     1     -11.133   7.627  72.959  1.00  0.00    -0.437 C  
HETATM    2  C   UNL     1     -11.262   6.917  71.619  1.00  0.00    -0.280 C  
ENDROOT
BRANCH   2   3
HETATM    3  C   UNL     1     -10.700   7.741  70.463  1.00  0.00    -0.236 C  
BRANCH   3   4
HETATM    4  N   UNL     1     -10.663   9.163  70.743  1.00  0.00    -0.241 N  
HETATM    5  H   UNL     1     -11.392   9.580  71.322  1.00  0.00     0.000 HD 
BRANCH   4   6
HETATM    6  C   UNL     1      -9.667   9.949  70.244  1.00  0.00    -0.154 C  
HETATM    7  O   UNL     1      -8.481   9.704  70.380  1.00  0.00    -0.191 OA 
BRANCH   6   8
HETATM    8  N   UNL     1     -10.136  11.038  69.531  1.00  0.00    -0.441 N  
HETATM    9  H   UNL     1      -9.704  11.947  69.701  1.00  0.00     0.000 HD 
BRANCH   8  10
HETATM   10  S   UNL     1     -11.365  10.948  68.412  1.00  0.00    -0.307 S  
HETATM   11  O   UNL     1     -12.630  10.987  69.110  1.00  0.00    -0.378 OA 
HETATM   12  O   UNL     1     -11.026   9.834  67.549  1.00  0.00    -0.275 OA 
BRANCH  10  13
HETATM   13  C   UNL     1     -11.184  12.424  67.437  1.00  0.00    -0.297 A  
HETATM   14  C   UNL     1     -10.223  13.376  67.797  1.00  0.00    -0.235 A  
HETATM   15  C   UNL     1     -10.099  14.545  67.042  1.00  0.00    -0.254 A  
HETATM   16  C   UNL     1     -10.921  14.748  65.932  1.00  0.00    -0.335 A  
HETATM   17  C   UNL     1     -11.868  13.792  65.565  1.00  0.00    -0.378 A  
HETATM   18 CL   UNL     1     -10.767  16.193  65.010  1.00  0.00    -0.416 Cl 
HETATM   19  C   UNL     1     -12.002  12.623  66.319  1.00  0.00    -0.439 A  
ENDBRANCH  10  13
ENDBRANCH   8  10
ENDBRANCH   6   8
ENDBRANCH   4   6
ENDBRANCH   3   4
ENDBRANCH   2   3
TORSDOF 6
ENDMDL
MODEL      114
REMARK 921   NORMALIZED FREE ENERGY PREDICTED BY IDOCK:   -3.95 KCAL/MOL
REMARK 922        TOTAL FREE ENERGY PREDICTED BY IDOCK:   -6.04 KCAL/MOL
REMARK 923 INTER-LIGAND FREE ENERGY PREDICTED BY IDOCK:   -5.09 KCAL/MOL
REMARK 924 INTRA-LIGAND FREE ENERGY PREDICTED BY IDOCK:   -0.95 KCAL/MOL
REMARK 927      BINDING AFFINITY PREDICTED BY RF-SCORE:    0.00 PKD
ROOT
HETATM    1  C   UNL     1      -7.351   8.708  66.533  1.00  0.00    -0.081 C  
HETATM    2  C   UNL     1      -8.491   8.568  65.535  1.00  0.00    -0.183 C  
ENDROOT
BRANCH   2   3
HETATM    3  C   UNL     1      -8.348   9.517  64.347  1.00  0.00    -0.171 C  
BRANCH   3   4
HETATM    4  N   UNL     1      -9.619   9.865  63.742  1.00  0.00    -0.464 N  
HETATM    5  H   UNL     1     -10.377   9.182  63.735  1.00  0.00     0.000 HD 
BRANCH   4   6
HETATM    6  C   UNL     1      -9.814  11.093  63.182  1.00  0.00    -0.372 C  
HETATM    7  O   UNL     1      -8.978  11.668  62.506  1.00  0.00    -0.302 OA 
BRANCH   6   8
HETATM    8  N   UNL     1     -11.074  11.610  63.424  1.00  0.00    -0.662 N  
HETATM    9  H   UNL     1     -11.840  11.316  62.817  1.00  0.00     0.000 HD 
BRANCH   8  10
HETATM   10  S   UNL     1     -11.410  12.684  64.650  1.00  0.00    -0.337 S  
HETATM   11  O   UNL     1     -12.843  12.750  64.827  1.00  0.00    -0.707 OA 
HETATM   12  O   UNL     1     -10.644  13.876  64.346  1.00  0.00    -0.400 OA 
BRANCH  10  13
HETATM   13  C   UNL     1     -10.670  11.954  66.093  1.00  0.00    -0.278 A  
HETATM   14  C   UNL     1     -11.374  10.981  66.812  1.00  0.00    -0.052 A  
HETATM   15  C   UNL     1     -10.800  10.425  67.958  1.00  0.00    -0.319 A  
HETATM   16  C   UNL     1      -9.529  10.833  68.368  1.00  0.00    -0.174 A  
HETATM   17  C   UNL     1      -8.822  11.791  67.642  1.00  0.00    -0.162 A  
HETATM   18 CL   UNL     1      -8.829  10.149  69.784  1.00  0.00    -0.192 Cl 
HETATM   19  C   UNL     1      -9.392  12.356  66.498  1.00  0.00    -0.233 A  
ENDBRANCH  10  13
ENDBRANCH   8  10
ENDBRANCH   6   8
ENDBRANCH   4   6
ENDBRANCH   3   4
ENDBRANCH   2   3
TORSDOF 6
ENDMDL
MODEL      115
REMARK 921   NORMALIZED FREE ENERGY PREDICTED BY IDOCK:   -3.94 KCAL/MOL
REMARK 922        TOTAL FREE ENERGY PREDICTED BY IDOCK:   -6.03 KCAL/MOL
REMARK 923 INTER-LIGAND FREE ENERGY PREDICTED BY IDOCK:   -5.44 KCAL/MOL
REMARK 924 INTRA-LIGAND FREE ENERGY PREDICTED BY IDOCK:   -0.59 KCAL/MOL
REMARK 927      BINDING AFFINITY PREDICTED BY RF-SCORE:    0.00 PKD
ROOT
HETATM    1  C   UNL     1     -11.547  12.759  69.280  1.00  0.00    -0.372 C  
HETATM    2  C   UNL     1     -11.205  11.473  68.542  1.00  0.00    -0.315 C  
ENDROOT
BRANCH   2   3
HETATM    3  C   UNL     1     -10.607  11.732  67.161  1.00  0.00    -0.231 C  
BRANCH   3   4
HETATM    4  N   UNL     1      -9.890  12.989  67.078  1.00  0.00    -0.233 N  
HETATM    5  H   UNL     1      -9.442  13.368  67.912  1.00  0.00     0.000 HD 
BRANCH   4   6
HETATM    6  C   UNL     1      -9.808  13.671  65.900  1.00  0.00    -0.246 C  
HETATM    7  O   UNL     1     -10.162  13.213  64.828  1.00  0.00    -0.334 OA 
BRANCH   6   8
HETATM    8  N   UNL     1      -9.315  14.956  66.046  1.00  0.00    -0.454 N  
HETATM    9  H   UNL     1      -8.321  15.112  65.880  1.00  0.00     0.000 HD 
BRANCH   8  10
HETATM   10  S   UNL     1     -10.256  16.260  66.476  1.00  0.00    -0.310 S  
HETATM   11  O   UNL     1     -11.302  15.803  67.363  1.00  0.00    -0.243 OA 
HETATM   12  O   UNL     1     -10.577  16.937  65.236  1.00  0.00    -0.633 OA 
BRANCH  10  13
HETATM   13  C   UNL     1      -9.150  17.327  67.371  1.00  0.00    -0.226 A  
HETATM   14  C   UNL     1      -9.564  18.621  67.710  1.00  0.00    -0.332 A  
HETATM   15  C   UNL     1      -8.684  19.465  68.393  1.00  0.00    -0.397 A  
HETATM   16  C   UNL     1      -7.411  19.010  68.742  1.00  0.00    -0.331 A  
HETATM   17  C   UNL     1      -7.006  17.715  68.417  1.00  0.00    -0.222 A  
HETATM   18 CL   UNL     1      -6.331  20.057  69.577  1.00  0.00    -0.373 Cl 
HETATM   19  C   UNL     1      -7.877  16.867  67.728  1.00  0.00    -0.188 A  
ENDBRANCH  10  13
ENDBRANCH   8  10
ENDBRANCH   6   8
ENDBRANCH   4   6
ENDBRANCH   3   4
ENDBRANCH   2   3
TORSDOF 6
ENDMDL
MODEL      116
REMARK 921   NORMALIZED FREE ENERGY PREDICTED BY IDOCK:   -3.93 KCAL/MOL
REMARK 922        TOTAL FREE ENERGY PREDICTED BY IDOCK:   -6.01 KCAL/MOL
REMARK 923 INTER-LIGAND FREE ENERGY PREDICTED BY IDOCK:   -5.22 KCAL/MOL
REMARK 924 INTRA-LIGAND FREE ENERGY PREDICTED BY IDOCK:   -0.78 KCAL/MOL
REMARK 927      BINDING AFFINITY PREDICTED BY RF-SCORE:    0.00 PKD
ROOT
HETATM    1  C   UNL     1      -9.215   9.869  64.292  1.00  0.00    -0.317 C  
HETATM    2  C   UNL     1      -9.210   9.872  65.813  1.00  0.00    -0.228 C  
ENDROOT
BRANCH   2   3
HETATM    3  C   UNL     1      -8.175  10.834  66.393  1.00  0.00    -0.155 C  
BRANCH   3   4
HETATM    4  N   UNL     1      -8.528  12.228  66.208  1.00  0.00    -0.393 N  
HETATM    5  H   UNL     1      -8.733  12.575  65.271  1.00  0.00     0.000 HD 
BRANCH   4   6
HETATM    6  C   UNL     1      -8.589  13.081  67.270  1.00  0.00    -0.206 C  
HETATM    7  O   UNL     1      -7.866  12.995  68.248  1.00  0.00    -0.129 OA 
BRANCH   6   8
HETATM    8  N   UNL     1      -9.529  14.083  67.113  1.00  0.00    -0.232 N  
HETATM    9  H   UNL     1      -9.204  15.050  67.092  1.00  0.00     0.000 HD 
BRANCH   8  10
HETATM   10  S   UNL     1     -11.162  13.799  66.955  1.00  0.00    -0.322 S  
HETATM   11  O   UNL     1     -11.384  13.041  65.744  1.00  0.00    -0.289 OA 
HETATM   12  O   UNL     1     -11.803  15.082  67.156  1.00  0.00    -0.288 OA 
BRANCH  10  13
HETATM   13  C   UNL     1     -11.574  12.795  68.364  1.00  0.00    -0.325 A  
HETATM   14  C   UNL     1     -11.461  11.402  68.275  1.00  0.00    -0.369 A  
HETATM   15  C   UNL     1     -11.807  10.615  69.376  1.00  0.00    -0.325 A  
HETATM   16  C   UNL     1     -12.249  11.221  70.555  1.00  0.00    -0.383 A  
HETATM   17  C   UNL     1     -12.346  12.609  70.646  1.00  0.00    -0.375 A  
HETATM   18 CL   UNL     1     -12.680  10.245  71.905  1.00  0.00    -0.510 Cl 
HETATM   19  C   UNL     1     -12.008  13.403  69.547  1.00  0.00    -0.377 A  
ENDBRANCH  10  13
ENDBRANCH   8  10
ENDBRANCH   6   8
ENDBRANCH   4   6
ENDBRANCH   3   4
ENDBRANCH   2   3
TORSDOF 6
ENDMDL
MODEL      117
REMARK 921   NORMALIZED FREE ENERGY PREDICTED BY IDOCK:   -3.92 KCAL/MOL
REMARK 922        TOTAL FREE ENERGY PREDICTED BY IDOCK:   -6.00 KCAL/MOL
REMARK 923 INTER-LIGAND FREE ENERGY PREDICTED BY IDOCK:   -5.24 KCAL/MOL
REMARK 924 INTRA-LIGAND FREE ENERGY PREDICTED BY IDOCK:   -0.76 KCAL/MOL
REMARK 927      BINDING AFFINITY PREDICTED BY RF-SCORE:    0.00 PKD
ROOT
HETATM    1  C   UNL     1     -11.381   4.835  73.358  1.00  0.00    -0.397 C  
HETATM    2  C   UNL     1     -10.372   4.868  72.219  1.00  0.00    -0.267 C  
ENDROOT
BRANCH   2   3
HETATM    3  C   UNL     1      -9.320   5.960  72.399  1.00  0.00    -0.143 C  
BRANCH   3   4
HETATM    4  N   UNL     1      -9.895   7.271  72.626  1.00  0.00    -0.161 N  
HETATM    5  H   UNL     1     -10.858   7.348  72.954  1.00  0.00     0.000 HD 
BRANCH   4   6
HETATM    6  C   UNL     1      -9.166   8.402  72.408  1.00  0.00    -0.275 C  
HETATM    7  O   UNL     1      -8.139   8.669  73.006  1.00  0.00    -0.394 OA 
BRANCH   6   8
HETATM    8  N   UNL     1      -9.688   9.205  71.409  1.00  0.00    -0.294 N  
HETATM    9  H   UNL     1      -9.055   9.838  70.920  1.00  0.00     0.000 HD 
BRANCH   8  10
HETATM   10  S   UNL     1     -11.292   9.195  70.962  1.00  0.00    -0.336 S  
HETATM   11  O   UNL     1     -12.101   9.427  72.138  1.00  0.00    -0.332 OA 
HETATM   12  O   UNL     1     -11.467   7.998  70.165  1.00  0.00    -0.159 OA 
BRANCH  10  13
HETATM   13  C   UNL     1     -11.451  10.576  69.854  1.00  0.00    -0.310 A  
HETATM   14  C   UNL     1     -11.809  11.830  70.362  1.00  0.00    -0.362 A  
HETATM   15  C   UNL     1     -11.956  12.909  69.485  1.00  0.00    -0.346 A  
HETATM   16  C   UNL     1     -11.732  12.731  68.118  1.00  0.00    -0.345 A  
HETATM   17  C   UNL     1     -11.360  11.484  67.616  1.00  0.00    -0.358 A  
HETATM   18 CL   UNL     1     -11.920  14.062  67.044  1.00  0.00    -0.455 Cl 
HETATM   19  C   UNL     1     -11.218  10.400  68.485  1.00  0.00    -0.308 A  
ENDBRANCH  10  13
ENDBRANCH   8  10
ENDBRANCH   6   8
ENDBRANCH   4   6
ENDBRANCH   3   4
ENDBRANCH   2   3
TORSDOF 6
ENDMDL
MODEL      118
REMARK 921   NORMALIZED FREE ENERGY PREDICTED BY IDOCK:   -3.92 KCAL/MOL
REMARK 922        TOTAL FREE ENERGY PREDICTED BY IDOCK:   -6.00 KCAL/MOL
REMARK 923 INTER-LIGAND FREE ENERGY PREDICTED BY IDOCK:   -5.35 KCAL/MOL
REMARK 924 INTRA-LIGAND FREE ENERGY PREDICTED BY IDOCK:   -0.65 KCAL/MOL
REMARK 927      BINDING AFFINITY PREDICTED BY RF-SCORE:    0.00 PKD
ROOT
HETATM    1  C   UNL     1     -10.389  11.607  63.904  1.00  0.00    -0.417 C  
HETATM    2  C   UNL     1     -10.590  11.168  65.347  1.00  0.00    -0.291 C  
ENDROOT
BRANCH   2   3
HETATM    3  C   UNL     1      -9.456  11.624  66.261  1.00  0.00    -0.218 C  
BRANCH   3   4
HETATM    4  N   UNL     1      -9.247  13.058  66.235  1.00  0.00    -0.443 N  
HETATM    5  H   UNL     1      -9.402  13.574  65.369  1.00  0.00     0.000 HD 
BRANCH   4   6
HETATM    6  C   UNL     1      -8.845  13.728  67.354  1.00  0.00    -0.210 C  
HETATM    7  O   UNL     1      -8.161  13.228  68.230  1.00  0.00    -0.148 OA 
BRANCH   6   8
HETATM    8  N   UNL     1      -9.260  15.047  67.380  1.00  0.00    -0.191 N  
HETATM    9  H   UNL     1      -8.549  15.774  67.452  1.00  0.00     0.000 HD 
BRANCH   8  10
HETATM   10  S   UNL     1     -10.856  15.513  67.300  1.00  0.00    -0.297 S  
HETATM   11  O   UNL     1     -11.470  14.866  66.163  1.00  0.00    -0.341 OA 
HETATM   12  O   UNL     1     -10.848  16.957  67.418  1.00  0.00    -0.278 OA 
BRANCH  10  13
HETATM   13  C   UNL     1     -11.577  14.881  68.798  1.00  0.00    -0.323 A  
HETATM   14  C   UNL     1     -11.740  15.732  69.898  1.00  0.00    -0.365 A  
HETATM   15  C   UNL     1     -12.285  15.228  71.081  1.00  0.00    -0.409 A  
HETATM   16  C   UNL     1     -12.675  13.888  71.153  1.00  0.00    -0.367 A  
HETATM   17  C   UNL     1     -12.527  13.046  70.051  1.00  0.00    -0.112 A  
HETATM   18 CL   UNL     1     -13.341  13.272  72.615  1.00  0.00    -0.559 Cl 
HETATM   19  C   UNL     1     -11.976  13.541  68.867  1.00  0.00    -0.378 A  
ENDBRANCH  10  13
ENDBRANCH   8  10
ENDBRANCH   6   8
ENDBRANCH   4   6
ENDBRANCH   3   4
ENDBRANCH   2   3
TORSDOF 6
ENDMDL
MODEL      119
REMARK 921   NORMALIZED FREE ENERGY PREDICTED BY IDOCK:   -3.89 KCAL/MOL
REMARK 922        TOTAL FREE ENERGY PREDICTED BY IDOCK:   -5.96 KCAL/MOL
REMARK 923 INTER-LIGAND FREE ENERGY PREDICTED BY IDOCK:   -5.49 KCAL/MOL
REMARK 924 INTRA-LIGAND FREE ENERGY PREDICTED BY IDOCK:   -0.47 KCAL/MOL
REMARK 927      BINDING AFFINITY PREDICTED BY RF-SCORE:    0.00 PKD
ROOT
HETATM    1  C   UNL     1     -11.913  13.758  64.138  1.00  0.00    -0.473 C  
HETATM    2  C   UNL     1     -11.338  14.848  65.031  1.00  0.00    -0.398 C  
ENDROOT
BRANCH   2   3
HETATM    3  C   UNL     1     -11.638  14.611  66.510  1.00  0.00    -0.344 C  
BRANCH   3   4
HETATM    4  N   UNL     1     -10.556  15.023  67.381  1.00  0.00    -0.266 N  
HETATM    5  H   UNL     1     -10.551  15.968  67.767  1.00  0.00     0.000 HD 
BRANCH   4   6
HETATM    6  C   UNL     1      -9.542  14.165  67.693  1.00  0.00    -0.216 C  
HETATM    7  O   UNL     1      -8.419  14.250  67.228  1.00  0.00    -0.191 OA 
BRANCH   6   8
HETATM    8  N   UNL     1      -9.904  13.207  68.623  1.00  0.00    -0.400 N  
HETATM    9  H   UNL     1     -10.287  13.521  69.514  1.00  0.00     0.000 HD 
BRANCH   8  10
HETATM   10  S   UNL     1      -9.751  11.569  68.366  1.00  0.00    -0.198 S  
HETATM   11  O   UNL     1      -8.381  11.188  68.624  1.00  0.00    -0.146 OA 
HETATM   12  O   UNL     1     -10.361  11.317  67.076  1.00  0.00    -0.211 OA 
BRANCH  10  13
HETATM   13  C   UNL     1     -10.810  10.828  69.587  1.00  0.00    -0.241 A  
HETATM   14  C   UNL     1     -10.617   9.490  69.947  1.00  0.00    -0.269 A  
HETATM   15  C   UNL     1     -11.465   8.903  70.890  1.00  0.00    -0.339 A  
HETATM   16  C   UNL     1     -12.485   9.658  71.473  1.00  0.00    -0.386 A  
HETATM   17  C   UNL     1     -12.667  10.996  71.125  1.00  0.00    -0.521 A  
HETATM   18 CL   UNL     1     -13.530   8.929  72.630  1.00  0.00    -0.453 Cl 
HETATM   19  C   UNL     1     -11.827  11.587  70.178  1.00  0.00    -0.440 A  
ENDBRANCH  10  13
ENDBRANCH   8  10
ENDBRANCH   6   8
ENDBRANCH   4   6
ENDBRANCH   3   4
ENDBRANCH   2   3
TORSDOF 6
ENDMDL
MODEL      120
REMARK 921   NORMALIZED FREE ENERGY PREDICTED BY IDOCK:   -3.89 KCAL/MOL
REMARK 922        TOTAL FREE ENERGY PREDICTED BY IDOCK:   -5.95 KCAL/MOL
REMARK 923 INTER-LIGAND FREE ENERGY PREDICTED BY IDOCK:   -5.41 KCAL/MOL
REMARK 924 INTRA-LIGAND FREE ENERGY PREDICTED BY IDOCK:   -0.54 KCAL/MOL
REMARK 927      BINDING AFFINITY PREDICTED BY RF-SCORE:    0.00 PKD
ROOT
HETATM    1  C   UNL     1     -13.630  14.869  72.014  1.00  0.00    -0.508 C  
HETATM    2  C   UNL     1     -13.213  13.409  72.114  1.00  0.00    -0.557 C  
ENDROOT
BRANCH   2   3
HETATM    3  C   UNL     1     -12.796  12.825  70.766  1.00  0.00    -0.030 C  
BRANCH   3   4
HETATM    4  N   UNL     1     -11.507  13.309  70.312  1.00  0.00    -0.507 N  
HETATM    5  H   UNL     1     -10.683  13.170  70.896  1.00  0.00     0.000 HD 
BRANCH   4   6
HETATM    6  C   UNL     1     -11.382  13.947  69.112  1.00  0.00    -0.286 C  
HETATM    7  O   UNL     1     -11.762  15.087  68.912  1.00  0.00    -0.307 OA 
BRANCH   6   8
HETATM    8  N   UNL     1     -10.746  13.183  68.151  1.00  0.00    -0.235 N  
HETATM    9  H   UNL     1      -9.737  13.288  68.042  1.00  0.00     0.000 HD 
BRANCH   8  10
HETATM   10  S   UNL     1     -11.535  12.102  67.161  1.00  0.00    -0.338 S  
HETATM   11  O   UNL     1     -12.465  12.832  66.329  1.00  0.00    -0.477 OA 
HETATM   12  O   UNL     1     -11.993  11.038  68.031  1.00  0.00    -0.623 OA 
BRANCH  10  13
HETATM   13  C   UNL     1     -10.249  11.414  66.143  1.00  0.00    -0.239 A  
HETATM   14  C   UNL     1     -10.490  11.192  64.782  1.00  0.00    -0.388 A  
HETATM   15  C   UNL     1      -9.486  10.630  63.990  1.00  0.00    -0.329 A  
HETATM   16  C   UNL     1      -8.251  10.308  64.557  1.00  0.00    -0.158 A  
HETATM   17  C   UNL     1      -8.007  10.544  65.909  1.00  0.00    -0.154 A  
HETATM   18 CL   UNL     1      -7.020   9.610  63.577  1.00  0.00    -0.105 Cl 
HETATM   19  C   UNL     1      -9.008  11.099  66.709  1.00  0.00    -0.169 A  
ENDBRANCH  10  13
ENDBRANCH   8  10
ENDBRANCH   6   8
ENDBRANCH   4   6
ENDBRANCH   3   4
ENDBRANCH   2   3
TORSDOF 6
ENDMDL
MODEL      121
REMARK 921   NORMALIZED FREE ENERGY PREDICTED BY IDOCK:   -3.86 KCAL/MOL
REMARK 922        TOTAL FREE ENERGY PREDICTED BY IDOCK:   -5.91 KCAL/MOL
REMARK 923 INTER-LIGAND FREE ENERGY PREDICTED BY IDOCK:   -5.02 KCAL/MOL
REMARK 924 INTRA-LIGAND FREE ENERGY PREDICTED BY IDOCK:   -0.89 KCAL/MOL
REMARK 927      BINDING AFFINITY PREDICTED BY RF-SCORE:    0.00 PKD
ROOT
HETATM    1  C   UNL     1     -10.368   7.899  66.749  1.00  0.00    -0.357 C  
HETATM    2  C   UNL     1      -9.260   8.804  67.268  1.00  0.00    -0.165 C  
ENDROOT
BRANCH   2   3
HETATM    3  C   UNL     1      -8.461   8.162  68.400  1.00  0.00    -0.126 C  
BRANCH   3   4
HETATM    4  N   UNL     1      -8.781   6.762  68.597  1.00  0.00    -0.125 N  
HETATM    5  H   UNL     1      -9.083   6.197  67.804  1.00  0.00     0.000 HD 
BRANCH   4   6
HETATM    6  C   UNL     1      -8.683   6.189  69.831  1.00  0.00    -0.136 C  
HETATM    7  O   UNL     1      -7.940   5.257  70.086  1.00  0.00    -0.078 OA 
BRANCH   6   8
HETATM    8  N   UNL     1      -9.484   6.796  70.781  1.00  0.00    -0.165 N  
HETATM    9  H   UNL     1      -9.044   7.430  71.449  1.00  0.00     0.000 HD 
BRANCH   8  10
HETATM   10  S   UNL     1     -11.127   6.551  70.895  1.00  0.00    -0.311 S  
HETATM   11  O   UNL     1     -11.388   5.692  72.028  1.00  0.00    -0.250 OA 
HETATM   12  O   UNL     1     -11.558   6.176  69.564  1.00  0.00    -0.396 OA 
BRANCH  10  13
HETATM   13  C   UNL     1     -11.795   8.168  71.213  1.00  0.00    -0.287 A  
HETATM   14  C   UNL     1     -12.928   8.298  72.025  1.00  0.00    -0.355 A  
HETATM   15  C   UNL     1     -13.464   9.568  72.255  1.00  0.00    -0.521 A  
HETATM   16  C   UNL     1     -12.861  10.692  71.687  1.00  0.00    -0.465 A  
HETATM   17  C   UNL     1     -11.723  10.562  70.891  1.00  0.00    -0.431 A  
HETATM   18 CL   UNL     1     -13.530  12.253  71.969  1.00  0.00    -0.521 Cl 
HETATM   19  C   UNL     1     -11.185   9.295  70.651  1.00  0.00    -0.333 A  
ENDBRANCH  10  13
ENDBRANCH   8  10
ENDBRANCH   6   8
ENDBRANCH   4   6
ENDBRANCH   3   4
ENDBRANCH   2   3
TORSDOF 6
ENDMDL
MODEL      122
REMARK 921   NORMALIZED FREE ENERGY PREDICTED BY IDOCK:   -3.83 KCAL/MOL
REMARK 922        TOTAL FREE ENERGY PREDICTED BY IDOCK:   -5.88 KCAL/MOL
REMARK 923 INTER-LIGAND FREE ENERGY PREDICTED BY IDOCK:   -5.17 KCAL/MOL
REMARK 924 INTRA-LIGAND FREE ENERGY PREDICTED BY IDOCK:   -0.71 KCAL/MOL
REMARK 927      BINDING AFFINITY PREDICTED BY RF-SCORE:    0.00 PKD
ROOT
HETATM    1  C   UNL     1     -13.534  12.990  72.200  1.00  0.00    -0.638 C  
HETATM    2  C   UNL     1     -12.880  11.791  71.527  1.00  0.00    -0.450 C  
ENDROOT
BRANCH   2   3
HETATM    3  C   UNL     1     -13.472  10.463  71.994  1.00  0.00    -0.255 C  
BRANCH   3   4
HETATM    4  N   UNL     1     -13.435   9.434  70.973  1.00  0.00    -0.577 N  
HETATM    5  H   UNL     1     -13.458   9.701  69.989  1.00  0.00     0.000 HD 
BRANCH   4   6
HETATM    6  C   UNL     1     -13.370   8.115  71.311  1.00  0.00    -0.121 C  
HETATM    7  O   UNL     1     -14.160   7.571  72.063  1.00  0.00    -0.297 OA 
BRANCH   6   8
HETATM    8  N   UNL     1     -12.338   7.440  70.685  1.00  0.00    -0.559 N  
HETATM    9  H   UNL     1     -12.575   6.674  70.055  1.00  0.00     0.000 HD 
BRANCH   8  10
HETATM   10  S   UNL     1     -10.729   7.809  70.903  1.00  0.00    -0.224 S  
HETATM   11  O   UNL     1      -9.961   6.587  70.829  1.00  0.00    -0.183 OA 
HETATM   12  O   UNL     1     -10.678   8.648  72.083  1.00  0.00    -0.327 OA 
BRANCH  10  13
HETATM   13  C   UNL     1     -10.321   8.847  69.518  1.00  0.00    -0.213 A  
HETATM   14  C   UNL     1     -10.447   8.343  68.218  1.00  0.00    -0.214 A  
HETATM   15  C   UNL     1     -10.104   9.154  67.133  1.00  0.00    -0.301 A  
HETATM   16  C   UNL     1      -9.654  10.458  67.351  1.00  0.00    -0.154 A  
HETATM   17  C   UNL     1      -9.545  10.963  68.647  1.00  0.00    -0.192 A  
HETATM   18 CL   UNL     1      -9.228  11.449  66.011  1.00  0.00    -0.222 Cl 
HETATM   19  C   UNL     1      -9.879  10.157  69.737  1.00  0.00    -0.245 A  
ENDBRANCH  10  13
ENDBRANCH   8  10
ENDBRANCH   6   8
ENDBRANCH   4   6
ENDBRANCH   3   4
ENDBRANCH   2   3
TORSDOF 6
ENDMDL
MODEL      123
REMARK 921   NORMALIZED FREE ENERGY PREDICTED BY IDOCK:   -3.81 KCAL/MOL
REMARK 922        TOTAL FREE ENERGY PREDICTED BY IDOCK:   -5.85 KCAL/MOL
REMARK 923 INTER-LIGAND FREE ENERGY PREDICTED BY IDOCK:   -5.12 KCAL/MOL
REMARK 924 INTRA-LIGAND FREE ENERGY PREDICTED BY IDOCK:   -0.73 KCAL/MOL
REMARK 927      BINDING AFFINITY PREDICTED BY RF-SCORE:    0.00 PKD
ROOT
HETATM    1  C   UNL     1      -7.913   7.813  68.163  1.00  0.00    -0.122 C  
HETATM    2  C   UNL     1      -8.994   7.269  69.087  1.00  0.00    -0.135 C  
ENDROOT
BRANCH   2   3
HETATM    3  C   UNL     1     -10.368   7.867  68.796  1.00  0.00    -0.203 C  
BRANCH   3   4
HETATM    4  N   UNL     1     -11.102   8.215  69.997  1.00  0.00    -0.392 N  
HETATM    5  H   UNL     1     -11.940   7.690  70.245  1.00  0.00     0.000 HD 
BRANCH   4   6
HETATM    6  C   UNL     1     -10.686   9.236  70.800  1.00  0.00    -0.284 C  
HETATM    7  O   UNL     1     -10.436   9.103  71.985  1.00  0.00    -0.322 OA 
BRANCH   6   8
HETATM    8  N   UNL     1     -10.537  10.436  70.127  1.00  0.00    -0.436 N  
HETATM    9  H   UNL     1      -9.591  10.765  69.934  1.00  0.00     0.000 HD 
BRANCH   8  10
HETATM   10  S   UNL     1     -11.816  11.369  69.614  1.00  0.00    -0.380 S  
HETATM   11  O   UNL     1     -11.797  12.618  70.341  1.00  0.00    -0.291 OA 
HETATM   12  O   UNL     1     -12.976  10.501  69.659  1.00  0.00    -0.088 OA 
BRANCH  10  13
HETATM   13  C   UNL     1     -11.476  11.681  67.897  1.00  0.00    -0.311 A  
HETATM   14  C   UNL     1     -10.731  10.752  67.161  1.00  0.00    -0.324 A  
HETATM   15  C   UNL     1     -10.446  11.011  65.818  1.00  0.00    -0.290 A  
HETATM   16  C   UNL     1     -10.916  12.181  65.219  1.00  0.00    -0.304 A  
HETATM   17  C   UNL     1     -11.672  13.098  65.949  1.00  0.00    -0.427 A  
HETATM   18 CL   UNL     1     -10.557  12.497  63.566  1.00  0.00    -0.442 Cl 
HETATM   19  C   UNL     1     -11.955  12.850  67.294  1.00  0.00    -0.371 A  
ENDBRANCH  10  13
ENDBRANCH   8  10
ENDBRANCH   6   8
ENDBRANCH   4   6
ENDBRANCH   3   4
ENDBRANCH   2   3
TORSDOF 6
ENDMDL
MODEL      124
REMARK 921   NORMALIZED FREE ENERGY PREDICTED BY IDOCK:   -3.80 KCAL/MOL
REMARK 922        TOTAL FREE ENERGY PREDICTED BY IDOCK:   -5.83 KCAL/MOL
REMARK 923 INTER-LIGAND FREE ENERGY PREDICTED BY IDOCK:   -5.10 KCAL/MOL
REMARK 924 INTRA-LIGAND FREE ENERGY PREDICTED BY IDOCK:   -0.73 KCAL/MOL
REMARK 927      BINDING AFFINITY PREDICTED BY RF-SCORE:    0.00 PKD
ROOT
HETATM    1  C   UNL     1      -9.573  10.097  64.497  1.00  0.00    -0.376 C  
HETATM    2  C   UNL     1      -9.966   9.747  65.925  1.00  0.00    -0.345 C  
ENDROOT
BRANCH   2   3
HETATM    3  C   UNL     1      -9.172  10.538  66.962  1.00  0.00    -0.150 C  
BRANCH   3   4
HETATM    4  N   UNL     1      -8.562  11.735  66.419  1.00  0.00    -0.317 N  
HETATM    5  H   UNL     1      -8.565  11.889  65.410  1.00  0.00     0.000 HD 
BRANCH   4   6
HETATM    6  C   UNL     1      -7.985  12.661  67.238  1.00  0.00    -0.166 C  
HETATM    7  O   UNL     1      -7.233  12.376  68.153  1.00  0.00    -0.083 OA 
BRANCH   6   8
HETATM    8  N   UNL     1      -8.309  13.964  66.904  1.00  0.00    -0.408 N  
HETATM    9  H   UNL     1      -7.561  14.657  66.890  1.00  0.00     0.000 HD 
BRANCH   8  10
HETATM   10  S   UNL     1      -9.851  14.462  66.524  1.00  0.00    -0.298 S  
HETATM   11  O   UNL     1     -10.777  13.843  67.445  1.00  0.00    -0.268 OA 
HETATM   12  O   UNL     1      -9.983  14.268  65.095  1.00  0.00    -0.348 OA 
BRANCH  10  13
HETATM   13  C   UNL     1      -9.829  16.219  66.802  1.00  0.00    -0.245 A  
HETATM   14  C   UNL     1      -9.122  16.736  67.894  1.00  0.00    -0.224 A  
HETATM   15  C   UNL     1      -9.126  18.114  68.122  1.00  0.00    -0.298 A  
HETATM   16  C   UNL     1      -9.820  18.962  67.257  1.00  0.00    -0.320 A  
HETATM   17  C   UNL     1     -10.511  18.447  66.161  1.00  0.00    -0.422 A  
HETATM   18 CL   UNL     1      -9.825  20.658  67.547  1.00  0.00    -0.555 Cl 
HETATM   19  C   UNL     1     -10.518  17.069  65.929  1.00  0.00    -0.282 A  
ENDBRANCH  10  13
ENDBRANCH   8  10
ENDBRANCH   6   8
ENDBRANCH   4   6
ENDBRANCH   3   4
ENDBRANCH   2   3
TORSDOF 6
ENDMDL
MODEL      125
REMARK 921   NORMALIZED FREE ENERGY PREDICTED BY IDOCK:   -3.80 KCAL/MOL
REMARK 922        TOTAL FREE ENERGY PREDICTED BY IDOCK:   -5.83 KCAL/MOL
REMARK 923 INTER-LIGAND FREE ENERGY PREDICTED BY IDOCK:   -5.11 KCAL/MOL
REMARK 924 INTRA-LIGAND FREE ENERGY PREDICTED BY IDOCK:   -0.72 KCAL/MOL
REMARK 927      BINDING AFFINITY PREDICTED BY RF-SCORE:    0.00 PKD
ROOT
HETATM    1  C   UNL     1      -7.779   8.603  71.610  1.00  0.00    -0.146 C  
HETATM    2  C   UNL     1      -8.225   7.308  72.273  1.00  0.00    -0.111 C  
ENDROOT
BRANCH   2   3
HETATM    3  C   UNL     1      -9.039   6.420  71.335  1.00  0.00    -0.145 C  
BRANCH   3   4
HETATM    4  N   UNL     1     -10.470   6.597  71.484  1.00  0.00    -0.214 N  
HETATM    5  H   UNL     1     -11.058   6.668  70.654  1.00  0.00     0.000 HD 
BRANCH   4   6
HETATM    6  C   UNL     1     -11.041   6.670  72.721  1.00  0.00    -0.249 C  
HETATM    7  O   UNL     1     -10.935   5.799  73.566  1.00  0.00    -0.262 OA 
BRANCH   6   8
HETATM    8  N   UNL     1     -11.724   7.853  72.939  1.00  0.00    -0.606 N  
HETATM    9  H   UNL     1     -11.401   8.465  73.688  1.00  0.00     0.000 HD 
BRANCH   8  10
HETATM   10  S   UNL     1     -13.043   8.334  72.044  1.00  0.00    -0.305 S  
HETATM   11  O   UNL     1     -14.120   8.665  72.950  1.00  0.00    -0.357 OA 
HETATM   12  O   UNL     1     -13.215   7.318  71.026  1.00  0.00    -0.283 OA 
BRANCH  10  13
HETATM   13  C   UNL     1     -12.499   9.808  71.211  1.00  0.00    -0.367 A  
HETATM   14  C   UNL     1     -13.053  11.044  71.564  1.00  0.00    -0.500 A  
HETATM   15  C   UNL     1     -12.641  12.197  70.891  1.00  0.00    -0.340 A  
HETATM   16  C   UNL     1     -11.674  12.110  69.887  1.00  0.00    -0.287 A  
HETATM   17  C   UNL     1     -11.112  10.880  69.547  1.00  0.00    -0.326 A  
HETATM   18 CL   UNL     1     -11.175  13.533  69.059  1.00  0.00    -0.299 Cl 
HETATM   19  C   UNL     1     -11.524   9.721  70.210  1.00  0.00    -0.317 A  
ENDBRANCH  10  13
ENDBRANCH   8  10
ENDBRANCH   6   8
ENDBRANCH   4   6
ENDBRANCH   3   4
ENDBRANCH   2   3
TORSDOF 6
ENDMDL
MODEL      126
REMARK 921   NORMALIZED FREE ENERGY PREDICTED BY IDOCK:   -3.79 KCAL/MOL
REMARK 922        TOTAL FREE ENERGY PREDICTED BY IDOCK:   -5.82 KCAL/MOL
REMARK 923 INTER-LIGAND FREE ENERGY PREDICTED BY IDOCK:   -5.30 KCAL/MOL
REMARK 924 INTRA-LIGAND FREE ENERGY PREDICTED BY IDOCK:   -0.51 KCAL/MOL
REMARK 927      BINDING AFFINITY PREDICTED BY RF-SCORE:    0.00 PKD
ROOT
HETATM    1  C   UNL     1      -5.658  20.474  69.477  1.00  0.00    -0.389 C  
HETATM    2  C   UNL     1      -6.988  19.739  69.565  1.00  0.00    -0.299 C  
ENDROOT
BRANCH   2   3
HETATM    3  C   UNL     1      -7.722  19.694  68.227  1.00  0.00    -0.321 C  
BRANCH   3   4
HETATM    4  N   UNL     1      -9.162  19.612  68.371  1.00  0.00    -0.351 N  
HETATM    5  H   UNL     1      -9.591  19.828  69.271  1.00  0.00     0.000 HD 
BRANCH   4   6
HETATM    6  C   UNL     1      -9.952  19.251  67.319  1.00  0.00    -0.363 C  
HETATM    7  O   UNL     1     -11.117  19.589  67.203  1.00  0.00    -0.446 OA 
BRANCH   6   8
HETATM    8  N   UNL     1      -9.288  18.492  66.372  1.00  0.00    -0.303 N  
HETATM    9  H   UNL     1      -8.568  18.946  65.810  1.00  0.00     0.000 HD 
BRANCH   8  10
HETATM   10  S   UNL     1      -9.598  16.880  66.101  1.00  0.00    -0.221 S  
HETATM   11  O   UNL     1      -8.360  16.223  65.750  1.00  0.00    -0.191 OA 
HETATM   12  O   UNL     1     -10.736  16.847  65.204  1.00  0.00    -0.663 OA 
BRANCH  10  13
HETATM   13  C   UNL     1     -10.167  16.268  67.671  1.00  0.00    -0.272 A  
HETATM   14  C   UNL     1     -11.530  16.016  67.861  1.00  0.00    -0.140 A  
HETATM   15  C   UNL     1     -11.977  15.557  69.103  1.00  0.00    -0.331 A  
HETATM   16  C   UNL     1     -11.062  15.341  70.136  1.00  0.00    -0.293 A  
HETATM   17  C   UNL     1      -9.701  15.578  69.940  1.00  0.00    -0.169 A  
HETATM   18 CL   UNL     1     -11.619  14.782  71.665  1.00  0.00    -0.338 Cl 
HETATM   19  C   UNL     1      -9.248  16.043  68.703  1.00  0.00    -0.216 A  
ENDBRANCH  10  13
ENDBRANCH   8  10
ENDBRANCH   6   8
ENDBRANCH   4   6
ENDBRANCH   3   4
ENDBRANCH   2   3
TORSDOF 6
ENDMDL
MODEL      127
REMARK 921   NORMALIZED FREE ENERGY PREDICTED BY IDOCK:   -3.78 KCAL/MOL
REMARK 922        TOTAL FREE ENERGY PREDICTED BY IDOCK:   -5.81 KCAL/MOL
REMARK 923 INTER-LIGAND FREE ENERGY PREDICTED BY IDOCK:   -5.24 KCAL/MOL
REMARK 924 INTRA-LIGAND FREE ENERGY PREDICTED BY IDOCK:   -0.58 KCAL/MOL
REMARK 927      BINDING AFFINITY PREDICTED BY RF-SCORE:    0.00 PKD
ROOT
HETATM    1  C   UNL     1      -7.049  20.229  67.548  1.00  0.00    -0.326 C  
HETATM    2  C   UNL     1      -6.894  18.720  67.423  1.00  0.00    -0.208 C  
ENDROOT
BRANCH   2   3
HETATM    3  C   UNL     1      -8.228  18.012  67.194  1.00  0.00    -0.221 C  
BRANCH   3   4
HETATM    4  N   UNL     1      -8.127  16.894  66.278  1.00  0.00    -0.311 N  
HETATM    5  H   UNL     1      -7.213  16.616  65.920  1.00  0.00     0.000 HD 
BRANCH   4   6
HETATM    6  C   UNL     1      -9.239  16.207  65.886  1.00  0.00    -0.261 C  
HETATM    7  O   UNL     1     -10.251  16.743  65.471  1.00  0.00    -0.567 OA 
BRANCH   6   8
HETATM    8  N   UNL     1      -9.092  14.834  65.971  1.00  0.00    -0.502 N  
HETATM    9  H   UNL     1      -9.227  14.282  65.124  1.00  0.00     0.000 HD 
BRANCH   8  10
HETATM   10  S   UNL     1      -8.705  14.034  67.378  1.00  0.00    -0.217 S  
HETATM   11  O   UNL     1      -7.532  14.652  67.954  1.00  0.00    -0.118 OA 
HETATM   12  O   UNL     1      -8.711  12.625  67.040  1.00  0.00    -0.197 OA 
BRANCH  10  13
HETATM   13  C   UNL     1     -10.102  14.311  68.443  1.00  0.00    -0.243 A  
HETATM   14  C   UNL     1     -10.235  15.540  69.100  1.00  0.00    -0.240 A  
HETATM   15  C   UNL     1     -11.322  15.746  69.954  1.00  0.00    -0.349 A  
HETATM   16  C   UNL     1     -12.268  14.735  70.134  1.00  0.00    -0.337 A  
HETATM   17  C   UNL     1     -12.142  13.517  69.467  1.00  0.00    -0.352 A  
HETATM   18 CL   UNL     1     -13.601  14.994  71.192  1.00  0.00    -0.485 Cl 
HETATM   19  C   UNL     1     -11.055  13.300  68.617  1.00  0.00    -0.301 A  
ENDBRANCH  10  13
ENDBRANCH   8  10
ENDBRANCH   6   8
ENDBRANCH   4   6
ENDBRANCH   3   4
ENDBRANCH   2   3
TORSDOF 6
ENDMDL
MODEL      128
REMARK 921   NORMALIZED FREE ENERGY PREDICTED BY IDOCK:   -3.77 KCAL/MOL
REMARK 922        TOTAL FREE ENERGY PREDICTED BY IDOCK:   -5.80 KCAL/MOL
REMARK 923 INTER-LIGAND FREE ENERGY PREDICTED BY IDOCK:   -5.14 KCAL/MOL
REMARK 924 INTRA-LIGAND FREE ENERGY PREDICTED BY IDOCK:   -0.66 KCAL/MOL
REMARK 927      BINDING AFFINITY PREDICTED BY RF-SCORE:    0.00 PKD
ROOT
HETATM    1  C   UNL     1     -11.211  12.379  64.090  1.00  0.00    -0.434 C  
HETATM    2  C   UNL     1     -12.438  12.571  64.970  1.00  0.00    -0.494 C  
ENDROOT
BRANCH   2   3
HETATM    3  C   UNL     1     -12.478  13.949  65.626  1.00  0.00    -0.505 C  
BRANCH   3   4
HETATM    4  N   UNL     1     -11.174  14.406  66.067  1.00  0.00    -0.327 N  
HETATM    5  H   UNL     1     -10.553  13.761  66.554  1.00  0.00     0.000 HD 
BRANCH   4   6
HETATM    6  C   UNL     1     -10.768  15.689  65.839  1.00  0.00    -0.329 C  
HETATM    7  O   UNL     1     -10.510  16.128  64.732  1.00  0.00    -0.592 OA 
BRANCH   6   8
HETATM    8  N   UNL     1     -10.714  16.457  66.988  1.00  0.00    -0.268 N  
HETATM    9  H   UNL     1     -11.276  17.308  67.025  1.00  0.00     0.000 HD 
BRANCH   8  10
HETATM   10  S   UNL     1      -9.783  16.071  68.312  1.00  0.00    -0.217 S  
HETATM   11  O   UNL     1      -9.020  17.237  68.697  1.00  0.00    -0.269 OA 
HETATM   12  O   UNL     1      -9.119  14.828  67.974  1.00  0.00    -0.172 OA 
BRANCH  10  13
HETATM   13  C   UNL     1     -10.963  15.690  69.587  1.00  0.00    -0.288 A  
HETATM   14  C   UNL     1     -10.532  15.575  70.914  1.00  0.00     0.155 A  
HETATM   15  C   UNL     1     -11.457  15.253  71.910  1.00  0.00    -0.504 A  
HETATM   16  C   UNL     1     -12.800  15.063  71.578  1.00  0.00    -0.347 A  
HETATM   17  C   UNL     1     -13.231  15.194  70.258  1.00  0.00    -0.051 A  
HETATM   18 CL   UNL     1     -13.934  14.661  72.809  1.00  0.00    -0.393 Cl 
HETATM   19  C   UNL     1     -12.310  15.508  69.255  1.00  0.00    -0.106 A  
ENDBRANCH  10  13
ENDBRANCH   8  10
ENDBRANCH   6   8
ENDBRANCH   4   6
ENDBRANCH   3   4
ENDBRANCH   2   3
TORSDOF 6
ENDMDL
MODEL      129
REMARK 921   NORMALIZED FREE ENERGY PREDICTED BY IDOCK:   -3.77 KCAL/MOL
REMARK 922        TOTAL FREE ENERGY PREDICTED BY IDOCK:   -5.79 KCAL/MOL
REMARK 923 INTER-LIGAND FREE ENERGY PREDICTED BY IDOCK:   -5.33 KCAL/MOL
REMARK 924 INTRA-LIGAND FREE ENERGY PREDICTED BY IDOCK:   -0.46 KCAL/MOL
REMARK 927      BINDING AFFINITY PREDICTED BY RF-SCORE:    0.00 PKD
ROOT
HETATM    1  C   UNL     1      -9.356  19.880  67.126  1.00  0.00    -0.479 C  
HETATM    2  C   UNL     1     -10.269  18.717  67.486  1.00  0.00    -0.444 C  
ENDROOT
BRANCH   2   3
HETATM    3  C   UNL     1      -9.496  17.435  67.783  1.00  0.00    -0.261 C  
BRANCH   3   4
HETATM    4  N   UNL     1      -9.886  16.813  69.033  1.00  0.00    -0.267 N  
HETATM    5  H   UNL     1     -10.544  17.290  69.649  1.00  0.00     0.000 HD 
BRANCH   4   6
HETATM    6  C   UNL     1      -9.384  15.598  69.397  1.00  0.00    -0.279 C  
HETATM    7  O   UNL     1      -8.200  15.315  69.349  1.00  0.00    -0.227 OA 
BRANCH   6   8
HETATM    8  N   UNL     1     -10.351  14.725  69.863  1.00  0.00    -0.458 N  
HETATM    9  H   UNL     1     -10.270  14.385  70.821  1.00  0.00     0.000 HD 
BRANCH   8  10
HETATM   10  S   UNL     1     -11.637  14.199  68.947  1.00  0.00    -0.333 S  
HETATM   11  O   UNL     1     -11.734  15.029  67.767  1.00  0.00    -0.339 OA 
HETATM   12  O   UNL     1     -12.750  14.084  69.867  1.00  0.00    -0.241 OA 
BRANCH  10  13
HETATM   13  C   UNL     1     -11.194  12.545  68.469  1.00  0.00    -0.283 A  
HETATM   14  C   UNL     1     -10.868  12.276  67.135  1.00  0.00    -0.282 A  
HETATM   15  C   UNL     1     -10.543  10.970  66.758  1.00  0.00    -0.317 A  
HETATM   16  C   UNL     1     -10.531   9.952  67.713  1.00  0.00    -0.242 A  
HETATM   17  C   UNL     1     -10.841  10.224  69.045  1.00  0.00    -0.265 A  
HETATM   18 CL   UNL     1     -10.135   8.345  67.241  1.00  0.00    -0.291 Cl 
HETATM   19  C   UNL     1     -11.174  11.526  69.429  1.00  0.00    -0.324 A  
ENDBRANCH  10  13
ENDBRANCH   8  10
ENDBRANCH   6   8
ENDBRANCH   4   6
ENDBRANCH   3   4
ENDBRANCH   2   3
TORSDOF 6
ENDMDL
MODEL      130
REMARK 921   NORMALIZED FREE ENERGY PREDICTED BY IDOCK:   -3.77 KCAL/MOL
REMARK 922        TOTAL FREE ENERGY PREDICTED BY IDOCK:   -5.79 KCAL/MOL
REMARK 923 INTER-LIGAND FREE ENERGY PREDICTED BY IDOCK:   -5.11 KCAL/MOL
REMARK 924 INTRA-LIGAND FREE ENERGY PREDICTED BY IDOCK:   -0.68 KCAL/MOL
REMARK 927      BINDING AFFINITY PREDICTED BY RF-SCORE:    0.00 PKD
ROOT
HETATM    1  C   UNL     1     -12.966  10.746  71.675  1.00  0.00    -0.581 C  
HETATM    2  C   UNL     1     -12.101   9.617  71.136  1.00  0.00    -0.448 C  
ENDROOT
BRANCH   2   3
HETATM    3  C   UNL     1     -12.600   8.239  71.566  1.00  0.00    -0.309 C  
BRANCH   3   4
HETATM    4  N   UNL     1     -12.150   7.860  72.890  1.00  0.00    -0.613 N  
HETATM    5  H   UNL     1     -12.776   7.976  73.687  1.00  0.00     0.000 HD 
BRANCH   4   6
HETATM    6  C   UNL     1     -10.901   7.349  73.086  1.00  0.00    -0.386 C  
HETATM    7  O   UNL     1      -9.945   8.019  73.434  1.00  0.00    -0.289 OA 
BRANCH   6   8
HETATM    8  N   UNL     1     -10.832   5.982  72.886  1.00  0.00    -0.245 N  
HETATM    9  H   UNL     1     -11.492   5.388  73.389  1.00  0.00     0.000 HD 
BRANCH   8  10
HETATM   10  S   UNL     1      -9.733   5.253  71.871  1.00  0.00    -0.163 S  
HETATM   11  O   UNL     1     -10.144   3.884  71.651  1.00  0.00    -0.173 OA 
HETATM   12  O   UNL     1      -8.429   5.556  72.425  1.00  0.00    -0.118 OA 
BRANCH  10  13
HETATM   13  C   UNL     1      -9.866   6.161  70.348  1.00  0.00    -0.178 A  
HETATM   14  C   UNL     1     -10.904   5.865  69.457  1.00  0.00    -0.442 A  
HETATM   15  C   UNL     1     -10.994   6.565  68.251  1.00  0.00    -0.362 A  
HETATM   16  C   UNL     1     -10.059   7.559  67.952  1.00  0.00    -0.182 A  
HETATM   17  C   UNL     1      -9.035   7.863  68.848  1.00  0.00    -0.141 A  
HETATM   18 CL   UNL     1     -10.171   8.413  66.462  1.00  0.00    -0.341 Cl 
HETATM   19  C   UNL     1      -8.935   7.163  70.053  1.00  0.00    -0.142 A  
ENDBRANCH  10  13
ENDBRANCH   8  10
ENDBRANCH   6   8
ENDBRANCH   4   6
ENDBRANCH   3   4
ENDBRANCH   2   3
TORSDOF 6
ENDMDL
MODEL      131
REMARK 921   NORMALIZED FREE ENERGY PREDICTED BY IDOCK:   -3.76 KCAL/MOL
REMARK 922        TOTAL FREE ENERGY PREDICTED BY IDOCK:   -5.79 KCAL/MOL
REMARK 923 INTER-LIGAND FREE ENERGY PREDICTED BY IDOCK:   -5.50 KCAL/MOL
REMARK 924 INTRA-LIGAND FREE ENERGY PREDICTED BY IDOCK:   -0.29 KCAL/MOL
REMARK 927      BINDING AFFINITY PREDICTED BY RF-SCORE:    0.00 PKD
ROOT
HETATM    1  C   UNL     1      -7.653  20.589  67.284  1.00  0.00    -0.386 C  
HETATM    2  C   UNL     1      -6.862  19.672  68.206  1.00  0.00    -0.324 C  
ENDROOT
BRANCH   2   3
HETATM    3  C   UNL     1      -6.950  18.206  67.790  1.00  0.00    -0.207 C  
BRANCH   3   4
HETATM    4  N   UNL     1      -7.345  17.330  68.876  1.00  0.00    -0.249 N  
HETATM    5  H   UNL     1      -6.977  17.493  69.813  1.00  0.00     0.000 HD 
BRANCH   4   6
HETATM    6  C   UNL     1      -8.202  16.292  68.661  1.00  0.00    -0.214 C  
HETATM    7  O   UNL     1      -8.612  15.561  69.546  1.00  0.00    -0.260 OA 
BRANCH   6   8
HETATM    8  N   UNL     1      -8.595  16.170  67.340  1.00  0.00    -0.176 N  
HETATM    9  H   UNL     1      -7.933  15.769  66.677  1.00  0.00     0.000 HD 
BRANCH   8  10
HETATM   10  S   UNL     1     -10.087  16.643  66.775  1.00  0.00    -0.300 S  
HETATM   11  O   UNL     1      -9.915  17.799  65.926  1.00  0.00    -0.527 OA 
HETATM   12  O   UNL     1     -10.946  16.698  67.940  1.00  0.00    -0.342 OA 
BRANCH  10  13
HETATM   13  C   UNL     1     -10.644  15.268  65.794  1.00  0.00    -0.347 A  
HETATM   14  C   UNL     1     -11.706  15.444  64.900  1.00  0.00    -0.174 A  
HETATM   15  C   UNL     1     -12.157  14.357  64.147  1.00  0.00    -0.405 A  
HETATM   16  C   UNL     1     -11.538  13.112  64.281  1.00  0.00    -0.392 A  
HETATM   17  C   UNL     1     -10.470  12.942  65.161  1.00  0.00    -0.326 A  
HETATM   18 CL   UNL     1     -12.102  11.775  63.356  1.00  0.00    -0.544 Cl 
HETATM   19  C   UNL     1     -10.018  14.023  65.923  1.00  0.00    -0.325 A  
ENDBRANCH  10  13
ENDBRANCH   8  10
ENDBRANCH   6   8
ENDBRANCH   4   6
ENDBRANCH   3   4
ENDBRANCH   2   3
TORSDOF 6
ENDMDL
MODEL      132
REMARK 921   NORMALIZED FREE ENERGY PREDICTED BY IDOCK:   -3.76 KCAL/MOL
REMARK 922        TOTAL FREE ENERGY PREDICTED BY IDOCK:   -5.78 KCAL/MOL
REMARK 923 INTER-LIGAND FREE ENERGY PREDICTED BY IDOCK:   -5.04 KCAL/MOL
REMARK 924 INTRA-LIGAND FREE ENERGY PREDICTED BY IDOCK:   -0.74 KCAL/MOL
REMARK 927      BINDING AFFINITY PREDICTED BY RF-SCORE:    0.00 PKD
ROOT
HETATM    1  C   UNL     1      -6.653  12.488  68.473  1.00  0.00    -0.077 C  
HETATM    2  C   UNL     1      -7.027  13.445  67.350  1.00  0.00    -0.098 C  
ENDROOT
BRANCH   2   3
HETATM    3  C   UNL     1      -7.877  14.615  67.837  1.00  0.00    -0.136 C  
BRANCH   3   4
HETATM    4  N   UNL     1      -9.171  14.686  67.188  1.00  0.00    -0.211 N  
HETATM    5  H   UNL     1      -9.997  14.334  67.673  1.00  0.00     0.000 HD 
BRANCH   4   6
HETATM    6  C   UNL     1      -9.300  15.217  65.939  1.00  0.00    -0.273 C  
HETATM    7  O   UNL     1      -9.049  16.379  65.670  1.00  0.00    -0.446 OA 
BRANCH   6   8
HETATM    8  N   UNL     1      -9.707  14.295  64.992  1.00  0.00    -0.492 N  
HETATM    9  H   UNL     1      -9.077  14.090  64.216  1.00  0.00     0.000 HD 
BRANCH   8  10
HETATM   10  S   UNL     1     -11.169  13.501  65.048  1.00  0.00    -0.337 S  
HETATM   11  O   UNL     1     -11.655  13.331  63.697  1.00  0.00    -0.411 OA 
HETATM   12  O   UNL     1     -11.958  14.206  66.038  1.00  0.00    -0.380 OA 
BRANCH  10  13
HETATM   13  C   UNL     1     -10.782  11.910  65.741  1.00  0.00    -0.284 A  
HETATM   14  C   UNL     1     -10.093  10.970  64.966  1.00  0.00    -0.354 A  
HETATM   15  C   UNL     1      -9.810   9.712  65.505  1.00  0.00    -0.352 A  
HETATM   16  C   UNL     1     -10.203   9.409  66.810  1.00  0.00    -0.250 A  
HETATM   17  C   UNL     1     -10.876  10.352  67.586  1.00  0.00    -0.361 A  
HETATM   18 CL   UNL     1      -9.857   7.856  67.466  1.00  0.00    -0.202 Cl 
HETATM   19  C   UNL     1     -11.169  11.610  67.052  1.00  0.00    -0.376 A  
ENDBRANCH  10  13
ENDBRANCH   8  10
ENDBRANCH   6   8
ENDBRANCH   4   6
ENDBRANCH   3   4
ENDBRANCH   2   3
TORSDOF 6
ENDMDL
MODEL      133
REMARK 921   NORMALIZED FREE ENERGY PREDICTED BY IDOCK:   -3.76 KCAL/MOL
REMARK 922        TOTAL FREE ENERGY PREDICTED BY IDOCK:   -5.78 KCAL/MOL
REMARK 923 INTER-LIGAND FREE ENERGY PREDICTED BY IDOCK:   -4.95 KCAL/MOL
REMARK 924 INTRA-LIGAND FREE ENERGY PREDICTED BY IDOCK:   -0.83 KCAL/MOL
REMARK 927      BINDING AFFINITY PREDICTED BY RF-SCORE:    0.00 PKD
ROOT
HETATM    1  C   UNL     1     -10.328  12.124  63.734  1.00  0.00    -0.465 C  
HETATM    2  C   UNL     1     -11.016  13.076  64.701  1.00  0.00    -0.364 C  
ENDROOT
BRANCH   2   3
HETATM    3  C   UNL     1     -10.023  13.901  65.517  1.00  0.00    -0.251 C  
BRANCH   3   4
HETATM    4  N   UNL     1      -9.322  13.120  66.516  1.00  0.00    -0.347 N  
HETATM    5  H   UNL     1      -8.580  12.483  66.228  1.00  0.00     0.000 HD 
BRANCH   4   6
HETATM    6  C   UNL     1      -9.641  13.226  67.838  1.00  0.00    -0.217 C  
HETATM    7  O   UNL     1      -9.764  14.290  68.419  1.00  0.00    -0.215 OA 
BRANCH   6   8
HETATM    8  N   UNL     1      -9.851  12.003  68.450  1.00  0.00    -0.211 N  
HETATM    9  H   UNL     1      -9.512  11.877  69.404  1.00  0.00     0.000 HD 
BRANCH   8  10
HETATM   10  S   UNL     1     -10.627  10.727  67.716  1.00  0.00    -0.248 S  
HETATM   11  O   UNL     1      -9.734  10.141  66.742  1.00  0.00    -0.173 OA 
HETATM   12  O   UNL     1     -11.926  11.234  67.323  1.00  0.00    -0.529 OA 
BRANCH  10  13
HETATM   13  C   UNL     1     -10.909   9.564  69.032  1.00  0.00    -0.160 A  
HETATM   14  C   UNL     1     -11.457  10.010  70.241  1.00  0.00    -0.372 A  
HETATM   15  C   UNL     1     -11.655   9.098  71.281  1.00  0.00    -0.401 A  
HETATM   16  C   UNL     1     -11.321   7.754  71.103  1.00  0.00    -0.269 A  
HETATM   17  C   UNL     1     -10.790   7.309  69.893  1.00  0.00    -0.264 A  
HETATM   18 CL   UNL     1     -11.563   6.638  72.390  1.00  0.00    -0.300 Cl 
HETATM   19  C   UNL     1     -10.581   8.216  68.850  1.00  0.00    -0.161 A  
ENDBRANCH  10  13
ENDBRANCH   8  10
ENDBRANCH   6   8
ENDBRANCH   4   6
ENDBRANCH   3   4
ENDBRANCH   2   3
TORSDOF 6
ENDMDL
MODEL      134
REMARK 921   NORMALIZED FREE ENERGY PREDICTED BY IDOCK:   -3.76 KCAL/MOL
REMARK 922        TOTAL FREE ENERGY PREDICTED BY IDOCK:   -5.78 KCAL/MOL
REMARK 923 INTER-LIGAND FREE ENERGY PREDICTED BY IDOCK:   -5.16 KCAL/MOL
REMARK 924 INTRA-LIGAND FREE ENERGY PREDICTED BY IDOCK:   -0.62 KCAL/MOL
REMARK 927      BINDING AFFINITY PREDICTED BY RF-SCORE:    0.00 PKD
ROOT
HETATM    1  C   UNL     1      -9.336  19.954  66.848  1.00  0.00    -0.493 C  
HETATM    2  C   UNL     1     -10.610  19.270  67.321  1.00  0.00    -0.590 C  
ENDROOT
BRANCH   2   3
HETATM    3  C   UNL     1     -10.334  17.959  68.054  1.00  0.00    -0.387 C  
BRANCH   3   4
HETATM    4  N   UNL     1     -11.312  16.929  67.765  1.00  0.00     0.005 N  
HETATM    5  H   UNL     1     -11.831  16.960  66.887  1.00  0.00     0.000 HD 
BRANCH   4   6
HETATM    6  C   UNL     1     -11.549  15.920  68.651  1.00  0.00    -0.380 C  
HETATM    7  O   UNL     1     -11.295  15.993  69.841  1.00  0.00    -0.312 OA 
BRANCH   6   8
HETATM    8  N   UNL     1     -12.143  14.813  68.073  1.00  0.00    -0.579 N  
HETATM    9  H   UNL     1     -13.024  14.480  68.465  1.00  0.00     0.000 HD 
BRANCH   8  10
HETATM   10  S   UNL     1     -11.500  13.994  66.775  1.00  0.00    -0.382 S  
HETATM   11  O   UNL     1     -11.392  14.908  65.660  1.00  0.00    -0.343 OA 
HETATM   12  O   UNL     1     -12.272  12.773  66.662  1.00  0.00    -0.481 OA 
BRANCH  10  13
HETATM   13  C   UNL     1      -9.871  13.522  67.311  1.00  0.00    -0.237 A  
HETATM   14  C   UNL     1      -9.688  12.298  67.964  1.00  0.00    -0.205 A  
HETATM   15  C   UNL     1      -8.411  11.941  68.405  1.00  0.00    -0.157 A  
HETATM   16  C   UNL     1      -7.331  12.797  68.178  1.00  0.00    -0.118 A  
HETATM   17  C   UNL     1      -7.513  14.009  67.513  1.00  0.00    -0.186 A  
HETATM   18 CL   UNL     1      -5.762  12.353  68.728  1.00  0.00    -0.057 Cl 
HETATM   19  C   UNL     1      -8.788  14.377  67.076  1.00  0.00    -0.256 A  
ENDBRANCH  10  13
ENDBRANCH   8  10
ENDBRANCH   6   8
ENDBRANCH   4   6
ENDBRANCH   3   4
ENDBRANCH   2   3
TORSDOF 6
ENDMDL
MODEL      135
REMARK 921   NORMALIZED FREE ENERGY PREDICTED BY IDOCK:   -3.76 KCAL/MOL
REMARK 922        TOTAL FREE ENERGY PREDICTED BY IDOCK:   -5.78 KCAL/MOL
REMARK 923 INTER-LIGAND FREE ENERGY PREDICTED BY IDOCK:   -5.16 KCAL/MOL
REMARK 924 INTRA-LIGAND FREE ENERGY PREDICTED BY IDOCK:   -0.61 KCAL/MOL
REMARK 927      BINDING AFFINITY PREDICTED BY RF-SCORE:    0.00 PKD
ROOT
HETATM    1  C   UNL     1      -8.699   7.228  70.663  1.00  0.00    -0.147 C  
HETATM    2  C   UNL     1      -8.850   8.302  69.594  1.00  0.00    -0.139 C  
ENDROOT
BRANCH   2   3
HETATM    3  C   UNL     1      -8.751   9.714  70.165  1.00  0.00    -0.231 C  
BRANCH   3   4
HETATM    4  N   UNL     1      -9.634  10.657  69.507  1.00  0.00    -0.421 N  
HETATM    5  H   UNL     1     -10.605  10.731  69.808  1.00  0.00     0.000 HD 
BRANCH   4   6
HETATM    6  C   UNL     1      -9.183  11.445  68.489  1.00  0.00    -0.174 C  
HETATM    7  O   UNL     1      -8.097  12.000  68.496  1.00  0.00    -0.151 OA 
BRANCH   6   8
HETATM    8  N   UNL     1     -10.065  11.526  67.427  1.00  0.00    -0.189 N  
HETATM    9  H   UNL     1      -9.777  11.131  66.532  1.00  0.00     0.000 HD 
BRANCH   8  10
HETATM   10  S   UNL     1     -11.569  12.230  67.529  1.00  0.00    -0.339 S  
HETATM   11  O   UNL     1     -12.251  11.699  68.687  1.00  0.00    -0.455 OA 
HETATM   12  O   UNL     1     -12.147  12.109  66.206  1.00  0.00    -0.626 OA 
BRANCH  10  13
HETATM   13  C   UNL     1     -11.232  13.958  67.784  1.00  0.00    -0.293 A  
HETATM   14  C   UNL     1     -10.749  14.731  66.722  1.00  0.00    -0.309 A  
HETATM   15  C   UNL     1     -10.463  16.082  66.931  1.00  0.00    -0.306 A  
HETATM   16  C   UNL     1     -10.675  16.652  68.189  1.00  0.00    -0.349 A  
HETATM   17  C   UNL     1     -11.172  15.885  69.242  1.00  0.00    -0.335 A  
HETATM   18 CL   UNL     1     -10.316  18.316  68.442  1.00  0.00    -0.383 Cl 
HETATM   19  C   UNL     1     -11.453  14.531  69.042  1.00  0.00    -0.318 A  
ENDBRANCH  10  13
ENDBRANCH   8  10
ENDBRANCH   6   8
ENDBRANCH   4   6
ENDBRANCH   3   4
ENDBRANCH   2   3
TORSDOF 6
ENDMDL
MODEL      136
REMARK 921   NORMALIZED FREE ENERGY PREDICTED BY IDOCK:   -3.75 KCAL/MOL
REMARK 922        TOTAL FREE ENERGY PREDICTED BY IDOCK:   -5.77 KCAL/MOL
REMARK 923 INTER-LIGAND FREE ENERGY PREDICTED BY IDOCK:   -5.29 KCAL/MOL
REMARK 924 INTRA-LIGAND FREE ENERGY PREDICTED BY IDOCK:   -0.49 KCAL/MOL
REMARK 927      BINDING AFFINITY PREDICTED BY RF-SCORE:    0.00 PKD
ROOT
HETATM    1  C   UNL     1     -12.997  10.138  71.427  1.00  0.00    -0.528 C  
HETATM    2  C   UNL     1     -13.573   9.136  72.416  1.00  0.00    -0.544 C  
ENDROOT
BRANCH   2   3
HETATM    3  C   UNL     1     -14.170   7.910  71.729  1.00  0.00    -0.451 C  
BRANCH   3   4
HETATM    4  N   UNL     1     -13.268   7.303  70.769  1.00  0.00    -0.556 N  
HETATM    5  H   UNL     1     -13.511   7.306  69.779  1.00  0.00     0.000 HD 
BRANCH   4   6
HETATM    6  C   UNL     1     -12.100   6.726  71.174  1.00  0.00    -0.370 C  
HETATM    7  O   UNL     1     -11.971   6.133  72.231  1.00  0.00    -0.318 OA 
BRANCH   6   8
HETATM    8  N   UNL     1     -11.081   6.847  70.247  1.00  0.00    -0.279 N  
HETATM    9  H   UNL     1     -11.109   6.251  69.420  1.00  0.00     0.000 HD 
BRANCH   8  10
HETATM   10  S   UNL     1      -9.812   7.913  70.406  1.00  0.00    -0.183 S  
HETATM   11  O   UNL     1      -8.574   7.180  70.274  1.00  0.00    -0.140 OA 
HETATM   12  O   UNL     1     -10.096   8.683  71.600  1.00  0.00    -0.238 OA 
BRANCH  10  13
HETATM   13  C   UNL     1      -9.991   9.022  69.027  1.00  0.00    -0.185 A  
HETATM   14  C   UNL     1      -9.761  10.391  69.209  1.00  0.00    -0.231 A  
HETATM   15  C   UNL     1      -9.924  11.263  68.130  1.00  0.00    -0.191 A  
HETATM   16  C   UNL     1     -10.300  10.764  66.881  1.00  0.00    -0.241 A  
HETATM   17  C   UNL     1     -10.513   9.398  66.698  1.00  0.00    -0.238 A  
HETATM   18 CL   UNL     1     -10.505  11.844  65.557  1.00  0.00    -0.295 Cl 
HETATM   19  C   UNL     1     -10.359   8.520  67.774  1.00  0.00    -0.298 A  
ENDBRANCH  10  13
ENDBRANCH   8  10
ENDBRANCH   6   8
ENDBRANCH   4   6
ENDBRANCH   3   4
ENDBRANCH   2   3
TORSDOF 6
ENDMDL
MODEL      137
REMARK 921   NORMALIZED FREE ENERGY PREDICTED BY IDOCK:   -3.75 KCAL/MOL
REMARK 922        TOTAL FREE ENERGY PREDICTED BY IDOCK:   -5.76 KCAL/MOL
REMARK 923 INTER-LIGAND FREE ENERGY PREDICTED BY IDOCK:   -5.12 KCAL/MOL
REMARK 924 INTRA-LIGAND FREE ENERGY PREDICTED BY IDOCK:   -0.65 KCAL/MOL
REMARK 927      BINDING AFFINITY PREDICTED BY RF-SCORE:    0.00 PKD
ROOT
HETATM    1  C   UNL     1     -11.715  14.772  71.558  1.00  0.00    -0.350 C  
HETATM    2  C   UNL     1     -12.591  14.527  70.338  1.00  0.00    -0.405 C  
ENDROOT
BRANCH   2   3
HETATM    3  C   UNL     1     -11.874  13.725  69.254  1.00  0.00    -0.344 C  
BRANCH   3   4
HETATM    4  N   UNL     1     -11.935  12.294  69.473  1.00  0.00    -0.295 N  
HETATM    5  H   UNL     1     -12.048  11.933  70.420  1.00  0.00     0.000 HD 
BRANCH   4   6
HETATM    6  C   UNL     1     -11.843  11.422  68.428  1.00  0.00    -0.274 C  
HETATM    7  O   UNL     1     -11.919  11.758  67.259  1.00  0.00    -0.618 OA 
BRANCH   6   8
HETATM    8  N   UNL     1     -11.616  10.116  68.824  1.00  0.00    -0.512 N  
HETATM    9  H   UNL     1     -12.121   9.372  68.341  1.00  0.00     0.000 HD 
BRANCH   8  10
HETATM   10  S   UNL     1     -10.566   9.691  70.043  1.00  0.00    -0.281 S  
HETATM   11  O   UNL     1     -11.234   9.874  71.312  1.00  0.00    -0.361 OA 
HETATM   12  O   UNL     1      -9.327  10.382  69.750  1.00  0.00    -0.142 OA 
BRANCH  10  13
HETATM   13  C   UNL     1     -10.261   7.959  69.782  1.00  0.00    -0.212 A  
HETATM   14  C   UNL     1     -10.893   7.016  70.600  1.00  0.00    -0.274 A  
HETATM   15  C   UNL     1     -10.633   5.656  70.407  1.00  0.00    -0.364 A  
HETATM   16  C   UNL     1      -9.760   5.251  69.395  1.00  0.00    -0.174 A  
HETATM   17  C   UNL     1      -9.144   6.191  68.571  1.00  0.00    -0.117 A  
HETATM   18 CL   UNL     1      -9.440   3.576  69.166  1.00  0.00    -0.246 Cl 
HETATM   19  C   UNL     1      -9.393   7.553  68.762  1.00  0.00    -0.147 A  
ENDBRANCH  10  13
ENDBRANCH   8  10
ENDBRANCH   6   8
ENDBRANCH   4   6
ENDBRANCH   3   4
ENDBRANCH   2   3
TORSDOF 6
ENDMDL
MODEL      138
REMARK 921   NORMALIZED FREE ENERGY PREDICTED BY IDOCK:   -3.74 KCAL/MOL
REMARK 922        TOTAL FREE ENERGY PREDICTED BY IDOCK:   -5.76 KCAL/MOL
REMARK 923 INTER-LIGAND FREE ENERGY PREDICTED BY IDOCK:   -5.07 KCAL/MOL
REMARK 924 INTRA-LIGAND FREE ENERGY PREDICTED BY IDOCK:   -0.69 KCAL/MOL
REMARK 927      BINDING AFFINITY PREDICTED BY RF-SCORE:    0.00 PKD
ROOT
HETATM    1  C   UNL     1     -12.518  14.198  64.924  1.00  0.00    -0.419 C  
HETATM    2  C   UNL     1     -12.256  12.843  65.565  1.00  0.00    -0.527 C  
ENDROOT
BRANCH   2   3
HETATM    3  C   UNL     1     -11.679  12.963  66.973  1.00  0.00    -0.385 C  
BRANCH   3   4
HETATM    4  N   UNL     1     -10.238  12.804  67.012  1.00  0.00    -0.240 N  
HETATM    5  H   UNL     1      -9.703  12.848  66.145  1.00  0.00     0.000 HD 
BRANCH   4   6
HETATM    6  C   UNL     1      -9.588  12.597  68.193  1.00  0.00    -0.219 C  
HETATM    7  O   UNL     1      -9.321  11.491  68.631  1.00  0.00    -0.189 OA 
BRANCH   6   8
HETATM    8  N   UNL     1      -9.226  13.769  68.831  1.00  0.00    -0.397 N  
HETATM    9  H   UNL     1      -9.826  14.115  69.580  1.00  0.00     0.000 HD 
BRANCH   8  10
HETATM   10  S   UNL     1      -7.865  14.646  68.445  1.00  0.00    -0.140 S  
HETATM   11  O   UNL     1      -7.224  14.026  67.307  1.00  0.00    -0.143 OA 
HETATM   12  O   UNL     1      -7.150  14.827  69.692  1.00  0.00    -0.167 OA 
BRANCH  10  13
HETATM   13  C   UNL     1      -8.486  16.244  67.975  1.00  0.00    -0.174 A  
HETATM   14  C   UNL     1      -7.945  17.394  68.561  1.00  0.00    -0.266 A  
HETATM   15  C   UNL     1      -8.451  18.648  68.207  1.00  0.00    -0.350 A  
HETATM   16  C   UNL     1      -9.477  18.744  67.265  1.00  0.00    -0.301 A  
HETATM   17  C   UNL     1     -10.004  17.597  66.670  1.00  0.00    -0.328 A  
HETATM   18 CL   UNL     1     -10.100  20.290  66.836  1.00  0.00    -0.589 Cl 
HETATM   19  C   UNL     1      -9.509  16.340  67.024  1.00  0.00    -0.237 A  
ENDBRANCH  10  13
ENDBRANCH   8  10
ENDBRANCH   6   8
ENDBRANCH   4   6
ENDBRANCH   3   4
ENDBRANCH   2   3
TORSDOF 6
ENDMDL
MODEL      139
REMARK 921   NORMALIZED FREE ENERGY PREDICTED BY IDOCK:   -3.74 KCAL/MOL
REMARK 922        TOTAL FREE ENERGY PREDICTED BY IDOCK:   -5.76 KCAL/MOL
REMARK 923 INTER-LIGAND FREE ENERGY PREDICTED BY IDOCK:   -5.26 KCAL/MOL
REMARK 924 INTRA-LIGAND FREE ENERGY PREDICTED BY IDOCK:   -0.50 KCAL/MOL
REMARK 927      BINDING AFFINITY PREDICTED BY RF-SCORE:    0.00 PKD
ROOT
HETATM    1  C   UNL     1     -12.852  12.145  63.731  1.00  0.00    -0.451 C  
HETATM    2  C   UNL     1     -11.689  13.123  63.811  1.00  0.00    -0.519 C  
ENDROOT
BRANCH   2   3
HETATM    3  C   UNL     1     -10.332  12.431  63.707  1.00  0.00    -0.425 C  
BRANCH   3   4
HETATM    4  N   UNL     1      -9.735  12.154  64.999  1.00  0.00    -0.431 N  
HETATM    5  H   UNL     1      -8.900  12.664  65.287  1.00  0.00     0.000 HD 
BRANCH   4   6
HETATM    6  C   UNL     1     -10.276  11.222  65.835  1.00  0.00    -0.249 C  
HETATM    7  O   UNL     1     -10.156  10.020  65.672  1.00  0.00    -0.282 OA 
BRANCH   6   8
HETATM    8  N   UNL     1     -10.944  11.775  66.912  1.00  0.00    -0.270 N  
HETATM    9  H   UNL     1     -11.960  11.852  66.860  1.00  0.00     0.000 HD 
BRANCH   8  10
HETATM   10  S   UNL     1     -10.182  12.319  68.288  1.00  0.00    -0.222 S  
HETATM   11  O   UNL     1      -8.791  11.933  68.230  1.00  0.00    -0.168 OA 
HETATM   12  O   UNL     1     -11.023  11.901  69.392  1.00  0.00    -0.195 OA 
BRANCH  10  13
HETATM   13  C   UNL     1     -10.308  14.091  68.192  1.00  0.00    -0.241 A  
HETATM   14  C   UNL     1     -11.418  14.734  68.751  1.00  0.00    -0.324 A  
HETATM   15  C   UNL     1     -11.526  16.124  68.654  1.00  0.00    -0.340 A  
HETATM   16  C   UNL     1     -10.523  16.858  68.016  1.00  0.00    -0.347 A  
HETATM   17  C   UNL     1      -9.409  16.216  67.474  1.00  0.00    -0.217 A  
HETATM   18 CL   UNL     1     -10.664  18.568  67.895  1.00  0.00    -0.383 Cl 
HETATM   19  C   UNL     1      -9.298  14.826  67.561  1.00  0.00    -0.194 A  
ENDBRANCH  10  13
ENDBRANCH   8  10
ENDBRANCH   6   8
ENDBRANCH   4   6
ENDBRANCH   3   4
ENDBRANCH   2   3
TORSDOF 6
ENDMDL
MODEL      140
REMARK 921   NORMALIZED FREE ENERGY PREDICTED BY IDOCK:   -3.73 KCAL/MOL
REMARK 922        TOTAL FREE ENERGY PREDICTED BY IDOCK:   -5.74 KCAL/MOL
REMARK 923 INTER-LIGAND FREE ENERGY PREDICTED BY IDOCK:   -5.07 KCAL/MOL
REMARK 924 INTRA-LIGAND FREE ENERGY PREDICTED BY IDOCK:   -0.67 KCAL/MOL
REMARK 927      BINDING AFFINITY PREDICTED BY RF-SCORE:    0.00 PKD
ROOT
HETATM    1  C   UNL     1      -9.260  10.338  64.542  1.00  0.00    -0.295 C  
HETATM    2  C   UNL     1      -9.865  10.900  63.263  1.00  0.00    -0.409 C  
ENDROOT
BRANCH   2   3
HETATM    3  C   UNL     1     -10.663  12.179  63.505  1.00  0.00    -0.457 C  
BRANCH   3   4
HETATM    4  N   UNL     1     -11.108  12.320  64.877  1.00  0.00    -0.302 N  
HETATM    5  H   UNL     1     -10.595  11.850  65.624  1.00  0.00     0.000 HD 
BRANCH   4   6
HETATM    6  C   UNL     1     -12.203  13.073  65.184  1.00  0.00    -0.459 C  
HETATM    7  O   UNL     1     -13.240  13.048  64.544  1.00  0.00    -0.568 OA 
BRANCH   6   8
HETATM    8  N   UNL     1     -12.036  13.843  66.321  1.00  0.00    -0.411 N  
HETATM    9  H   UNL     1     -12.366  14.808  66.301  1.00  0.00     0.000 HD 
BRANCH   8  10
HETATM   10  S   UNL     1     -11.327  13.282  67.718  1.00  0.00    -0.314 S  
HETATM   11  O   UNL     1     -11.210  11.844  67.633  1.00  0.00    -0.239 OA 
HETATM   12  O   UNL     1     -12.057  13.905  68.804  1.00  0.00    -0.354 OA 
BRANCH  10  13
HETATM   13  C   UNL     1      -9.703  14.007  67.712  1.00  0.00    -0.228 A  
HETATM   14  C   UNL     1      -9.550  15.361  68.033  1.00  0.00    -0.206 A  
HETATM   15  C   UNL     1      -8.276  15.933  68.005  1.00  0.00    -0.150 A  
HETATM   16  C   UNL     1      -7.168  15.151  67.673  1.00  0.00    -0.185 A  
HETATM   17  C   UNL     1      -7.320  13.798  67.369  1.00  0.00    -0.125 A  
HETATM   18 CL   UNL     1      -5.602  15.863  67.635  1.00  0.00    -0.161 Cl 
HETATM   19  C   UNL     1      -8.592  13.220  67.388  1.00  0.00    -0.204 A  
ENDBRANCH  10  13
ENDBRANCH   8  10
ENDBRANCH   6   8
ENDBRANCH   4   6
ENDBRANCH   3   4
ENDBRANCH   2   3
TORSDOF 6
ENDMDL
MODEL      141
REMARK 921   NORMALIZED FREE ENERGY PREDICTED BY IDOCK:   -3.72 KCAL/MOL
REMARK 922        TOTAL FREE ENERGY PREDICTED BY IDOCK:   -5.73 KCAL/MOL
REMARK 923 INTER-LIGAND FREE ENERGY PREDICTED BY IDOCK:   -5.10 KCAL/MOL
REMARK 924 INTRA-LIGAND FREE ENERGY PREDICTED BY IDOCK:   -0.64 KCAL/MOL
REMARK 927      BINDING AFFINITY PREDICTED BY RF-SCORE:    0.00 PKD
ROOT
HETATM    1  C   UNL     1     -10.686  18.963  66.073  1.00  0.00    -0.373 C  
HETATM    2  C   UNL     1      -9.338  19.613  66.352  1.00  0.00    -0.463 C  
ENDROOT
BRANCH   2   3
HETATM    3  C   UNL     1      -9.171  20.009  67.817  1.00  0.00    -0.329 C  
BRANCH   3   4
HETATM    4  N   UNL     1      -8.297  19.114  68.551  1.00  0.00    -0.354 N  
HETATM    5  H   UNL     1      -7.415  19.465  68.923  1.00  0.00     0.000 HD 
BRANCH   4   6
HETATM    6  C   UNL     1      -8.639  17.809  68.749  1.00  0.00    -0.203 C  
HETATM    7  O   UNL     1      -9.771  17.440  69.010  1.00  0.00    -0.264 OA 
BRANCH   6   8
HETATM    8  N   UNL     1      -7.579  16.935  68.588  1.00  0.00    -0.221 N  
HETATM    9  H   UNL     1      -6.956  16.783  69.381  1.00  0.00     0.000 HD 
BRANCH   8  10
HETATM   10  S   UNL     1      -7.266  16.117  67.173  1.00  0.00    -0.225 S  
HETATM   11  O   UNL     1      -6.281  15.093  67.439  1.00  0.00    -0.312 OA 
HETATM   12  O   UNL     1      -7.021  17.141  66.177  1.00  0.00    -0.246 OA 
BRANCH  10  13
HETATM   13  C   UNL     1      -8.814  15.352  66.751  1.00  0.00    -0.269 A  
HETATM   14  C   UNL     1      -9.458  15.707  65.560  1.00  0.00    -0.164 A  
HETATM   15  C   UNL     1     -10.685  15.121  65.242  1.00  0.00    -0.422 A  
HETATM   16  C   UNL     1     -11.252  14.179  66.104  1.00  0.00    -0.326 A  
HETATM   17  C   UNL     1     -10.602  13.815  67.283  1.00  0.00    -0.275 A  
HETATM   18 CL   UNL     1     -12.767  13.465  65.710  1.00  0.00    -0.453 Cl 
HETATM   19  C   UNL     1      -9.377  14.402  67.611  1.00  0.00    -0.200 A  
ENDBRANCH  10  13
ENDBRANCH   8  10
ENDBRANCH   6   8
ENDBRANCH   4   6
ENDBRANCH   3   4
ENDBRANCH   2   3
TORSDOF 6
ENDMDL
MODEL      142
REMARK 921   NORMALIZED FREE ENERGY PREDICTED BY IDOCK:   -3.72 KCAL/MOL
REMARK 922        TOTAL FREE ENERGY PREDICTED BY IDOCK:   -5.72 KCAL/MOL
REMARK 923 INTER-LIGAND FREE ENERGY PREDICTED BY IDOCK:   -5.09 KCAL/MOL
REMARK 924 INTRA-LIGAND FREE ENERGY PREDICTED BY IDOCK:   -0.63 KCAL/MOL
REMARK 927      BINDING AFFINITY PREDICTED BY RF-SCORE:    0.00 PKD
ROOT
HETATM    1  C   UNL     1      -7.899   8.994  64.980  1.00  0.00    -0.113 C  
HETATM    2  C   UNL     1      -9.245   9.688  64.828  1.00  0.00    -0.298 C  
ENDROOT
BRANCH   2   3
HETATM    3  C   UNL     1     -10.101   9.589  66.089  1.00  0.00    -0.256 C  
BRANCH   3   4
HETATM    4  N   UNL     1      -9.521  10.278  67.225  1.00  0.00    -0.149 N  
HETATM    5  H   UNL     1      -8.527  10.508  67.220  1.00  0.00     0.000 HD 
BRANCH   4   6
HETATM    6  C   UNL     1     -10.286  10.623  68.300  1.00  0.00    -0.166 C  
HETATM    7  O   UNL     1      -9.984  10.367  69.453  1.00  0.00    -0.216 OA 
BRANCH   6   8
HETATM    8  N   UNL     1     -11.425  11.328  67.957  1.00  0.00    -0.297 N  
HETATM    9  H   UNL     1     -12.323  10.847  68.006  1.00  0.00     0.000 HD 
BRANCH   8  10
HETATM   10  S   UNL     1     -11.412  12.920  67.469  1.00  0.00    -0.357 S  
HETATM   11  O   UNL     1     -12.499  13.127  66.540  1.00  0.00    -0.340 OA 
HETATM   12  O   UNL     1     -10.043  13.198  67.084  1.00  0.00    -0.237 OA 
BRANCH  10  13
HETATM   13  C   UNL     1     -11.723  13.842  68.957  1.00  0.00    -0.331 A  
HETATM   14  C   UNL     1     -11.437  15.212  68.992  1.00  0.00    -0.325 A  
HETATM   15  C   UNL     1     -11.662  15.929  70.170  1.00  0.00    -0.342 A  
HETATM   16  C   UNL     1     -12.179  15.280  71.293  1.00  0.00    -0.347 A  
HETATM   17  C   UNL     1     -12.478  13.919  71.252  1.00  0.00    -0.440 A  
HETATM   18 CL   UNL     1     -12.447  16.168  72.742  1.00  0.00    -0.553 Cl 
HETATM   19  C   UNL     1     -12.250  13.193  70.079  1.00  0.00    -0.323 A  
ENDBRANCH  10  13
ENDBRANCH   8  10
ENDBRANCH   6   8
ENDBRANCH   4   6
ENDBRANCH   3   4
ENDBRANCH   2   3
TORSDOF 6
ENDMDL
MODEL      143
REMARK 921   NORMALIZED FREE ENERGY PREDICTED BY IDOCK:   -3.71 KCAL/MOL
REMARK 922        TOTAL FREE ENERGY PREDICTED BY IDOCK:   -5.71 KCAL/MOL
REMARK 923 INTER-LIGAND FREE ENERGY PREDICTED BY IDOCK:   -5.16 KCAL/MOL
REMARK 924 INTRA-LIGAND FREE ENERGY PREDICTED BY IDOCK:   -0.55 KCAL/MOL
REMARK 927      BINDING AFFINITY PREDICTED BY RF-SCORE:    0.00 PKD
ROOT
HETATM    1  C   UNL     1     -10.579  19.631  67.638  1.00  0.00    -0.556 C  
HETATM    2  C   UNL     1     -10.649  18.112  67.573  1.00  0.00    -0.419 C  
ENDROOT
BRANCH   2   3
HETATM    3  C   UNL     1     -10.245  17.565  66.206  1.00  0.00    -0.355 C  
BRANCH   3   4
HETATM    4  N   UNL     1     -10.798  16.253  65.933  1.00  0.00    -0.202 N  
HETATM    5  H   UNL     1     -11.799  16.154  65.765  1.00  0.00     0.000 HD 
BRANCH   4   6
HETATM    6  C   UNL     1      -9.997  15.149  65.899  1.00  0.00    -0.328 C  
HETATM    7  O   UNL     1      -8.871  15.118  66.363  1.00  0.00    -0.285 OA 
BRANCH   6   8
HETATM    8  N   UNL     1     -10.604  14.051  65.317  1.00  0.00    -0.341 N  
HETATM    9  H   UNL     1     -10.448  13.885  64.323  1.00  0.00     0.000 HD 
BRANCH   8  10
HETATM   10  S   UNL     1     -11.575  12.986  66.150  1.00  0.00    -0.386 S  
HETATM   11  O   UNL     1     -12.623  12.527  65.266  1.00  0.00    -0.645 OA 
HETATM   12  O   UNL     1     -11.895  13.645  67.400  1.00  0.00    -0.359 OA 
BRANCH  10  13
HETATM   13  C   UNL     1     -10.501  11.626  66.548  1.00  0.00    -0.239 A  
HETATM   14  C   UNL     1     -10.551  11.059  67.826  1.00  0.00    -0.250 A  
HETATM   15  C   UNL     1      -9.690  10.005  68.143  1.00  0.00    -0.156 A  
HETATM   16  C   UNL     1      -8.800   9.519  67.183  1.00  0.00    -0.131 A  
HETATM   17  C   UNL     1      -8.763  10.075  65.904  1.00  0.00    -0.154 A  
HETATM   18 CL   UNL     1      -7.738   8.225  67.581  1.00  0.00    -0.098 Cl 
HETATM   19  C   UNL     1      -9.616  11.134  65.582  1.00  0.00    -0.259 A  
ENDBRANCH  10  13
ENDBRANCH   8  10
ENDBRANCH   6   8
ENDBRANCH   4   6
ENDBRANCH   3   4
ENDBRANCH   2   3
TORSDOF 6
ENDMDL
MODEL      144
REMARK 921   NORMALIZED FREE ENERGY PREDICTED BY IDOCK:   -3.70 KCAL/MOL
REMARK 922        TOTAL FREE ENERGY PREDICTED BY IDOCK:   -5.71 KCAL/MOL
REMARK 923 INTER-LIGAND FREE ENERGY PREDICTED BY IDOCK:   -5.03 KCAL/MOL
REMARK 924 INTRA-LIGAND FREE ENERGY PREDICTED BY IDOCK:   -0.68 KCAL/MOL
REMARK 927      BINDING AFFINITY PREDICTED BY RF-SCORE:    0.00 PKD
ROOT
HETATM    1  C   UNL     1     -10.284  12.704  64.595  1.00  0.00    -0.319 C  
HETATM    2  C   UNL     1     -11.711  12.367  65.003  1.00  0.00    -0.420 C  
ENDROOT
BRANCH   2   3
HETATM    3  C   UNL     1     -11.897  12.346  66.519  1.00  0.00    -0.339 C  
BRANCH   3   4
HETATM    4  N   UNL     1     -10.647  12.442  67.246  1.00  0.00    -0.221 N  
HETATM    5  H   UNL     1      -9.765  12.324  66.748  1.00  0.00     0.000 HD 
BRANCH   4   6
HETATM    6  C   UNL     1     -10.635  12.690  68.587  1.00  0.00    -0.222 C  
HETATM    7  O   UNL     1     -11.123  11.941  69.416  1.00  0.00    -0.222 OA 
BRANCH   6   8
HETATM    8  N   UNL     1      -9.979  13.861  68.922  1.00  0.00    -0.410 N  
HETATM    9  H   UNL     1      -8.973  13.819  69.087  1.00  0.00     0.000 HD 
BRANCH   8  10
HETATM   10  S   UNL     1     -10.739  15.334  69.068  1.00  0.00    -0.257 S  
HETATM   11  O   UNL     1     -10.679  15.749  70.452  1.00  0.00    -0.316 OA 
HETATM   12  O   UNL     1     -12.012  15.185  68.393  1.00  0.00    -0.299 OA 
BRANCH  10  13
HETATM   13  C   UNL     1      -9.760  16.439  68.077  1.00  0.00    -0.235 A  
HETATM   14  C   UNL     1      -9.054  15.937  66.978  1.00  0.00    -0.236 A  
HETATM   15  C   UNL     1      -8.266  16.803  66.215  1.00  0.00    -0.359 A  
HETATM   16  C   UNL     1      -8.202  18.159  66.545  1.00  0.00    -0.267 A  
HETATM   17  C   UNL     1      -8.919  18.660  67.631  1.00  0.00    -0.291 A  
HETATM   18 CL   UNL     1      -7.226  19.219  65.604  1.00  0.00    -0.284 Cl 
HETATM   19  C   UNL     1      -9.703  17.799  68.403  1.00  0.00    -0.333 A  
ENDBRANCH  10  13
ENDBRANCH   8  10
ENDBRANCH   6   8
ENDBRANCH   4   6
ENDBRANCH   3   4
ENDBRANCH   2   3
TORSDOF 6
ENDMDL
MODEL      145
REMARK 921   NORMALIZED FREE ENERGY PREDICTED BY IDOCK:   -3.70 KCAL/MOL
REMARK 922        TOTAL FREE ENERGY PREDICTED BY IDOCK:   -5.70 KCAL/MOL
REMARK 923 INTER-LIGAND FREE ENERGY PREDICTED BY IDOCK:   -5.53 KCAL/MOL
REMARK 924 INTRA-LIGAND FREE ENERGY PREDICTED BY IDOCK:   -0.18 KCAL/MOL
REMARK 927      BINDING AFFINITY PREDICTED BY RF-SCORE:    0.00 PKD
ROOT
HETATM    1  C   UNL     1     -12.823  15.146  70.827  1.00  0.00    -0.473 C  
HETATM    2  C   UNL     1     -12.034  15.743  69.671  1.00  0.00    -0.332 C  
ENDROOT
BRANCH   2   3
HETATM    3  C   UNL     1     -11.212  14.697  68.921  1.00  0.00    -0.267 C  
BRANCH   3   4
HETATM    4  N   UNL     1     -10.218  15.280  68.041  1.00  0.00    -0.229 N  
HETATM    5  H   UNL     1      -9.544  15.948  68.416  1.00  0.00     0.000 HD 
BRANCH   4   6
HETATM    6  C   UNL     1     -10.171  14.947  66.719  1.00  0.00    -0.259 C  
HETATM    7  O   UNL     1     -10.132  15.766  65.818  1.00  0.00    -0.319 OA 
BRANCH   6   8
HETATM    8  N   UNL     1     -10.135  13.581  66.500  1.00  0.00    -0.275 N  
HETATM    9  H   UNL     1      -9.347  13.054  66.876  1.00  0.00     0.000 HD 
BRANCH   8  10
HETATM   10  S   UNL     1     -11.307  12.752  65.658  1.00  0.00    -0.335 S  
HETATM   11  O   UNL     1     -11.940  13.661  64.730  1.00  0.00    -0.363 OA 
HETATM   12  O   UNL     1     -12.086  12.052  66.660  1.00  0.00    -0.615 OA 
BRANCH  10  13
HETATM   13  C   UNL     1     -10.408  11.514  64.751  1.00  0.00    -0.289 A  
HETATM   14  C   UNL     1      -9.793  10.464  65.442  1.00  0.00    -0.347 A  
HETATM   15  C   UNL     1      -9.068   9.505  64.729  1.00  0.00    -0.271 A  
HETATM   16  C   UNL     1      -8.975   9.594  63.338  1.00  0.00    -0.219 A  
HETATM   17  C   UNL     1      -9.602  10.633  62.650  1.00  0.00    -0.293 A  
HETATM   18 CL   UNL     1      -8.077   8.414  62.467  1.00  0.00    -0.161 Cl 
HETATM   19  C   UNL     1     -10.323  11.599  63.357  1.00  0.00    -0.482 A  
ENDBRANCH  10  13
ENDBRANCH   8  10
ENDBRANCH   6   8
ENDBRANCH   4   6
ENDBRANCH   3   4
ENDBRANCH   2   3
TORSDOF 6
ENDMDL
MODEL      146
REMARK 921   NORMALIZED FREE ENERGY PREDICTED BY IDOCK:   -3.70 KCAL/MOL
REMARK 922        TOTAL FREE ENERGY PREDICTED BY IDOCK:   -5.70 KCAL/MOL
REMARK 923 INTER-LIGAND FREE ENERGY PREDICTED BY IDOCK:   -4.92 KCAL/MOL
REMARK 924 INTRA-LIGAND FREE ENERGY PREDICTED BY IDOCK:   -0.79 KCAL/MOL
REMARK 927      BINDING AFFINITY PREDICTED BY RF-SCORE:    0.00 PKD
ROOT
HETATM    1  C   UNL     1      -5.538  13.290  68.366  1.00  0.00    -0.085 C  
HETATM    2  C   UNL     1      -6.694  13.912  67.595  1.00  0.00    -0.189 C  
ENDROOT
BRANCH   2   3
HETATM    3  C   UNL     1      -7.976  13.987  68.422  1.00  0.00    -0.143 C  
BRANCH   3   4
HETATM    4  N   UNL     1      -9.009  14.789  67.796  1.00  0.00    -0.178 N  
HETATM    5  H   UNL     1      -9.411  15.577  68.303  1.00  0.00     0.000 HD 
BRANCH   4   6
HETATM    6  C   UNL     1      -9.452  14.502  66.538  1.00  0.00    -0.289 C  
HETATM    7  O   UNL     1      -9.286  15.238  65.581  1.00  0.00    -0.282 OA 
BRANCH   6   8
HETATM    8  N   UNL     1     -10.077  13.272  66.446  1.00  0.00    -0.283 N  
HETATM    9  H   UNL     1      -9.606  12.530  65.927  1.00  0.00     0.000 HD 
BRANCH   8  10
HETATM   10  S   UNL     1     -11.554  12.934  67.134  1.00  0.00    -0.378 S  
HETATM   11  O   UNL     1     -12.399  12.317  66.136  1.00  0.00    -0.588 OA 
HETATM   12  O   UNL     1     -11.963  14.155  67.800  1.00  0.00    -0.366 OA 
BRANCH  10  13
HETATM   13  C   UNL     1     -11.189  11.752  68.411  1.00  0.00    -0.251 A  
HETATM   14  C   UNL     1     -12.066  11.612  69.493  1.00  0.00    -0.336 A  
HETATM   15  C   UNL     1     -11.764  10.699  70.507  1.00  0.00    -0.451 A  
HETATM   16  C   UNL     1     -10.603   9.927  70.426  1.00  0.00    -0.302 A  
HETATM   17  C   UNL     1      -9.738  10.057  69.340  1.00  0.00    -0.240 A  
HETATM   18 CL   UNL     1     -10.234   8.809  71.681  1.00  0.00    -0.365 Cl 
HETATM   19  C   UNL     1     -10.029  10.973  68.325  1.00  0.00    -0.190 A  
ENDBRANCH  10  13
ENDBRANCH   8  10
ENDBRANCH   6   8
ENDBRANCH   4   6
ENDBRANCH   3   4
ENDBRANCH   2   3
TORSDOF 6
ENDMDL
MODEL      147
REMARK 921   NORMALIZED FREE ENERGY PREDICTED BY IDOCK:   -3.69 KCAL/MOL
REMARK 922        TOTAL FREE ENERGY PREDICTED BY IDOCK:   -5.69 KCAL/MOL
REMARK 923 INTER-LIGAND FREE ENERGY PREDICTED BY IDOCK:   -5.85 KCAL/MOL
REMARK 924 INTRA-LIGAND FREE ENERGY PREDICTED BY IDOCK:    0.16 KCAL/MOL
REMARK 927      BINDING AFFINITY PREDICTED BY RF-SCORE:    0.00 PKD
ROOT
HETATM    1  C   UNL     1      -8.266  20.070  67.064  1.00  0.00    -0.364 C  
HETATM    2  C   UNL     1      -9.755  20.088  67.378  1.00  0.00    -0.550 C  
ENDROOT
BRANCH   2   3
HETATM    3  C   UNL     1     -10.169  18.958  68.319  1.00  0.00    -0.380 C  
BRANCH   3   4
HETATM    4  N   UNL     1     -10.641  17.780  67.619  1.00  0.00    -0.391 N  
HETATM    5  H   UNL     1     -10.775  17.815  66.609  1.00  0.00     0.000 HD 
BRANCH   4   6
HETATM    6  C   UNL     1     -10.908  16.625  68.294  1.00  0.00    -0.356 C  
HETATM    7  O   UNL     1     -11.894  16.465  68.992  1.00  0.00    -0.197 OA 
BRANCH   6   8
HETATM    8  N   UNL     1      -9.967  15.635  68.078  1.00  0.00    -0.221 N  
HETATM    9  H   UNL     1      -9.062  15.907  67.694  1.00  0.00     0.000 HD 
BRANCH   8  10
HETATM   10  S   UNL     1     -10.229  14.025  68.410  1.00  0.00    -0.240 S  
HETATM   11  O   UNL     1     -11.184  13.926  69.491  1.00  0.00    -0.243 OA 
HETATM   12  O   UNL     1      -8.913  13.431  68.526  1.00  0.00    -0.161 OA 
BRANCH  10  13
HETATM   13  C   UNL     1     -10.955  13.378  66.921  1.00  0.00    -0.284 A  
HETATM   14  C   UNL     1     -10.302  12.354  66.225  1.00  0.00    -0.267 A  
HETATM   15  C   UNL     1     -10.863  11.863  65.043  1.00  0.00    -0.351 A  
HETATM   16  C   UNL     1     -12.070  12.386  64.575  1.00  0.00    -0.417 A  
HETATM   17  C   UNL     1     -12.727  13.395  65.278  1.00  0.00    -0.481 A  
HETATM   18 CL   UNL     1     -12.752  11.781  63.115  1.00  0.00    -0.466 Cl 
HETATM   19  C   UNL     1     -12.169  13.896  66.457  1.00  0.00    -0.482 A  
ENDBRANCH  10  13
ENDBRANCH   8  10
ENDBRANCH   6   8
ENDBRANCH   4   6
ENDBRANCH   3   4
ENDBRANCH   2   3
TORSDOF 6
ENDMDL
MODEL      148
REMARK 921   NORMALIZED FREE ENERGY PREDICTED BY IDOCK:   -3.69 KCAL/MOL
REMARK 922        TOTAL FREE ENERGY PREDICTED BY IDOCK:   -5.69 KCAL/MOL
REMARK 923 INTER-LIGAND FREE ENERGY PREDICTED BY IDOCK:   -5.16 KCAL/MOL
REMARK 924 INTRA-LIGAND FREE ENERGY PREDICTED BY IDOCK:   -0.53 KCAL/MOL
REMARK 927      BINDING AFFINITY PREDICTED BY RF-SCORE:    0.00 PKD
ROOT
HETATM    1  C   UNL     1     -10.407   6.369  68.986  1.00  0.00    -0.238 C  
HETATM    2  C   UNL     1     -10.856   5.988  70.389  1.00  0.00    -0.386 C  
ENDROOT
BRANCH   2   3
HETATM    3  C   UNL     1     -12.260   6.493  70.713  1.00  0.00    -0.135 C  
BRANCH   3   4
HETATM    4  N   UNL     1     -12.266   7.819  71.299  1.00  0.00    -0.322 N  
HETATM    5  H   UNL     1     -11.391   8.229  71.624  1.00  0.00     0.000 HD 
BRANCH   4   6
HETATM    6  C   UNL     1     -13.426   8.525  71.421  1.00  0.00    -0.222 C  
HETATM    7  O   UNL     1     -14.369   8.161  72.101  1.00  0.00    -0.397 OA 
BRANCH   6   8
HETATM    8  N   UNL     1     -13.415   9.720  70.725  1.00  0.00    -0.588 N  
HETATM    9  H   UNL     1     -14.193   9.917  70.095  1.00  0.00     0.000 HD 
BRANCH   8  10
HETATM   10  S   UNL     1     -12.204  10.854  70.859  1.00  0.00    -0.379 S  
HETATM   11  O   UNL     1     -11.061  10.236  71.494  1.00  0.00     0.084 OA 
HETATM   12  O   UNL     1     -12.829  12.028  71.433  1.00  0.00    -0.381 OA 
BRANCH  10  13
HETATM   13  C   UNL     1     -11.793  11.263  69.177  1.00  0.00    -0.355 A  
HETATM   14  C   UNL     1     -11.312  10.266  68.322  1.00  0.00    -0.245 A  
HETATM   15  C   UNL     1     -10.968  10.595  67.008  1.00  0.00    -0.274 A  
HETATM   16  C   UNL     1     -11.120  11.908  66.557  1.00  0.00    -0.306 A  
HETATM   17  C   UNL     1     -11.615  12.898  67.406  1.00  0.00    -0.414 A  
HETATM   18 CL   UNL     1     -10.691  12.309  64.940  1.00  0.00    -0.320 Cl 
HETATM   19  C   UNL     1     -11.954  12.577  68.723  1.00  0.00    -0.283 A  
ENDBRANCH  10  13
ENDBRANCH   8  10
ENDBRANCH   6   8
ENDBRANCH   4   6
ENDBRANCH   3   4
ENDBRANCH   2   3
TORSDOF 6
ENDMDL
MODEL      149
REMARK 921   NORMALIZED FREE ENERGY PREDICTED BY IDOCK:   -3.69 KCAL/MOL
REMARK 922        TOTAL FREE ENERGY PREDICTED BY IDOCK:   -5.69 KCAL/MOL
REMARK 923 INTER-LIGAND FREE ENERGY PREDICTED BY IDOCK:   -4.95 KCAL/MOL
REMARK 924 INTRA-LIGAND FREE ENERGY PREDICTED BY IDOCK:   -0.74 KCAL/MOL
REMARK 927      BINDING AFFINITY PREDICTED BY RF-SCORE:    0.00 PKD
ROOT
HETATM    1  C   UNL     1     -12.005  13.153  70.118  1.00  0.00    -0.381 C  
HETATM    2  C   UNL     1     -11.974  12.116  69.004  1.00  0.00    -0.302 C  
ENDROOT
BRANCH   2   3
HETATM    3  C   UNL     1     -10.559  11.642  68.685  1.00  0.00    -0.209 C  
BRANCH   3   4
HETATM    4  N   UNL     1      -9.631  12.733  68.463  1.00  0.00    -0.379 N  
HETATM    5  H   UNL     1      -9.225  13.219  69.262  1.00  0.00     0.000 HD 
BRANCH   4   6
HETATM    6  C   UNL     1      -9.292  13.118  67.199  1.00  0.00    -0.235 C  
HETATM    7  O   UNL     1     -10.093  13.213  66.285  1.00  0.00    -0.272 OA 
BRANCH   6   8
HETATM    8  N   UNL     1      -7.951  13.430  67.062  1.00  0.00    -0.396 N  
HETATM    9  H   UNL     1      -7.388  12.865  66.427  1.00  0.00     0.000 HD 
BRANCH   8  10
HETATM   10  S   UNL     1      -7.207  14.675  67.878  1.00  0.00    -0.177 S  
HETATM   11  O   UNL     1      -5.941  14.955  67.238  1.00  0.00    -0.312 OA 
HETATM   12  O   UNL     1      -7.267  14.315  69.280  1.00  0.00    -0.125 OA 
BRANCH  10  13
HETATM   13  C   UNL     1      -8.298  16.063  67.658  1.00  0.00    -0.151 A  
HETATM   14  C   UNL     1      -8.337  16.720  66.423  1.00  0.00    -0.344 A  
HETATM   15  C   UNL     1      -9.179  17.824  66.261  1.00  0.00    -0.203 A  
HETATM   16  C   UNL     1      -9.980  18.252  67.322  1.00  0.00    -0.335 A  
HETATM   17  C   UNL     1      -9.951  17.585  68.546  1.00  0.00    -0.344 A  
HETATM   18 CL   UNL     1     -11.009  19.615  67.117  1.00  0.00    -0.525 Cl 
HETATM   19  C   UNL     1      -9.107  16.485  68.719  1.00  0.00    -0.256 A  
ENDBRANCH  10  13
ENDBRANCH   8  10
ENDBRANCH   6   8
ENDBRANCH   4   6
ENDBRANCH   3   4
ENDBRANCH   2   3
TORSDOF 6
ENDMDL
MODEL      150
REMARK 921   NORMALIZED FREE ENERGY PREDICTED BY IDOCK:   -3.69 KCAL/MOL
REMARK 922        TOTAL FREE ENERGY PREDICTED BY IDOCK:   -5.69 KCAL/MOL
REMARK 923 INTER-LIGAND FREE ENERGY PREDICTED BY IDOCK:   -5.03 KCAL/MOL
REMARK 924 INTRA-LIGAND FREE ENERGY PREDICTED BY IDOCK:   -0.66 KCAL/MOL
REMARK 927      BINDING AFFINITY PREDICTED BY RF-SCORE:    0.00 PKD
ROOT
HETATM    1  C   UNL     1      -9.906   4.682  66.986  1.00  0.00    -0.232 C  
HETATM    2  C   UNL     1      -9.507   5.980  66.299  1.00  0.00    -0.153 C  
ENDROOT
BRANCH   2   3
HETATM    3  C   UNL     1      -9.645   7.194  67.215  1.00  0.00    -0.143 C  
BRANCH   3   4
HETATM    4  N   UNL     1     -10.524   8.214  66.678  1.00  0.00    -0.420 N  
HETATM    5  H   UNL     1     -11.523   8.024  66.593  1.00  0.00     0.000 HD 
BRANCH   4   6
HETATM    6  C   UNL     1     -10.033   9.423  66.283  1.00  0.00    -0.283 C  
HETATM    7  O   UNL     1     -10.030   9.805  65.126  1.00  0.00    -0.309 OA 
BRANCH   6   8
HETATM    8  N   UNL     1      -9.571  10.195  67.334  1.00  0.00    -0.152 N  
HETATM    9  H   UNL     1      -8.563  10.300  67.447  1.00  0.00     0.000 HD 
BRANCH   8  10
HETATM   10  S   UNL     1     -10.569  10.963  68.422  1.00  0.00    -0.211 S  
HETATM   11  O   UNL     1     -11.923  10.922  67.916  1.00  0.00    -0.585 OA 
HETATM   12  O   UNL     1      -9.925  12.227  68.718  1.00  0.00    -0.155 OA 
BRANCH  10  13
HETATM   13  C   UNL     1     -10.460   9.975  69.897  1.00  0.00    -0.274 A  
HETATM   14  C   UNL     1     -11.616   9.721  70.644  1.00  0.00    -0.389 A  
HETATM   15  C   UNL     1     -11.524   8.964  71.814  1.00  0.00    -0.423 A  
HETATM   16  C   UNL     1     -10.287   8.457  72.220  1.00  0.00    -0.333 A  
HETATM   17  C   UNL     1      -9.139   8.698  71.466  1.00  0.00    -0.308 A  
HETATM   18 CL   UNL     1     -10.179   7.530  73.666  1.00  0.00    -0.378 Cl 
HETATM   19  C   UNL     1      -9.222   9.460  70.298  1.00  0.00    -0.285 A  
ENDBRANCH  10  13
ENDBRANCH   8  10
ENDBRANCH   6   8
ENDBRANCH   4   6
ENDBRANCH   3   4
ENDBRANCH   2   3
TORSDOF 6
ENDMDL
MODEL      151
REMARK 921   NORMALIZED FREE ENERGY PREDICTED BY IDOCK:   -3.69 KCAL/MOL
REMARK 922        TOTAL FREE ENERGY PREDICTED BY IDOCK:   -5.68 KCAL/MOL
REMARK 923 INTER-LIGAND FREE ENERGY PREDICTED BY IDOCK:   -4.79 KCAL/MOL
REMARK 924 INTRA-LIGAND FREE ENERGY PREDICTED BY IDOCK:   -0.89 KCAL/MOL
REMARK 927      BINDING AFFINITY PREDICTED BY RF-SCORE:    0.00 PKD
ROOT
HETATM    1  C   UNL     1     -11.135  13.765  64.539  1.00  0.00    -0.388 C  
HETATM    2  C   UNL     1     -11.250  12.250  64.619  1.00  0.00    -0.363 C  
ENDROOT
BRANCH   2   3
HETATM    3  C   UNL     1     -10.528  11.546  63.472  1.00  0.00    -0.428 C  
BRANCH   3   4
HETATM    4  N   UNL     1     -10.281  10.142  63.733  1.00  0.00    -0.425 N  
HETATM    5  H   UNL     1     -10.806   9.435  63.219  1.00  0.00     0.000 HD 
BRANCH   4   6
HETATM    6  C   UNL     1      -9.357   9.754  64.658  1.00  0.00    -0.256 C  
HETATM    7  O   UNL     1      -8.211  10.167  64.681  1.00  0.00    -0.155 OA 
BRANCH   6   8
HETATM    8  N   UNL     1      -9.859   8.869  65.595  1.00  0.00    -0.453 N  
HETATM    9  H   UNL     1     -10.446   8.102  65.267  1.00  0.00     0.000 HD 
BRANCH   8  10
HETATM   10  S   UNL     1      -9.557   8.986  67.228  1.00  0.00    -0.169 S  
HETATM   11  O   UNL     1      -8.131   8.894  67.442  1.00  0.00    -0.107 OA 
HETATM   12  O   UNL     1     -10.466   8.051  67.861  1.00  0.00    -0.219 OA 
BRANCH  10  13
HETATM   13  C   UNL     1     -10.115  10.617  67.665  1.00  0.00    -0.177 A  
HETATM   14  C   UNL     1      -9.208  11.683  67.651  1.00  0.00    -0.178 A  
HETATM   15  C   UNL     1      -9.644  12.959  68.017  1.00  0.00    -0.221 A  
HETATM   16  C   UNL     1     -10.978  13.163  68.378  1.00  0.00    -0.262 A  
HETATM   17  C   UNL     1     -11.884  12.103  68.376  1.00  0.00    -0.360 A  
HETATM   18 CL   UNL     1     -11.507  14.736  68.834  1.00  0.00    -0.302 Cl 
HETATM   19  C   UNL     1     -11.454  10.822  68.018  1.00  0.00    -0.333 A  
ENDBRANCH  10  13
ENDBRANCH   8  10
ENDBRANCH   6   8
ENDBRANCH   4   6
ENDBRANCH   3   4
ENDBRANCH   2   3
TORSDOF 6
ENDMDL
MODEL      152
REMARK 921   NORMALIZED FREE ENERGY PREDICTED BY IDOCK:   -3.68 KCAL/MOL
REMARK 922        TOTAL FREE ENERGY PREDICTED BY IDOCK:   -5.68 KCAL/MOL
REMARK 923 INTER-LIGAND FREE ENERGY PREDICTED BY IDOCK:   -5.16 KCAL/MOL
REMARK 924 INTRA-LIGAND FREE ENERGY PREDICTED BY IDOCK:   -0.52 KCAL/MOL
REMARK 927      BINDING AFFINITY PREDICTED BY RF-SCORE:    0.00 PKD
ROOT
HETATM    1  C   UNL     1      -8.243   7.902  67.368  1.00  0.00    -0.123 C  
HETATM    2  C   UNL     1      -9.574   7.791  66.640  1.00  0.00    -0.286 C  
ENDROOT
BRANCH   2   3
HETATM    3  C   UNL     1     -10.261   9.144  66.466  1.00  0.00    -0.252 C  
BRANCH   3   4
HETATM    4  N   UNL     1     -10.146   9.670  65.120  1.00  0.00    -0.325 N  
HETATM    5  H   UNL     1     -10.675   9.236  64.363  1.00  0.00     0.000 HD 
BRANCH   4   6
HETATM    6  C   UNL     1      -9.341  10.738  64.852  1.00  0.00    -0.222 C  
HETATM    7  O   UNL     1      -8.165  10.791  65.167  1.00  0.00    -0.137 OA 
BRANCH   6   8
HETATM    8  N   UNL     1      -9.981  11.744  64.151  1.00  0.00    -0.330 N  
HETATM    9  H   UNL     1      -9.638  11.974  63.218  1.00  0.00     0.000 HD 
BRANCH   8  10
HETATM   10  S   UNL     1     -11.279  12.598  64.745  1.00  0.00    -0.318 S  
HETATM   11  O   UNL     1     -11.842  11.870  65.859  1.00  0.00    -0.466 OA 
HETATM   12  O   UNL     1     -12.089  12.931  63.590  1.00  0.00    -0.476 OA 
BRANCH  10  13
HETATM   13  C   UNL     1     -10.575  14.123  65.331  1.00  0.00    -0.346 A  
HETATM   14  C   UNL     1     -11.102  15.341  64.888  1.00  0.00    -0.435 A  
HETATM   15  C   UNL     1     -10.532  16.537  65.333  1.00  0.00    -0.291 A  
HETATM   16  C   UNL     1      -9.456  16.507  66.223  1.00  0.00    -0.310 A  
HETATM   17  C   UNL     1      -8.943  15.292  66.676  1.00  0.00    -0.324 A  
HETATM   18 CL   UNL     1      -8.755  17.983  66.762  1.00  0.00    -0.258 Cl 
HETATM   19  C   UNL     1      -9.503  14.092  66.230  1.00  0.00    -0.264 A  
ENDBRANCH  10  13
ENDBRANCH   8  10
ENDBRANCH   6   8
ENDBRANCH   4   6
ENDBRANCH   3   4
ENDBRANCH   2   3
TORSDOF 6
ENDMDL
MODEL      153
REMARK 921   NORMALIZED FREE ENERGY PREDICTED BY IDOCK:   -3.67 KCAL/MOL
REMARK 922        TOTAL FREE ENERGY PREDICTED BY IDOCK:   -5.66 KCAL/MOL
REMARK 923 INTER-LIGAND FREE ENERGY PREDICTED BY IDOCK:   -5.36 KCAL/MOL
REMARK 924 INTRA-LIGAND FREE ENERGY PREDICTED BY IDOCK:   -0.30 KCAL/MOL
REMARK 927      BINDING AFFINITY PREDICTED BY RF-SCORE:    0.00 PKD
ROOT
HETATM    1  C   UNL     1     -11.643   6.436  70.228  1.00  0.00    -0.451 C  
HETATM    2  C   UNL     1     -12.007   7.221  71.480  1.00  0.00    -0.349 C  
ENDROOT
BRANCH   2   3
HETATM    3  C   UNL     1     -12.452   8.648  71.167  1.00  0.00    -0.182 C  
BRANCH   3   4
HETATM    4  N   UNL     1     -11.404   9.628  71.375  1.00  0.00    -0.379 N  
HETATM    5  H   UNL     1     -11.498  10.315  72.123  1.00  0.00     0.000 HD 
BRANCH   4   6
HETATM    6  C   UNL     1     -10.293   9.643  70.584  1.00  0.00    -0.297 C  
HETATM    7  O   UNL     1      -9.197   9.256  70.953  1.00  0.00    -0.246 OA 
BRANCH   6   8
HETATM    8  N   UNL     1     -10.538  10.106  69.304  1.00  0.00    -0.215 N  
HETATM    9  H   UNL     1     -11.349  10.708  69.158  1.00  0.00     0.000 HD 
BRANCH   8  10
HETATM   10  S   UNL     1      -9.585   9.736  67.991  1.00  0.00    -0.144 S  
HETATM   11  O   UNL     1      -9.684   8.318  67.733  1.00  0.00    -0.148 OA 
HETATM   12  O   UNL     1      -8.301  10.355  68.254  1.00  0.00    -0.113 OA 
BRANCH  10  13
HETATM   13  C   UNL     1     -10.320  10.634  66.643  1.00  0.00    -0.241 A  
HETATM   14  C   UNL     1      -9.973  10.308  65.327  1.00  0.00    -0.387 A  
HETATM   15  C   UNL     1     -10.534  11.031  64.271  1.00  0.00    -0.427 A  
HETATM   16  C   UNL     1     -11.443  12.058  64.535  1.00  0.00    -0.319 A  
HETATM   17  C   UNL     1     -11.799  12.371  65.847  1.00  0.00    -0.467 A  
HETATM   18 CL   UNL     1     -12.127  12.948  63.230  1.00  0.00    -0.617 Cl 
HETATM   19  C   UNL     1     -11.237  11.658  66.908  1.00  0.00    -0.376 A  
ENDBRANCH  10  13
ENDBRANCH   8  10
ENDBRANCH   6   8
ENDBRANCH   4   6
ENDBRANCH   3   4
ENDBRANCH   2   3
TORSDOF 6
ENDMDL
MODEL      154
REMARK 921   NORMALIZED FREE ENERGY PREDICTED BY IDOCK:   -3.64 KCAL/MOL
REMARK 922        TOTAL FREE ENERGY PREDICTED BY IDOCK:   -5.63 KCAL/MOL
REMARK 923 INTER-LIGAND FREE ENERGY PREDICTED BY IDOCK:   -5.21 KCAL/MOL
REMARK 924 INTRA-LIGAND FREE ENERGY PREDICTED BY IDOCK:   -0.42 KCAL/MOL
REMARK 927      BINDING AFFINITY PREDICTED BY RF-SCORE:    0.00 PKD
ROOT
HETATM    1  C   UNL     1      -5.400  12.676  67.917  1.00  0.00    -0.098 C  
HETATM    2  C   UNL     1      -6.757  12.347  67.311  1.00  0.00    -0.133 C  
ENDROOT
BRANCH   2   3
HETATM    3  C   UNL     1      -7.818  12.062  68.372  1.00  0.00    -0.147 C  
BRANCH   3   4
HETATM    4  N   UNL     1      -8.429  13.265  68.901  1.00  0.00    -0.355 N  
HETATM    5  H   UNL     1      -8.593  13.347  69.904  1.00  0.00     0.000 HD 
BRANCH   4   6
HETATM    6  C   UNL     1      -8.790  14.288  68.075  1.00  0.00    -0.178 C  
HETATM    7  O   UNL     1      -8.214  15.362  68.040  1.00  0.00    -0.139 OA 
BRANCH   6   8
HETATM    8  N   UNL     1      -9.854  13.976  67.249  1.00  0.00    -0.238 N  
HETATM    9  H   UNL     1      -9.720  13.253  66.543  1.00  0.00     0.000 HD 
BRANCH   8  10
HETATM   10  S   UNL     1     -11.343  14.715  67.344  1.00  0.00    -0.368 S  
HETATM   11  O   UNL     1     -12.327  13.852  66.731  1.00  0.00    -0.422 OA 
HETATM   12  O   UNL     1     -11.139  16.067  66.865  1.00  0.00    -0.200 OA 
BRANCH  10  13
HETATM   13  C   UNL     1     -11.667  14.834  69.089  1.00  0.00    -0.313 A  
HETATM   14  C   UNL     1     -11.314  16.000  69.778  1.00  0.00    -0.331 A  
HETATM   15  C   UNL     1     -11.549  16.082  71.153  1.00  0.00    -0.492 A  
HETATM   16  C   UNL     1     -12.144  15.011  71.823  1.00  0.00    -0.361 A  
HETATM   17  C   UNL     1     -12.509  13.856  71.132  1.00  0.00    -0.450 A  
HETATM   18 CL   UNL     1     -12.425  15.116  73.517  1.00  0.00    -0.610 Cl 
HETATM   19  C   UNL     1     -12.271  13.764  69.758  1.00  0.00    -0.368 A  
ENDBRANCH  10  13
ENDBRANCH   8  10
ENDBRANCH   6   8
ENDBRANCH   4   6
ENDBRANCH   3   4
ENDBRANCH   2   3
TORSDOF 6
ENDMDL
MODEL      155
REMARK 921   NORMALIZED FREE ENERGY PREDICTED BY IDOCK:   -3.63 KCAL/MOL
REMARK 922        TOTAL FREE ENERGY PREDICTED BY IDOCK:   -5.61 KCAL/MOL
REMARK 923 INTER-LIGAND FREE ENERGY PREDICTED BY IDOCK:   -5.18 KCAL/MOL
REMARK 924 INTRA-LIGAND FREE ENERGY PREDICTED BY IDOCK:   -0.43 KCAL/MOL
REMARK 927      BINDING AFFINITY PREDICTED BY RF-SCORE:    0.00 PKD
ROOT
HETATM    1  C   UNL     1      -8.446  13.560  67.669  1.00  0.00    -0.184 C  
HETATM    2  C   UNL     1      -8.552  14.575  68.798  1.00  0.00    -0.145 C  
ENDROOT
BRANCH   2   3
HETATM    3  C   UNL     1      -9.940  15.205  68.892  1.00  0.00    -0.227 C  
BRANCH   3   4
HETATM    4  N   UNL     1     -10.987  14.352  68.364  1.00  0.00    -0.241 N  
HETATM    5  H   UNL     1     -11.223  13.487  68.849  1.00  0.00     0.000 HD 
BRANCH   4   6
HETATM    6  C   UNL     1     -11.661  14.693  67.228  1.00  0.00    -0.387 C  
HETATM    7  O   UNL     1     -12.445  13.952  66.661  1.00  0.00    -0.407 OA 
BRANCH   6   8
HETATM    8  N   UNL     1     -11.395  15.981  66.800  1.00  0.00     0.109 N  
HETATM    9  H   UNL     1     -11.790  16.756  67.332  1.00  0.00     0.000 HD 
BRANCH   8  10
HETATM   10  S   UNL     1     -10.465  16.335  65.465  1.00  0.00    -0.310 S  
HETATM   11  O   UNL     1     -11.333  16.809  64.411  1.00  0.00    -1.089 OA 
HETATM   12  O   UNL     1      -9.614  15.180  65.265  1.00  0.00    -0.215 OA 
BRANCH  10  13
HETATM   13  C   UNL     1      -9.410  17.662  66.001  1.00  0.00    -0.044 A  
HETATM   14  C   UNL     1      -8.021  17.492  65.975  1.00  0.00    -0.192 A  
HETATM   15  C   UNL     1      -7.194  18.528  66.418  1.00  0.00    -0.270 A  
HETATM   16  C   UNL     1      -7.757  19.725  66.868  1.00  0.00    -0.272 A  
HETATM   17  C   UNL     1      -9.141  19.898  66.878  1.00  0.00    -0.452 A  
HETATM   18 CL   UNL     1      -6.734  20.995  67.417  1.00  0.00    -0.426 Cl 
HETATM   19  C   UNL     1      -9.974  18.864  66.443  1.00  0.00    -0.435 A  
ENDBRANCH  10  13
ENDBRANCH   8  10
ENDBRANCH   6   8
ENDBRANCH   4   6
ENDBRANCH   3   4
ENDBRANCH   2   3
TORSDOF 6
ENDMDL
MODEL      156
REMARK 921   NORMALIZED FREE ENERGY PREDICTED BY IDOCK:   -3.63 KCAL/MOL
REMARK 922        TOTAL FREE ENERGY PREDICTED BY IDOCK:   -5.60 KCAL/MOL
REMARK 923 INTER-LIGAND FREE ENERGY PREDICTED BY IDOCK:   -4.93 KCAL/MOL
REMARK 924 INTRA-LIGAND FREE ENERGY PREDICTED BY IDOCK:   -0.68 KCAL/MOL
REMARK 927      BINDING AFFINITY PREDICTED BY RF-SCORE:    0.00 PKD
ROOT
HETATM    1  C   UNL     1      -7.071  19.670  68.139  1.00  0.00    -0.327 C  
HETATM    2  C   UNL     1      -7.199  18.437  67.256  1.00  0.00    -0.213 C  
ENDROOT
BRANCH   2   3
HETATM    3  C   UNL     1      -8.411  18.504  66.330  1.00  0.00    -0.258 C  
BRANCH   3   4
HETATM    4  N   UNL     1      -9.440  17.541  66.671  1.00  0.00    -0.266 N  
HETATM    5  H   UNL     1      -9.373  16.586  66.320  1.00  0.00     0.000 HD 
BRANCH   4   6
HETATM    6  C   UNL     1     -10.498  17.895  67.456  1.00  0.00    -0.390 C  
HETATM    7  O   UNL     1     -10.891  19.042  67.581  1.00  0.00    -0.438 OA 
BRANCH   6   8
HETATM    8  N   UNL     1     -11.109  16.817  68.070  1.00  0.00    -0.294 N  
HETATM    9  H   UNL     1     -12.060  16.578  67.790  1.00  0.00     0.000 HD 
BRANCH   8  10
HETATM   10  S   UNL     1     -10.377  15.887  69.241  1.00  0.00    -0.270 S  
HETATM   11  O   UNL     1     -11.188  15.927  70.437  1.00  0.00    -0.322 OA 
HETATM   12  O   UNL     1      -8.992  16.313  69.269  1.00  0.00    -0.244 OA 
BRANCH  10  13
HETATM   13  C   UNL     1     -10.392  14.240  68.572  1.00  0.00    -0.244 A  
HETATM   14  C   UNL     1     -11.606  13.551  68.463  1.00  0.00    -0.368 A  
HETATM   15  C   UNL     1     -11.612  12.248  67.958  1.00  0.00    -0.408 A  
HETATM   16  C   UNL     1     -10.416  11.651  67.555  1.00  0.00    -0.200 A  
HETATM   17  C   UNL     1      -9.209  12.345  67.650  1.00  0.00    -0.185 A  
HETATM   18 CL   UNL     1     -10.429  10.044  66.940  1.00  0.00    -0.296 Cl 
HETATM   19  C   UNL     1      -9.194  13.645  68.161  1.00  0.00    -0.204 A  
ENDBRANCH  10  13
ENDBRANCH   8  10
ENDBRANCH   6   8
ENDBRANCH   4   6
ENDBRANCH   3   4
ENDBRANCH   2   3
TORSDOF 6
ENDMDL
MODEL      157
REMARK 921   NORMALIZED FREE ENERGY PREDICTED BY IDOCK:   -3.62 KCAL/MOL
REMARK 922        TOTAL FREE ENERGY PREDICTED BY IDOCK:   -5.60 KCAL/MOL
REMARK 923 INTER-LIGAND FREE ENERGY PREDICTED BY IDOCK:   -5.15 KCAL/MOL
REMARK 924 INTRA-LIGAND FREE ENERGY PREDICTED BY IDOCK:   -0.45 KCAL/MOL
REMARK 927      BINDING AFFINITY PREDICTED BY RF-SCORE:    0.00 PKD
ROOT
HETATM    1  C   UNL     1      -8.099   7.259  70.365  1.00  0.00    -0.116 C  
HETATM    2  C   UNL     1      -9.527   6.738  70.305  1.00  0.00    -0.164 C  
ENDROOT
BRANCH   2   3
HETATM    3  C   UNL     1     -10.527   7.816  69.890  1.00  0.00    -0.232 C  
BRANCH   3   4
HETATM    4  N   UNL     1     -10.958   7.690  68.512  1.00  0.00    -0.417 N  
HETATM    5  H   UNL     1     -11.431   6.840  68.208  1.00  0.00     0.000 HD 
BRANCH   4   6
HETATM    6  C   UNL     1     -10.739   8.695  67.616  1.00  0.00    -0.124 C  
HETATM    7  O   UNL     1     -10.068   8.565  66.607  1.00  0.00    -0.265 OA 
BRANCH   6   8
HETATM    8  N   UNL     1     -11.386   9.873  67.946  1.00  0.00    -0.487 N  
HETATM    9  H   UNL     1     -12.375   9.826  68.191  1.00  0.00     0.000 HD 
BRANCH   8  10
HETATM   10  S   UNL     1     -10.640  11.360  67.966  1.00  0.00    -0.203 S  
HETATM   11  O   UNL     1     -10.817  11.983  66.674  1.00  0.00    -0.249 OA 
HETATM   12  O   UNL     1      -9.314  11.125  68.502  1.00  0.00    -0.178 OA 
BRANCH  10  13
HETATM   13  C   UNL     1     -11.531  12.287  69.195  1.00  0.00    -0.296 A  
HETATM   14  C   UNL     1     -11.704  13.665  69.028  1.00  0.00    -0.375 A  
HETATM   15  C   UNL     1     -12.385  14.394  70.006  1.00  0.00    -0.391 A  
HETATM   16  C   UNL     1     -12.898  13.743  71.130  1.00  0.00    -0.335 A  
HETATM   17  C   UNL     1     -12.739  12.366  71.286  1.00  0.00    -0.347 A  
HETATM   18 CL   UNL     1     -13.731  14.647  72.334  1.00  0.00    -0.528 Cl 
HETATM   19  C   UNL     1     -12.053  11.631  70.316  1.00  0.00    -0.443 A  
ENDBRANCH  10  13
ENDBRANCH   8  10
ENDBRANCH   6   8
ENDBRANCH   4   6
ENDBRANCH   3   4
ENDBRANCH   2   3
TORSDOF 6
ENDMDL
MODEL      158
REMARK 921   NORMALIZED FREE ENERGY PREDICTED BY IDOCK:   -3.62 KCAL/MOL
REMARK 922        TOTAL FREE ENERGY PREDICTED BY IDOCK:   -5.59 KCAL/MOL
REMARK 923 INTER-LIGAND FREE ENERGY PREDICTED BY IDOCK:   -4.99 KCAL/MOL
REMARK 924 INTRA-LIGAND FREE ENERGY PREDICTED BY IDOCK:   -0.61 KCAL/MOL
REMARK 927      BINDING AFFINITY PREDICTED BY RF-SCORE:    0.00 PKD
ROOT
HETATM    1  C   UNL     1      -6.667   8.483  68.917  1.00  0.00    -0.053 C  
HETATM    2  C   UNL     1      -7.979   8.517  68.147  1.00  0.00    -0.111 C  
ENDROOT
BRANCH   2   3
HETATM    3  C   UNL     1      -9.114   7.817  68.892  1.00  0.00    -0.141 C  
BRANCH   3   4
HETATM    4  N   UNL     1     -10.170   8.722  69.299  1.00  0.00    -0.206 N  
HETATM    5  H   UNL     1     -11.093   8.643  68.873  1.00  0.00     0.000 HD 
BRANCH   4   6
HETATM    6  C   UNL     1      -9.946   9.679  70.245  1.00  0.00    -0.270 C  
HETATM    7  O   UNL     1      -9.538   9.436  71.367  1.00  0.00    -0.230 OA 
BRANCH   6   8
HETATM    8  N   UNL     1     -10.191  10.963  69.792  1.00  0.00    -0.438 N  
HETATM    9  H   UNL     1      -9.392  11.564  69.591  1.00  0.00     0.000 HD 
BRANCH   8  10
HETATM   10  S   UNL     1     -11.718  11.582  69.558  1.00  0.00    -0.373 S  
HETATM   11  O   UNL     1     -12.434  11.534  70.814  1.00  0.00    -0.362 OA 
HETATM   12  O   UNL     1     -12.235  10.911  68.383  1.00  0.00    -0.540 OA 
BRANCH  10  13
HETATM   13  C   UNL     1     -11.444  13.278  69.100  1.00  0.00    -0.305 A  
HETATM   14  C   UNL     1     -11.753  14.297  70.009  1.00  0.00    -0.364 A  
HETATM   15  C   UNL     1     -11.557  15.630  69.638  1.00  0.00    -0.364 A  
HETATM   16  C   UNL     1     -11.045  15.933  68.375  1.00  0.00    -0.345 A  
HETATM   17  C   UNL     1     -10.723  14.916  67.476  1.00  0.00    -0.276 A  
HETATM   18 CL   UNL     1     -10.812  17.577  67.922  1.00  0.00    -0.331 Cl 
HETATM   19  C   UNL     1     -10.922  13.581  67.837  1.00  0.00    -0.275 A  
ENDBRANCH  10  13
ENDBRANCH   8  10
ENDBRANCH   6   8
ENDBRANCH   4   6
ENDBRANCH   3   4
ENDBRANCH   2   3
TORSDOF 6
ENDMDL
MODEL      159
REMARK 921   NORMALIZED FREE ENERGY PREDICTED BY IDOCK:   -3.61 KCAL/MOL
REMARK 922        TOTAL FREE ENERGY PREDICTED BY IDOCK:   -5.58 KCAL/MOL
REMARK 923 INTER-LIGAND FREE ENERGY PREDICTED BY IDOCK:   -4.97 KCAL/MOL
REMARK 924 INTRA-LIGAND FREE ENERGY PREDICTED BY IDOCK:   -0.61 KCAL/MOL
REMARK 927      BINDING AFFINITY PREDICTED BY RF-SCORE:    0.00 PKD
ROOT
HETATM    1  C   UNL     1     -10.258  14.650  65.747  1.00  0.00    -0.360 C  
HETATM    2  C   UNL     1     -11.559  14.164  66.367  1.00  0.00    -0.380 C  
ENDROOT
BRANCH   2   3
HETATM    3  C   UNL     1     -11.920  12.744  65.935  1.00  0.00    -0.449 C  
BRANCH   3   4
HETATM    4  N   UNL     1     -11.065  11.735  66.528  1.00  0.00    -0.299 N  
HETATM    5  H   UNL     1     -10.277  11.366  65.996  1.00  0.00     0.000 HD 
BRANCH   4   6
HETATM    6  C   UNL     1     -11.300  11.272  67.790  1.00  0.00    -0.285 C  
HETATM    7  O   UNL     1     -12.377  11.364  68.352  1.00  0.00    -0.505 OA 
BRANCH   6   8
HETATM    8  N   UNL     1     -10.203  10.651  68.358  1.00  0.00    -0.166 N  
HETATM    9  H   UNL     1      -9.664  11.166  69.053  1.00  0.00     0.000 HD 
BRANCH   8  10
HETATM   10  S   UNL     1      -9.714   9.108  67.969  1.00  0.00    -0.160 S  
HETATM   11  O   UNL     1      -8.269   9.064  67.983  1.00  0.00    -0.109 OA 
HETATM   12  O   UNL     1     -10.456   8.752  66.776  1.00  0.00    -0.275 OA 
BRANCH  10  13
HETATM   13  C   UNL     1     -10.348   8.097  69.287  1.00  0.00    -0.217 A  
HETATM   14  C   UNL     1     -10.646   8.682  70.523  1.00  0.00    -0.248 A  
HETATM   15  C   UNL     1     -11.123   7.881  71.564  1.00  0.00    -0.278 A  
HETATM   16  C   UNL     1     -11.311   6.512  71.360  1.00  0.00    -0.294 A  
HETATM   17  C   UNL     1     -11.029   5.934  70.123  1.00  0.00    -0.412 A  
HETATM   18 CL   UNL     1     -11.893   5.531  72.648  1.00  0.00    -0.270 Cl 
HETATM   19  C   UNL     1     -10.545   6.727  69.079  1.00  0.00    -0.258 A  
ENDBRANCH  10  13
ENDBRANCH   8  10
ENDBRANCH   6   8
ENDBRANCH   4   6
ENDBRANCH   3   4
ENDBRANCH   2   3
TORSDOF 6
ENDMDL
MODEL      160
REMARK 921   NORMALIZED FREE ENERGY PREDICTED BY IDOCK:   -3.61 KCAL/MOL
REMARK 922        TOTAL FREE ENERGY PREDICTED BY IDOCK:   -5.58 KCAL/MOL
REMARK 923 INTER-LIGAND FREE ENERGY PREDICTED BY IDOCK:   -5.14 KCAL/MOL
REMARK 924 INTRA-LIGAND FREE ENERGY PREDICTED BY IDOCK:   -0.44 KCAL/MOL
REMARK 927      BINDING AFFINITY PREDICTED BY RF-SCORE:    0.00 PKD
ROOT
HETATM    1  C   UNL     1      -6.751  11.576  67.102  1.00  0.00    -0.129 C  
HETATM    2  C   UNL     1      -8.188  11.871  66.700  1.00  0.00    -0.088 C  
ENDROOT
BRANCH   2   3
HETATM    3  C   UNL     1      -9.132  10.711  67.006  1.00  0.00    -0.144 C  
BRANCH   3   4
HETATM    4  N   UNL     1      -9.225   9.753  65.922  1.00  0.00    -0.172 N  
HETATM    5  H   UNL     1      -8.972   8.779  66.087  1.00  0.00     0.000 HD 
BRANCH   4   6
HETATM    6  C   UNL     1      -9.648  10.137  64.683  1.00  0.00    -0.315 C  
HETATM    7  O   UNL     1      -9.038   9.895  63.657  1.00  0.00    -0.241 OA 
BRANCH   6   8
HETATM    8  N   UNL     1     -10.862  10.799  64.701  1.00  0.00    -0.144 N  
HETATM    9  H   UNL     1     -11.638  10.369  65.205  1.00  0.00     0.000 HD 
BRANCH   8  10
HETATM   10  S   UNL     1     -11.127  12.259  63.946  1.00  0.00    -0.455 S  
HETATM   11  O   UNL     1     -12.405  12.205  63.272  1.00  0.00    -0.534 OA 
HETATM   12  O   UNL     1      -9.912  12.545  63.211  1.00  0.00    -0.348 OA 
BRANCH  10  13
HETATM   13  C   UNL     1     -11.211  13.437  65.276  1.00  0.00    -0.289 A  
HETATM   14  C   UNL     1     -10.642  14.705  65.111  1.00  0.00    -0.441 A  
HETATM   15  C   UNL     1     -10.689  15.620  66.165  1.00  0.00    -0.305 A  
HETATM   16  C   UNL     1     -11.313  15.269  67.365  1.00  0.00    -0.284 A  
HETATM   17  C   UNL     1     -11.893  14.011  67.522  1.00  0.00    -0.442 A  
HETATM   18 CL   UNL     1     -11.363  16.399  68.662  1.00  0.00    -0.339 Cl 
HETATM   19  C   UNL     1     -11.844  13.088  66.474  1.00  0.00    -0.464 A  
ENDBRANCH  10  13
ENDBRANCH   8  10
ENDBRANCH   6   8
ENDBRANCH   4   6
ENDBRANCH   3   4
ENDBRANCH   2   3
TORSDOF 6
ENDMDL
MODEL      161
REMARK 921   NORMALIZED FREE ENERGY PREDICTED BY IDOCK:   -3.61 KCAL/MOL
REMARK 922        TOTAL FREE ENERGY PREDICTED BY IDOCK:   -5.58 KCAL/MOL
REMARK 923 INTER-LIGAND FREE ENERGY PREDICTED BY IDOCK:   -4.98 KCAL/MOL
REMARK 924 INTRA-LIGAND FREE ENERGY PREDICTED BY IDOCK:   -0.59 KCAL/MOL
REMARK 927      BINDING AFFINITY PREDICTED BY RF-SCORE:    0.00 PKD
ROOT
HETATM    1  C   UNL     1      -9.172  18.281  67.489  1.00  0.00    -0.256 C  
HETATM    2  C   UNL     1      -9.311  16.765  67.478  1.00  0.00    -0.231 C  
ENDROOT
BRANCH   2   3
HETATM    3  C   UNL     1     -10.698  16.301  67.916  1.00  0.00    -0.329 C  
BRANCH   3   4
HETATM    4  N   UNL     1     -10.926  14.889  67.677  1.00  0.00    -0.290 N  
HETATM    5  H   UNL     1     -10.779  14.221  68.433  1.00  0.00     0.000 HD 
BRANCH   4   6
HETATM    6  C   UNL     1     -11.336  14.444  66.455  1.00  0.00    -0.350 C  
HETATM    7  O   UNL     1     -11.520  15.174  65.497  1.00  0.00    -0.312 OA 
BRANCH   6   8
HETATM    8  N   UNL     1     -11.488  13.070  66.397  1.00  0.00    -0.324 N  
HETATM    9  H   UNL     1     -12.419  12.696  66.216  1.00  0.00     0.000 HD 
BRANCH   8  10
HETATM   10  S   UNL     1     -10.235  11.995  66.604  1.00  0.00    -0.207 S  
HETATM   11  O   UNL     1      -9.007  12.741  66.767  1.00  0.00    -0.218 OA 
HETATM   12  O   UNL     1     -10.376  11.020  65.541  1.00  0.00    -0.255 OA 
BRANCH  10  13
HETATM   13  C   UNL     1     -10.620  11.154  68.124  1.00  0.00    -0.193 A  
HETATM   14  C   UNL     1     -11.844  11.399  68.756  1.00  0.00    -0.388 A  
HETATM   15  C   UNL     1     -12.134  10.755  69.962  1.00  0.00    -0.423 A  
HETATM   16  C   UNL     1     -11.211   9.865  70.516  1.00  0.00    -0.330 A  
HETATM   17  C   UNL     1      -9.998   9.610  69.876  1.00  0.00    -0.273 A  
HETATM   18 CL   UNL     1     -11.572   9.079  72.003  1.00  0.00    -0.434 Cl 
HETATM   19  C   UNL     1      -9.698  10.256  68.674  1.00  0.00    -0.171 A  
ENDBRANCH  10  13
ENDBRANCH   8  10
ENDBRANCH   6   8
ENDBRANCH   4   6
ENDBRANCH   3   4
ENDBRANCH   2   3
TORSDOF 6
ENDMDL
MODEL      162
REMARK 921   NORMALIZED FREE ENERGY PREDICTED BY IDOCK:   -3.59 KCAL/MOL
REMARK 922        TOTAL FREE ENERGY PREDICTED BY IDOCK:   -5.55 KCAL/MOL
REMARK 923 INTER-LIGAND FREE ENERGY PREDICTED BY IDOCK:   -4.86 KCAL/MOL
REMARK 924 INTRA-LIGAND FREE ENERGY PREDICTED BY IDOCK:   -0.69 KCAL/MOL
REMARK 927      BINDING AFFINITY PREDICTED BY RF-SCORE:    0.00 PKD
ROOT
HETATM    1  C   UNL     1      -5.846  13.207  67.758  1.00  0.00    -0.138 C  
HETATM    2  C   UNL     1      -6.749  12.871  68.936  1.00  0.00    -0.097 C  
ENDROOT
BRANCH   2   3
HETATM    3  C   UNL     1      -7.251  11.429  68.896  1.00  0.00    -0.113 C  
BRANCH   3   4
HETATM    4  N   UNL     1      -8.692  11.325  69.013  1.00  0.00    -0.369 N  
HETATM    5  H   UNL     1      -9.159  11.712  69.833  1.00  0.00     0.000 HD 
BRANCH   4   6
HETATM    6  C   UNL     1      -9.431  10.717  68.042  1.00  0.00    -0.160 C  
HETATM    7  O   UNL     1      -9.013   9.809  67.345  1.00  0.00    -0.134 OA 
BRANCH   6   8
HETATM    8  N   UNL     1     -10.721  11.209  67.947  1.00  0.00    -0.202 N  
HETATM    9  H   UNL     1     -11.490  10.597  68.219  1.00  0.00     0.000 HD 
BRANCH   8  10
HETATM   10  S   UNL     1     -11.086  12.743  67.416  1.00  0.00    -0.289 S  
HETATM   11  O   UNL     1     -12.323  12.692  66.671  1.00  0.00    -0.474 OA 
HETATM   12  O   UNL     1      -9.871  13.244  66.804  1.00  0.00    -0.249 OA 
BRANCH  10  13
HETATM   13  C   UNL     1     -11.332  13.682  68.906  1.00  0.00    -0.290 A  
HETATM   14  C   UNL     1     -12.015  13.102  69.981  1.00  0.00    -0.391 A  
HETATM   15  C   UNL     1     -12.227  13.849  71.143  1.00  0.00    -0.390 A  
HETATM   16  C   UNL     1     -11.746  15.158  71.227  1.00  0.00    -0.359 A  
HETATM   17  C   UNL     1     -11.052  15.729  70.160  1.00  0.00    -0.360 A  
HETATM   18 CL   UNL     1     -12.015  16.075  72.657  1.00  0.00    -0.605 Cl 
HETATM   19  C   UNL     1     -10.842  14.990  68.993  1.00  0.00    -0.242 A  
ENDBRANCH  10  13
ENDBRANCH   8  10
ENDBRANCH   6   8
ENDBRANCH   4   6
ENDBRANCH   3   4
ENDBRANCH   2   3
TORSDOF 6
ENDMDL
MODEL      163
REMARK 921   NORMALIZED FREE ENERGY PREDICTED BY IDOCK:   -3.57 KCAL/MOL
REMARK 922        TOTAL FREE ENERGY PREDICTED BY IDOCK:   -5.53 KCAL/MOL
REMARK 923 INTER-LIGAND FREE ENERGY PREDICTED BY IDOCK:   -4.86 KCAL/MOL
REMARK 924 INTRA-LIGAND FREE ENERGY PREDICTED BY IDOCK:   -0.66 KCAL/MOL
REMARK 927      BINDING AFFINITY PREDICTED BY RF-SCORE:    0.00 PKD
ROOT
HETATM    1  C   UNL     1      -9.941  18.366  66.825  1.00  0.00    -0.374 C  
HETATM    2  C   UNL     1      -8.979  17.293  66.339  1.00  0.00    -0.282 C  
ENDROOT
BRANCH   2   3
HETATM    3  C   UNL     1      -9.099  15.994  67.133  1.00  0.00    -0.208 C  
BRANCH   3   4
HETATM    4  N   UNL     1     -10.311  15.256  66.836  1.00  0.00    -0.272 N  
HETATM    5  H   UNL     1     -10.561  15.070  65.865  1.00  0.00     0.000 HD 
BRANCH   4   6
HETATM    6  C   UNL     1     -11.121  14.808  67.838  1.00  0.00    -0.293 C  
HETATM    7  O   UNL     1     -11.902  15.521  68.444  1.00  0.00    -0.351 OA 
BRANCH   6   8
HETATM    8  N   UNL     1     -10.997  13.451  68.075  1.00  0.00    -0.237 N  
HETATM    9  H   UNL     1     -10.491  13.152  68.909  1.00  0.00     0.000 HD 
BRANCH   8  10
HETATM   10  S   UNL     1     -11.630  12.279  67.077  1.00  0.00    -0.326 S  
HETATM   11  O   UNL     1     -12.412  12.924  66.046  1.00  0.00    -0.509 OA 
HETATM   12  O   UNL     1     -12.229  11.297  67.958  1.00  0.00    -0.621 OA 
BRANCH  10  13
HETATM   13  C   UNL     1     -10.207  11.508  66.342  1.00  0.00    -0.224 A  
HETATM   14  C   UNL     1     -10.379  10.603  65.288  1.00  0.00    -0.321 A  
HETATM   15  C   UNL     1      -9.261   9.981  64.728  1.00  0.00    -0.301 A  
HETATM   16  C   UNL     1      -7.984  10.276  65.212  1.00  0.00    -0.148 A  
HETATM   17  C   UNL     1      -7.813  11.189  66.251  1.00  0.00    -0.109 A  
HETATM   18 CL   UNL     1      -6.611   9.502  64.521  1.00  0.00    -0.090 Cl 
HETATM   19  C   UNL     1      -8.927  11.810  66.822  1.00  0.00    -0.196 A  
ENDBRANCH  10  13
ENDBRANCH   8  10
ENDBRANCH   6   8
ENDBRANCH   4   6
ENDBRANCH   3   4
ENDBRANCH   2   3
TORSDOF 6
ENDMDL
MODEL      164
REMARK 921   NORMALIZED FREE ENERGY PREDICTED BY IDOCK:   -3.56 KCAL/MOL
REMARK 922        TOTAL FREE ENERGY PREDICTED BY IDOCK:   -5.51 KCAL/MOL
REMARK 923 INTER-LIGAND FREE ENERGY PREDICTED BY IDOCK:   -4.70 KCAL/MOL
REMARK 924 INTRA-LIGAND FREE ENERGY PREDICTED BY IDOCK:   -0.81 KCAL/MOL
REMARK 927      BINDING AFFINITY PREDICTED BY RF-SCORE:    0.00 PKD
ROOT
HETATM    1  C   UNL     1      -9.960   8.311  67.132  1.00  0.00    -0.307 C  
HETATM    2  C   UNL     1     -10.301   6.841  66.938  1.00  0.00    -0.324 C  
ENDROOT
BRANCH   2   3
HETATM    3  C   UNL     1     -10.866   6.199  68.202  1.00  0.00    -0.306 C  
BRANCH   3   4
HETATM    4  N   UNL     1      -9.838   5.693  69.091  1.00  0.00    -0.150 N  
HETATM    5  H   UNL     1      -8.874   6.004  68.974  1.00  0.00     0.000 HD 
BRANCH   4   6
HETATM    6  C   UNL     1     -10.144   4.808  70.083  1.00  0.00    -0.240 C  
HETATM    7  O   UNL     1      -9.756   3.653  70.100  1.00  0.00    -0.192 OA 
BRANCH   6   8
HETATM    8  N   UNL     1     -10.909   5.362  71.094  1.00  0.00    -0.172 N  
HETATM    9  H   UNL     1     -11.897   5.115  71.140  1.00  0.00     0.000 HD 
BRANCH   8  10
HETATM   10  S   UNL     1     -10.305   6.409  72.239  1.00  0.00    -0.196 S  
HETATM   11  O   UNL     1      -8.874   6.509  72.064  1.00  0.00    -0.133 OA 
HETATM   12  O   UNL     1     -10.872   5.976  73.500  1.00  0.00    -0.261 OA 
BRANCH  10  13
HETATM   13  C   UNL     1     -11.058   7.973  71.849  1.00  0.00    -0.276 A  
HETATM   14  C   UNL     1     -10.414   8.847  70.967  1.00  0.00    -0.316 A  
HETATM   15  C   UNL     1     -10.996  10.085  70.680  1.00  0.00    -0.392 A  
HETATM   16  C   UNL     1     -12.217  10.432  71.263  1.00  0.00    -0.389 A  
HETATM   17  C   UNL     1     -12.866   9.552  72.130  1.00  0.00    -0.471 A  
HETATM   18 CL   UNL     1     -12.927  11.959  70.911  1.00  0.00    -0.190 Cl 
HETATM   19  C   UNL     1     -12.286   8.316  72.426  1.00  0.00    -0.385 A  
ENDBRANCH  10  13
ENDBRANCH   8  10
ENDBRANCH   6   8
ENDBRANCH   4   6
ENDBRANCH   3   4
ENDBRANCH   2   3
TORSDOF 6
ENDMDL
MODEL      165
REMARK 921   NORMALIZED FREE ENERGY PREDICTED BY IDOCK:   -3.56 KCAL/MOL
REMARK 922        TOTAL FREE ENERGY PREDICTED BY IDOCK:   -5.51 KCAL/MOL
REMARK 923 INTER-LIGAND FREE ENERGY PREDICTED BY IDOCK:   -4.60 KCAL/MOL
REMARK 924 INTRA-LIGAND FREE ENERGY PREDICTED BY IDOCK:   -0.91 KCAL/MOL
REMARK 927      BINDING AFFINITY PREDICTED BY RF-SCORE:    0.00 PKD
ROOT
HETATM    1  C   UNL     1      -6.976  20.660  67.592  1.00  0.00    -0.376 C  
HETATM    2  C   UNL     1      -6.941  19.351  68.368  1.00  0.00    -0.323 C  
ENDROOT
BRANCH   2   3
HETATM    3  C   UNL     1      -8.177  19.155  69.242  1.00  0.00    -0.008 C  
BRANCH   3   4
HETATM    4  N   UNL     1      -9.404  19.051  68.477  1.00  0.00    -0.358 N  
HETATM    5  H   UNL     1      -9.720  19.846  67.922  1.00  0.00     0.000 HD 
BRANCH   4   6
HETATM    6  C   UNL     1     -10.142  17.904  68.489  1.00  0.00    -0.391 C  
HETATM    7  O   UNL     1     -10.455  17.314  69.508  1.00  0.00    -0.276 OA 
BRANCH   6   8
HETATM    8  N   UNL     1     -10.534  17.493  67.228  1.00  0.00    -0.342 N  
HETATM    9  H   UNL     1     -11.530  17.498  67.008  1.00  0.00     0.000 HD 
BRANCH   8  10
HETATM   10  S   UNL     1      -9.471  16.991  66.050  1.00  0.00    -0.100 S  
HETATM   11  O   UNL     1      -8.591  18.090  65.723  1.00  0.00    -0.490 OA 
HETATM   12  O   UNL     1     -10.287  16.364  65.029  1.00  0.00    -0.615 OA 
BRANCH  10  13
HETATM   13  C   UNL     1      -8.533  15.693  66.824  1.00  0.00    -0.272 A  
HETATM   14  C   UNL     1      -7.195  15.920  67.166  1.00  0.00    -0.254 A  
HETATM   15  C   UNL     1      -6.454  14.891  67.753  1.00  0.00    -0.183 A  
HETATM   16  C   UNL     1      -7.055  13.656  68.006  1.00  0.00    -0.132 A  
HETATM   17  C   UNL     1      -8.393  13.437  67.679  1.00  0.00    -0.179 A  
HETATM   18 CL   UNL     1      -6.135  12.391  68.724  1.00  0.00    -0.065 Cl 
HETATM   19  C   UNL     1      -9.138  14.459  67.085  1.00  0.00    -0.238 A  
ENDBRANCH  10  13
ENDBRANCH   8  10
ENDBRANCH   6   8
ENDBRANCH   4   6
ENDBRANCH   3   4
ENDBRANCH   2   3
TORSDOF 6
ENDMDL
MODEL      166
REMARK 921   NORMALIZED FREE ENERGY PREDICTED BY IDOCK:   -3.53 KCAL/MOL
REMARK 922        TOTAL FREE ENERGY PREDICTED BY IDOCK:   -5.48 KCAL/MOL
REMARK 923 INTER-LIGAND FREE ENERGY PREDICTED BY IDOCK:   -4.76 KCAL/MOL
REMARK 924 INTRA-LIGAND FREE ENERGY PREDICTED BY IDOCK:   -0.71 KCAL/MOL
REMARK 927      BINDING AFFINITY PREDICTED BY RF-SCORE:    0.00 PKD
ROOT
HETATM    1  C   UNL     1     -10.822   9.846  67.864  1.00  0.00    -0.312 C  
HETATM    2  C   UNL     1     -10.717  10.546  69.212  1.00  0.00    -0.269 C  
ENDROOT
BRANCH   2   3
HETATM    3  C   UNL     1     -11.832  11.566  69.430  1.00  0.00    -0.350 C  
BRANCH   3   4
HETATM    4  N   UNL     1     -11.366  12.937  69.375  1.00  0.00    -0.408 N  
HETATM    5  H   UNL     1     -10.678  13.262  70.054  1.00  0.00     0.000 HD 
BRANCH   4   6
HETATM    6  C   UNL     1     -11.834  13.799  68.427  1.00  0.00    -0.376 C  
HETATM    7  O   UNL     1     -11.999  14.991  68.621  1.00  0.00    -0.313 OA 
BRANCH   6   8
HETATM    8  N   UNL     1     -12.071  13.193  67.206  1.00  0.00    -0.325 N  
HETATM    9  H   UNL     1     -12.872  12.567  67.127  1.00  0.00     0.000 HD 
BRANCH   8  10
HETATM   10  S   UNL     1     -11.120  13.429  65.861  1.00  0.00    -0.282 S  
HETATM   11  O   UNL     1     -11.639  14.557  65.120  1.00  0.00    -0.347 OA 
HETATM   12  O   UNL     1     -10.994  12.127  65.238  1.00  0.00    -0.288 OA 
BRANCH  10  13
HETATM   13  C   UNL     1      -9.519  13.840  66.516  1.00  0.00    -0.269 A  
HETATM   14  C   UNL     1      -9.085  15.171  66.493  1.00  0.00    -0.328 A  
HETATM   15  C   UNL     1      -7.817  15.488  66.989  1.00  0.00    -0.260 A  
HETATM   16  C   UNL     1      -7.003  14.481  67.513  1.00  0.00    -0.164 A  
HETATM   17  C   UNL     1      -7.443  13.159  67.549  1.00  0.00    -0.164 A  
HETATM   18 CL   UNL     1      -5.440  14.877  68.115  1.00  0.00    -0.114 Cl 
HETATM   19  C   UNL     1      -8.706  12.833  67.050  1.00  0.00    -0.197 A  
ENDBRANCH  10  13
ENDBRANCH   8  10
ENDBRANCH   6   8
ENDBRANCH   4   6
ENDBRANCH   3   4
ENDBRANCH   2   3
TORSDOF 6
ENDMDL
MODEL      167
REMARK 921   NORMALIZED FREE ENERGY PREDICTED BY IDOCK:   -3.53 KCAL/MOL
REMARK 922        TOTAL FREE ENERGY PREDICTED BY IDOCK:   -5.47 KCAL/MOL
REMARK 923 INTER-LIGAND FREE ENERGY PREDICTED BY IDOCK:   -4.90 KCAL/MOL
REMARK 924 INTRA-LIGAND FREE ENERGY PREDICTED BY IDOCK:   -0.57 KCAL/MOL
REMARK 927      BINDING AFFINITY PREDICTED BY RF-SCORE:    0.00 PKD
ROOT
HETATM    1  C   UNL     1     -11.977  15.109  69.425  1.00  0.00    -0.337 C  
HETATM    2  C   UNL     1     -11.435  15.046  68.004  1.00  0.00    -0.357 C  
ENDROOT
BRANCH   2   3
HETATM    3  C   UNL     1     -11.990  13.861  67.217  1.00  0.00    -0.411 C  
BRANCH   3   4
HETATM    4  N   UNL     1     -11.169  12.672  67.326  1.00  0.00    -0.282 N  
HETATM    5  H   UNL     1     -10.475  12.472  66.606  1.00  0.00     0.000 HD 
BRANCH   4   6
HETATM    6  C   UNL     1     -11.312  11.816  68.378  1.00  0.00    -0.270 C  
HETATM    7  O   UNL     1     -12.334  11.193  68.608  1.00  0.00    -0.549 OA 
BRANCH   6   8
HETATM    8  N   UNL     1     -10.165  11.693  69.143  1.00  0.00    -0.416 N  
HETATM    9  H   UNL     1      -9.992  12.391  69.866  1.00  0.00     0.000 HD 
BRANCH   8  10
HETATM   10  S   UNL     1      -9.054  10.470  68.948  1.00  0.00    -0.177 S  
HETATM   11  O   UNL     1      -7.774  10.925  69.442  1.00  0.00    -0.134 OA 
HETATM   12  O   UNL     1      -9.204  10.021  67.578  1.00  0.00    -0.137 OA 
BRANCH  10  13
HETATM   13  C   UNL     1      -9.654   9.157  69.986  1.00  0.00    -0.197 A  
HETATM   14  C   UNL     1     -10.589   8.248  69.477  1.00  0.00    -0.216 A  
HETATM   15  C   UNL     1     -11.076   7.230  70.302  1.00  0.00    -0.289 A  
HETATM   16  C   UNL     1     -10.619   7.121  71.617  1.00  0.00    -0.207 A  
HETATM   17  C   UNL     1      -9.676   8.019  72.118  1.00  0.00    -0.283 A  
HETATM   18 CL   UNL     1     -11.227   5.870  72.630  1.00  0.00    -0.320 Cl 
HETATM   19  C   UNL     1      -9.189   9.042  71.301  1.00  0.00    -0.314 A  
ENDBRANCH  10  13
ENDBRANCH   8  10
ENDBRANCH   6   8
ENDBRANCH   4   6
ENDBRANCH   3   4
ENDBRANCH   2   3
TORSDOF 6
ENDMDL
MODEL      168
REMARK 921   NORMALIZED FREE ENERGY PREDICTED BY IDOCK:   -3.52 KCAL/MOL
REMARK 922        TOTAL FREE ENERGY PREDICTED BY IDOCK:   -5.46 KCAL/MOL
REMARK 923 INTER-LIGAND FREE ENERGY PREDICTED BY IDOCK:   -4.80 KCAL/MOL
REMARK 924 INTRA-LIGAND FREE ENERGY PREDICTED BY IDOCK:   -0.67 KCAL/MOL
REMARK 927      BINDING AFFINITY PREDICTED BY RF-SCORE:    0.00 PKD
ROOT
HETATM    1  C   UNL     1     -11.771  10.003  71.157  1.00  0.00    -0.472 C  
HETATM    2  C   UNL     1     -11.214  10.028  69.741  1.00  0.00    -0.307 C  
ENDROOT
BRANCH   2   3
HETATM    3  C   UNL     1     -10.796   8.644  69.251  1.00  0.00    -0.065 C  
BRANCH   3   4
HETATM    4  N   UNL     1     -10.825   8.520  67.807  1.00  0.00    -0.495 N  
HETATM    5  H   UNL     1     -11.679   8.209  67.345  1.00  0.00     0.000 HD 
BRANCH   4   6
HETATM    6  C   UNL     1      -9.723   8.814  67.057  1.00  0.00    -0.198 C  
HETATM    7  O   UNL     1      -8.588   8.816  67.499  1.00  0.00    -0.125 OA 
BRANCH   6   8
HETATM    8  N   UNL     1     -10.018   9.073  65.731  1.00  0.00    -0.440 N  
HETATM    9  H   UNL     1     -10.426   8.323  65.173  1.00  0.00     0.000 HD 
BRANCH   8  10
HETATM   10  S   UNL     1      -9.744  10.542  64.996  1.00  0.00    -0.318 S  
HETATM   11  O   UNL     1     -10.559  10.621  63.805  1.00  0.00    -0.191 OA 
HETATM   12  O   UNL     1      -8.304  10.678  64.921  1.00  0.00    -0.160 OA 
BRANCH  10  13
HETATM   13  C   UNL     1     -10.311  11.742  66.180  1.00  0.00    -0.230 A  
HETATM   14  C   UNL     1      -9.432  12.209  67.163  1.00  0.00    -0.190 A  
HETATM   15  C   UNL     1      -9.887  13.135  68.106  1.00  0.00    -0.228 A  
HETATM   16  C   UNL     1     -11.205  13.595  68.051  1.00  0.00    -0.267 A  
HETATM   17  C   UNL     1     -12.075  13.139  67.061  1.00  0.00    -0.366 A  
HETATM   18 CL   UNL     1     -11.760  14.730  69.219  1.00  0.00    -0.326 Cl 
HETATM   19  C   UNL     1     -11.629  12.208  66.119  1.00  0.00    -0.418 A  
ENDBRANCH  10  13
ENDBRANCH   8  10
ENDBRANCH   6   8
ENDBRANCH   4   6
ENDBRANCH   3   4
ENDBRANCH   2   3
TORSDOF 6
ENDMDL
MODEL      169
REMARK 921   NORMALIZED FREE ENERGY PREDICTED BY IDOCK:   -3.52 KCAL/MOL
REMARK 922        TOTAL FREE ENERGY PREDICTED BY IDOCK:   -5.46 KCAL/MOL
REMARK 923 INTER-LIGAND FREE ENERGY PREDICTED BY IDOCK:   -4.76 KCAL/MOL
REMARK 924 INTRA-LIGAND FREE ENERGY PREDICTED BY IDOCK:   -0.71 KCAL/MOL
REMARK 927      BINDING AFFINITY PREDICTED BY RF-SCORE:    0.00 PKD
ROOT
HETATM    1  C   UNL     1     -13.149  11.602  71.514  1.00  0.00    -0.405 C  
HETATM    2  C   UNL     1     -12.395  10.300  71.280  1.00  0.00    -0.506 C  
ENDROOT
BRANCH   2   3
HETATM    3  C   UNL     1     -13.270   9.069  71.499  1.00  0.00    -0.334 C  
BRANCH   3   4
HETATM    4  N   UNL     1     -12.811   8.232  72.590  1.00  0.00    -0.608 N  
HETATM    5  H   UNL     1     -13.364   8.171  73.445  1.00  0.00     0.000 HD 
BRANCH   4   6
HETATM    6  C   UNL     1     -11.650   7.524  72.488  1.00  0.00    -0.303 C  
HETATM    7  O   UNL     1     -10.696   7.682  73.230  1.00  0.00    -0.386 OA 
BRANCH   6   8
HETATM    8  N   UNL     1     -11.672   6.578  71.479  1.00  0.00    -0.312 N  
HETATM    9  H   UNL     1     -12.517   6.019  71.363  1.00  0.00     0.000 HD 
BRANCH   8  10
HETATM   10  S   UNL     1     -10.397   6.301  70.446  1.00  0.00    -0.220 S  
HETATM   11  O   UNL     1     -10.821   5.365  69.430  1.00  0.00    -0.252 OA 
HETATM   12  O   UNL     1      -9.261   6.010  71.297  1.00  0.00    -0.146 OA 
BRANCH  10  13
HETATM   13  C   UNL     1     -10.083   7.883  69.697  1.00  0.00    -0.197 A  
HETATM   14  C   UNL     1      -9.133   8.739  70.267  1.00  0.00    -0.185 A  
HETATM   15  C   UNL     1      -8.905   9.991  69.690  1.00  0.00    -0.217 A  
HETATM   16  C   UNL     1      -9.612  10.371  68.546  1.00  0.00    -0.158 A  
HETATM   17  C   UNL     1     -10.546   9.510  67.971  1.00  0.00    -0.282 A  
HETATM   18 CL   UNL     1      -9.330  11.916  67.844  1.00  0.00    -0.181 Cl 
HETATM   19  C   UNL     1     -10.785   8.259  68.547  1.00  0.00    -0.065 A  
ENDBRANCH  10  13
ENDBRANCH   8  10
ENDBRANCH   6   8
ENDBRANCH   4   6
ENDBRANCH   3   4
ENDBRANCH   2   3
TORSDOF 6
ENDMDL
MODEL      170
REMARK 921   NORMALIZED FREE ENERGY PREDICTED BY IDOCK:   -3.51 KCAL/MOL
REMARK 922        TOTAL FREE ENERGY PREDICTED BY IDOCK:   -5.45 KCAL/MOL
REMARK 923 INTER-LIGAND FREE ENERGY PREDICTED BY IDOCK:   -4.83 KCAL/MOL
REMARK 924 INTRA-LIGAND FREE ENERGY PREDICTED BY IDOCK:   -0.62 KCAL/MOL
REMARK 927      BINDING AFFINITY PREDICTED BY RF-SCORE:    0.00 PKD
ROOT
HETATM    1  C   UNL     1      -9.489   9.791  65.169  1.00  0.00    -0.338 C  
HETATM    2  C   UNL     1      -9.460  11.018  66.069  1.00  0.00    -0.235 C  
ENDROOT
BRANCH   2   3
HETATM    3  C   UNL     1     -10.618  11.041  67.065  1.00  0.00    -0.256 C  
BRANCH   3   4
HETATM    4  N   UNL     1     -10.367  11.897  68.208  1.00  0.00    -0.196 N  
HETATM    5  H   UNL     1      -9.826  11.540  68.995  1.00  0.00     0.000 HD 
BRANCH   4   6
HETATM    6  C   UNL     1     -10.845  13.174  68.244  1.00  0.00    -0.253 C  
HETATM    7  O   UNL     1     -11.857  13.532  67.666  1.00  0.00    -0.340 OA 
BRANCH   6   8
HETATM    8  N   UNL     1     -10.088  14.020  69.034  1.00  0.00    -0.418 N  
HETATM    9  H   UNL     1     -10.392  14.182  69.994  1.00  0.00     0.000 HD 
BRANCH   8  10
HETATM   10  S   UNL     1      -8.708  14.785  68.505  1.00  0.00    -0.178 S  
HETATM   11  O   UNL     1      -8.042  13.929  67.550  1.00  0.00    -0.158 OA 
HETATM   12  O   UNL     1      -8.026  15.232  69.703  1.00  0.00    -0.224 OA 
BRANCH  10  13
HETATM   13  C   UNL     1      -9.299  16.244  67.679  1.00  0.00    -0.218 A  
HETATM   14  C   UNL     1      -9.160  17.492  68.298  1.00  0.00    -0.274 A  
HETATM   15  C   UNL     1      -9.646  18.634  67.656  1.00  0.00    -0.325 A  
HETATM   16  C   UNL     1     -10.252  18.524  66.403  1.00  0.00    -0.420 A  
HETATM   17  C   UNL     1     -10.377  17.282  65.781  1.00  0.00    -0.245 A  
HETATM   18 CL   UNL     1     -10.855  19.934  65.621  1.00  0.00    -0.448 Cl 
HETATM   19  C   UNL     1      -9.899  16.135  66.419  1.00  0.00    -0.304 A  
ENDBRANCH  10  13
ENDBRANCH   8  10
ENDBRANCH   6   8
ENDBRANCH   4   6
ENDBRANCH   3   4
ENDBRANCH   2   3
TORSDOF 6
ENDMDL
MODEL      171
REMARK 921   NORMALIZED FREE ENERGY PREDICTED BY IDOCK:   -3.51 KCAL/MOL
REMARK 922        TOTAL FREE ENERGY PREDICTED BY IDOCK:   -5.45 KCAL/MOL
REMARK 923 INTER-LIGAND FREE ENERGY PREDICTED BY IDOCK:   -4.69 KCAL/MOL
REMARK 924 INTRA-LIGAND FREE ENERGY PREDICTED BY IDOCK:   -0.75 KCAL/MOL
REMARK 927      BINDING AFFINITY PREDICTED BY RF-SCORE:    0.00 PKD
ROOT
HETATM    1  C   UNL     1     -10.568  11.784  64.212  1.00  0.00    -0.386 C  
HETATM    2  C   UNL     1     -10.776  13.264  64.500  1.00  0.00    -0.428 C  
ENDROOT
BRANCH   2   3
HETATM    3  C   UNL     1     -11.292  13.518  65.914  1.00  0.00    -0.308 C  
BRANCH   3   4
HETATM    4  N   UNL     1     -10.442  12.948  66.941  1.00  0.00    -0.245 N  
HETATM    5  H   UNL     1      -9.767  12.225  66.691  1.00  0.00     0.000 HD 
BRANCH   4   6
HETATM    6  C   UNL     1     -10.532  13.366  68.236  1.00  0.00    -0.250 C  
HETATM    7  O   UNL     1     -10.805  14.509  68.559  1.00  0.00    -0.235 OA 
BRANCH   6   8
HETATM    8  N   UNL     1     -10.319  12.353  69.154  1.00  0.00    -0.424 N  
HETATM    9  H   UNL     1      -9.585  12.480  69.850  1.00  0.00     0.000 HD 
BRANCH   8  10
HETATM   10  S   UNL     1     -11.196  10.938  69.184  1.00  0.00    -0.281 S  
HETATM   11  O   UNL     1     -12.386  11.115  68.383  1.00  0.00    -0.556 OA 
HETATM   12  O   UNL     1     -11.289  10.567  70.581  1.00  0.00    -0.322 OA 
BRANCH  10  13
HETATM   13  C   UNL     1     -10.133   9.742  68.407  1.00  0.00    -0.166 A  
HETATM   14  C   UNL     1      -8.956   9.344  69.050  1.00  0.00    -0.141 A  
HETATM   15  C   UNL     1      -8.112   8.422  68.427  1.00  0.00    -0.123 A  
HETATM   16  C   UNL     1      -8.455   7.896  67.179  1.00  0.00    -0.117 A  
HETATM   17  C   UNL     1      -9.636   8.282  66.547  1.00  0.00    -0.312 A  
HETATM   18 CL   UNL     1      -7.408   6.764  66.414  1.00  0.00    -0.072 Cl 
HETATM   19  C   UNL     1     -10.482   9.209  67.161  1.00  0.00    -0.325 A  
ENDBRANCH  10  13
ENDBRANCH   8  10
ENDBRANCH   6   8
ENDBRANCH   4   6
ENDBRANCH   3   4
ENDBRANCH   2   3
TORSDOF 6
ENDMDL
MODEL      172
REMARK 921   NORMALIZED FREE ENERGY PREDICTED BY IDOCK:   -3.51 KCAL/MOL
REMARK 922        TOTAL FREE ENERGY PREDICTED BY IDOCK:   -5.44 KCAL/MOL
REMARK 923 INTER-LIGAND FREE ENERGY PREDICTED BY IDOCK:   -5.01 KCAL/MOL
REMARK 924 INTRA-LIGAND FREE ENERGY PREDICTED BY IDOCK:   -0.43 KCAL/MOL
REMARK 927      BINDING AFFINITY PREDICTED BY RF-SCORE:    0.00 PKD
ROOT
HETATM    1  C   UNL     1      -8.674  19.843  66.946  1.00  0.00    -0.408 C  
HETATM    2  C   UNL     1      -9.800  19.768  67.967  1.00  0.00    -0.533 C  
ENDROOT
BRANCH   2   3
HETATM    3  C   UNL     1      -9.822  18.440  68.721  1.00  0.00    -0.361 C  
BRANCH   3   4
HETATM    4  N   UNL     1     -11.015  17.659  68.462  1.00  0.00    -0.216 N  
HETATM    5  H   UNL     1     -11.860  18.126  68.132  1.00  0.00     0.000 HD 
BRANCH   4   6
HETATM    6  C   UNL     1     -11.023  16.309  68.652  1.00  0.00    -0.340 C  
HETATM    7  O   UNL     1     -11.071  15.782  69.750  1.00  0.00    -0.267 OA 
BRANCH   6   8
HETATM    8  N   UNL     1     -11.009  15.590  67.470  1.00  0.00    -0.317 N  
HETATM    9  H   UNL     1     -11.889  15.476  66.966  1.00  0.00     0.000 HD 
BRANCH   8  10
HETATM   10  S   UNL     1      -9.638  14.901  66.826  1.00  0.00    -0.264 S  
HETATM   11  O   UNL     1      -8.505  15.280  67.639  1.00  0.00    -0.149 OA 
HETATM   12  O   UNL     1      -9.673  15.211  65.411  1.00  0.00    -0.316 OA 
BRANCH  10  13
HETATM   13  C   UNL     1      -9.910  13.150  66.973  1.00  0.00    -0.244 A  
HETATM   14  C   UNL     1      -9.843  12.545  68.234  1.00  0.00    -0.227 A  
HETATM   15  C   UNL     1     -10.034  11.166  68.344  1.00  0.00    -0.193 A  
HETATM   16  C   UNL     1     -10.305  10.407  67.203  1.00  0.00    -0.238 A  
HETATM   17  C   UNL     1     -10.388  11.014  65.950  1.00  0.00    -0.315 A  
HETATM   18 CL   UNL     1     -10.535   8.707  67.344  1.00  0.00    -0.351 Cl 
HETATM   19  C   UNL     1     -10.190  12.392  65.831  1.00  0.00    -0.273 A  
ENDBRANCH  10  13
ENDBRANCH   8  10
ENDBRANCH   6   8
ENDBRANCH   4   6
ENDBRANCH   3   4
ENDBRANCH   2   3
TORSDOF 6
ENDMDL
MODEL      173
REMARK 921   NORMALIZED FREE ENERGY PREDICTED BY IDOCK:   -3.51 KCAL/MOL
REMARK 922        TOTAL FREE ENERGY PREDICTED BY IDOCK:   -5.44 KCAL/MOL
REMARK 923 INTER-LIGAND FREE ENERGY PREDICTED BY IDOCK:   -4.83 KCAL/MOL
REMARK 924 INTRA-LIGAND FREE ENERGY PREDICTED BY IDOCK:   -0.61 KCAL/MOL
REMARK 927      BINDING AFFINITY PREDICTED BY RF-SCORE:    0.00 PKD
ROOT
HETATM    1  C   UNL     1     -12.635  12.027  63.407  1.00  0.00    -0.592 C  
HETATM    2  C   UNL     1     -11.323  12.790  63.517  1.00  0.00    -0.480 C  
ENDROOT
BRANCH   2   3
HETATM    3  C   UNL     1     -10.109  11.866  63.560  1.00  0.00    -0.441 C  
BRANCH   3   4
HETATM    4  N   UNL     1      -9.534  11.745  64.886  1.00  0.00    -0.423 N  
HETATM    5  H   UNL     1      -9.075  12.551  65.310  1.00  0.00     0.000 HD 
BRANCH   4   6
HETATM    6  C   UNL     1      -9.598  10.568  65.572  1.00  0.00    -0.230 C  
HETATM    7  O   UNL     1      -8.736   9.709  65.520  1.00  0.00    -0.138 OA 
BRANCH   6   8
HETATM    8  N   UNL     1     -10.724  10.460  66.368  1.00  0.00    -0.121 N  
HETATM    9  H   UNL     1     -11.581  10.103  65.944  1.00  0.00     0.000 HD 
BRANCH   8  10
HETATM   10  S   UNL     1     -10.759  10.880  67.978  1.00  0.00    -0.241 S  
HETATM   11  O   UNL     1     -12.113  11.243  68.332  1.00  0.00    -0.598 OA 
HETATM   12  O   UNL     1      -9.668  11.815  68.161  1.00  0.00    -0.180 OA 
BRANCH  10  13
HETATM   13  C   UNL     1     -10.305   9.389  68.835  1.00  0.00    -0.213 A  
HETATM   14  C   UNL     1      -9.735   9.473  70.110  1.00  0.00    -0.289 A  
HETATM   15  C   UNL     1      -9.358   8.301  70.771  1.00  0.00    -0.183 A  
HETATM   16  C   UNL     1      -9.565   7.061  70.163  1.00  0.00    -0.164 A  
HETATM   17  C   UNL     1     -10.149   6.979  68.899  1.00  0.00    -0.174 A  
HETATM   18 CL   UNL     1      -9.094   5.622  70.980  1.00  0.00    -0.154 Cl 
HETATM   19  C   UNL     1     -10.522   8.146  68.229  1.00  0.00    -0.210 A  
ENDBRANCH  10  13
ENDBRANCH   8  10
ENDBRANCH   6   8
ENDBRANCH   4   6
ENDBRANCH   3   4
ENDBRANCH   2   3
TORSDOF 6
ENDMDL
MODEL      174
REMARK 921   NORMALIZED FREE ENERGY PREDICTED BY IDOCK:   -3.50 KCAL/MOL
REMARK 922        TOTAL FREE ENERGY PREDICTED BY IDOCK:   -5.44 KCAL/MOL
REMARK 923 INTER-LIGAND FREE ENERGY PREDICTED BY IDOCK:   -5.12 KCAL/MOL
REMARK 924 INTRA-LIGAND FREE ENERGY PREDICTED BY IDOCK:   -0.31 KCAL/MOL
REMARK 927      BINDING AFFINITY PREDICTED BY RF-SCORE:    0.00 PKD
ROOT
HETATM    1  C   UNL     1      -8.737   5.524  66.418  1.00  0.00    -0.123 C  
HETATM    2  C   UNL     1     -10.243   5.380  66.251  1.00  0.00    -0.234 C  
ENDROOT
BRANCH   2   3
HETATM    3  C   UNL     1     -11.026   6.281  67.203  1.00  0.00    -0.370 C  
BRANCH   3   4
HETATM    4  N   UNL     1     -10.175   7.039  68.098  1.00  0.00    -0.173 N  
HETATM    5  H   UNL     1      -9.370   7.541  67.722  1.00  0.00     0.000 HD 
BRANCH   4   6
HETATM    6  C   UNL     1     -10.435   7.090  69.436  1.00  0.00    -0.214 C  
HETATM    7  O   UNL     1     -10.398   6.116  70.168  1.00  0.00    -0.187 OA 
BRANCH   6   8
HETATM    8  N   UNL     1     -10.709   8.367  69.891  1.00  0.00    -0.233 N  
HETATM    9  H   UNL     1     -10.332   9.156  69.367  1.00  0.00     0.000 HD 
BRANCH   8  10
HETATM   10  S   UNL     1     -11.621   8.686  71.246  1.00  0.00    -0.298 S  
HETATM   11  O   UNL     1     -10.790   8.511  72.415  1.00  0.00    -0.346 OA 
HETATM   12  O   UNL     1     -12.843   7.924  71.083  1.00  0.00    -0.245 OA 
BRANCH  10  13
HETATM   13  C   UNL     1     -12.063  10.401  71.089  1.00  0.00    -0.386 A  
HETATM   14  C   UNL     1     -11.554  11.150  70.021  1.00  0.00    -0.421 A  
HETATM   15  C   UNL     1     -11.884  12.503  69.913  1.00  0.00    -0.373 A  
HETATM   16  C   UNL     1     -12.727  13.092  70.858  1.00  0.00    -0.233 A  
HETATM   17  C   UNL     1     -13.246  12.341  71.912  1.00  0.00    -0.481 A  
HETATM   18 CL   UNL     1     -13.126  14.761  70.721  1.00  0.00    -0.406 Cl 
HETATM   19  C   UNL     1     -12.915  10.989  72.031  1.00  0.00    -0.398 A  
ENDBRANCH  10  13
ENDBRANCH   8  10
ENDBRANCH   6   8
ENDBRANCH   4   6
ENDBRANCH   3   4
ENDBRANCH   2   3
TORSDOF 6
ENDMDL
MODEL      175
REMARK 921   NORMALIZED FREE ENERGY PREDICTED BY IDOCK:   -3.50 KCAL/MOL
REMARK 922        TOTAL FREE ENERGY PREDICTED BY IDOCK:   -5.43 KCAL/MOL
REMARK 923 INTER-LIGAND FREE ENERGY PREDICTED BY IDOCK:   -4.80 KCAL/MOL
REMARK 924 INTRA-LIGAND FREE ENERGY PREDICTED BY IDOCK:   -0.63 KCAL/MOL
REMARK 927      BINDING AFFINITY PREDICTED BY RF-SCORE:    0.00 PKD
ROOT
HETATM    1  C   UNL     1     -12.879  11.942  63.324  1.00  0.00    -0.303 C  
HETATM    2  C   UNL     1     -12.797  13.076  64.335  1.00  0.00    -0.171 C  
ENDROOT
BRANCH   2   3
HETATM    3  C   UNL     1     -12.212  12.628  65.672  1.00  0.00    -0.411 C  
BRANCH   3   4
HETATM    4  N   UNL     1     -10.841  12.169  65.566  1.00  0.00    -0.274 N  
HETATM    5  H   UNL     1     -10.125  12.800  65.208  1.00  0.00     0.000 HD 
BRANCH   4   6
HETATM    6  C   UNL     1     -10.495  10.903  65.940  1.00  0.00    -0.221 C  
HETATM    7  O   UNL     1     -10.128  10.045  65.156  1.00  0.00    -0.325 OA 
BRANCH   6   8
HETATM    8  N   UNL     1     -10.566  10.698  67.306  1.00  0.00    -0.246 N  
HETATM    9  H   UNL     1     -11.133   9.922  67.647  1.00  0.00     0.000 HD 
BRANCH   8  10
HETATM   10  S   UNL     1      -9.776  11.646  68.423  1.00  0.00    -0.188 S  
HETATM   11  O   UNL     1      -9.196  12.779  67.739  1.00  0.00    -0.183 OA 
HETATM   12  O   UNL     1      -8.947  10.738  69.189  1.00  0.00    -0.159 OA 
BRANCH  10  13
HETATM   13  C   UNL     1     -11.062  12.210  69.513  1.00  0.00    -0.050 A  
HETATM   14  C   UNL     1     -11.355  13.577  69.586  1.00  0.00    -0.219 A  
HETATM   15  C   UNL     1     -12.351  14.019  70.461  1.00  0.00    -0.437 A  
HETATM   16  C   UNL     1     -13.052  13.098  71.242  1.00  0.00    -0.193 A  
HETATM   17  C   UNL     1     -12.770  11.735  71.157  1.00  0.00    -0.405 A  
HETATM   18 CL   UNL     1     -14.273  13.650  72.321  1.00  0.00    -0.600 Cl 
HETATM   19  C   UNL     1     -11.771  11.285  70.289  1.00  0.00    -0.415 A  
ENDBRANCH  10  13
ENDBRANCH   8  10
ENDBRANCH   6   8
ENDBRANCH   4   6
ENDBRANCH   3   4
ENDBRANCH   2   3
TORSDOF 6
ENDMDL
MODEL      176
REMARK 921   NORMALIZED FREE ENERGY PREDICTED BY IDOCK:   -3.49 KCAL/MOL
REMARK 922        TOTAL FREE ENERGY PREDICTED BY IDOCK:   -5.41 KCAL/MOL
REMARK 923 INTER-LIGAND FREE ENERGY PREDICTED BY IDOCK:   -5.26 KCAL/MOL
REMARK 924 INTRA-LIGAND FREE ENERGY PREDICTED BY IDOCK:   -0.15 KCAL/MOL
REMARK 927      BINDING AFFINITY PREDICTED BY RF-SCORE:    0.00 PKD
ROOT
HETATM    1  C   UNL     1     -11.374  10.003  70.827  1.00  0.00    -0.439 C  
HETATM    2  C   UNL     1     -10.851   9.773  69.417  1.00  0.00    -0.256 C  
ENDROOT
BRANCH   2   3
HETATM    3  C   UNL     1     -10.651   8.292  69.100  1.00  0.00    -0.165 C  
BRANCH   3   4
HETATM    4  N   UNL     1     -10.556   8.023  67.679  1.00  0.00    -0.408 N  
HETATM    5  H   UNL     1     -11.404   7.837  67.144  1.00  0.00     0.000 HD 
BRANCH   4   6
HETATM    6  C   UNL     1      -9.347   8.014  67.048  1.00  0.00    -0.156 C  
HETATM    7  O   UNL     1      -8.285   7.855  67.625  1.00  0.00    -0.122 OA 
BRANCH   6   8
HETATM    8  N   UNL     1      -9.445   8.166  65.676  1.00  0.00    -0.422 N  
HETATM    9  H   UNL     1      -9.962   7.463  65.150  1.00  0.00     0.000 HD 
BRANCH   8  10
HETATM   10  S   UNL     1      -8.765   9.434  64.839  1.00  0.00    -0.197 S  
HETATM   11  O   UNL     1      -8.584   9.034  63.462  1.00  0.00    -0.194 OA 
HETATM   12  O   UNL     1      -7.640   9.872  65.639  1.00  0.00    -0.108 OA 
BRANCH  10  13
HETATM   13  C   UNL     1      -9.986  10.724  64.922  1.00  0.00    -0.312 A  
HETATM   14  C   UNL     1     -10.444  11.318  63.740  1.00  0.00    -0.459 A  
HETATM   15  C   UNL     1     -11.386  12.348  63.810  1.00  0.00    -0.536 A  
HETATM   16  C   UNL     1     -11.872  12.764  65.052  1.00  0.00    -0.382 A  
HETATM   17  C   UNL     1     -11.426  12.161  66.227  1.00  0.00    -0.433 A  
HETATM   18 CL   UNL     1     -13.028  14.037  65.132  1.00  0.00    -0.367 Cl 
HETATM   19  C   UNL     1     -10.479  11.136  66.166  1.00  0.00    -0.307 A  
ENDBRANCH  10  13
ENDBRANCH   8  10
ENDBRANCH   6   8
ENDBRANCH   4   6
ENDBRANCH   3   4
ENDBRANCH   2   3
TORSDOF 6
ENDMDL
MODEL      177
REMARK 921   NORMALIZED FREE ENERGY PREDICTED BY IDOCK:   -3.49 KCAL/MOL
REMARK 922        TOTAL FREE ENERGY PREDICTED BY IDOCK:   -5.41 KCAL/MOL
REMARK 923 INTER-LIGAND FREE ENERGY PREDICTED BY IDOCK:   -4.98 KCAL/MOL
REMARK 924 INTRA-LIGAND FREE ENERGY PREDICTED BY IDOCK:   -0.43 KCAL/MOL
REMARK 927      BINDING AFFINITY PREDICTED BY RF-SCORE:    0.00 PKD
ROOT
HETATM    1  C   UNL     1     -10.490  18.822  66.343  1.00  0.00    -0.485 C  
HETATM    2  C   UNL     1      -9.109  18.182  66.369  1.00  0.00    -0.255 C  
ENDROOT
BRANCH   2   3
HETATM    3  C   UNL     1      -9.160  16.670  66.165  1.00  0.00    -0.283 C  
BRANCH   3   4
HETATM    4  N   UNL     1      -8.967  15.925  67.394  1.00  0.00    -0.189 N  
HETATM    5  H   UNL     1      -8.746  16.423  68.256  1.00  0.00     0.000 HD 
BRANCH   4   6
HETATM    6  C   UNL     1      -9.077  14.565  67.412  1.00  0.00    -0.196 C  
HETATM    7  O   UNL     1      -8.946  13.891  68.419  1.00  0.00    -0.186 OA 
BRANCH   6   8
HETATM    8  N   UNL     1      -9.390  14.025  66.178  1.00  0.00    -0.494 N  
HETATM    9  H   UNL     1      -8.669  14.023  65.456  1.00  0.00     0.000 HD 
BRANCH   8  10
HETATM   10  S   UNL     1     -10.877  13.376  65.806  1.00  0.00    -0.277 S  
HETATM   11  O   UNL     1     -11.020  13.342  64.368  1.00  0.00    -0.370 OA 
HETATM   12  O   UNL     1     -11.831  14.089  66.631  1.00  0.00    -0.377 OA 
BRANCH  10  13
HETATM   13  C   UNL     1     -10.803  11.713  66.431  1.00  0.00    -0.287 A  
HETATM   14  C   UNL     1     -10.223  10.707  65.649  1.00  0.00    -0.319 A  
HETATM   15  C   UNL     1     -10.187   9.397  66.133  1.00  0.00    -0.264 A  
HETATM   16  C   UNL     1     -10.715   9.105  67.393  1.00  0.00    -0.177 A  
HETATM   17  C   UNL     1     -11.278  10.111  68.177  1.00  0.00    -0.245 A  
HETATM   18 CL   UNL     1     -10.673   7.488  67.981  1.00  0.00    -0.213 Cl 
HETATM   19  C   UNL     1     -11.324  11.422  67.697  1.00  0.00    -0.359 A  
ENDBRANCH  10  13
ENDBRANCH   8  10
ENDBRANCH   6   8
ENDBRANCH   4   6
ENDBRANCH   3   4
ENDBRANCH   2   3
TORSDOF 6
ENDMDL
MODEL      178
REMARK 921   NORMALIZED FREE ENERGY PREDICTED BY IDOCK:   -3.48 KCAL/MOL
REMARK 922        TOTAL FREE ENERGY PREDICTED BY IDOCK:   -5.40 KCAL/MOL
REMARK 923 INTER-LIGAND FREE ENERGY PREDICTED BY IDOCK:   -4.64 KCAL/MOL
REMARK 924 INTRA-LIGAND FREE ENERGY PREDICTED BY IDOCK:   -0.76 KCAL/MOL
REMARK 927      BINDING AFFINITY PREDICTED BY RF-SCORE:    0.00 PKD
ROOT
HETATM    1  C   UNL     1      -8.142   5.937  71.535  1.00  0.00    -0.115 C  
HETATM    2  C   UNL     1      -8.956   5.222  70.467  1.00  0.00    -0.162 C  
ENDROOT
BRANCH   2   3
HETATM    3  C   UNL     1     -10.457   5.270  70.744  1.00  0.00    -0.228 C  
BRANCH   3   4
HETATM    4  N   UNL     1     -11.034   6.581  70.521  1.00  0.00    -0.271 N  
HETATM    5  H   UNL     1     -11.367   7.126  71.316  1.00  0.00     0.000 HD 
BRANCH   4   6
HETATM    6  C   UNL     1     -11.138   7.095  69.262  1.00  0.00    -0.080 C  
HETATM    7  O   UNL     1     -11.238   6.410  68.259  1.00  0.00    -0.309 OA 
BRANCH   6   8
HETATM    8  N   UNL     1     -11.155   8.478  69.236  1.00  0.00    -0.432 N  
HETATM    9  H   UNL     1     -11.097   8.944  68.331  1.00  0.00     0.000 HD 
BRANCH   8  10
HETATM   10  S   UNL     1     -11.266   9.424  70.601  1.00  0.00    -0.305 S  
HETATM   11  O   UNL     1     -10.032   9.309  71.345  1.00  0.00    -0.306 OA 
HETATM   12  O   UNL     1     -12.535   9.082  71.211  1.00  0.00    -0.309 OA 
BRANCH  10  13
HETATM   13  C   UNL     1     -11.428  11.082  69.979  1.00  0.00    -0.314 A  
HETATM   14  C   UNL     1     -12.271  11.986  70.635  1.00  0.00    -0.409 A  
HETATM   15  C   UNL     1     -12.414  13.281  70.131  1.00  0.00    -0.210 A  
HETATM   16  C   UNL     1     -11.707  13.666  68.990  1.00  0.00    -0.333 A  
HETATM   17  C   UNL     1     -10.855  12.769  68.346  1.00  0.00    -0.272 A  
HETATM   18 CL   UNL     1     -11.891  15.261  68.370  1.00  0.00    -0.335 Cl 
HETATM   19  C   UNL     1     -10.712  11.470  68.840  1.00  0.00    -0.245 A  
ENDBRANCH  10  13
ENDBRANCH   8  10
ENDBRANCH   6   8
ENDBRANCH   4   6
ENDBRANCH   3   4
ENDBRANCH   2   3
TORSDOF 6
ENDMDL
MODEL      179
REMARK 921   NORMALIZED FREE ENERGY PREDICTED BY IDOCK:   -3.47 KCAL/MOL
REMARK 922        TOTAL FREE ENERGY PREDICTED BY IDOCK:   -5.39 KCAL/MOL
REMARK 923 INTER-LIGAND FREE ENERGY PREDICTED BY IDOCK:   -4.78 KCAL/MOL
REMARK 924 INTRA-LIGAND FREE ENERGY PREDICTED BY IDOCK:   -0.61 KCAL/MOL
REMARK 927      BINDING AFFINITY PREDICTED BY RF-SCORE:    0.00 PKD
ROOT
HETATM    1  C   UNL     1      -9.424  10.441  63.709  1.00  0.00    -0.353 C  
HETATM    2  C   UNL     1     -10.284  11.195  64.713  1.00  0.00    -0.365 C  
ENDROOT
BRANCH   2   3
HETATM    3  C   UNL     1     -10.271  10.549  66.097  1.00  0.00    -0.236 C  
BRANCH   3   4
HETATM    4  N   UNL     1      -8.935  10.239  66.566  1.00  0.00    -0.143 N  
HETATM    5  H   UNL     1      -8.533   9.323  66.371  1.00  0.00     0.000 HD 
BRANCH   4   6
HETATM    6  C   UNL     1      -8.208  11.158  67.266  1.00  0.00    -0.136 C  
HETATM    7  O   UNL     1      -7.412  11.923  66.750  1.00  0.00    -0.113 OA 
BRANCH   6   8
HETATM    8  N   UNL     1      -8.491  11.162  68.620  1.00  0.00    -0.154 N  
HETATM    9  H   UNL     1      -8.795  12.038  69.045  1.00  0.00     0.000 HD 
BRANCH   8  10
HETATM   10  S   UNL     1      -8.363   9.818  69.593  1.00  0.00    -0.188 S  
HETATM   11  O   UNL     1      -7.354  10.069  70.597  1.00  0.00    -0.308 OA 
HETATM   12  O   UNL     1      -8.246   8.691  68.689  1.00  0.00    -0.118 OA 
BRANCH  10  13
HETATM   13  C   UNL     1      -9.954   9.683  70.375  1.00  0.00    -0.271 A  
HETATM   14  C   UNL     1     -10.105   8.857  71.494  1.00  0.00    -0.394 A  
HETATM   15  C   UNL     1     -11.362   8.735  72.092  1.00  0.00    -0.411 A  
HETATM   16  C   UNL     1     -12.449   9.447  71.581  1.00  0.00    -0.378 A  
HETATM   17  C   UNL     1     -12.293  10.283  70.475  1.00  0.00    -0.371 A  
HETATM   18 CL   UNL     1     -13.995   9.289  72.319  1.00  0.00    -0.472 Cl 
HETATM   19  C   UNL     1     -11.041  10.404  69.867  1.00  0.00    -0.367 A  
ENDBRANCH  10  13
ENDBRANCH   8  10
ENDBRANCH   6   8
ENDBRANCH   4   6
ENDBRANCH   3   4
ENDBRANCH   2   3
TORSDOF 6
ENDMDL
MODEL      180
REMARK 921   NORMALIZED FREE ENERGY PREDICTED BY IDOCK:   -3.47 KCAL/MOL
REMARK 922        TOTAL FREE ENERGY PREDICTED BY IDOCK:   -5.39 KCAL/MOL
REMARK 923 INTER-LIGAND FREE ENERGY PREDICTED BY IDOCK:   -4.63 KCAL/MOL
REMARK 924 INTRA-LIGAND FREE ENERGY PREDICTED BY IDOCK:   -0.76 KCAL/MOL
REMARK 927      BINDING AFFINITY PREDICTED BY RF-SCORE:    0.00 PKD
ROOT
HETATM    1  C   UNL     1     -10.496  10.717  68.181  1.00  0.00    -0.215 C  
HETATM    2  C   UNL     1     -11.047  11.748  69.156  1.00  0.00    -0.294 C  
ENDROOT
BRANCH   2   3
HETATM    3  C   UNL     1     -12.009  12.729  68.489  1.00  0.00    -0.225 C  
BRANCH   3   4
HETATM    4  N   UNL     1     -11.400  14.012  68.197  1.00  0.00    -0.276 N  
HETATM    5  H   UNL     1     -11.303  14.703  68.941  1.00  0.00     0.000 HD 
BRANCH   4   6
HETATM    6  C   UNL     1     -10.957  14.307  66.942  1.00  0.00    -0.304 C  
HETATM    7  O   UNL     1     -11.668  14.765  66.065  1.00  0.00    -0.337 OA 
BRANCH   6   8
HETATM    8  N   UNL     1      -9.605  14.070  66.770  1.00  0.00    -0.276 N  
HETATM    9  H   UNL     1      -9.320  13.409  66.048  1.00  0.00     0.000 HD 
BRANCH   8  10
HETATM   10  S   UNL     1      -8.418  14.806  67.676  1.00  0.00    -0.190 S  
HETATM   11  O   UNL     1      -7.142  14.580  67.035  1.00  0.00    -0.095 OA 
HETATM   12  O   UNL     1      -8.649  14.380  69.041  1.00  0.00    -0.111 OA 
BRANCH  10  13
HETATM   13  C   UNL     1      -8.816  16.537  67.605  1.00  0.00    -0.192 A  
HETATM   14  C   UNL     1      -9.579  17.112  68.628  1.00  0.00    -0.281 A  
HETATM   15  C   UNL     1      -9.909  18.468  68.559  1.00  0.00    -0.414 A  
HETATM   16  C   UNL     1      -9.467  19.238  67.481  1.00  0.00    -0.310 A  
HETATM   17  C   UNL     1      -8.694  18.668  66.471  1.00  0.00    -0.312 A  
HETATM   18 CL   UNL     1      -9.882  20.906  67.398  1.00  0.00    -0.484 Cl 
HETATM   19  C   UNL     1      -8.365  17.311  66.530  1.00  0.00    -0.312 A  
ENDBRANCH  10  13
ENDBRANCH   8  10
ENDBRANCH   6   8
ENDBRANCH   4   6
ENDBRANCH   3   4
ENDBRANCH   2   3
TORSDOF 6
ENDMDL
MODEL      181
REMARK 921   NORMALIZED FREE ENERGY PREDICTED BY IDOCK:   -3.45 KCAL/MOL
REMARK 922        TOTAL FREE ENERGY PREDICTED BY IDOCK:   -5.36 KCAL/MOL
REMARK 923 INTER-LIGAND FREE ENERGY PREDICTED BY IDOCK:   -4.89 KCAL/MOL
REMARK 924 INTRA-LIGAND FREE ENERGY PREDICTED BY IDOCK:   -0.48 KCAL/MOL
REMARK 927      BINDING AFFINITY PREDICTED BY RF-SCORE:    0.00 PKD
ROOT
HETATM    1  C   UNL     1     -11.087  13.999  66.522  1.00  0.00    -0.315 C  
HETATM    2  C   UNL     1     -11.873  12.713  66.731  1.00  0.00    -0.440 C  
ENDROOT
BRANCH   2   3
HETATM    3  C   UNL     1     -11.013  11.586  67.297  1.00  0.00    -0.271 C  
BRANCH   3   4
HETATM    4  N   UNL     1     -11.675  10.841  68.350  1.00  0.00    -0.438 N  
HETATM    5  H   UNL     1     -12.230  10.019  68.113  1.00  0.00     0.000 HD 
BRANCH   4   6
HETATM    6  C   UNL     1     -11.564  11.224  69.654  1.00  0.00    -0.330 C  
HETATM    7  O   UNL     1     -12.206  12.135  70.147  1.00  0.00    -0.292 OA 
BRANCH   6   8
HETATM    8  N   UNL     1     -10.675  10.450  70.378  1.00  0.00    -0.441 N  
HETATM    9  H   UNL     1      -9.725  10.799  70.504  1.00  0.00     0.000 HD 
BRANCH   8  10
HETATM   10  S   UNL     1     -11.070   8.982  71.055  1.00  0.00    -0.317 S  
HETATM   11  O   UNL     1     -11.240   8.015  69.995  1.00  0.00    -0.208 OA 
HETATM   12  O   UNL     1     -12.145   9.259  71.987  1.00  0.00    -0.366 OA 
BRANCH  10  13
HETATM   13  C   UNL     1      -9.647   8.546  72.029  1.00  0.00    -0.301 A  
HETATM   14  C   UNL     1      -9.825   7.924  73.270  1.00  0.00    -0.345 A  
HETATM   15  C   UNL     1      -8.706   7.604  74.044  1.00  0.00    -0.303 A  
HETATM   16  C   UNL     1      -7.425   7.892  73.569  1.00  0.00    -0.139 A  
HETATM   17  C   UNL     1      -7.249   8.498  72.325  1.00  0.00    -0.089 A  
HETATM   18 CL   UNL     1      -6.052   7.500  74.528  1.00  0.00    -0.081 Cl 
HETATM   19  C   UNL     1      -8.363   8.828  71.549  1.00  0.00    -0.212 A  
ENDBRANCH  10  13
ENDBRANCH   8  10
ENDBRANCH   6   8
ENDBRANCH   4   6
ENDBRANCH   3   4
ENDBRANCH   2   3
TORSDOF 6
ENDMDL
MODEL      182
REMARK 921   NORMALIZED FREE ENERGY PREDICTED BY IDOCK:   -3.44 KCAL/MOL
REMARK 922        TOTAL FREE ENERGY PREDICTED BY IDOCK:   -5.35 KCAL/MOL
REMARK 923 INTER-LIGAND FREE ENERGY PREDICTED BY IDOCK:   -4.79 KCAL/MOL
REMARK 924 INTRA-LIGAND FREE ENERGY PREDICTED BY IDOCK:   -0.56 KCAL/MOL
REMARK 927      BINDING AFFINITY PREDICTED BY RF-SCORE:    0.00 PKD
ROOT
HETATM    1  C   UNL     1     -12.480  15.270  71.770  1.00  0.00    -0.431 C  
HETATM    2  C   UNL     1     -12.411  15.442  70.259  1.00  0.00    -0.425 C  
ENDROOT
BRANCH   2   3
HETATM    3  C   UNL     1     -11.787  14.236  69.561  1.00  0.00    -0.329 C  
BRANCH   3   4
HETATM    4  N   UNL     1     -11.421  14.504  68.184  1.00  0.00    -0.297 N  
HETATM    5  H   UNL     1     -10.787  15.275  67.972  1.00  0.00     0.000 HD 
BRANCH   4   6
HETATM    6  C   UNL     1     -11.911  13.738  67.167  1.00  0.00    -0.405 C  
HETATM    7  O   UNL     1     -12.601  14.178  66.264  1.00  0.00    -0.449 OA 
BRANCH   6   8
HETATM    8  N   UNL     1     -11.517  12.414  67.240  1.00  0.00    -0.332 N  
HETATM    9  H   UNL     1     -12.226  11.712  67.451  1.00  0.00     0.000 HD 
BRANCH   8  10
HETATM   10  S   UNL     1      -9.951  11.905  67.002  1.00  0.00    -0.204 S  
HETATM   11  O   UNL     1      -9.077  12.687  67.847  1.00  0.00    -0.184 OA 
HETATM   12  O   UNL     1      -9.764  11.875  65.566  1.00  0.00    -0.233 OA 
BRANCH  10  13
HETATM   13  C   UNL     1      -9.947  10.214  67.554  1.00  0.00    -0.191 A  
HETATM   14  C   UNL     1      -9.755   9.185  66.624  1.00  0.00    -0.287 A  
HETATM   15  C   UNL     1      -9.775   7.857  67.057  1.00  0.00    -0.269 A  
HETATM   16  C   UNL     1      -9.971   7.568  68.409  1.00  0.00    -0.170 A  
HETATM   17  C   UNL     1     -10.147   8.594  69.337  1.00  0.00    -0.204 A  
HETATM   18 CL   UNL     1     -10.001   5.929  68.935  1.00  0.00    -0.184 Cl 
HETATM   19  C   UNL     1     -10.135   9.925  68.910  1.00  0.00    -0.194 A  
ENDBRANCH  10  13
ENDBRANCH   8  10
ENDBRANCH   6   8
ENDBRANCH   4   6
ENDBRANCH   3   4
ENDBRANCH   2   3
TORSDOF 6
ENDMDL
MODEL      183
REMARK 921   NORMALIZED FREE ENERGY PREDICTED BY IDOCK:   -3.44 KCAL/MOL
REMARK 922        TOTAL FREE ENERGY PREDICTED BY IDOCK:   -5.35 KCAL/MOL
REMARK 923 INTER-LIGAND FREE ENERGY PREDICTED BY IDOCK:   -4.76 KCAL/MOL
REMARK 924 INTRA-LIGAND FREE ENERGY PREDICTED BY IDOCK:   -0.59 KCAL/MOL
REMARK 927      BINDING AFFINITY PREDICTED BY RF-SCORE:    0.00 PKD
ROOT
HETATM    1  C   UNL     1     -11.484  14.821  68.707  1.00  0.00    -0.324 C  
HETATM    2  C   UNL     1     -10.409  14.767  67.631  1.00  0.00    -0.237 C  
ENDROOT
BRANCH   2   3
HETATM    3  C   UNL     1     -10.988  14.851  66.220  1.00  0.00    -0.338 C  
BRANCH   3   4
HETATM    4  N   UNL     1     -10.562  13.760  65.366  1.00  0.00    -0.307 N  
HETATM    5  H   UNL     1      -9.820  13.915  64.683  1.00  0.00     0.000 HD 
BRANCH   4   6
HETATM    6  C   UNL     1     -11.140  12.528  65.463  1.00  0.00    -0.301 C  
HETATM    7  O   UNL     1     -12.307  12.352  65.767  1.00  0.00    -0.644 OA 
BRANCH   6   8
HETATM    8  N   UNL     1     -10.279  11.493  65.143  1.00  0.00    -0.260 N  
HETATM    9  H   UNL     1     -10.457  10.965  64.289  1.00  0.00     0.000 HD 
BRANCH   8  10
HETATM   10  S   UNL     1      -8.969  11.063  66.076  1.00  0.00    -0.200 S  
HETATM   11  O   UNL     1      -8.660  12.156  66.971  1.00  0.00    -0.180 OA 
HETATM   12  O   UNL     1      -7.977  10.560  65.148  1.00  0.00    -0.149 OA 
BRANCH  10  13
HETATM   13  C   UNL     1      -9.538   9.669  67.022  1.00  0.00    -0.173 A  
HETATM   14  C   UNL     1     -10.139   8.589  66.366  1.00  0.00    -0.271 A  
HETATM   15  C   UNL     1     -10.606   7.505  67.114  1.00  0.00    -0.415 A  
HETATM   16  C   UNL     1     -10.458   7.502  68.503  1.00  0.00    -0.180 A  
HETATM   17  C   UNL     1      -9.845   8.572  69.154  1.00  0.00    -0.186 A  
HETATM   18 CL   UNL     1     -11.040   6.167  69.419  1.00  0.00    -0.459 Cl 
HETATM   19  C   UNL     1      -9.381   9.662  68.413  1.00  0.00    -0.136 A  
ENDBRANCH  10  13
ENDBRANCH   8  10
ENDBRANCH   6   8
ENDBRANCH   4   6
ENDBRANCH   3   4
ENDBRANCH   2   3
TORSDOF 6
ENDMDL
MODEL      184
REMARK 921   NORMALIZED FREE ENERGY PREDICTED BY IDOCK:   -3.44 KCAL/MOL
REMARK 922        TOTAL FREE ENERGY PREDICTED BY IDOCK:   -5.35 KCAL/MOL
REMARK 923 INTER-LIGAND FREE ENERGY PREDICTED BY IDOCK:   -4.91 KCAL/MOL
REMARK 924 INTRA-LIGAND FREE ENERGY PREDICTED BY IDOCK:   -0.44 KCAL/MOL
REMARK 927      BINDING AFFINITY PREDICTED BY RF-SCORE:    0.00 PKD
ROOT
HETATM    1  C   UNL     1      -9.132   3.608  66.279  1.00  0.00    -0.157 C  
HETATM    2  C   UNL     1      -9.070   4.687  65.207  1.00  0.00    -0.151 C  
ENDROOT
BRANCH   2   3
HETATM    3  C   UNL     1      -8.774   6.069  65.785  1.00  0.00    -0.151 C  
BRANCH   3   4
HETATM    4  N   UNL     1      -9.966   6.771  66.220  1.00  0.00    -0.415 N  
HETATM    5  H   UNL     1     -10.884   6.379  66.012  1.00  0.00     0.000 HD 
BRANCH   4   6
HETATM    6  C   UNL     1      -9.875   7.948  66.903  1.00  0.00    -0.239 C  
HETATM    7  O   UNL     1     -10.219   9.023  66.444  1.00  0.00    -0.288 OA 
BRANCH   6   8
HETATM    8  N   UNL     1      -9.387   7.797  68.189  1.00  0.00    -0.145 N  
HETATM    9  H   UNL     1      -8.439   8.119  68.385  1.00  0.00     0.000 HD 
BRANCH   8  10
HETATM   10  S   UNL     1     -10.262   7.121  69.433  1.00  0.00    -0.194 S  
HETATM   11  O   UNL     1      -9.340   6.579  70.405  1.00  0.00    -0.161 OA 
HETATM   12  O   UNL     1     -11.254   6.277  68.799  1.00  0.00    -0.363 OA 
BRANCH  10  13
HETATM   13  C   UNL     1     -11.140   8.491  70.152  1.00  0.00    -0.188 A  
HETATM   14  C   UNL     1     -10.964   9.776  69.625  1.00  0.00    -0.269 A  
HETATM   15  C   UNL     1     -11.637  10.853  70.207  1.00  0.00    -0.426 A  
HETATM   16  C   UNL     1     -12.487  10.639  71.294  1.00  0.00    -0.410 A  
HETATM   17  C   UNL     1     -12.673   9.356  71.808  1.00  0.00    -0.476 A  
HETATM   18 CL   UNL     1     -13.309  11.971  72.009  1.00  0.00    -0.557 Cl 
HETATM   19  C   UNL     1     -11.998   8.274  71.236  1.00  0.00    -0.317 A  
ENDBRANCH  10  13
ENDBRANCH   8  10
ENDBRANCH   6   8
ENDBRANCH   4   6
ENDBRANCH   3   4
ENDBRANCH   2   3
TORSDOF 6
ENDMDL
MODEL      185
REMARK 921   NORMALIZED FREE ENERGY PREDICTED BY IDOCK:   -3.44 KCAL/MOL
REMARK 922        TOTAL FREE ENERGY PREDICTED BY IDOCK:   -5.35 KCAL/MOL
REMARK 923 INTER-LIGAND FREE ENERGY PREDICTED BY IDOCK:   -5.06 KCAL/MOL
REMARK 924 INTRA-LIGAND FREE ENERGY PREDICTED BY IDOCK:   -0.28 KCAL/MOL
REMARK 927      BINDING AFFINITY PREDICTED BY RF-SCORE:    0.00 PKD
ROOT
HETATM    1  C   UNL     1      -8.534   8.571  71.781  1.00  0.00    -0.236 C  
HETATM    2  C   UNL     1      -9.500   8.482  70.609  1.00  0.00    -0.203 C  
ENDROOT
BRANCH   2   3
HETATM    3  C   UNL     1     -10.614   9.523  70.688  1.00  0.00    -0.308 C  
BRANCH   3   4
HETATM    4  N   UNL     1     -10.325  10.723  69.928  1.00  0.00    -0.437 N  
HETATM    5  H   UNL     1      -9.356  10.977  69.737  1.00  0.00     0.000 HD 
BRANCH   4   6
HETATM    6  C   UNL     1     -11.333  11.517  69.464  1.00  0.00    -0.274 C  
HETATM    7  O   UNL     1     -12.401  11.088  69.065  1.00  0.00    -0.481 OA 
BRANCH   6   8
HETATM    8  N   UNL     1     -11.037  12.867  69.526  1.00  0.00    -0.458 N  
HETATM    9  H   UNL     1     -10.869  13.282  70.443  1.00  0.00     0.000 HD 
BRANCH   8  10
HETATM   10  S   UNL     1     -10.939  13.852  68.187  1.00  0.00    -0.258 S  
HETATM   11  O   UNL     1      -9.850  14.783  68.377  1.00  0.00    -0.208 OA 
HETATM   12  O   UNL     1     -12.288  14.325  67.951  1.00  0.00    -0.229 OA 
BRANCH  10  13
HETATM   13  C   UNL     1     -10.544  12.745  66.852  1.00  0.00    -0.244 A  
HETATM   14  C   UNL     1      -9.288  12.129  66.816  1.00  0.00    -0.212 A  
HETATM   15  C   UNL     1      -8.971  11.278  65.754  1.00  0.00    -0.191 A  
HETATM   16  C   UNL     1      -9.911  11.040  64.749  1.00  0.00    -0.294 A  
HETATM   17  C   UNL     1     -11.168  11.642  64.795  1.00  0.00    -0.300 A  
HETATM   18 CL   UNL     1      -9.513   9.995  63.440  1.00  0.00    -0.312 Cl 
HETATM   19  C   UNL     1     -11.489  12.500  65.850  1.00  0.00    -0.417 A  
ENDBRANCH  10  13
ENDBRANCH   8  10
ENDBRANCH   6   8
ENDBRANCH   4   6
ENDBRANCH   3   4
ENDBRANCH   2   3
TORSDOF 6
ENDMDL
MODEL      186
REMARK 921   NORMALIZED FREE ENERGY PREDICTED BY IDOCK:   -3.43 KCAL/MOL
REMARK 922        TOTAL FREE ENERGY PREDICTED BY IDOCK:   -5.33 KCAL/MOL
REMARK 923 INTER-LIGAND FREE ENERGY PREDICTED BY IDOCK:   -4.74 KCAL/MOL
REMARK 924 INTRA-LIGAND FREE ENERGY PREDICTED BY IDOCK:   -0.59 KCAL/MOL
REMARK 927      BINDING AFFINITY PREDICTED BY RF-SCORE:    0.00 PKD
ROOT
HETATM    1  C   UNL     1     -12.270  12.657  63.440  1.00  0.00    -0.610 C  
HETATM    2  C   UNL     1     -11.983  12.823  64.925  1.00  0.00    -0.451 C  
ENDROOT
BRANCH   2   3
HETATM    3  C   UNL     1     -10.637  12.228  65.332  1.00  0.00    -0.274 C  
BRANCH   3   4
HETATM    4  N   UNL     1     -10.535  11.972  66.755  1.00  0.00    -0.210 N  
HETATM    5  H   UNL     1      -9.826  12.458  67.304  1.00  0.00     0.000 HD 
BRANCH   4   6
HETATM    6  C   UNL     1     -11.374  11.091  67.370  1.00  0.00    -0.230 C  
HETATM    7  O   UNL     1     -12.269  11.426  68.126  1.00  0.00    -0.602 OA 
BRANCH   6   8
HETATM    8  N   UNL     1     -11.135   9.773  67.021  1.00  0.00    -0.132 N  
HETATM    9  H   UNL     1     -11.894   9.244  66.591  1.00  0.00     0.000 HD 
BRANCH   8  10
HETATM   10  S   UNL     1      -9.679   9.006  67.264  1.00  0.00    -0.193 S  
HETATM   11  O   UNL     1      -8.700   9.989  67.671  1.00  0.00    -0.122 OA 
HETATM   12  O   UNL     1      -9.466   8.190  66.085  1.00  0.00    -0.201 OA 
BRANCH  10  13
HETATM   13  C   UNL     1      -9.987   7.887  68.612  1.00  0.00    -0.191 A  
HETATM   14  C   UNL     1      -9.540   8.215  69.897  1.00  0.00    -0.175 A  
HETATM   15  C   UNL     1      -9.764   7.323  70.949  1.00  0.00    -0.170 A  
HETATM   16  C   UNL     1     -10.440   6.124  70.715  1.00  0.00    -0.230 A  
HETATM   17  C   UNL     1     -10.899   5.806  69.436  1.00  0.00    -0.393 A  
HETATM   18 CL   UNL     1     -10.708   5.028  72.014  1.00  0.00    -0.245 Cl 
HETATM   19  C   UNL     1     -10.673   6.690  68.378  1.00  0.00    -0.314 A  
ENDBRANCH  10  13
ENDBRANCH   8  10
ENDBRANCH   6   8
ENDBRANCH   4   6
ENDBRANCH   3   4
ENDBRANCH   2   3
TORSDOF 6
ENDMDL
MODEL      187
REMARK 921   NORMALIZED FREE ENERGY PREDICTED BY IDOCK:   -3.42 KCAL/MOL
REMARK 922        TOTAL FREE ENERGY PREDICTED BY IDOCK:   -5.32 KCAL/MOL
REMARK 923 INTER-LIGAND FREE ENERGY PREDICTED BY IDOCK:   -4.76 KCAL/MOL
REMARK 924 INTRA-LIGAND FREE ENERGY PREDICTED BY IDOCK:   -0.56 KCAL/MOL
REMARK 927      BINDING AFFINITY PREDICTED BY RF-SCORE:    0.00 PKD
ROOT
HETATM    1  C   UNL     1      -8.676   7.196  70.869  1.00  0.00    -0.146 C  
HETATM    2  C   UNL     1      -9.537   8.425  71.118  1.00  0.00    -0.226 C  
ENDROOT
BRANCH   2   3
HETATM    3  C   UNL     1      -9.232   9.561  70.143  1.00  0.00    -0.244 C  
BRANCH   3   4
HETATM    4  N   UNL     1     -10.323   9.832  69.228  1.00  0.00    -0.203 N  
HETATM    5  H   UNL     1     -10.406   9.288  68.369  1.00  0.00     0.000 HD 
BRANCH   4   6
HETATM    6  C   UNL     1     -11.240  10.804  69.500  1.00  0.00    -0.281 C  
HETATM    7  O   UNL     1     -12.244  10.617  70.166  1.00  0.00    -0.300 OA 
BRANCH   6   8
HETATM    8  N   UNL     1     -10.900  12.039  68.977  1.00  0.00    -0.335 N  
HETATM    9  H   UNL     1     -10.648  12.784  69.626  1.00  0.00     0.000 HD 
BRANCH   8  10
HETATM   10  S   UNL     1     -10.879  12.375  67.347  1.00  0.00    -0.247 S  
HETATM   11  O   UNL     1     -12.222  12.239  66.830  1.00  0.00    -0.558 OA 
HETATM   12  O   UNL     1      -9.790  11.590  66.801  1.00  0.00    -0.198 OA 
BRANCH  10  13
HETATM   13  C   UNL     1     -10.379  14.079  67.253  1.00  0.00    -0.264 A  
HETATM   14  C   UNL     1     -10.791  14.974  68.247  1.00  0.00    -0.259 A  
HETATM   15  C   UNL     1     -10.416  16.317  68.158  1.00  0.00    -0.289 A  
HETATM   16  C   UNL     1      -9.626  16.751  67.091  1.00  0.00    -0.236 A  
HETATM   17  C   UNL     1      -9.204  15.855  66.110  1.00  0.00    -0.384 A  
HETATM   18 CL   UNL     1      -9.173  18.408  66.985  1.00  0.00    -0.268 Cl 
HETATM   19  C   UNL     1      -9.580  14.511  66.188  1.00  0.00    -0.325 A  
ENDBRANCH  10  13
ENDBRANCH   8  10
ENDBRANCH   6   8
ENDBRANCH   4   6
ENDBRANCH   3   4
ENDBRANCH   2   3
TORSDOF 6
ENDMDL
MODEL      188
REMARK 921   NORMALIZED FREE ENERGY PREDICTED BY IDOCK:   -3.42 KCAL/MOL
REMARK 922        TOTAL FREE ENERGY PREDICTED BY IDOCK:   -5.32 KCAL/MOL
REMARK 923 INTER-LIGAND FREE ENERGY PREDICTED BY IDOCK:   -4.63 KCAL/MOL
REMARK 924 INTRA-LIGAND FREE ENERGY PREDICTED BY IDOCK:   -0.69 KCAL/MOL
REMARK 927      BINDING AFFINITY PREDICTED BY RF-SCORE:    0.00 PKD
ROOT
HETATM    1  C   UNL     1     -12.819  10.620  70.740  1.00  0.00    -0.439 C  
HETATM    2  C   UNL     1     -13.410   9.661  71.763  1.00  0.00    -0.505 C  
ENDROOT
BRANCH   2   3
HETATM    3  C   UNL     1     -12.859   8.244  71.624  1.00  0.00    -0.329 C  
BRANCH   3   4
HETATM    4  N   UNL     1     -12.204   7.769  72.827  1.00  0.00    -0.591 N  
HETATM    5  H   UNL     1     -12.765   7.393  73.591  1.00  0.00     0.000 HD 
BRANCH   4   6
HETATM    6  C   UNL     1     -10.846   7.818  72.951  1.00  0.00    -0.392 C  
HETATM    7  O   UNL     1     -10.157   8.703  72.475  1.00  0.00    -0.280 OA 
BRANCH   6   8
HETATM    8  N   UNL     1     -10.328   6.781  73.706  1.00  0.00    -0.339 N  
HETATM    9  H   UNL     1      -9.859   7.011  74.581  1.00  0.00     0.000 HD 
BRANCH   8  10
HETATM   10  S   UNL     1     -10.429   5.180  73.264  1.00  0.00    -0.243 S  
HETATM   11  O   UNL     1     -11.819   4.782  73.282  1.00  0.00    -0.261 OA 
HETATM   12  O   UNL     1      -9.448   4.488  74.075  1.00  0.00    -0.115 OA 
BRANCH  10  13
HETATM   13  C   UNL     1      -9.828   5.143  71.591  1.00  0.00    -0.173 A  
HETATM   14  C   UNL     1     -10.717   5.363  70.533  1.00  0.00    -0.266 A  
HETATM   15  C   UNL     1     -10.246   5.312  69.218  1.00  0.00    -0.301 A  
HETATM   16  C   UNL     1      -8.895   5.055  68.972  1.00  0.00    -0.092 A  
HETATM   17  C   UNL     1      -8.007   4.852  70.028  1.00  0.00    -0.073 A  
HETATM   18 CL   UNL     1      -8.322   4.987  67.351  1.00  0.00    -0.106 Cl 
HETATM   19  C   UNL     1      -8.472   4.895  71.345  1.00  0.00    -0.120 A  
ENDBRANCH  10  13
ENDBRANCH   8  10
ENDBRANCH   6   8
ENDBRANCH   4   6
ENDBRANCH   3   4
ENDBRANCH   2   3
TORSDOF 6
ENDMDL
MODEL      189
REMARK 921   NORMALIZED FREE ENERGY PREDICTED BY IDOCK:   -3.42 KCAL/MOL
REMARK 922        TOTAL FREE ENERGY PREDICTED BY IDOCK:   -5.32 KCAL/MOL
REMARK 923 INTER-LIGAND FREE ENERGY PREDICTED BY IDOCK:   -4.74 KCAL/MOL
REMARK 924 INTRA-LIGAND FREE ENERGY PREDICTED BY IDOCK:   -0.58 KCAL/MOL
REMARK 927      BINDING AFFINITY PREDICTED BY RF-SCORE:    0.00 PKD
ROOT
HETATM    1  C   UNL     1     -10.524  17.483  65.882  1.00  0.00    -0.251 C  
HETATM    2  C   UNL     1     -10.330  15.999  65.607  1.00  0.00    -0.414 C  
ENDROOT
BRANCH   2   3
HETATM    3  C   UNL     1     -11.272  15.476  64.526  1.00  0.00    -0.315 C  
BRANCH   3   4
HETATM    4  N   UNL     1     -11.998  14.288  64.930  1.00  0.00    -0.403 N  
HETATM    5  H   UNL     1     -12.784  14.373  65.574  1.00  0.00     0.000 HD 
BRANCH   4   6
HETATM    6  C   UNL     1     -11.642  13.057  64.462  1.00  0.00    -0.360 C  
HETATM    7  O   UNL     1     -12.235  12.478  63.568  1.00  0.00    -0.504 OA 
BRANCH   6   8
HETATM    8  N   UNL     1     -10.515  12.543  65.076  1.00  0.00    -0.290 N  
HETATM    9  H   UNL     1      -9.673  12.420  64.512  1.00  0.00     0.000 HD 
BRANCH   8  10
HETATM   10  S   UNL     1     -10.455  12.114  66.683  1.00  0.00    -0.225 S  
HETATM   11  O   UNL     1     -11.804  12.067  67.199  1.00  0.00    -0.565 OA 
HETATM   12  O   UNL     1      -9.461  12.982  67.282  1.00  0.00    -0.210 OA 
BRANCH  10  13
HETATM   13  C   UNL     1      -9.766  10.475  66.679  1.00  0.00    -0.189 A  
HETATM   14  C   UNL     1      -8.377  10.310  66.642  1.00  0.00    -0.125 A  
HETATM   15  C   UNL     1      -7.840   9.020  66.616  1.00  0.00    -0.100 A  
HETATM   16  C   UNL     1      -8.688   7.911  66.640  1.00  0.00    -0.142 A  
HETATM   17  C   UNL     1     -10.072   8.077  66.692  1.00  0.00    -0.329 A  
HETATM   18 CL   UNL     1      -8.020   6.326  66.602  1.00  0.00    -0.107 Cl 
HETATM   19  C   UNL     1     -10.617   9.364  66.712  1.00  0.00    -0.210 A  
ENDBRANCH  10  13
ENDBRANCH   8  10
ENDBRANCH   6   8
ENDBRANCH   4   6
ENDBRANCH   3   4
ENDBRANCH   2   3
TORSDOF 6
ENDMDL
MODEL      190
REMARK 921   NORMALIZED FREE ENERGY PREDICTED BY IDOCK:   -3.41 KCAL/MOL
REMARK 922        TOTAL FREE ENERGY PREDICTED BY IDOCK:   -5.31 KCAL/MOL
REMARK 923 INTER-LIGAND FREE ENERGY PREDICTED BY IDOCK:   -4.66 KCAL/MOL
REMARK 924 INTRA-LIGAND FREE ENERGY PREDICTED BY IDOCK:   -0.65 KCAL/MOL
REMARK 927      BINDING AFFINITY PREDICTED BY RF-SCORE:    0.00 PKD
ROOT
HETATM    1  C   UNL     1     -10.156  18.238  66.671  1.00  0.00    -0.386 C  
HETATM    2  C   UNL     1      -9.381  17.168  67.426  1.00  0.00    -0.234 C  
ENDROOT
BRANCH   2   3
HETATM    3  C   UNL     1     -10.262  16.382  68.395  1.00  0.00    -0.259 C  
BRANCH   3   4
HETATM    4  N   UNL     1     -10.204  14.950  68.180  1.00  0.00    -0.223 N  
HETATM    5  H   UNL     1      -9.328  14.519  67.885  1.00  0.00     0.000 HD 
BRANCH   4   6
HETATM    6  C   UNL     1     -11.307  14.169  68.367  1.00  0.00    -0.287 C  
HETATM    7  O   UNL     1     -12.170  14.407  69.193  1.00  0.00    -0.300 OA 
BRANCH   6   8
HETATM    8  N   UNL     1     -11.371  13.095  67.497  1.00  0.00    -0.283 N  
HETATM    9  H   UNL     1     -11.268  12.157  67.882  1.00  0.00     0.000 HD 
BRANCH   8  10
HETATM   10  S   UNL     1     -11.608  13.251  65.857  1.00  0.00    -0.364 S  
HETATM   11  O   UNL     1     -11.319  14.615  65.475  1.00  0.00    -0.329 OA 
HETATM   12  O   UNL     1     -12.906  12.665  65.592  1.00  0.00    -0.435 OA 
BRANCH  10  13
HETATM   13  C   UNL     1     -10.400  12.167  65.130  1.00  0.00    -0.279 A  
HETATM   14  C   UNL     1      -9.278  11.785  65.876  1.00  0.00    -0.178 A  
HETATM   15  C   UNL     1      -8.319  10.951  65.294  1.00  0.00    -0.025 A  
HETATM   16  C   UNL     1      -8.493  10.497  63.985  1.00  0.00    -0.118 A  
HETATM   17  C   UNL     1      -9.619  10.865  63.249  1.00  0.00    -0.377 A  
HETATM   18 CL   UNL     1      -7.306   9.475  63.273  1.00  0.00    -0.108 Cl 
HETATM   19  C   UNL     1     -10.579  11.704  63.821  1.00  0.00    -0.473 A  
ENDBRANCH  10  13
ENDBRANCH   8  10
ENDBRANCH   6   8
ENDBRANCH   4   6
ENDBRANCH   3   4
ENDBRANCH   2   3
TORSDOF 6
ENDMDL
MODEL      191
REMARK 921   NORMALIZED FREE ENERGY PREDICTED BY IDOCK:   -3.41 KCAL/MOL
REMARK 922        TOTAL FREE ENERGY PREDICTED BY IDOCK:   -5.31 KCAL/MOL
REMARK 923 INTER-LIGAND FREE ENERGY PREDICTED BY IDOCK:   -4.60 KCAL/MOL
REMARK 924 INTRA-LIGAND FREE ENERGY PREDICTED BY IDOCK:   -0.70 KCAL/MOL
REMARK 927      BINDING AFFINITY PREDICTED BY RF-SCORE:    0.00 PKD
ROOT
HETATM    1  C   UNL     1      -9.674  10.417  63.518  1.00  0.00    -0.333 C  
HETATM    2  C   UNL     1     -10.296  11.048  64.756  1.00  0.00    -0.389 C  
ENDROOT
BRANCH   2   3
HETATM    3  C   UNL     1     -10.002  10.256  66.028  1.00  0.00    -0.245 C  
BRANCH   3   4
HETATM    4  N   UNL     1     -10.131  11.050  67.234  1.00  0.00    -0.185 N  
HETATM    5  H   UNL     1      -9.318  11.542  67.602  1.00  0.00     0.000 HD 
BRANCH   4   6
HETATM    6  C   UNL     1     -11.327  11.148  67.883  1.00  0.00    -0.309 C  
HETATM    7  O   UNL     1     -12.023  12.148  67.867  1.00  0.00    -0.489 OA 
BRANCH   6   8
HETATM    8  N   UNL     1     -11.694   9.983  68.533  1.00  0.00    -0.410 N  
HETATM    9  H   UNL     1     -12.502   9.470  68.181  1.00  0.00     0.000 HD 
BRANCH   8  10
HETATM   10  S   UNL     1     -10.889   9.374  69.856  1.00  0.00    -0.232 S  
HETATM   11  O   UNL     1     -11.795   9.364  70.983  1.00  0.00    -0.290 OA 
HETATM   12  O   UNL     1      -9.635  10.097  69.918  1.00  0.00    -0.213 OA 
BRANCH  10  13
HETATM   13  C   UNL     1     -10.493   7.701  69.402  1.00  0.00    -0.220 A  
HETATM   14  C   UNL     1      -9.926   6.844  70.352  1.00  0.00    -0.190 A  
HETATM   15  C   UNL     1      -9.595   5.537  69.986  1.00  0.00    -0.218 A  
HETATM   16  C   UNL     1      -9.844   5.093  68.685  1.00  0.00    -0.160 A  
HETATM   17  C   UNL     1     -10.423   5.944  67.744  1.00  0.00    -0.300 A  
HETATM   18 CL   UNL     1      -9.428   3.484  68.239  1.00  0.00    -0.229 Cl 
HETATM   19  C   UNL     1     -10.751   7.254  68.101  1.00  0.00    -0.191 A  
ENDBRANCH  10  13
ENDBRANCH   8  10
ENDBRANCH   6   8
ENDBRANCH   4   6
ENDBRANCH   3   4
ENDBRANCH   2   3
TORSDOF 6
ENDMDL
MODEL      192
REMARK 921   NORMALIZED FREE ENERGY PREDICTED BY IDOCK:   -3.41 KCAL/MOL
REMARK 922        TOTAL FREE ENERGY PREDICTED BY IDOCK:   -5.31 KCAL/MOL
REMARK 923 INTER-LIGAND FREE ENERGY PREDICTED BY IDOCK:   -4.66 KCAL/MOL
REMARK 924 INTRA-LIGAND FREE ENERGY PREDICTED BY IDOCK:   -0.65 KCAL/MOL
REMARK 927      BINDING AFFINITY PREDICTED BY RF-SCORE:    0.00 PKD
ROOT
HETATM    1  C   UNL     1     -11.341   4.534  73.516  1.00  0.00    -0.355 C  
HETATM    2  C   UNL     1     -10.168   4.588  72.548  1.00  0.00    -0.246 C  
ENDROOT
BRANCH   2   3
HETATM    3  C   UNL     1      -9.119   5.620  72.955  1.00  0.00    -0.125 C  
BRANCH   3   4
HETATM    4  N   UNL     1      -9.585   6.986  72.822  1.00  0.00    -0.145 N  
HETATM    5  H   UNL     1     -10.321   7.329  73.439  1.00  0.00     0.000 HD 
BRANCH   4   6
HETATM    6  C   UNL     1      -9.051   7.820  71.884  1.00  0.00    -0.134 C  
HETATM    7  O   UNL     1      -8.327   8.762  72.152  1.00  0.00    -0.351 OA 
BRANCH   6   8
HETATM    8  N   UNL     1      -9.384   7.468  70.588  1.00  0.00    -0.163 N  
HETATM    9  H   UNL     1      -8.639   7.144  69.971  1.00  0.00     0.000 HD 
BRANCH   8  10
HETATM   10  S   UNL     1     -10.931   7.545  69.980  1.00  0.00    -0.205 S  
HETATM   11  O   UNL     1     -11.804   6.776  70.838  1.00  0.00    -0.350 OA 
HETATM   12  O   UNL     1     -10.813   7.233  68.570  1.00  0.00    -0.162 OA 
BRANCH  10  13
HETATM   13  C   UNL     1     -11.364   9.267  70.088  1.00  0.00    -0.164 A  
HETATM   14  C   UNL     1     -10.890  10.160  69.120  1.00  0.00    -0.260 A  
HETATM   15  C   UNL     1     -11.213  11.515  69.221  1.00  0.00    -0.336 A  
HETATM   16  C   UNL     1     -12.014  11.965  70.273  1.00  0.00    -0.330 A  
HETATM   17  C   UNL     1     -12.499  11.071  71.227  1.00  0.00    -0.475 A  
HETATM   18 CL   UNL     1     -12.403  13.636  70.394  1.00  0.00    -0.421 Cl 
HETATM   19  C   UNL     1     -12.174   9.715  71.138  1.00  0.00    -0.437 A  
ENDBRANCH  10  13
ENDBRANCH   8  10
ENDBRANCH   6   8
ENDBRANCH   4   6
ENDBRANCH   3   4
ENDBRANCH   2   3
TORSDOF 6
ENDMDL
MODEL      193
REMARK 921   NORMALIZED FREE ENERGY PREDICTED BY IDOCK:   -3.41 KCAL/MOL
REMARK 922        TOTAL FREE ENERGY PREDICTED BY IDOCK:   -5.31 KCAL/MOL
REMARK 923 INTER-LIGAND FREE ENERGY PREDICTED BY IDOCK:   -4.75 KCAL/MOL
REMARK 924 INTRA-LIGAND FREE ENERGY PREDICTED BY IDOCK:   -0.55 KCAL/MOL
REMARK 927      BINDING AFFINITY PREDICTED BY RF-SCORE:    0.00 PKD
ROOT
HETATM    1  C   UNL     1     -10.088  19.448  65.856  1.00  0.00    -0.397 C  
HETATM    2  C   UNL     1      -9.324  19.904  67.091  1.00  0.00    -0.479 C  
ENDROOT
BRANCH   2   3
HETATM    3  C   UNL     1      -7.913  20.385  66.762  1.00  0.00    -0.241 C  
BRANCH   3   4
HETATM    4  N   UNL     1      -7.199  19.488  65.875  1.00  0.00    -0.284 N  
HETATM    5  H   UNL     1      -7.199  19.667  64.871  1.00  0.00     0.000 HD 
BRANCH   4   6
HETATM    6  C   UNL     1      -6.528  18.406  66.365  1.00  0.00    -0.200 C  
HETATM    7  O   UNL     1      -5.500  18.488  67.014  1.00  0.00    -0.131 OA 
BRANCH   6   8
HETATM    8  N   UNL     1      -7.150  17.203  66.085  1.00  0.00    -0.246 N  
HETATM    9  H   UNL     1      -7.526  17.062  65.148  1.00  0.00     0.000 HD 
BRANCH   8  10
HETATM   10  S   UNL     1      -7.317  15.972  67.193  1.00  0.00    -0.225 S  
HETATM   11  O   UNL     1      -7.576  16.552  68.492  1.00  0.00    -0.179 OA 
HETATM   12  O   UNL     1      -6.180  15.099  66.982  1.00  0.00    -0.201 OA 
BRANCH  10  13
HETATM   13  C   UNL     1      -8.756  15.080  66.649  1.00  0.00    -0.254 A  
HETATM   14  C   UNL     1      -9.185  13.958  67.368  1.00  0.00    -0.224 A  
HETATM   15  C   UNL     1     -10.302  13.245  66.925  1.00  0.00    -0.255 A  
HETATM   16  C   UNL     1     -10.987  13.663  65.782  1.00  0.00    -0.278 A  
HETATM   17  C   UNL     1     -10.568  14.790  65.076  1.00  0.00    -0.452 A  
HETATM   18 CL   UNL     1     -12.358  12.777  65.238  1.00  0.00    -0.536 Cl 
HETATM   19  C   UNL     1      -9.447  15.504  65.509  1.00  0.00    -0.168 A  
ENDBRANCH  10  13
ENDBRANCH   8  10
ENDBRANCH   6   8
ENDBRANCH   4   6
ENDBRANCH   3   4
ENDBRANCH   2   3
TORSDOF 6
ENDMDL
MODEL      194
REMARK 921   NORMALIZED FREE ENERGY PREDICTED BY IDOCK:   -3.40 KCAL/MOL
REMARK 922        TOTAL FREE ENERGY PREDICTED BY IDOCK:   -5.30 KCAL/MOL
REMARK 923 INTER-LIGAND FREE ENERGY PREDICTED BY IDOCK:   -4.93 KCAL/MOL
REMARK 924 INTRA-LIGAND FREE ENERGY PREDICTED BY IDOCK:   -0.37 KCAL/MOL
REMARK 927      BINDING AFFINITY PREDICTED BY RF-SCORE:    0.00 PKD
ROOT
HETATM    1  C   UNL     1     -12.843  11.847  63.702  1.00  0.00    -0.429 C  
HETATM    2  C   UNL     1     -12.030  13.079  63.331  1.00  0.00    -0.592 C  
ENDROOT
BRANCH   2   3
HETATM    3  C   UNL     1     -11.520  13.835  64.556  1.00  0.00    -0.384 C  
BRANCH   3   4
HETATM    4  N   UNL     1     -10.091  13.695  64.756  1.00  0.00    -0.621 N  
HETATM    5  H   UNL     1      -9.460  13.790  63.962  1.00  0.00     0.000 HD 
BRANCH   4   6
HETATM    6  C   UNL     1      -9.581  13.436  65.994  1.00  0.00    -0.159 C  
HETATM    7  O   UNL     1      -9.050  14.280  66.695  1.00  0.00    -0.257 OA 
BRANCH   6   8
HETATM    8  N   UNL     1      -9.758  12.125  66.397  1.00  0.00    -0.226 N  
HETATM    9  H   UNL     1     -10.689  11.834  66.693  1.00  0.00     0.000 HD 
BRANCH   8  10
HETATM   10  S   UNL     1      -8.535  10.995  66.422  1.00  0.00    -0.165 S  
HETATM   11  O   UNL     1      -7.457  11.501  67.241  1.00  0.00    -0.122 OA 
HETATM   12  O   UNL     1      -8.309  10.633  65.038  1.00  0.00    -0.169 OA 
BRANCH  10  13
HETATM   13  C   UNL     1      -9.260   9.576  67.212  1.00  0.00    -0.134 A  
HETATM   14  C   UNL     1     -10.052   8.699  66.461  1.00  0.00    -0.339 A  
HETATM   15  C   UNL     1     -10.639   7.597  67.089  1.00  0.00    -0.410 A  
HETATM   16  C   UNL     1     -10.421   7.373  68.450  1.00  0.00    -0.185 A  
HETATM   17  C   UNL     1      -9.619   8.239  69.193  1.00  0.00    -0.160 A  
HETATM   18 CL   UNL     1     -11.151   6.018  69.219  1.00  0.00    -0.450 Cl 
HETATM   19  C   UNL     1      -9.034   9.347  68.574  1.00  0.00    -0.128 A  
ENDBRANCH  10  13
ENDBRANCH   8  10
ENDBRANCH   6   8
ENDBRANCH   4   6
ENDBRANCH   3   4
ENDBRANCH   2   3
TORSDOF 6
ENDMDL
MODEL      195
REMARK 921   NORMALIZED FREE ENERGY PREDICTED BY IDOCK:   -3.40 KCAL/MOL
REMARK 922        TOTAL FREE ENERGY PREDICTED BY IDOCK:   -5.29 KCAL/MOL
REMARK 923 INTER-LIGAND FREE ENERGY PREDICTED BY IDOCK:   -5.41 KCAL/MOL
REMARK 924 INTRA-LIGAND FREE ENERGY PREDICTED BY IDOCK:    0.12 KCAL/MOL
REMARK 927      BINDING AFFINITY PREDICTED BY RF-SCORE:    0.00 PKD
ROOT
HETATM    1  C   UNL     1      -5.630  12.190  68.109  1.00  0.00    -0.053 C  
HETATM    2  C   UNL     1      -6.134  11.648  66.779  1.00  0.00    -0.134 C  
ENDROOT
BRANCH   2   3
HETATM    3  C   UNL     1      -7.655  11.527  66.734  1.00  0.00    -0.126 C  
BRANCH   3   4
HETATM    4  N   UNL     1      -8.324  12.809  66.623  1.00  0.00    -0.413 N  
HETATM    5  H   UNL     1      -7.796  13.627  66.320  1.00  0.00     0.000 HD 
BRANCH   4   6
HETATM    6  C   UNL     1      -9.649  12.935  66.918  1.00  0.00    -0.240 C  
HETATM    7  O   UNL     1     -10.516  13.097  66.077  1.00  0.00    -0.274 OA 
BRANCH   6   8
HETATM    8  N   UNL     1      -9.922  12.822  68.270  1.00  0.00    -0.228 N  
HETATM    9  H   UNL     1      -9.284  13.268  68.929  1.00  0.00     0.000 HD 
BRANCH   8  10
HETATM   10  S   UNL     1     -11.234  11.999  68.880  1.00  0.00    -0.280 S  
HETATM   11  O   UNL     1     -10.761  10.814  69.559  1.00  0.00    -0.227 OA 
HETATM   12  O   UNL     1     -12.177  11.901  67.784  1.00  0.00    -0.508 OA 
BRANCH  10  13
HETATM   13  C   UNL     1     -11.944  13.116  70.067  1.00  0.00    -0.321 A  
HETATM   14  C   UNL     1     -11.664  14.485  69.980  1.00  0.00    -0.359 A  
HETATM   15  C   UNL     1     -12.205  15.357  70.929  1.00  0.00    -0.425 A  
HETATM   16  C   UNL     1     -13.028  14.862  71.942  1.00  0.00    -0.333 A  
HETATM   17  C   UNL     1     -13.319  13.500  72.018  1.00  0.00    -0.563 A  
HETATM   18 CL   UNL     1     -13.686  15.940  73.110  1.00  0.00    -0.609 Cl 
HETATM   19  C   UNL     1     -12.776  12.620  71.077  1.00  0.00    -0.316 A  
ENDBRANCH  10  13
ENDBRANCH   8  10
ENDBRANCH   6   8
ENDBRANCH   4   6
ENDBRANCH   3   4
ENDBRANCH   2   3
TORSDOF 6
ENDMDL
MODEL      196
REMARK 921   NORMALIZED FREE ENERGY PREDICTED BY IDOCK:   -3.38 KCAL/MOL
REMARK 922        TOTAL FREE ENERGY PREDICTED BY IDOCK:   -5.27 KCAL/MOL
REMARK 923 INTER-LIGAND FREE ENERGY PREDICTED BY IDOCK:   -4.48 KCAL/MOL
REMARK 924 INTRA-LIGAND FREE ENERGY PREDICTED BY IDOCK:   -0.79 KCAL/MOL
REMARK 927      BINDING AFFINITY PREDICTED BY RF-SCORE:    0.00 PKD
ROOT
HETATM    1  C   UNL     1      -7.488   7.126  66.975  1.00  0.00    -0.097 C  
HETATM    2  C   UNL     1      -6.894   8.525  66.881  1.00  0.00    -0.069 C  
ENDROOT
BRANCH   2   3
HETATM    3  C   UNL     1      -6.983   9.289  68.200  1.00  0.00    -0.076 C  
BRANCH   3   4
HETATM    4  N   UNL     1      -7.947   8.720  69.121  1.00  0.00    -0.107 N  
HETATM    5  H   UNL     1      -8.338   7.797  68.935  1.00  0.00     0.000 HD 
BRANCH   4   6
HETATM    6  C   UNL     1      -8.338   9.404  70.235  1.00  0.00    -0.195 C  
HETATM    7  O   UNL     1      -7.952   9.139  71.360  1.00  0.00    -0.314 OA 
BRANCH   6   8
HETATM    8  N   UNL     1      -9.191  10.458  69.959  1.00  0.00    -0.339 N  
HETATM    9  H   UNL     1      -8.825  11.407  70.037  1.00  0.00     0.000 HD 
BRANCH   8  10
HETATM   10  S   UNL     1     -10.781  10.262  69.506  1.00  0.00    -0.265 S  
HETATM   11  O   UNL     1     -11.605  11.115  70.332  1.00  0.00    -0.310 OA 
HETATM   12  O   UNL     1     -11.001   8.831  69.463  1.00  0.00    -0.186 OA 
BRANCH  10  13
HETATM   13  C   UNL     1     -10.836  10.838  67.824  1.00  0.00    -0.269 A  
HETATM   14  C   UNL     1     -11.570  11.989  67.513  1.00  0.00    -0.401 A  
HETATM   15  C   UNL     1     -11.630  12.426  66.187  1.00  0.00    -0.452 A  
HETATM   16  C   UNL     1     -10.949  11.723  65.190  1.00  0.00    -0.294 A  
HETATM   17  C   UNL     1     -10.206  10.586  65.504  1.00  0.00    -0.325 A  
HETATM   18 CL   UNL     1     -11.032  12.264  63.558  1.00  0.00    -0.505 Cl 
HETATM   19  C   UNL     1     -10.146  10.139  66.827  1.00  0.00    -0.277 A  
ENDBRANCH  10  13
ENDBRANCH   8  10
ENDBRANCH   6   8
ENDBRANCH   4   6
ENDBRANCH   3   4
ENDBRANCH   2   3
TORSDOF 6
ENDMDL
MODEL      197
REMARK 921   NORMALIZED FREE ENERGY PREDICTED BY IDOCK:   -3.38 KCAL/MOL
REMARK 922        TOTAL FREE ENERGY PREDICTED BY IDOCK:   -5.27 KCAL/MOL
REMARK 923 INTER-LIGAND FREE ENERGY PREDICTED BY IDOCK:   -4.29 KCAL/MOL
REMARK 924 INTRA-LIGAND FREE ENERGY PREDICTED BY IDOCK:   -0.98 KCAL/MOL
REMARK 927      BINDING AFFINITY PREDICTED BY RF-SCORE:    0.00 PKD
ROOT
HETATM    1  C   UNL     1      -9.733  11.458  63.138  1.00  0.00    -0.413 C  
HETATM    2  C   UNL     1     -10.191  10.486  64.216  1.00  0.00    -0.314 C  
ENDROOT
BRANCH   2   3
HETATM    3  C   UNL     1      -9.048   9.631  64.757  1.00  0.00    -0.231 C  
BRANCH   3   4
HETATM    4  N   UNL     1      -9.492   8.613  65.689  1.00  0.00    -0.446 N  
HETATM    5  H   UNL     1     -10.295   8.030  65.453  1.00  0.00     0.000 HD 
BRANCH   4   6
HETATM    6  C   UNL     1      -8.851   8.424  66.878  1.00  0.00    -0.142 C  
HETATM    7  O   UNL     1      -8.710   7.334  67.403  1.00  0.00    -0.120 OA 
BRANCH   6   8
HETATM    8  N   UNL     1      -8.339   9.592  67.415  1.00  0.00    -0.114 N  
HETATM    9  H   UNL     1      -7.406   9.887  67.125  1.00  0.00     0.000 HD 
BRANCH   8  10
HETATM   10  S   UNL     1      -9.161  10.543  68.505  1.00  0.00    -0.162 S  
HETATM   11  O   UNL     1      -8.201  11.174  69.383  1.00  0.00     0.003 OA 
HETATM   12  O   UNL     1     -10.215   9.704  69.038  1.00  0.00    -0.183 OA 
BRANCH  10  13
HETATM   13  C   UNL     1      -9.950  11.784  67.505  1.00  0.00    -0.192 A  
HETATM   14  C   UNL     1     -11.341  11.766  67.355  1.00  0.00    -0.376 A  
HETATM   15  C   UNL     1     -11.956  12.728  66.550  1.00  0.00    -0.428 A  
HETATM   16  C   UNL     1     -11.183  13.704  65.916  1.00  0.00    -0.304 A  
HETATM   17  C   UNL     1      -9.799  13.729  66.079  1.00  0.00    -0.298 A  
HETATM   18 CL   UNL     1     -11.946  14.882  64.921  1.00  0.00    -0.343 Cl 
HETATM   19  C   UNL     1      -9.176  12.766  66.877  1.00  0.00    -0.229 A  
ENDBRANCH  10  13
ENDBRANCH   8  10
ENDBRANCH   6   8
ENDBRANCH   4   6
ENDBRANCH   3   4
ENDBRANCH   2   3
TORSDOF 6
ENDMDL
MODEL      198
REMARK 921   NORMALIZED FREE ENERGY PREDICTED BY IDOCK:   -3.36 KCAL/MOL
REMARK 922        TOTAL FREE ENERGY PREDICTED BY IDOCK:   -5.25 KCAL/MOL
REMARK 923 INTER-LIGAND FREE ENERGY PREDICTED BY IDOCK:   -4.50 KCAL/MOL
REMARK 924 INTRA-LIGAND FREE ENERGY PREDICTED BY IDOCK:   -0.75 KCAL/MOL
REMARK 927      BINDING AFFINITY PREDICTED BY RF-SCORE:    0.00 PKD
ROOT
HETATM    1  C   UNL     1     -12.352  13.065  70.109  1.00  0.00    -0.270 C  
HETATM    2  C   UNL     1     -11.847  11.661  69.812  1.00  0.00    -0.428 C  
ENDROOT
BRANCH   2   3
HETATM    3  C   UNL     1     -10.576  11.662  68.966  1.00  0.00    -0.153 C  
BRANCH   3   4
HETATM    4  N   UNL     1      -9.975  12.975  68.846  1.00  0.00    -0.424 N  
HETATM    5  H   UNL     1     -10.315  13.740  69.429  1.00  0.00     0.000 HD 
BRANCH   4   6
HETATM    6  C   UNL     1      -8.959  13.202  67.964  1.00  0.00    -0.195 C  
HETATM    7  O   UNL     1      -8.245  12.322  67.516  1.00  0.00    -0.150 OA 
BRANCH   6   8
HETATM    8  N   UNL     1      -8.841  14.530  67.596  1.00  0.00    -0.179 N  
HETATM    9  H   UNL     1      -7.923  14.969  67.666  1.00  0.00     0.000 HD 
BRANCH   8  10
HETATM   10  S   UNL     1     -10.114  15.450  67.044  1.00  0.00    -0.254 S  
HETATM   11  O   UNL     1      -9.585  16.580  66.314  1.00  0.00    -0.272 OA 
HETATM   12  O   UNL     1     -10.979  15.647  68.190  1.00  0.00    -0.288 OA 
BRANCH  10  13
HETATM   13  C   UNL     1     -10.983  14.377  65.924  1.00  0.00    -0.312 A  
HETATM   14  C   UNL     1     -12.148  13.731  66.352  1.00  0.00    -0.483 A  
HETATM   15  C   UNL     1     -12.817  12.871  65.477  1.00  0.00    -0.014 A  
HETATM   16  C   UNL     1     -12.327  12.674  64.184  1.00  0.00    -0.436 A  
HETATM   17  C   UNL     1     -11.174  13.331  63.754  1.00  0.00    -0.230 A  
HETATM   18 CL   UNL     1     -13.151  11.609  63.113  1.00  0.00    -0.046 Cl 
HETATM   19  C   UNL     1     -10.496  14.187  64.626  1.00  0.00    -0.366 A  
ENDBRANCH  10  13
ENDBRANCH   8  10
ENDBRANCH   6   8
ENDBRANCH   4   6
ENDBRANCH   3   4
ENDBRANCH   2   3
TORSDOF 6
ENDMDL
MODEL      199
REMARK 921   NORMALIZED FREE ENERGY PREDICTED BY IDOCK:   -3.36 KCAL/MOL
REMARK 922        TOTAL FREE ENERGY PREDICTED BY IDOCK:   -5.24 KCAL/MOL
REMARK 923 INTER-LIGAND FREE ENERGY PREDICTED BY IDOCK:   -4.57 KCAL/MOL
REMARK 924 INTRA-LIGAND FREE ENERGY PREDICTED BY IDOCK:   -0.67 KCAL/MOL
REMARK 927      BINDING AFFINITY PREDICTED BY RF-SCORE:    0.00 PKD
ROOT
HETATM    1  C   UNL     1      -8.565  10.426  65.327  1.00  0.00    -0.184 C  
HETATM    2  C   UNL     1      -9.758   9.507  65.551  1.00  0.00    -0.344 C  
ENDROOT
BRANCH   2   3
HETATM    3  C   UNL     1      -9.532   8.524  66.698  1.00  0.00    -0.207 C  
BRANCH   3   4
HETATM    4  N   UNL     1     -10.715   8.319  67.511  1.00  0.00    -0.486 N  
HETATM    5  H   UNL     1     -11.352   7.554  67.289  1.00  0.00     0.000 HD 
BRANCH   4   6
HETATM    6  C   UNL     1     -10.988   9.136  68.569  1.00  0.00     0.052 C  
HETATM    7  O   UNL     1     -10.782   8.827  69.730  1.00  0.00    -0.228 OA 
BRANCH   6   8
HETATM    8  N   UNL     1     -11.488  10.369  68.193  1.00  0.00    -0.499 N  
HETATM    9  H   UNL     1     -12.369  10.396  67.680  1.00  0.00     0.000 HD 
BRANCH   8  10
HETATM   10  S   UNL     1     -10.731  11.813  68.532  1.00  0.00    -0.229 S  
HETATM   11  O   UNL     1      -9.302  11.594  68.542  1.00  0.00    -0.195 OA 
HETATM   12  O   UNL     1     -11.409  12.344  69.697  1.00  0.00    -0.217 OA 
BRANCH  10  13
HETATM   13  C   UNL     1     -11.158  12.868  67.166  1.00  0.00    -0.275 A  
HETATM   14  C   UNL     1     -10.742  14.205  67.171  1.00  0.00    -0.280 A  
HETATM   15  C   UNL     1     -11.098  15.037  66.107  1.00  0.00    -0.329 A  
HETATM   16  C   UNL     1     -11.850  14.529  65.045  1.00  0.00    -0.399 A  
HETATM   17  C   UNL     1     -12.250  13.193  65.034  1.00  0.00    -0.488 A  
HETATM   18 CL   UNL     1     -12.290  15.561  63.741  1.00  0.00     0.180 Cl 
HETATM   19  C   UNL     1     -11.903  12.355  66.098  1.00  0.00    -0.442 A  
ENDBRANCH  10  13
ENDBRANCH   8  10
ENDBRANCH   6   8
ENDBRANCH   4   6
ENDBRANCH   3   4
ENDBRANCH   2   3
TORSDOF 6
ENDMDL
MODEL      200
REMARK 921   NORMALIZED FREE ENERGY PREDICTED BY IDOCK:   -3.34 KCAL/MOL
REMARK 922        TOTAL FREE ENERGY PREDICTED BY IDOCK:   -5.22 KCAL/MOL
REMARK 923 INTER-LIGAND FREE ENERGY PREDICTED BY IDOCK:   -4.58 KCAL/MOL
REMARK 924 INTRA-LIGAND FREE ENERGY PREDICTED BY IDOCK:   -0.64 KCAL/MOL
REMARK 927      BINDING AFFINITY PREDICTED BY RF-SCORE:    0.00 PKD
ROOT
HETATM    1  C   UNL     1      -6.280   9.921  66.399  1.00  0.00    -0.070 C  
HETATM    2  C   UNL     1      -7.399  10.698  65.720  1.00  0.00    -0.110 C  
ENDROOT
BRANCH   2   3
HETATM    3  C   UNL     1      -8.731   9.952  65.752  1.00  0.00    -0.141 C  
BRANCH   3   4
HETATM    4  N   UNL     1      -9.053   9.419  67.061  1.00  0.00    -0.133 N  
HETATM    5  H   UNL     1      -8.353   9.450  67.803  1.00  0.00     0.000 HD 
BRANCH   4   6
HETATM    6  C   UNL     1     -10.278   8.877  67.315  1.00  0.00    -0.258 C  
HETATM    7  O   UNL     1     -10.496   7.678  67.327  1.00  0.00    -0.271 OA 
BRANCH   6   8
HETATM    8  N   UNL     1     -11.248   9.822  67.595  1.00  0.00    -0.440 N  
HETATM    9  H   UNL     1     -12.029   9.918  66.946  1.00  0.00     0.000 HD 
BRANCH   8  10
HETATM   10  S   UNL     1     -11.211  10.812  68.933  1.00  0.00    -0.290 S  
HETATM   11  O   UNL     1     -12.504  11.440  69.079  1.00  0.00    -0.364 OA 
HETATM   12  O   UNL     1     -10.009  11.610  68.795  1.00  0.00    -0.200 OA 
BRANCH  10  13
HETATM   13  C   UNL     1     -10.936   9.703  70.296  1.00  0.00    -0.285 A  
HETATM   14  C   UNL     1     -12.032   9.125  70.946  1.00  0.00    -0.299 A  
HETATM   15  C   UNL     1     -11.813   8.272  72.032  1.00  0.00    -0.408 A  
HETATM   16  C   UNL     1     -10.509   7.994  72.448  1.00  0.00    -0.301 A  
HETATM   17  C   UNL     1      -9.418   8.559  71.788  1.00  0.00    -0.328 A  
HETATM   18 CL   UNL     1     -10.248   6.947  73.788  1.00  0.00    -0.361 Cl 
HETATM   19  C   UNL     1      -9.628   9.418  70.707  1.00  0.00    -0.322 A  
ENDBRANCH  10  13
ENDBRANCH   8  10
ENDBRANCH   6   8
ENDBRANCH   4   6
ENDBRANCH   3   4
ENDBRANCH   2   3
TORSDOF 6
ENDMDL
MODEL      201
REMARK 921   NORMALIZED FREE ENERGY PREDICTED BY IDOCK:   -3.34 KCAL/MOL
REMARK 922        TOTAL FREE ENERGY PREDICTED BY IDOCK:   -5.21 KCAL/MOL
REMARK 923 INTER-LIGAND FREE ENERGY PREDICTED BY IDOCK:   -4.90 KCAL/MOL
REMARK 924 INTRA-LIGAND FREE ENERGY PREDICTED BY IDOCK:   -0.31 KCAL/MOL
REMARK 927      BINDING AFFINITY PREDICTED BY RF-SCORE:    0.00 PKD
ROOT
HETATM    1  C   UNL     1     -10.232   7.824  66.876  1.00  0.00    -0.373 C  
HETATM    2  C   UNL     1      -9.965   9.320  66.805  1.00  0.00    -0.312 C  
ENDROOT
BRANCH   2   3
HETATM    3  C   UNL     1     -11.021  10.139  67.545  1.00  0.00    -0.255 C  
BRANCH   3   4
HETATM    4  N   UNL     1     -10.616  11.512  67.776  1.00  0.00    -0.186 N  
HETATM    5  H   UNL     1      -9.908  11.935  67.177  1.00  0.00     0.000 HD 
BRANCH   4   6
HETATM    6  C   UNL     1     -11.169  12.244  68.785  1.00  0.00    -0.265 C  
HETATM    7  O   UNL     1     -12.031  11.818  69.534  1.00  0.00    -0.302 OA 
BRANCH   6   8
HETATM    8  N   UNL     1     -10.628  13.512  68.901  1.00  0.00    -0.365 N  
HETATM    9  H   UNL     1      -9.655  13.595  69.194  1.00  0.00     0.000 HD 
BRANCH   8  10
HETATM   10  S   UNL     1     -11.477  14.909  68.588  1.00  0.00    -0.321 S  
HETATM   11  O   UNL     1     -12.223  15.271  69.772  1.00  0.00    -0.321 OA 
HETATM   12  O   UNL     1     -12.152  14.682  67.326  1.00  0.00    -0.358 OA 
BRANCH  10  13
HETATM   13  C   UNL     1     -10.222  16.132  68.285  1.00  0.00    -0.248 A  
HETATM   14  C   UNL     1      -8.950  15.968  68.845  1.00  0.00    -0.239 A  
HETATM   15  C   UNL     1      -7.972  16.941  68.624  1.00  0.00    -0.256 A  
HETATM   16  C   UNL     1      -8.267  18.058  67.838  1.00  0.00    -0.247 A  
HETATM   17  C   UNL     1      -9.530  18.212  67.268  1.00  0.00    -0.260 A  
HETATM   18 CL   UNL     1      -7.060  19.256  67.574  1.00  0.00    -0.232 Cl 
HETATM   19  C   UNL     1     -10.515  17.246  67.490  1.00  0.00    -0.356 A  
ENDBRANCH  10  13
ENDBRANCH   8  10
ENDBRANCH   6   8
ENDBRANCH   4   6
ENDBRANCH   3   4
ENDBRANCH   2   3
TORSDOF 6
ENDMDL
MODEL      202
REMARK 921   NORMALIZED FREE ENERGY PREDICTED BY IDOCK:   -3.33 KCAL/MOL
REMARK 922        TOTAL FREE ENERGY PREDICTED BY IDOCK:   -5.20 KCAL/MOL
REMARK 923 INTER-LIGAND FREE ENERGY PREDICTED BY IDOCK:   -4.54 KCAL/MOL
REMARK 924 INTRA-LIGAND FREE ENERGY PREDICTED BY IDOCK:   -0.66 KCAL/MOL
REMARK 927      BINDING AFFINITY PREDICTED BY RF-SCORE:    0.00 PKD
ROOT
HETATM    1  C   UNL     1      -7.806   6.413  72.967  1.00  0.00    -0.105 C  
HETATM    2  C   UNL     1      -8.111   5.443  71.835  1.00  0.00    -0.114 C  
ENDROOT
BRANCH   2   3
HETATM    3  C   UNL     1      -9.582   5.037  71.791  1.00  0.00    -0.154 C  
BRANCH   3   4
HETATM    4  N   UNL     1     -10.483   6.172  71.750  1.00  0.00    -0.211 N  
HETATM    5  H   UNL     1     -10.793   6.601  72.622  1.00  0.00     0.000 HD 
BRANCH   4   6
HETATM    6  C   UNL     1     -10.923   6.674  70.561  1.00  0.00    -0.286 C  
HETATM    7  O   UNL     1     -11.946   6.307  70.010  1.00  0.00    -0.256 OA 
BRANCH   6   8
HETATM    8  N   UNL     1     -10.111   7.674  70.055  1.00  0.00    -0.201 N  
HETATM    9  H   UNL     1      -9.557   7.470  69.224  1.00  0.00     0.000 HD 
BRANCH   8  10
HETATM   10  S   UNL     1      -9.989   9.191  70.729  1.00  0.00    -0.291 S  
HETATM   11  O   UNL     1      -8.593   9.485  70.956  1.00  0.00    -0.273 OA 
HETATM   12  O   UNL     1     -10.940   9.210  71.822  1.00  0.00    -0.353 OA 
BRANCH  10  13
HETATM   13  C   UNL     1     -10.626  10.283  69.478  1.00  0.00    -0.245 A  
HETATM   14  C   UNL     1     -10.336  10.034  68.132  1.00  0.00    -0.228 A  
HETATM   15  C   UNL     1     -10.818  10.907  67.153  1.00  0.00    -0.337 A  
HETATM   16  C   UNL     1     -11.595  12.007  67.523  1.00  0.00    -0.330 A  
HETATM   17  C   UNL     1     -11.897  12.245  68.863  1.00  0.00    -0.355 A  
HETATM   18 CL   UNL     1     -12.181  13.081  66.313  1.00  0.00    -0.445 Cl 
HETATM   19  C   UNL     1     -11.412  11.381  69.848  1.00  0.00    -0.353 A  
ENDBRANCH  10  13
ENDBRANCH   8  10
ENDBRANCH   6   8
ENDBRANCH   4   6
ENDBRANCH   3   4
ENDBRANCH   2   3
TORSDOF 6
ENDMDL
MODEL      203
REMARK 921   NORMALIZED FREE ENERGY PREDICTED BY IDOCK:   -3.31 KCAL/MOL
REMARK 922        TOTAL FREE ENERGY PREDICTED BY IDOCK:   -5.18 KCAL/MOL
REMARK 923 INTER-LIGAND FREE ENERGY PREDICTED BY IDOCK:   -4.46 KCAL/MOL
REMARK 924 INTRA-LIGAND FREE ENERGY PREDICTED BY IDOCK:   -0.71 KCAL/MOL
REMARK 927      BINDING AFFINITY PREDICTED BY RF-SCORE:    0.00 PKD
ROOT
HETATM    1  C   UNL     1     -11.448   4.367  73.506  1.00  0.00    -0.274 C  
HETATM    2  C   UNL     1      -9.943   4.501  73.691  1.00  0.00    -0.185 C  
ENDROOT
BRANCH   2   3
HETATM    3  C   UNL     1      -9.554   5.789  74.412  1.00  0.00    -0.179 C  
BRANCH   3   4
HETATM    4  N   UNL     1     -10.138   6.973  73.813  1.00  0.00    -0.324 N  
HETATM    5  H   UNL     1     -11.149   7.102  73.836  1.00  0.00     0.000 HD 
BRANCH   4   6
HETATM    6  C   UNL     1      -9.353   7.918  73.220  1.00  0.00    -0.286 C  
HETATM    7  O   UNL     1      -8.512   8.568  73.817  1.00  0.00    -0.337 OA 
BRANCH   6   8
HETATM    8  N   UNL     1      -9.578   8.042  71.861  1.00  0.00    -0.169 N  
HETATM    9  H   UNL     1      -8.769   8.087  71.241  1.00  0.00     0.000 HD 
BRANCH   8  10
HETATM   10  S   UNL     1     -11.095   8.122  71.182  1.00  0.00    -0.251 S  
HETATM   11  O   UNL     1     -11.875   9.100  71.905  1.00  0.00    -0.354 OA 
HETATM   12  O   UNL     1     -11.545   6.749  71.070  1.00  0.00    -0.300 OA 
BRANCH  10  13
HETATM   13  C   UNL     1     -10.809   8.703  69.526  1.00  0.00    -0.129 A  
HETATM   14  C   UNL     1     -10.212   7.850  68.589  1.00  0.00    -0.223 A  
HETATM   15  C   UNL     1      -9.968   8.317  67.295  1.00  0.00    -0.289 A  
HETATM   16  C   UNL     1     -10.331   9.619  66.944  1.00  0.00    -0.238 A  
HETATM   17  C   UNL     1     -10.940  10.462  67.874  1.00  0.00    -0.354 A  
HETATM   18 CL   UNL     1     -10.022  10.190  65.350  1.00  0.00    -0.376 Cl 
HETATM   19  C   UNL     1     -11.182  10.004  69.172  1.00  0.00    -0.197 A  
ENDBRANCH  10  13
ENDBRANCH   8  10
ENDBRANCH   6   8
ENDBRANCH   4   6
ENDBRANCH   3   4
ENDBRANCH   2   3
TORSDOF 6
ENDMDL
MODEL      204
REMARK 921   NORMALIZED FREE ENERGY PREDICTED BY IDOCK:   -3.30 KCAL/MOL
REMARK 922        TOTAL FREE ENERGY PREDICTED BY IDOCK:   -5.16 KCAL/MOL
REMARK 923 INTER-LIGAND FREE ENERGY PREDICTED BY IDOCK:   -4.65 KCAL/MOL
REMARK 924 INTRA-LIGAND FREE ENERGY PREDICTED BY IDOCK:   -0.52 KCAL/MOL
REMARK 927      BINDING AFFINITY PREDICTED BY RF-SCORE:    0.00 PKD
ROOT
HETATM    1  C   UNL     1     -10.362   8.953  67.973  1.00  0.00    -0.271 C  
HETATM    2  C   UNL     1     -10.661   9.430  66.559  1.00  0.00    -0.125 C  
ENDROOT
BRANCH   2   3
HETATM    3  C   UNL     1      -9.419   9.956  65.844  1.00  0.00    -0.215 C  
BRANCH   3   4
HETATM    4  N   UNL     1      -9.266  11.394  65.953  1.00  0.00    -0.216 N  
HETATM    5  H   UNL     1      -8.488  11.778  66.488  1.00  0.00     0.000 HD 
BRANCH   4   6
HETATM    6  C   UNL     1     -10.151  12.239  65.350  1.00  0.00    -0.269 C  
HETATM    7  O   UNL     1     -11.004  11.872  64.560  1.00  0.00    -0.296 OA 
BRANCH   6   8
HETATM    8  N   UNL     1     -10.010  13.555  65.751  1.00  0.00    -0.378 N  
HETATM    9  H   UNL     1     -10.294  14.289  65.102  1.00  0.00     0.000 HD 
BRANCH   8  10
HETATM   10  S   UNL     1      -9.403  14.007  67.233  1.00  0.00    -0.240 S  
HETATM   11  O   UNL     1      -8.014  13.613  67.304  1.00  0.00    -0.166 OA 
HETATM   12  O   UNL     1     -10.361  13.529  68.210  1.00  0.00    -0.239 OA 
BRANCH  10  13
HETATM   13  C   UNL     1      -9.513  15.782  67.235  1.00  0.00    -0.212 A  
HETATM   14  C   UNL     1     -10.091  16.438  66.142  1.00  0.00    -0.364 A  
HETATM   15  C   UNL     1     -10.156  17.834  66.136  1.00  0.00    -0.308 A  
HETATM   16  C   UNL     1      -9.658  18.559  67.221  1.00  0.00    -0.294 A  
HETATM   17  C   UNL     1      -9.097  17.903  68.316  1.00  0.00    -0.280 A  
HETATM   18 CL   UNL     1      -9.736  20.278  67.204  1.00  0.00    -0.564 Cl 
HETATM   19  C   UNL     1      -9.023  16.508  68.326  1.00  0.00    -0.214 A  
ENDBRANCH  10  13
ENDBRANCH   8  10
ENDBRANCH   6   8
ENDBRANCH   4   6
ENDBRANCH   3   4
ENDBRANCH   2   3
TORSDOF 6
ENDMDL
MODEL      205
REMARK 921   NORMALIZED FREE ENERGY PREDICTED BY IDOCK:   -3.29 KCAL/MOL
REMARK 922        TOTAL FREE ENERGY PREDICTED BY IDOCK:   -5.14 KCAL/MOL
REMARK 923 INTER-LIGAND FREE ENERGY PREDICTED BY IDOCK:   -4.49 KCAL/MOL
REMARK 924 INTRA-LIGAND FREE ENERGY PREDICTED BY IDOCK:   -0.66 KCAL/MOL
REMARK 927      BINDING AFFINITY PREDICTED BY RF-SCORE:    0.00 PKD
ROOT
HETATM    1  C   UNL     1      -7.979   7.691  67.251  1.00  0.00    -0.118 C  
HETATM    2  C   UNL     1      -9.212   7.559  66.368  1.00  0.00    -0.212 C  
ENDROOT
BRANCH   2   3
HETATM    3  C   UNL     1     -10.026   8.850  66.302  1.00  0.00    -0.266 C  
BRANCH   3   4
HETATM    4  N   UNL     1      -9.202  10.042  66.312  1.00  0.00    -0.156 N  
HETATM    5  H   UNL     1      -8.785  10.359  67.188  1.00  0.00     0.000 HD 
BRANCH   4   6
HETATM    6  C   UNL     1      -8.977  10.747  65.167  1.00  0.00    -0.198 C  
HETATM    7  O   UNL     1      -8.683  10.230  64.103  1.00  0.00    -0.179 OA 
BRANCH   6   8
HETATM    8  N   UNL     1      -9.152  12.111  65.320  1.00  0.00    -0.355 N  
HETATM    9  H   UNL     1      -8.323  12.692  65.444  1.00  0.00     0.000 HD 
BRANCH   8  10
HETATM   10  S   UNL     1     -10.641  12.855  65.314  1.00  0.00    -0.304 S  
HETATM   11  O   UNL     1     -11.663  11.843  65.172  1.00  0.00    -0.288 OA 
HETATM   12  O   UNL     1     -10.531  13.939  64.358  1.00  0.00    -0.397 OA 
BRANCH  10  13
HETATM   13  C   UNL     1     -10.769  13.603  66.922  1.00  0.00    -0.275 A  
HETATM   14  C   UNL     1     -12.033  13.895  67.448  1.00  0.00    -0.436 A  
HETATM   15  C   UNL     1     -12.130  14.503  68.702  1.00  0.00    -0.253 A  
HETATM   16  C   UNL     1     -10.972  14.801  69.424  1.00  0.00    -0.265 A  
HETATM   17  C   UNL     1      -9.714  14.494  68.905  1.00  0.00    -0.169 A  
HETATM   18 CL   UNL     1     -11.098  15.555  70.965  1.00  0.00    -0.396 Cl 
HETATM   19  C   UNL     1      -9.608  13.892  67.649  1.00  0.00    -0.215 A  
ENDBRANCH  10  13
ENDBRANCH   8  10
ENDBRANCH   6   8
ENDBRANCH   4   6
ENDBRANCH   3   4
ENDBRANCH   2   3
TORSDOF 6
ENDMDL
MODEL      206
REMARK 921   NORMALIZED FREE ENERGY PREDICTED BY IDOCK:   -3.26 KCAL/MOL
REMARK 922        TOTAL FREE ENERGY PREDICTED BY IDOCK:   -5.11 KCAL/MOL
REMARK 923 INTER-LIGAND FREE ENERGY PREDICTED BY IDOCK:   -4.55 KCAL/MOL
REMARK 924 INTRA-LIGAND FREE ENERGY PREDICTED BY IDOCK:   -0.56 KCAL/MOL
REMARK 927      BINDING AFFINITY PREDICTED BY RF-SCORE:    0.00 PKD
ROOT
HETATM    1  C   UNL     1      -9.339  17.072  66.805  1.00  0.00    -0.268 C  
HETATM    2  C   UNL     1     -10.296  16.237  65.968  1.00  0.00    -0.363 C  
ENDROOT
BRANCH   2   3
HETATM    3  C   UNL     1     -10.124  14.738  66.202  1.00  0.00    -0.296 C  
BRANCH   3   4
HETATM    4  N   UNL     1     -10.401  14.340  67.568  1.00  0.00    -0.247 N  
HETATM    5  H   UNL     1     -11.277  14.623  68.007  1.00  0.00     0.000 HD 
BRANCH   4   6
HETATM    6  C   UNL     1      -9.505  13.593  68.275  1.00  0.00    -0.213 C  
HETATM    7  O   UNL     1      -8.356  13.940  68.486  1.00  0.00    -0.155 OA 
BRANCH   6   8
HETATM    8  N   UNL     1     -10.041  12.416  68.764  1.00  0.00    -0.406 N  
HETATM    9  H   UNL     1      -9.655  12.033  69.627  1.00  0.00     0.000 HD 
BRANCH   8  10
HETATM   10  S   UNL     1     -11.280  11.589  68.023  1.00  0.00    -0.296 S  
HETATM   11  O   UNL     1     -12.409  12.480  67.879  1.00  0.00    -0.245 OA 
HETATM   12  O   UNL     1     -11.407  10.341  68.748  1.00  0.00    -0.230 OA 
BRANCH  10  13
HETATM   13  C   UNL     1     -10.641  11.182  66.414  1.00  0.00    -0.261 A  
HETATM   14  C   UNL     1      -9.424  10.499  66.307  1.00  0.00    -0.217 A  
HETATM   15  C   UNL     1      -8.913  10.202  65.041  1.00  0.00    -0.227 A  
HETATM   16  C   UNL     1      -9.623  10.573  63.898  1.00  0.00    -0.309 A  
HETATM   17  C   UNL     1     -10.844  11.240  64.006  1.00  0.00    -0.414 A  
HETATM   18 CL   UNL     1      -8.986  10.209  62.342  1.00  0.00    -0.254 Cl 
HETATM   19  C   UNL     1     -11.358  11.547  65.268  1.00  0.00    -0.150 A  
ENDBRANCH  10  13
ENDBRANCH   8  10
ENDBRANCH   6   8
ENDBRANCH   4   6
ENDBRANCH   3   4
ENDBRANCH   2   3
TORSDOF 6
ENDMDL
MODEL      207
REMARK 921   NORMALIZED FREE ENERGY PREDICTED BY IDOCK:   -3.25 KCAL/MOL
REMARK 922        TOTAL FREE ENERGY PREDICTED BY IDOCK:   -5.09 KCAL/MOL
REMARK 923 INTER-LIGAND FREE ENERGY PREDICTED BY IDOCK:   -4.06 KCAL/MOL
REMARK 924 INTRA-LIGAND FREE ENERGY PREDICTED BY IDOCK:   -1.03 KCAL/MOL
REMARK 927      BINDING AFFINITY PREDICTED BY RF-SCORE:    0.00 PKD
ROOT
HETATM    1  C   UNL     1      -8.625   8.274  65.767  1.00  0.00    -0.182 C  
HETATM    2  C   UNL     1      -9.281   7.294  66.729  1.00  0.00    -0.187 C  
ENDROOT
BRANCH   2   3
HETATM    3  C   UNL     1     -10.745   7.632  67.001  1.00  0.00    -0.270 C  
BRANCH   3   4
HETATM    4  N   UNL     1     -11.471   6.546  67.630  1.00  0.00    -0.688 N  
HETATM    5  H   UNL     1     -12.194   6.054  67.105  1.00  0.00     0.000 HD 
BRANCH   4   6
HETATM    6  C   UNL     1     -11.201   6.174  68.914  1.00  0.00    -0.261 C  
HETATM    7  O   UNL     1     -10.459   5.252  69.207  1.00  0.00    -0.239 OA 
BRANCH   6   8
HETATM    8  N   UNL     1     -11.823   6.972  69.857  1.00  0.00    -0.600 N  
HETATM    9  H   UNL     1     -12.825   7.135  69.764  1.00  0.00     0.000 HD 
BRANCH   8  10
HETATM   10  S   UNL     1     -11.025   7.679  71.136  1.00  0.00    -0.250 S  
HETATM   11  O   UNL     1     -10.607   6.641  72.050  1.00  0.00    -0.207 OA 
HETATM   12  O   UNL     1     -11.882   8.759  71.580  1.00  0.00    -0.288 OA 
BRANCH  10  13
HETATM   13  C   UNL     1      -9.591   8.432  70.401  1.00  0.00    -0.169 A  
HETATM   14  C   UNL     1      -9.711   9.678  69.775  1.00  0.00    -0.247 A  
HETATM   15  C   UNL     1      -8.588  10.257  69.179  1.00  0.00    -0.167 A  
HETATM   16  C   UNL     1      -7.357   9.598  69.225  1.00  0.00    -0.079 A  
HETATM   17  C   UNL     1      -7.236   8.364  69.863  1.00  0.00    -0.055 A  
HETATM   18 CL   UNL     1      -5.979  10.313  68.484  1.00  0.00    -0.041 Cl 
HETATM   19  C   UNL     1      -8.357   7.775  70.455  1.00  0.00    -0.125 A  
ENDBRANCH  10  13
ENDBRANCH   8  10
ENDBRANCH   6   8
ENDBRANCH   4   6
ENDBRANCH   3   4
ENDBRANCH   2   3
TORSDOF 6
ENDMDL
MODEL      208
REMARK 921   NORMALIZED FREE ENERGY PREDICTED BY IDOCK:   -3.22 KCAL/MOL
REMARK 922        TOTAL FREE ENERGY PREDICTED BY IDOCK:   -5.06 KCAL/MOL
REMARK 923 INTER-LIGAND FREE ENERGY PREDICTED BY IDOCK:   -4.45 KCAL/MOL
REMARK 924 INTRA-LIGAND FREE ENERGY PREDICTED BY IDOCK:   -0.60 KCAL/MOL
REMARK 927      BINDING AFFINITY PREDICTED BY RF-SCORE:    0.00 PKD
ROOT
HETATM    1  C   UNL     1     -10.408  10.790  68.322  1.00  0.00    -0.195 C  
HETATM    2  C   UNL     1     -10.837  11.648  69.503  1.00  0.00    -0.087 C  
ENDROOT
BRANCH   2   3
HETATM    3  C   UNL     1     -12.126  12.419  69.229  1.00  0.00    -0.165 C  
BRANCH   3   4
HETATM    4  N   UNL     1     -11.921  13.851  69.124  1.00  0.00    -0.348 N  
HETATM    5  H   UNL     1     -12.084  14.443  69.938  1.00  0.00     0.000 HD 
BRANCH   4   6
HETATM    6  C   UNL     1     -11.512  14.415  67.952  1.00  0.00    -0.321 C  
HETATM    7  O   UNL     1     -12.254  14.620  67.007  1.00  0.00    -0.307 OA 
BRANCH   6   8
HETATM    8  N   UNL     1     -10.175  14.771  67.953  1.00  0.00    -0.228 N  
HETATM    9  H   UNL     1      -9.552  14.303  67.294  1.00  0.00     0.000 HD 
BRANCH   8  10
HETATM   10  S   UNL     1      -9.528  15.919  68.968  1.00  0.00    -0.262 S  
HETATM   11  O   UNL     1      -8.493  15.300  69.766  1.00  0.00    -0.200 OA 
HETATM   12  O   UNL     1     -10.661  16.569  69.596  1.00  0.00    -0.316 OA 
BRANCH  10  13
HETATM   13  C   UNL     1      -8.794  17.114  67.875  1.00  0.00    -0.226 A  
HETATM   14  C   UNL     1      -7.742  16.728  67.036  1.00  0.00    -0.230 A  
HETATM   15  C   UNL     1      -7.153  17.675  66.195  1.00  0.00    -0.347 A  
HETATM   16  C   UNL     1      -7.625  18.989  66.186  1.00  0.00    -0.266 A  
HETATM   17  C   UNL     1      -8.683  19.368  67.010  1.00  0.00    -0.328 A  
HETATM   18 CL   UNL     1      -6.891  20.151  65.151  1.00  0.00    -0.333 Cl 
HETATM   19  C   UNL     1      -9.274  18.429  67.860  1.00  0.00    -0.294 A  
ENDBRANCH  10  13
ENDBRANCH   8  10
ENDBRANCH   6   8
ENDBRANCH   4   6
ENDBRANCH   3   4
ENDBRANCH   2   3
TORSDOF 6
ENDMDL
MODEL      209
REMARK 921   NORMALIZED FREE ENERGY PREDICTED BY IDOCK:   -3.22 KCAL/MOL
REMARK 922        TOTAL FREE ENERGY PREDICTED BY IDOCK:   -5.05 KCAL/MOL
REMARK 923 INTER-LIGAND FREE ENERGY PREDICTED BY IDOCK:   -4.54 KCAL/MOL
REMARK 924 INTRA-LIGAND FREE ENERGY PREDICTED BY IDOCK:   -0.51 KCAL/MOL
REMARK 927      BINDING AFFINITY PREDICTED BY RF-SCORE:    0.00 PKD
ROOT
HETATM    1  C   UNL     1     -10.668  19.259  66.256  1.00  0.00    -0.477 C  
HETATM    2  C   UNL     1      -9.689  18.094  66.300  1.00  0.00    -0.280 C  
ENDROOT
BRANCH   2   3
HETATM    3  C   UNL     1     -10.269  16.818  65.695  1.00  0.00    -0.236 C  
BRANCH   3   4
HETATM    4  N   UNL     1     -10.599  15.817  66.691  1.00  0.00    -0.310 N  
HETATM    5  H   UNL     1     -10.379  15.991  67.671  1.00  0.00     0.000 HD 
BRANCH   4   6
HETATM    6  C   UNL     1     -11.201  14.646  66.334  1.00  0.00    -0.336 C  
HETATM    7  O   UNL     1     -11.121  14.159  65.220  1.00  0.00    -0.307 OA 
BRANCH   6   8
HETATM    8  N   UNL     1     -11.884  14.043  67.374  1.00  0.00    -0.389 N  
HETATM    9  H   UNL     1     -12.895  13.934  67.288  1.00  0.00     0.000 HD 
BRANCH   8  10
HETATM   10  S   UNL     1     -11.148  13.484  68.759  1.00  0.00    -0.274 S  
HETATM   11  O   UNL     1     -12.170  13.173  69.732  1.00  0.00    -0.280 OA 
HETATM   12  O   UNL     1     -10.103  14.442  69.059  1.00  0.00    -0.221 OA 
BRANCH  10  13
HETATM   13  C   UNL     1     -10.337  11.984  68.254  1.00  0.00    -0.204 A  
HETATM   14  C   UNL     1     -11.092  10.947  67.694  1.00  0.00    -0.376 A  
HETATM   15  C   UNL     1     -10.455   9.760  67.319  1.00  0.00    -0.324 A  
HETATM   16  C   UNL     1      -9.076   9.624  67.493  1.00  0.00    -0.130 A  
HETATM   17  C   UNL     1      -8.324  10.665  68.037  1.00  0.00    -0.118 A  
HETATM   18 CL   UNL     1      -8.300   8.159  67.036  1.00  0.00    -0.115 Cl 
HETATM   19  C   UNL     1      -8.954  11.852  68.420  1.00  0.00    -0.163 A  
ENDBRANCH  10  13
ENDBRANCH   8  10
ENDBRANCH   6   8
ENDBRANCH   4   6
ENDBRANCH   3   4
ENDBRANCH   2   3
TORSDOF 6
ENDMDL
MODEL      210
REMARK 921   NORMALIZED FREE ENERGY PREDICTED BY IDOCK:   -3.21 KCAL/MOL
REMARK 922        TOTAL FREE ENERGY PREDICTED BY IDOCK:   -5.04 KCAL/MOL
REMARK 923 INTER-LIGAND FREE ENERGY PREDICTED BY IDOCK:   -4.83 KCAL/MOL
REMARK 924 INTRA-LIGAND FREE ENERGY PREDICTED BY IDOCK:   -0.22 KCAL/MOL
REMARK 927      BINDING AFFINITY PREDICTED BY RF-SCORE:    0.00 PKD
ROOT
HETATM    1  C   UNL     1      -8.665   7.860  71.190  1.00  0.00    -0.146 C  
HETATM    2  C   UNL     1      -9.586   9.065  71.316  1.00  0.00    -0.361 C  
ENDROOT
BRANCH   2   3
HETATM    3  C   UNL     1      -9.735   9.828  70.001  1.00  0.00    -0.250 C  
BRANCH   3   4
HETATM    4  N   UNL     1     -11.112  10.157  69.688  1.00  0.00    -0.249 N  
HETATM    5  H   UNL     1     -11.670   9.509  69.132  1.00  0.00     0.000 HD 
BRANCH   4   6
HETATM    6  C   UNL     1     -11.671  11.321  70.128  1.00  0.00    -0.343 C  
HETATM    7  O   UNL     1     -12.649  11.368  70.853  1.00  0.00    -0.367 OA 
BRANCH   6   8
HETATM    8  N   UNL     1     -10.994  12.448  69.699  1.00  0.00    -0.455 N  
HETATM    9  H   UNL     1      -9.974  12.434  69.718  1.00  0.00     0.000 HD 
BRANCH   8  10
HETATM   10  S   UNL     1     -11.751  13.827  69.155  1.00  0.00    -0.354 S  
HETATM   11  O   UNL     1     -12.639  14.306  70.191  1.00  0.00    -0.350 OA 
HETATM   12  O   UNL     1     -12.256  13.501  67.837  1.00  0.00    -0.305 OA 
BRANCH  10  13
HETATM   13  C   UNL     1     -10.431  14.995  68.923  1.00  0.00    -0.241 A  
HETATM   14  C   UNL     1      -9.134  14.531  68.676  1.00  0.00    -0.187 A  
HETATM   15  C   UNL     1      -8.094  15.451  68.517  1.00  0.00    -0.142 A  
HETATM   16  C   UNL     1      -8.358  16.820  68.592  1.00  0.00    -0.252 A  
HETATM   17  C   UNL     1      -9.654  17.282  68.822  1.00  0.00    -0.269 A  
HETATM   18 CL   UNL     1      -7.073  17.948  68.400  1.00  0.00    -0.236 Cl 
HETATM   19  C   UNL     1     -10.698  16.368  68.989  1.00  0.00    -0.322 A  
ENDBRANCH  10  13
ENDBRANCH   8  10
ENDBRANCH   6   8
ENDBRANCH   4   6
ENDBRANCH   3   4
ENDBRANCH   2   3
TORSDOF 6
ENDMDL
MODEL      211
REMARK 921   NORMALIZED FREE ENERGY PREDICTED BY IDOCK:   -3.21 KCAL/MOL
REMARK 922        TOTAL FREE ENERGY PREDICTED BY IDOCK:   -5.04 KCAL/MOL
REMARK 923 INTER-LIGAND FREE ENERGY PREDICTED BY IDOCK:   -4.24 KCAL/MOL
REMARK 924 INTRA-LIGAND FREE ENERGY PREDICTED BY IDOCK:   -0.80 KCAL/MOL
REMARK 927      BINDING AFFINITY PREDICTED BY RF-SCORE:    0.00 PKD
ROOT
HETATM    1  C   UNL     1      -6.370  12.269  69.471  1.00  0.00    -0.121 C  
HETATM    2  C   UNL     1      -6.884  13.472  68.693  1.00  0.00    -0.098 C  
ENDROOT
BRANCH   2   3
HETATM    3  C   UNL     1      -7.467  13.085  67.336  1.00  0.00    -0.131 C  
BRANCH   3   4
HETATM    4  N   UNL     1      -8.719  12.361  67.440  1.00  0.00    -0.174 N  
HETATM    5  H   UNL     1      -8.742  11.363  67.229  1.00  0.00     0.000 HD 
BRANCH   4   6
HETATM    6  C   UNL     1      -9.865  12.995  67.818  1.00  0.00    -0.224 C  
HETATM    7  O   UNL     1     -10.385  13.890  67.174  1.00  0.00    -0.262 OA 
BRANCH   6   8
HETATM    8  N   UNL     1     -10.406  12.497  68.990  1.00  0.00    -0.433 N  
HETATM    9  H   UNL     1     -10.246  13.018  69.853  1.00  0.00     0.000 HD 
BRANCH   8  10
HETATM   10  S   UNL     1     -11.301  11.097  69.070  1.00  0.00    -0.306 S  
HETATM   11  O   UNL     1     -11.348  10.502  67.753  1.00  0.00    -0.367 OA 
HETATM   12  O   UNL     1     -12.520  11.452  69.768  1.00  0.00    -0.209 OA 
BRANCH  10  13
HETATM   13  C   UNL     1     -10.376  10.041  70.161  1.00  0.00    -0.266 A  
HETATM   14  C   UNL     1      -9.015   9.820  69.918  1.00  0.00    -0.254 A  
HETATM   15  C   UNL     1      -8.296   8.971  70.764  1.00  0.00    -0.228 A  
HETATM   16  C   UNL     1      -8.933   8.365  71.848  1.00  0.00    -0.214 A  
HETATM   17  C   UNL     1     -10.285   8.599  72.099  1.00  0.00    -0.394 A  
HETATM   18 CL   UNL     1      -8.043   7.317  72.883  1.00  0.00    -0.118 Cl 
HETATM   19  C   UNL     1     -11.013   9.441  71.253  1.00  0.00    -0.440 A  
ENDBRANCH  10  13
ENDBRANCH   8  10
ENDBRANCH   6   8
ENDBRANCH   4   6
ENDBRANCH   3   4
ENDBRANCH   2   3
TORSDOF 6
ENDMDL
MODEL      212
REMARK 921   NORMALIZED FREE ENERGY PREDICTED BY IDOCK:   -3.19 KCAL/MOL
REMARK 922        TOTAL FREE ENERGY PREDICTED BY IDOCK:   -5.02 KCAL/MOL
REMARK 923 INTER-LIGAND FREE ENERGY PREDICTED BY IDOCK:   -4.27 KCAL/MOL
REMARK 924 INTRA-LIGAND FREE ENERGY PREDICTED BY IDOCK:   -0.75 KCAL/MOL
REMARK 927      BINDING AFFINITY PREDICTED BY RF-SCORE:    0.00 PKD
ROOT
HETATM    1  C   UNL     1      -5.619  14.924  70.284  1.00  0.00    -0.127 C  
HETATM    2  C   UNL     1      -6.354  15.074  68.960  1.00  0.00    -0.100 C  
ENDROOT
BRANCH   2   3
HETATM    3  C   UNL     1      -6.868  13.740  68.421  1.00  0.00    -0.101 C  
BRANCH   3   4
HETATM    4  N   UNL     1      -8.283  13.537  68.663  1.00  0.00    -0.308 N  
HETATM    5  H   UNL     1      -8.646  13.611  69.613  1.00  0.00     0.000 HD 
BRANCH   4   6
HETATM    6  C   UNL     1      -9.134  13.249  67.637  1.00  0.00    -0.204 C  
HETATM    7  O   UNL     1      -9.909  12.309  67.647  1.00  0.00    -0.190 OA 
BRANCH   6   8
HETATM    8  N   UNL     1      -9.059  14.155  66.594  1.00  0.00    -0.386 N  
HETATM    9  H   UNL     1      -8.337  14.016  65.887  1.00  0.00     0.000 HD 
BRANCH   8  10
HETATM   10  S   UNL     1     -10.083  15.457  66.428  1.00  0.00    -0.297 S  
HETATM   11  O   UNL     1     -11.218  15.266  67.303  1.00  0.00    -0.335 OA 
HETATM   12  O   UNL     1     -10.266  15.630  65.001  1.00  0.00    -0.413 OA 
BRANCH  10  13
HETATM   13  C   UNL     1      -9.128  16.846  66.994  1.00  0.00    -0.226 A  
HETATM   14  C   UNL     1      -8.329  17.549  66.086  1.00  0.00    -0.200 A  
HETATM   15  C   UNL     1      -7.562  18.626  66.538  1.00  0.00    -0.273 A  
HETATM   16  C   UNL     1      -7.609  18.999  67.884  1.00  0.00    -0.263 A  
HETATM   17  C   UNL     1      -8.419  18.307  68.784  1.00  0.00    -0.241 A  
HETATM   18 CL   UNL     1      -6.658  20.323  68.435  1.00  0.00    -0.335 Cl 
HETATM   19  C   UNL     1      -9.183  17.225  68.341  1.00  0.00    -0.268 A  
ENDBRANCH  10  13
ENDBRANCH   8  10
ENDBRANCH   6   8
ENDBRANCH   4   6
ENDBRANCH   3   4
ENDBRANCH   2   3
TORSDOF 6
ENDMDL
MODEL      213
REMARK 921   NORMALIZED FREE ENERGY PREDICTED BY IDOCK:   -3.18 KCAL/MOL
REMARK 922        TOTAL FREE ENERGY PREDICTED BY IDOCK:   -5.00 KCAL/MOL
REMARK 923 INTER-LIGAND FREE ENERGY PREDICTED BY IDOCK:   -4.68 KCAL/MOL
REMARK 924 INTRA-LIGAND FREE ENERGY PREDICTED BY IDOCK:   -0.32 KCAL/MOL
REMARK 927      BINDING AFFINITY PREDICTED BY RF-SCORE:    0.00 PKD
ROOT
HETATM    1  C   UNL     1     -12.093  13.070  63.345  1.00  0.00    -0.591 C  
HETATM    2  C   UNL     1     -12.081  14.169  64.397  1.00  0.00    -0.486 C  
ENDROOT
BRANCH   2   3
HETATM    3  C   UNL     1     -12.908  13.810  65.629  1.00  0.00    -0.408 C  
BRANCH   3   4
HETATM    4  N   UNL     1     -12.512  14.547  66.814  1.00  0.00    -0.457 N  
HETATM    5  H   UNL     1     -13.086  15.325  67.138  1.00  0.00     0.000 HD 
BRANCH   4   6
HETATM    6  C   UNL     1     -11.383  14.212  67.501  1.00  0.00    -0.322 C  
HETATM    7  O   UNL     1     -10.626  15.030  67.994  1.00  0.00    -0.243 OA 
BRANCH   6   8
HETATM    8  N   UNL     1     -11.198  12.846  67.618  1.00  0.00    -0.263 N  
HETATM    9  H   UNL     1     -11.936  12.296  68.058  1.00  0.00     0.000 HD 
BRANCH   8  10
HETATM   10  S   UNL     1      -9.839  12.050  67.080  1.00  0.00    -0.196 S  
HETATM   11  O   UNL     1      -8.708  12.945  67.184  1.00  0.00    -0.195 OA 
HETATM   12  O   UNL     1     -10.208  11.464  65.807  1.00  0.00    -0.231 OA 
BRANCH  10  13
HETATM   13  C   UNL     1      -9.633  10.704  68.223  1.00  0.00    -0.162 A  
HETATM   14  C   UNL     1     -10.357  10.698  69.421  1.00  0.00    -0.234 A  
HETATM   15  C   UNL     1     -10.176   9.650  70.327  1.00  0.00    -0.333 A  
HETATM   16  C   UNL     1      -9.288   8.615  70.027  1.00  0.00    -0.162 A  
HETATM   17  C   UNL     1      -8.579   8.614  68.827  1.00  0.00    -0.130 A  
HETATM   18 CL   UNL     1      -9.065   7.331  71.150  1.00  0.00    -0.151 Cl 
HETATM   19  C   UNL     1      -8.749   9.662  67.918  1.00  0.00    -0.119 A  
ENDBRANCH  10  13
ENDBRANCH   8  10
ENDBRANCH   6   8
ENDBRANCH   4   6
ENDBRANCH   3   4
ENDBRANCH   2   3
TORSDOF 6
ENDMDL
MODEL      214
REMARK 921   NORMALIZED FREE ENERGY PREDICTED BY IDOCK:   -3.17 KCAL/MOL
REMARK 922        TOTAL FREE ENERGY PREDICTED BY IDOCK:   -4.99 KCAL/MOL
REMARK 923 INTER-LIGAND FREE ENERGY PREDICTED BY IDOCK:   -4.81 KCAL/MOL
REMARK 924 INTRA-LIGAND FREE ENERGY PREDICTED BY IDOCK:   -0.18 KCAL/MOL
REMARK 927      BINDING AFFINITY PREDICTED BY RF-SCORE:    0.00 PKD
ROOT
HETATM    1  C   UNL     1     -10.642   9.606  67.500  1.00  0.00    -0.339 C  
HETATM    2  C   UNL     1     -10.780  10.436  68.769  1.00  0.00    -0.255 C  
ENDROOT
BRANCH   2   3
HETATM    3  C   UNL     1     -11.854  11.514  68.650  1.00  0.00    -0.318 C  
BRANCH   3   4
HETATM    4  N   UNL     1     -11.347  12.850  68.892  1.00  0.00    -0.271 N  
HETATM    5  H   UNL     1     -10.976  13.089  69.812  1.00  0.00     0.000 HD 
BRANCH   4   6
HETATM    6  C   UNL     1     -11.359  13.793  67.907  1.00  0.00    -0.299 C  
HETATM    7  O   UNL     1     -11.884  14.887  68.026  1.00  0.00    -0.333 OA 
BRANCH   6   8
HETATM    8  N   UNL     1     -10.682  13.401  66.766  1.00  0.00    -0.276 N  
HETATM    9  H   UNL     1     -10.097  12.567  66.817  1.00  0.00     0.000 HD 
BRANCH   8  10
HETATM   10  S   UNL     1     -10.771  14.214  65.316  1.00  0.00    -0.389 S  
HETATM   11  O   UNL     1     -12.163  14.379  64.964  1.00  0.00    -0.405 OA 
HETATM   12  O   UNL     1      -9.856  13.527  64.427  1.00  0.00    -0.175 OA 
BRANCH  10  13
HETATM   13  C   UNL     1     -10.055  15.806  65.656  1.00  0.00    -0.371 A  
HETATM   14  C   UNL     1      -8.727  15.886  66.092  1.00  0.00    -0.328 A  
HETATM   15  C   UNL     1      -8.175  17.137  66.380  1.00  0.00    -0.327 A  
HETATM   16  C   UNL     1      -8.943  18.292  66.219  1.00  0.00    -0.181 A  
HETATM   17  C   UNL     1     -10.260  18.211  65.770  1.00  0.00    -0.112 A  
HETATM   18 CL   UNL     1      -8.258  19.828  66.581  1.00  0.00    -0.330 Cl 
HETATM   19  C   UNL     1     -10.823  16.964  65.486  1.00  0.00    -0.101 A  
ENDBRANCH  10  13
ENDBRANCH   8  10
ENDBRANCH   6   8
ENDBRANCH   4   6
ENDBRANCH   3   4
ENDBRANCH   2   3
TORSDOF 6
ENDMDL
MODEL      215
REMARK 921   NORMALIZED FREE ENERGY PREDICTED BY IDOCK:   -3.17 KCAL/MOL
REMARK 922        TOTAL FREE ENERGY PREDICTED BY IDOCK:   -4.99 KCAL/MOL
REMARK 923 INTER-LIGAND FREE ENERGY PREDICTED BY IDOCK:   -4.30 KCAL/MOL
REMARK 924 INTRA-LIGAND FREE ENERGY PREDICTED BY IDOCK:   -0.69 KCAL/MOL
REMARK 927      BINDING AFFINITY PREDICTED BY RF-SCORE:    0.00 PKD
ROOT
HETATM    1  C   UNL     1     -11.174  12.055  64.090  1.00  0.00    -0.441 C  
HETATM    2  C   UNL     1     -11.915  13.384  64.144  1.00  0.00    -0.505 C  
ENDROOT
BRANCH   2   3
HETATM    3  C   UNL     1     -12.910  13.452  65.300  1.00  0.00    -0.334 C  
BRANCH   3   4
HETATM    4  N   UNL     1     -12.431  14.244  66.416  1.00  0.00    -0.506 N  
HETATM    5  H   UNL     1     -12.652  15.239  66.459  1.00  0.00     0.000 HD 
BRANCH   4   6
HETATM    6  C   UNL     1     -11.690  13.676  67.410  1.00  0.00    -0.381 C  
HETATM    7  O   UNL     1     -11.906  12.565  67.862  1.00  0.00    -0.351 OA 
BRANCH   6   8
HETATM    8  N   UNL     1     -10.639  14.471  67.831  1.00  0.00    -0.241 N  
HETATM    9  H   UNL     1     -10.421  14.492  68.827  1.00  0.00     0.000 HD 
BRANCH   8  10
HETATM   10  S   UNL     1      -9.712  15.395  66.802  1.00  0.00    -0.252 S  
HETATM   11  O   UNL     1     -10.585  16.274  66.058  1.00  0.00    -0.318 OA 
HETATM   12  O   UNL     1      -8.840  14.461  66.119  1.00  0.00    -0.018 OA 
BRANCH  10  13
HETATM   13  C   UNL     1      -8.682  16.361  67.882  1.00  0.00    -0.179 A  
HETATM   14  C   UNL     1      -8.946  17.726  68.048  1.00  0.00    -0.263 A  
HETATM   15  C   UNL     1      -8.120  18.488  68.880  1.00  0.00    -0.220 A  
HETATM   16  C   UNL     1      -7.053  17.882  69.546  1.00  0.00     0.093 A  
HETATM   17  C   UNL     1      -6.801  16.519  69.392  1.00  0.00    -0.220 A  
HETATM   18 CL   UNL     1      -6.037  18.827  70.564  1.00  0.00    -0.028 Cl 
HETATM   19  C   UNL     1      -7.618  15.752  68.557  1.00  0.00    -0.138 A  
ENDBRANCH  10  13
ENDBRANCH   8  10
ENDBRANCH   6   8
ENDBRANCH   4   6
ENDBRANCH   3   4
ENDBRANCH   2   3
TORSDOF 6
ENDMDL
MODEL      216
REMARK 921   NORMALIZED FREE ENERGY PREDICTED BY IDOCK:   -3.14 KCAL/MOL
REMARK 922        TOTAL FREE ENERGY PREDICTED BY IDOCK:   -4.95 KCAL/MOL
REMARK 923 INTER-LIGAND FREE ENERGY PREDICTED BY IDOCK:   -4.35 KCAL/MOL
REMARK 924 INTRA-LIGAND FREE ENERGY PREDICTED BY IDOCK:   -0.59 KCAL/MOL
REMARK 927      BINDING AFFINITY PREDICTED BY RF-SCORE:    0.00 PKD
ROOT
HETATM    1  C   UNL     1      -8.654   3.980  67.391  1.00  0.00    -0.107 C  
HETATM    2  C   UNL     1      -8.802   5.215  66.515  1.00  0.00    -0.117 C  
ENDROOT
BRANCH   2   3
HETATM    3  C   UNL     1      -8.293   6.482  67.198  1.00  0.00    -0.113 C  
BRANCH   3   4
HETATM    4  N   UNL     1      -9.152   6.931  68.276  1.00  0.00    -0.127 N  
HETATM    5  H   UNL     1      -8.787   6.970  69.228  1.00  0.00     0.000 HD 
BRANCH   4   6
HETATM    6  C   UNL     1     -10.442   7.302  68.035  1.00  0.00    -0.197 C  
HETATM    7  O   UNL     1     -11.403   6.587  68.258  1.00  0.00    -0.230 OA 
BRANCH   6   8
HETATM    8  N   UNL     1     -10.558   8.590  67.544  1.00  0.00    -0.413 N  
HETATM    9  H   UNL     1     -10.778   8.711  66.555  1.00  0.00     0.000 HD 
BRANCH   8  10
HETATM   10  S   UNL     1     -10.359   9.953  68.478  1.00  0.00    -0.205 S  
HETATM   11  O   UNL     1      -8.951  10.123  68.754  1.00  0.00    -0.132 OA 
HETATM   12  O   UNL     1     -11.318   9.830  69.557  1.00  0.00    -0.190 OA 
BRANCH  10  13
HETATM   13  C   UNL     1     -10.923  11.285  67.443  1.00  0.00    -0.282 A  
HETATM   14  C   UNL     1     -10.677  11.240  66.066  1.00  0.00    -0.301 A  
HETATM   15  C   UNL     1     -11.100  12.298  65.258  1.00  0.00    -0.359 A  
HETATM   16  C   UNL     1     -11.775  13.381  65.826  1.00  0.00    -0.349 A  
HETATM   17  C   UNL     1     -12.033  13.418  67.196  1.00  0.00    -0.415 A  
HETATM   18 CL   UNL     1     -12.289  14.685  64.827  1.00  0.00    -0.414 Cl 
HETATM   19  C   UNL     1     -11.606  12.366  68.011  1.00  0.00    -0.403 A  
ENDBRANCH  10  13
ENDBRANCH   8  10
ENDBRANCH   6   8
ENDBRANCH   4   6
ENDBRANCH   3   4
ENDBRANCH   2   3
TORSDOF 6
ENDMDL
MODEL      217
REMARK 921   NORMALIZED FREE ENERGY PREDICTED BY IDOCK:   -3.14 KCAL/MOL
REMARK 922        TOTAL FREE ENERGY PREDICTED BY IDOCK:   -4.94 KCAL/MOL
REMARK 923 INTER-LIGAND FREE ENERGY PREDICTED BY IDOCK:   -4.03 KCAL/MOL
REMARK 924 INTRA-LIGAND FREE ENERGY PREDICTED BY IDOCK:   -0.91 KCAL/MOL
REMARK 927      BINDING AFFINITY PREDICTED BY RF-SCORE:    0.00 PKD
ROOT
HETATM    1  C   UNL     1      -6.516  10.537  67.982  1.00  0.00    -0.059 C  
HETATM    2  C   UNL     1      -6.717  10.914  66.522  1.00  0.00    -0.133 C  
ENDROOT
BRANCH   2   3
HETATM    3  C   UNL     1      -7.979  10.296  65.925  1.00  0.00    -0.137 C  
BRANCH   3   4
HETATM    4  N   UNL     1      -8.518   9.217  66.729  1.00  0.00    -0.122 N  
HETATM    5  H   UNL     1      -7.888   8.651  67.298  1.00  0.00     0.000 HD 
BRANCH   4   6
HETATM    6  C   UNL     1      -9.855   8.948  66.734  1.00  0.00    -0.241 C  
HETATM    7  O   UNL     1     -10.317   7.821  66.758  1.00  0.00    -0.301 OA 
BRANCH   6   8
HETATM    8  N   UNL     1     -10.641  10.086  66.749  1.00  0.00    -0.194 N  
HETATM    9  H   UNL     1     -11.119  10.352  65.888  1.00  0.00     0.000 HD 
BRANCH   8  10
HETATM   10  S   UNL     1     -10.850  11.045  68.094  1.00  0.00    -0.248 S  
HETATM   11  O   UNL     1      -9.950  10.590  69.130  1.00  0.00    -0.204 OA 
HETATM   12  O   UNL     1     -12.280  11.093  68.321  1.00  0.00    -0.613 OA 
BRANCH  10  13
HETATM   13  C   UNL     1     -10.361  12.669  67.560  1.00  0.00    -0.218 A  
HETATM   14  C   UNL     1      -9.453  13.405  68.330  1.00  0.00    -0.209 A  
HETATM   15  C   UNL     1      -9.089  14.690  67.920  1.00  0.00    -0.189 A  
HETATM   16  C   UNL     1      -9.620  15.223  66.743  1.00  0.00    -0.241 A  
HETATM   17  C   UNL     1     -10.513  14.482  65.968  1.00  0.00    -0.315 A  
HETATM   18 CL   UNL     1      -9.172  16.808  66.246  1.00  0.00    -0.309 Cl 
HETATM   19  C   UNL     1     -10.887  13.199  66.376  1.00  0.00    -0.299 A  
ENDBRANCH  10  13
ENDBRANCH   8  10
ENDBRANCH   6   8
ENDBRANCH   4   6
ENDBRANCH   3   4
ENDBRANCH   2   3
TORSDOF 6
ENDMDL
MODEL      218
REMARK 921   NORMALIZED FREE ENERGY PREDICTED BY IDOCK:   -3.12 KCAL/MOL
REMARK 922        TOTAL FREE ENERGY PREDICTED BY IDOCK:   -4.91 KCAL/MOL
REMARK 923 INTER-LIGAND FREE ENERGY PREDICTED BY IDOCK:   -4.43 KCAL/MOL
REMARK 924 INTRA-LIGAND FREE ENERGY PREDICTED BY IDOCK:   -0.48 KCAL/MOL
REMARK 927      BINDING AFFINITY PREDICTED BY RF-SCORE:    0.00 PKD
ROOT
HETATM    1  C   UNL     1      -6.139  16.660  69.569  1.00  0.00    -0.214 C  
HETATM    2  C   UNL     1      -7.044  17.303  68.528  1.00  0.00    -0.220 C  
ENDROOT
BRANCH   2   3
HETATM    3  C   UNL     1      -8.062  16.321  67.951  1.00  0.00    -0.146 C  
BRANCH   3   4
HETATM    4  N   UNL     1      -9.387  16.893  67.815  1.00  0.00    -0.233 N  
HETATM    5  H   UNL     1      -9.769  17.464  68.568  1.00  0.00     0.000 HD 
BRANCH   4   6
HETATM    6  C   UNL     1     -10.131  16.676  66.692  1.00  0.00    -0.301 C  
HETATM    7  O   UNL     1     -10.545  17.570  65.974  1.00  0.00    -0.331 OA 
BRANCH   6   8
HETATM    8  N   UNL     1     -10.338  15.335  66.423  1.00  0.00    -0.279 N  
HETATM    9  H   UNL     1      -9.590  14.814  65.966  1.00  0.00     0.000 HD 
BRANCH   8  10
HETATM   10  S   UNL     1     -11.741  14.525  66.806  1.00  0.00    -0.350 S  
HETATM   11  O   UNL     1     -12.571  14.455  65.624  1.00  0.00    -0.408 OA 
HETATM   12  O   UNL     1     -12.230  15.144  68.021  1.00  0.00    -0.081 OA 
BRANCH  10  13
HETATM   13  C   UNL     1     -11.201  12.889  67.245  1.00  0.00    -0.288 A  
HETATM   14  C   UNL     1     -10.242  12.244  66.457  1.00  0.00    -0.235 A  
HETATM   15  C   UNL     1      -9.836  10.949  66.792  1.00  0.00    -0.231 A  
HETATM   16  C   UNL     1     -10.379  10.317  67.913  1.00  0.00    -0.196 A  
HETATM   17  C   UNL     1     -11.323  10.967  68.706  1.00  0.00    -0.349 A  
HETATM   18 CL   UNL     1      -9.880   8.721  68.316  1.00  0.00    -0.176 Cl 
HETATM   19  C   UNL     1     -11.739  12.259  68.374  1.00  0.00    -0.390 A  
ENDBRANCH  10  13
ENDBRANCH   8  10
ENDBRANCH   6   8
ENDBRANCH   4   6
ENDBRANCH   3   4
ENDBRANCH   2   3
TORSDOF 6
ENDMDL
MODEL      219
REMARK 921   NORMALIZED FREE ENERGY PREDICTED BY IDOCK:   -3.10 KCAL/MOL
REMARK 922        TOTAL FREE ENERGY PREDICTED BY IDOCK:   -4.89 KCAL/MOL
REMARK 923 INTER-LIGAND FREE ENERGY PREDICTED BY IDOCK:   -4.31 KCAL/MOL
REMARK 924 INTRA-LIGAND FREE ENERGY PREDICTED BY IDOCK:   -0.58 KCAL/MOL
REMARK 927      BINDING AFFINITY PREDICTED BY RF-SCORE:    0.00 PKD
ROOT
HETATM    1  C   UNL     1     -14.020   8.853  72.375  1.00  0.00    -0.516 C  
HETATM    2  C   UNL     1     -12.823   9.200  71.501  1.00  0.00    -0.412 C  
ENDROOT
BRANCH   2   3
HETATM    3  C   UNL     1     -11.495   8.808  72.143  1.00  0.00    -0.351 C  
BRANCH   3   4
HETATM    4  N   UNL     1     -11.596   7.629  72.982  1.00  0.00    -0.621 N  
HETATM    5  H   UNL     1     -12.024   7.703  73.905  1.00  0.00     0.000 HD 
BRANCH   4   6
HETATM    6  C   UNL     1     -11.126   6.423  72.553  1.00  0.00    -0.263 C  
HETATM    7  O   UNL     1     -11.517   5.353  72.987  1.00  0.00    -0.308 OA 
BRANCH   6   8
HETATM    8  N   UNL     1     -10.185   6.529  71.545  1.00  0.00    -0.191 N  
HETATM    9  H   UNL     1      -9.292   6.969  71.764  1.00  0.00     0.000 HD 
BRANCH   8  10
HETATM   10  S   UNL     1     -10.430   5.978  69.993  1.00  0.00    -0.277 S  
HETATM   11  O   UNL     1     -11.782   6.301  69.596  1.00  0.00    -0.382 OA 
HETATM   12  O   UNL     1      -9.963   4.606  69.988  1.00  0.00    -0.217 OA 
BRANCH  10  13
HETATM   13  C   UNL     1      -9.285   6.913  69.005  1.00  0.00    -0.137 A  
HETATM   14  C   UNL     1      -8.650   6.299  67.919  1.00  0.00    -0.115 A  
HETATM   15  C   UNL     1      -7.733   7.029  67.158  1.00  0.00    -0.108 A  
HETATM   16  C   UNL     1      -7.469   8.363  67.477  1.00  0.00    -0.094 A  
HETATM   17  C   UNL     1      -8.114   8.977  68.550  1.00  0.00    -0.107 A  
HETATM   18 CL   UNL     1      -6.335   9.255  66.540  1.00  0.00    -0.065 Cl 
HETATM   19  C   UNL     1      -9.027   8.252  69.320  1.00  0.00    -0.147 A  
ENDBRANCH  10  13
ENDBRANCH   8  10
ENDBRANCH   6   8
ENDBRANCH   4   6
ENDBRANCH   3   4
ENDBRANCH   2   3
TORSDOF 6
ENDMDL
MODEL      220
REMARK 921   NORMALIZED FREE ENERGY PREDICTED BY IDOCK:   -3.08 KCAL/MOL
REMARK 922        TOTAL FREE ENERGY PREDICTED BY IDOCK:   -4.87 KCAL/MOL
REMARK 923 INTER-LIGAND FREE ENERGY PREDICTED BY IDOCK:   -4.24 KCAL/MOL
REMARK 924 INTRA-LIGAND FREE ENERGY PREDICTED BY IDOCK:   -0.63 KCAL/MOL
REMARK 927      BINDING AFFINITY PREDICTED BY RF-SCORE:    0.00 PKD
ROOT
HETATM    1  C   UNL     1     -13.057  10.874  71.810  1.00  0.00    -0.564 C  
HETATM    2  C   UNL     1     -13.532   9.460  72.111  1.00  0.00    -0.543 C  
ENDROOT
BRANCH   2   3
HETATM    3  C   UNL     1     -12.377   8.502  72.393  1.00  0.00    -0.359 C  
BRANCH   3   4
HETATM    4  N   UNL     1     -11.622   8.157  71.206  1.00  0.00    -0.269 N  
HETATM    5  H   UNL     1     -12.109   8.025  70.320  1.00  0.00     0.000 HD 
BRANCH   4   6
HETATM    6  C   UNL     1     -10.267   8.007  71.257  1.00  0.00    -0.192 C  
HETATM    7  O   UNL     1      -9.714   6.954  71.521  1.00  0.00    -0.164 OA 
BRANCH   6   8
HETATM    8  N   UNL     1      -9.576   9.163  70.941  1.00  0.00    -0.262 N  
HETATM    9  H   UNL     1      -9.144   9.688  71.700  1.00  0.00     0.000 HD 
BRANCH   8  10
HETATM   10  S   UNL     1      -9.412   9.744  69.389  1.00  0.00    -0.214 S  
HETATM   11  O   UNL     1      -8.120  10.381  69.269  1.00  0.00    -0.138 OA 
HETATM   12  O   UNL     1     -10.631  10.478  69.116  1.00  0.00    -0.201 OA 
BRANCH  10  13
HETATM   13  C   UNL     1      -9.450   8.290  68.366  1.00  0.00    -0.139 A  
HETATM   14  C   UNL     1     -10.644   7.922  67.734  1.00  0.00    -0.244 A  
HETATM   15  C   UNL     1     -10.677   6.767  66.949  1.00  0.00    -0.394 A  
HETATM   16  C   UNL     1      -9.521   5.999  66.791  1.00  0.00    -0.144 A  
HETATM   17  C   UNL     1      -8.329   6.375  67.408  1.00  0.00    -0.112 A  
HETATM   18 CL   UNL     1      -9.570   4.574  65.827  1.00  0.00    -0.173 Cl 
HETATM   19  C   UNL     1      -8.289   7.526  68.200  1.00  0.00    -0.125 A  
ENDBRANCH  10  13
ENDBRANCH   8  10
ENDBRANCH   6   8
ENDBRANCH   4   6
ENDBRANCH   3   4
ENDBRANCH   2   3
TORSDOF 6
ENDMDL
MODEL      221
REMARK 921   NORMALIZED FREE ENERGY PREDICTED BY IDOCK:   -3.08 KCAL/MOL
REMARK 922        TOTAL FREE ENERGY PREDICTED BY IDOCK:   -4.86 KCAL/MOL
REMARK 923 INTER-LIGAND FREE ENERGY PREDICTED BY IDOCK:   -4.40 KCAL/MOL
REMARK 924 INTRA-LIGAND FREE ENERGY PREDICTED BY IDOCK:   -0.46 KCAL/MOL
REMARK 927      BINDING AFFINITY PREDICTED BY RF-SCORE:    0.00 PKD
ROOT
HETATM    1  C   UNL     1     -13.834   8.165  72.194  1.00  0.00    -0.304 C  
HETATM    2  C   UNL     1     -13.359   9.606  72.072  1.00  0.00    -0.547 C  
ENDROOT
BRANCH   2   3
HETATM    3  C   UNL     1     -12.252   9.772  71.033  1.00  0.00    -0.347 C  
BRANCH   3   4
HETATM    4  N   UNL     1     -10.945   9.390  71.529  1.00  0.00    -0.372 N  
HETATM    5  H   UNL     1     -10.549   9.878  72.332  1.00  0.00     0.000 HD 
BRANCH   4   6
HETATM    6  C   UNL     1     -10.237   8.386  70.936  1.00  0.00    -0.194 C  
HETATM    7  O   UNL     1      -9.334   7.781  71.487  1.00  0.00    -0.135 OA 
BRANCH   6   8
HETATM    8  N   UNL     1     -10.671   8.093  69.656  1.00  0.00    -0.294 N  
HETATM    9  H   UNL     1     -11.576   7.636  69.546  1.00  0.00     0.000 HD 
BRANCH   8  10
HETATM   10  S   UNL     1      -9.797   8.446  68.283  1.00  0.00    -0.174 S  
HETATM   11  O   UNL     1     -10.347   7.693  67.179  1.00  0.00    -0.254 OA 
HETATM   12  O   UNL     1      -8.405   8.304  68.659  1.00  0.00    -0.122 OA 
BRANCH  10  13
HETATM   13  C   UNL     1     -10.079  10.181  68.013  1.00  0.00    -0.157 A  
HETATM   14  C   UNL     1      -9.160  11.115  68.506  1.00  0.00    -0.175 A  
HETATM   15  C   UNL     1      -9.396  12.478  68.312  1.00  0.00    -0.193 A  
HETATM   16  C   UNL     1     -10.534  12.897  67.620  1.00  0.00    -0.224 A  
HETATM   17  C   UNL     1     -11.441  11.965  67.116  1.00  0.00    -0.386 A  
HETATM   18 CL   UNL     1     -10.822  14.577  67.390  1.00  0.00    -0.285 Cl 
HETATM   19  C   UNL     1     -11.216  10.600  67.312  1.00  0.00    -0.237 A  
ENDBRANCH  10  13
ENDBRANCH   8  10
ENDBRANCH   6   8
ENDBRANCH   4   6
ENDBRANCH   3   4
ENDBRANCH   2   3
TORSDOF 6
ENDMDL
MODEL      222
REMARK 921   NORMALIZED FREE ENERGY PREDICTED BY IDOCK:   -3.08 KCAL/MOL
REMARK 922        TOTAL FREE ENERGY PREDICTED BY IDOCK:   -4.86 KCAL/MOL
REMARK 923 INTER-LIGAND FREE ENERGY PREDICTED BY IDOCK:   -4.32 KCAL/MOL
REMARK 924 INTRA-LIGAND FREE ENERGY PREDICTED BY IDOCK:   -0.53 KCAL/MOL
REMARK 927      BINDING AFFINITY PREDICTED BY RF-SCORE:    0.00 PKD
ROOT
HETATM    1  C   UNL     1      -8.222   8.479  62.971  1.00  0.00    -0.165 C  
HETATM    2  C   UNL     1      -9.150   9.554  62.424  1.00  0.00    -0.257 C  
ENDROOT
BRANCH   2   3
HETATM    3  C   UNL     1      -9.373  10.695  63.414  1.00  0.00    -0.297 C  
BRANCH   3   4
HETATM    4  N   UNL     1      -9.491  10.241  64.786  1.00  0.00    -0.257 N  
HETATM    5  H   UNL     1      -9.004   9.395  65.080  1.00  0.00     0.000 HD 
BRANCH   4   6
HETATM    6  C   UNL     1     -10.246  10.932  65.689  1.00  0.00    -0.263 C  
HETATM    7  O   UNL     1     -11.278  11.512  65.402  1.00  0.00    -0.245 OA 
BRANCH   6   8
HETATM    8  N   UNL     1      -9.743  10.877  66.977  1.00  0.00    -0.173 N  
HETATM    9  H   UNL     1      -9.534  11.756  67.450  1.00  0.00     0.000 HD 
BRANCH   8  10
HETATM   10  S   UNL     1      -9.460   9.456  67.796  1.00  0.00    -0.133 S  
HETATM   11  O   UNL     1      -8.119   9.493  68.336  1.00  0.00    -0.100 OA 
HETATM   12  O   UNL     1      -9.869   8.398  66.896  1.00  0.00    -0.198 OA 
BRANCH  10  13
HETATM   13  C   UNL     1     -10.634   9.474  69.132  1.00  0.00    -0.222 A  
HETATM   14  C   UNL     1     -10.849   8.309  69.877  1.00  0.00    -0.213 A  
HETATM   15  C   UNL     1     -11.789   8.320  70.911  1.00  0.00    -0.232 A  
HETATM   16  C   UNL     1     -12.493   9.491  71.201  1.00  0.00    -0.315 A  
HETATM   17  C   UNL     1     -12.266  10.655  70.467  1.00  0.00    -0.449 A  
HETATM   18 CL   UNL     1     -13.653   9.496  72.471  1.00  0.00    -0.457 Cl 
HETATM   19  C   UNL     1     -11.333  10.651  69.427  1.00  0.00    -0.348 A  
ENDBRANCH  10  13
ENDBRANCH   8  10
ENDBRANCH   6   8
ENDBRANCH   4   6
ENDBRANCH   3   4
ENDBRANCH   2   3
TORSDOF 6
ENDMDL
MODEL      223
REMARK 921   NORMALIZED FREE ENERGY PREDICTED BY IDOCK:   -3.06 KCAL/MOL
REMARK 922        TOTAL FREE ENERGY PREDICTED BY IDOCK:   -4.83 KCAL/MOL
REMARK 923 INTER-LIGAND FREE ENERGY PREDICTED BY IDOCK:   -4.42 KCAL/MOL
REMARK 924 INTRA-LIGAND FREE ENERGY PREDICTED BY IDOCK:   -0.42 KCAL/MOL
REMARK 927      BINDING AFFINITY PREDICTED BY RF-SCORE:    0.00 PKD
ROOT
HETATM    1  C   UNL     1     -10.853  13.738  66.589  1.00  0.00    -0.288 C  
HETATM    2  C   UNL     1     -11.757  12.621  67.091  1.00  0.00    -0.438 C  
ENDROOT
BRANCH   2   3
HETATM    3  C   UNL     1     -10.970  11.428  67.627  1.00  0.00    -0.250 C  
BRANCH   3   4
HETATM    4  N   UNL     1     -11.785  10.509  68.397  1.00  0.00    -0.487 N  
HETATM    5  H   UNL     1     -12.485   9.939  67.923  1.00  0.00     0.000 HD 
BRANCH   4   6
HETATM    6  C   UNL     1     -11.628  10.398  69.747  1.00  0.00    -0.269 C  
HETATM    7  O   UNL     1     -11.831  11.311  70.528  1.00  0.00    -0.338 OA 
BRANCH   6   8
HETATM    8  N   UNL     1     -11.251   9.130  70.151  1.00  0.00    -0.348 N  
HETATM    9  H   UNL     1     -11.956   8.393  70.149  1.00  0.00     0.000 HD 
BRANCH   8  10
HETATM   10  S   UNL     1      -9.708   8.739  70.639  1.00  0.00    -0.213 S  
HETATM   11  O   UNL     1      -9.488   9.288  71.958  1.00  0.00    -0.246 OA 
HETATM   12  O   UNL     1      -8.845   9.098  69.532  1.00  0.00    -0.137 OA 
BRANCH  10  13
HETATM   13  C   UNL     1      -9.709   6.963  70.733  1.00  0.00    -0.171 A  
HETATM   14  C   UNL     1     -10.120   6.214  69.624  1.00  0.00    -0.226 A  
HETATM   15  C   UNL     1     -10.142   4.820  69.707  1.00  0.00    -0.289 A  
HETATM   16  C   UNL     1      -9.743   4.186  70.887  1.00  0.00    -0.189 A  
HETATM   17  C   UNL     1      -9.319   4.933  71.985  1.00  0.00    -0.175 A  
HETATM   18 CL   UNL     1      -9.777   2.469  70.985  1.00  0.00    -0.202 Cl 
HETATM   19  C   UNL     1      -9.301   6.329  71.912  1.00  0.00    -0.153 A  
ENDBRANCH  10  13
ENDBRANCH   8  10
ENDBRANCH   6   8
ENDBRANCH   4   6
ENDBRANCH   3   4
ENDBRANCH   2   3
TORSDOF 6
ENDMDL
MODEL      224
REMARK 921   NORMALIZED FREE ENERGY PREDICTED BY IDOCK:   -3.06 KCAL/MOL
REMARK 922        TOTAL FREE ENERGY PREDICTED BY IDOCK:   -4.83 KCAL/MOL
REMARK 923 INTER-LIGAND FREE ENERGY PREDICTED BY IDOCK:   -4.24 KCAL/MOL
REMARK 924 INTRA-LIGAND FREE ENERGY PREDICTED BY IDOCK:   -0.59 KCAL/MOL
REMARK 927      BINDING AFFINITY PREDICTED BY RF-SCORE:    0.00 PKD
ROOT
HETATM    1  C   UNL     1      -9.403  10.021  64.146  1.00  0.00    -0.335 C  
HETATM    2  C   UNL     1      -9.692  10.588  65.529  1.00  0.00    -0.298 C  
ENDROOT
BRANCH   2   3
HETATM    3  C   UNL     1      -8.693  11.667  65.940  1.00  0.00     0.002 C  
BRANCH   3   4
HETATM    4  N   UNL     1      -8.597  11.835  67.377  1.00  0.00    -0.154 N  
HETATM    5  H   UNL     1      -7.792  11.456  67.875  1.00  0.00     0.000 HD 
BRANCH   4   6
HETATM    6  C   UNL     1      -9.570  12.494  68.070  1.00  0.00    -0.212 C  
HETATM    7  O   UNL     1     -10.093  13.525  67.685  1.00  0.00    -0.223 OA 
BRANCH   6   8
HETATM    8  N   UNL     1      -9.934  11.855  69.242  1.00  0.00    -0.354 N  
HETATM    9  H   UNL     1      -9.319  11.946  70.051  1.00  0.00     0.000 HD 
BRANCH   8  10
HETATM   10  S   UNL     1     -11.318  10.946  69.404  1.00  0.00    -0.306 S  
HETATM   11  O   UNL     1     -12.111  11.093  68.205  1.00  0.00    -0.633 OA 
HETATM   12  O   UNL     1     -11.863  11.292  70.701  1.00  0.00    -0.340 OA 
BRANCH  10  13
HETATM   13  C   UNL     1     -10.736   9.270  69.525  1.00  0.00    -0.222 A  
HETATM   14  C   UNL     1     -10.457   8.551  68.357  1.00  0.00    -0.215 A  
HETATM   15  C   UNL     1     -10.021   7.227  68.454  1.00  0.00    -0.172 A  
HETATM   16  C   UNL     1      -9.855   6.638  69.710  1.00  0.00    -0.162 A  
HETATM   17  C   UNL     1     -10.119   7.361  70.873  1.00  0.00    -0.188 A  
HETATM   18 CL   UNL     1      -9.324   5.005  69.823  1.00  0.00    -0.174 Cl 
HETATM   19  C   UNL     1     -10.561   8.683  70.784  1.00  0.00    -0.254 A  
ENDBRANCH  10  13
ENDBRANCH   8  10
ENDBRANCH   6   8
ENDBRANCH   4   6
ENDBRANCH   3   4
ENDBRANCH   2   3
TORSDOF 6
ENDMDL
MODEL      225
REMARK 921   NORMALIZED FREE ENERGY PREDICTED BY IDOCK:   -3.05 KCAL/MOL
REMARK 922        TOTAL FREE ENERGY PREDICTED BY IDOCK:   -4.82 KCAL/MOL
REMARK 923 INTER-LIGAND FREE ENERGY PREDICTED BY IDOCK:   -4.16 KCAL/MOL
REMARK 924 INTRA-LIGAND FREE ENERGY PREDICTED BY IDOCK:   -0.66 KCAL/MOL
REMARK 927      BINDING AFFINITY PREDICTED BY RF-SCORE:    0.00 PKD
ROOT
HETATM    1  C   UNL     1     -12.769  10.622  71.366  1.00  0.00    -0.545 C  
HETATM    2  C   UNL     1     -13.516   9.569  72.172  1.00  0.00    -0.535 C  
ENDROOT
BRANCH   2   3
HETATM    3  C   UNL     1     -12.631   8.384  72.551  1.00  0.00    -0.253 C  
BRANCH   3   4
HETATM    4  N   UNL     1     -12.277   7.554  71.417  1.00  0.00    -0.322 N  
HETATM    5  H   UNL     1     -12.892   7.523  70.604  1.00  0.00     0.000 HD 
BRANCH   4   6
HETATM    6  C   UNL     1     -11.132   6.813  71.423  1.00  0.00    -0.254 C  
HETATM    7  O   UNL     1     -11.110   5.606  71.589  1.00  0.00    -0.251 OA 
BRANCH   6   8
HETATM    8  N   UNL     1      -9.994   7.563  71.181  1.00  0.00    -0.181 N  
HETATM    9  H   UNL     1      -9.344   7.712  71.953  1.00  0.00     0.000 HD 
BRANCH   8  10
HETATM   10  S   UNL     1      -9.629   8.234  69.703  1.00  0.00    -0.168 S  
HETATM   11  O   UNL     1      -8.307   8.814  69.772  1.00  0.00    -0.119 OA 
HETATM   12  O   UNL     1     -10.777   9.043  69.347  1.00  0.00    -0.229 OA 
BRANCH  10  13
HETATM   13  C   UNL     1      -9.609   6.852  68.583  1.00  0.00    -0.133 A  
HETATM   14  C   UNL     1     -10.681   6.661  67.704  1.00  0.00    -0.373 A  
HETATM   15  C   UNL     1     -10.674   5.563  66.841  1.00  0.00    -0.310 A  
HETATM   16  C   UNL     1      -9.595   4.676  66.852  1.00  0.00    -0.181 A  
HETATM   17  C   UNL     1      -8.520   4.876  67.717  1.00  0.00    -0.104 A  
HETATM   18 CL   UNL     1      -9.594   3.321  65.791  1.00  0.00    -0.089 Cl 
HETATM   19  C   UNL     1      -8.523   5.969  68.588  1.00  0.00    -0.113 A  
ENDBRANCH  10  13
ENDBRANCH   8  10
ENDBRANCH   6   8
ENDBRANCH   4   6
ENDBRANCH   3   4
ENDBRANCH   2   3
TORSDOF 6
ENDMDL
MODEL      226
REMARK 921   NORMALIZED FREE ENERGY PREDICTED BY IDOCK:   -3.05 KCAL/MOL
REMARK 922        TOTAL FREE ENERGY PREDICTED BY IDOCK:   -4.82 KCAL/MOL
REMARK 923 INTER-LIGAND FREE ENERGY PREDICTED BY IDOCK:   -4.19 KCAL/MOL
REMARK 924 INTRA-LIGAND FREE ENERGY PREDICTED BY IDOCK:   -0.63 KCAL/MOL
REMARK 927      BINDING AFFINITY PREDICTED BY RF-SCORE:    0.00 PKD
ROOT
HETATM    1  C   UNL     1     -12.188  12.835  63.512  1.00  0.00    -0.613 C  
HETATM    2  C   UNL     1     -12.462  13.220  64.959  1.00  0.00    -0.498 C  
ENDROOT
BRANCH   2   3
HETATM    3  C   UNL     1     -11.702  12.344  65.952  1.00  0.00    -0.419 C  
BRANCH   3   4
HETATM    4  N   UNL     1     -11.600  12.937  67.271  1.00  0.00    -0.339 N  
HETATM    5  H   UNL     1     -11.457  13.943  67.361  1.00  0.00     0.000 HD 
BRANCH   4   6
HETATM    6  C   UNL     1     -11.694  12.168  68.394  1.00  0.00    -0.332 C  
HETATM    7  O   UNL     1     -12.263  12.525  69.411  1.00  0.00    -0.200 OA 
BRANCH   6   8
HETATM    8  N   UNL     1     -11.110  10.922  68.253  1.00  0.00    -0.243 N  
HETATM    9  H   UNL     1     -11.695  10.150  67.934  1.00  0.00     0.000 HD 
BRANCH   8  10
HETATM   10  S   UNL     1      -9.507  10.614  68.576  1.00  0.00    -0.183 S  
HETATM   11  O   UNL     1      -9.411   9.965  69.864  1.00  0.00    -0.220 OA 
HETATM   12  O   UNL     1      -8.810  11.858  68.318  1.00  0.00    -0.168 OA 
BRANCH  10  13
HETATM   13  C   UNL     1      -9.010   9.475  67.304  1.00  0.00    -0.131 A  
HETATM   14  C   UNL     1      -8.571   9.968  66.069  1.00  0.00    -0.148 A  
HETATM   15  C   UNL     1      -8.203   9.071  65.064  1.00  0.00    -0.154 A  
HETATM   16  C   UNL     1      -8.262   7.696  65.301  1.00  0.00    -0.135 A  
HETATM   17  C   UNL     1      -8.685   7.206  66.537  1.00  0.00    -0.139 A  
HETATM   18 CL   UNL     1      -7.813   6.596  64.056  1.00  0.00    -0.118 Cl 
HETATM   19  C   UNL     1      -9.061   8.097  67.545  1.00  0.00    -0.147 A  
ENDBRANCH  10  13
ENDBRANCH   8  10
ENDBRANCH   6   8
ENDBRANCH   4   6
ENDBRANCH   3   4
ENDBRANCH   2   3
TORSDOF 6
ENDMDL
MODEL      227
REMARK 921   NORMALIZED FREE ENERGY PREDICTED BY IDOCK:   -3.03 KCAL/MOL
REMARK 922        TOTAL FREE ENERGY PREDICTED BY IDOCK:   -4.79 KCAL/MOL
REMARK 923 INTER-LIGAND FREE ENERGY PREDICTED BY IDOCK:   -4.09 KCAL/MOL
REMARK 924 INTRA-LIGAND FREE ENERGY PREDICTED BY IDOCK:   -0.70 KCAL/MOL
REMARK 927      BINDING AFFINITY PREDICTED BY RF-SCORE:    0.00 PKD
ROOT
HETATM    1  C   UNL     1      -6.673  19.000  67.979  1.00  0.00    -0.251 C  
HETATM    2  C   UNL     1      -5.911  17.972  68.803  1.00  0.00    -0.193 C  
ENDROOT
BRANCH   2   3
HETATM    3  C   UNL     1      -6.797  16.818  69.266  1.00  0.00    -0.225 C  
BRANCH   3   4
HETATM    4  N   UNL     1      -7.110  15.881  68.205  1.00  0.00    -0.114 N  
HETATM    5  H   UNL     1      -7.054  16.184  67.233  1.00  0.00     0.000 HD 
BRANCH   4   6
HETATM    6  C   UNL     1      -7.476  14.598  68.490  1.00  0.00    -0.120 C  
HETATM    7  O   UNL     1      -6.795  13.832  69.149  1.00  0.00    -0.110 OA 
BRANCH   6   8
HETATM    8  N   UNL     1      -8.720  14.260  67.987  1.00  0.00    -0.168 N  
HETATM    9  H   UNL     1      -8.766  13.564  67.243  1.00  0.00     0.000 HD 
BRANCH   8  10
HETATM   10  S   UNL     1     -10.145  14.927  68.530  1.00  0.00    -0.239 S  
HETATM   11  O   UNL     1     -10.012  15.219  69.939  1.00  0.00    -0.244 OA 
HETATM   12  O   UNL     1     -11.194  14.050  68.049  1.00  0.00    -0.259 OA 
BRANCH  10  13
HETATM   13  C   UNL     1     -10.295  16.449  67.623  1.00  0.00    -0.284 A  
HETATM   14  C   UNL     1     -10.345  17.664  68.318  1.00  0.00    -0.384 A  
HETATM   15  C   UNL     1     -10.486  18.857  67.604  1.00  0.00    -0.514 A  
HETATM   16  C   UNL     1     -10.562  18.830  66.210  1.00  0.00    -0.369 A  
HETATM   17  C   UNL     1     -10.497  17.620  65.519  1.00  0.00    -0.048 A  
HETATM   18 CL   UNL     1     -10.741  20.302  65.337  1.00  0.00    -0.231 Cl 
HETATM   19  C   UNL     1     -10.363  16.422  66.226  1.00  0.00    -0.337 A  
ENDBRANCH  10  13
ENDBRANCH   8  10
ENDBRANCH   6   8
ENDBRANCH   4   6
ENDBRANCH   3   4
ENDBRANCH   2   3
TORSDOF 6
ENDMDL
MODEL      228
REMARK 921   NORMALIZED FREE ENERGY PREDICTED BY IDOCK:   -3.02 KCAL/MOL
REMARK 922        TOTAL FREE ENERGY PREDICTED BY IDOCK:   -4.79 KCAL/MOL
REMARK 923 INTER-LIGAND FREE ENERGY PREDICTED BY IDOCK:   -4.10 KCAL/MOL
REMARK 924 INTRA-LIGAND FREE ENERGY PREDICTED BY IDOCK:   -0.69 KCAL/MOL
REMARK 927      BINDING AFFINITY PREDICTED BY RF-SCORE:    0.00 PKD
ROOT
HETATM    1  C   UNL     1      -9.685   3.943  67.714  1.00  0.00    -0.144 C  
HETATM    2  C   UNL     1      -9.285   3.597  69.141  1.00  0.00    -0.226 C  
ENDROOT
BRANCH   2   3
HETATM    3  C   UNL     1      -9.802   4.612  70.157  1.00  0.00    -0.236 C  
BRANCH   3   4
HETATM    4  N   UNL     1     -10.764   5.539  69.595  1.00  0.00    -0.321 N  
HETATM    5  H   UNL     1     -11.245   5.301  68.728  1.00  0.00     0.000 HD 
BRANCH   4   6
HETATM    6  C   UNL     1     -11.037   6.725  70.212  1.00  0.00    -0.310 C  
HETATM    7  O   UNL     1     -11.080   6.862  71.422  1.00  0.00    -0.240 OA 
BRANCH   6   8
HETATM    8  N   UNL     1     -11.223   7.771  69.326  1.00  0.00    -0.426 N  
HETATM    9  H   UNL     1     -12.057   8.349  69.432  1.00  0.00     0.000 HD 
BRANCH   8  10
HETATM   10  S   UNL     1     -10.161   8.140  68.099  1.00  0.00    -0.206 S  
HETATM   11  O   UNL     1     -10.700   7.638  66.855  1.00  0.00    -0.351 OA 
HETATM   12  O   UNL     1      -8.858   7.715  68.569  1.00  0.00    -0.131 OA 
BRANCH  10  13
HETATM   13  C   UNL     1     -10.135   9.918  68.055  1.00  0.00    -0.171 A  
HETATM   14  C   UNL     1     -11.124  10.605  67.342  1.00  0.00    -0.341 A  
HETATM   15  C   UNL     1     -11.088  12.001  67.290  1.00  0.00    -0.341 A  
HETATM   16  C   UNL     1     -10.078  12.697  67.959  1.00  0.00    -0.229 A  
HETATM   17  C   UNL     1      -9.102  12.011  68.682  1.00  0.00    -0.030 A  
HETATM   18 CL   UNL     1     -10.036  14.415  67.886  1.00  0.00    -0.226 Cl 
HETATM   19  C   UNL     1      -9.128  10.615  68.732  1.00  0.00    -0.170 A  
ENDBRANCH  10  13
ENDBRANCH   8  10
ENDBRANCH   6   8
ENDBRANCH   4   6
ENDBRANCH   3   4
ENDBRANCH   2   3
TORSDOF 6
ENDMDL
MODEL      229
REMARK 921   NORMALIZED FREE ENERGY PREDICTED BY IDOCK:   -3.02 KCAL/MOL
REMARK 922        TOTAL FREE ENERGY PREDICTED BY IDOCK:   -4.78 KCAL/MOL
REMARK 923 INTER-LIGAND FREE ENERGY PREDICTED BY IDOCK:   -4.30 KCAL/MOL
REMARK 924 INTRA-LIGAND FREE ENERGY PREDICTED BY IDOCK:   -0.49 KCAL/MOL
REMARK 927      BINDING AFFINITY PREDICTED BY RF-SCORE:    0.00 PKD
ROOT
HETATM    1  C   UNL     1      -5.338  13.517  68.061  1.00  0.00    -0.114 C  
HETATM    2  C   UNL     1      -6.533  13.322  68.983  1.00  0.00    -0.102 C  
ENDROOT
BRANCH   2   3
HETATM    3  C   UNL     1      -6.730  11.862  69.385  1.00  0.00    -0.081 C  
BRANCH   3   4
HETATM    4  N   UNL     1      -8.081  11.387  69.158  1.00  0.00    -0.366 N  
HETATM    5  H   UNL     1      -8.814  12.053  68.916  1.00  0.00     0.000 HD 
BRANCH   4   6
HETATM    6  C   UNL     1      -8.384  10.062  69.263  1.00  0.00    -0.154 C  
HETATM    7  O   UNL     1      -7.692   9.256  69.860  1.00  0.00    -0.078 OA 
BRANCH   6   8
HETATM    8  N   UNL     1      -9.580   9.724  68.654  1.00  0.00    -0.148 N  
HETATM    9  H   UNL     1     -10.432   9.766  69.212  1.00  0.00     0.000 HD 
BRANCH   8  10
HETATM   10  S   UNL     1      -9.703   9.255  67.062  1.00  0.00    -0.201 S  
HETATM   11  O   UNL     1     -10.615   8.136  66.980  1.00  0.00    -0.329 OA 
HETATM   12  O   UNL     1      -8.341   9.139  66.582  1.00  0.00    -0.120 OA 
BRANCH  10  13
HETATM   13  C   UNL     1     -10.418  10.660  66.240  1.00  0.00    -0.203 A  
HETATM   14  C   UNL     1     -11.250  11.528  66.956  1.00  0.00    -0.365 A  
HETATM   15  C   UNL     1     -11.829  12.619  66.302  1.00  0.00    -0.471 A  
HETATM   16  C   UNL     1     -11.563  12.841  64.949  1.00  0.00    -0.330 A  
HETATM   17  C   UNL     1     -10.721  11.984  64.241  1.00  0.00    -0.382 A  
HETATM   18 CL   UNL     1     -12.283  14.183  64.148  1.00  0.00    -0.478 Cl 
HETATM   19  C   UNL     1     -10.144  10.887  64.887  1.00  0.00    -0.374 A  
ENDBRANCH  10  13
ENDBRANCH   8  10
ENDBRANCH   6   8
ENDBRANCH   4   6
ENDBRANCH   3   4
ENDBRANCH   2   3
TORSDOF 6
ENDMDL
MODEL      230
REMARK 921   NORMALIZED FREE ENERGY PREDICTED BY IDOCK:   -3.01 KCAL/MOL
REMARK 922        TOTAL FREE ENERGY PREDICTED BY IDOCK:   -4.77 KCAL/MOL
REMARK 923 INTER-LIGAND FREE ENERGY PREDICTED BY IDOCK:   -4.22 KCAL/MOL
REMARK 924 INTRA-LIGAND FREE ENERGY PREDICTED BY IDOCK:   -0.55 KCAL/MOL
REMARK 927      BINDING AFFINITY PREDICTED BY RF-SCORE:    0.00 PKD
ROOT
HETATM    1  C   UNL     1      -7.960  19.249  68.118  1.00  0.00    -0.343 C  
HETATM    2  C   UNL     1      -7.389  18.229  67.144  1.00  0.00    -0.215 C  
ENDROOT
BRANCH   2   3
HETATM    3  C   UNL     1      -8.471  17.541  66.315  1.00  0.00    -0.212 C  
BRANCH   3   4
HETATM    4  N   UNL     1      -8.782  16.205  66.782  1.00  0.00    -0.215 N  
HETATM    5  H   UNL     1      -8.041  15.506  66.839  1.00  0.00     0.000 HD 
BRANCH   4   6
HETATM    6  C   UNL     1     -10.052  15.868  67.148  1.00  0.00    -0.264 C  
HETATM    7  O   UNL     1     -10.807  16.622  67.736  1.00  0.00    -0.340 OA 
BRANCH   6   8
HETATM    8  N   UNL     1     -10.416  14.594  66.750  1.00  0.00    -0.274 N  
HETATM    9  H   UNL     1     -11.061  14.500  65.966  1.00  0.00     0.000 HD 
BRANCH   8  10
HETATM   10  S   UNL     1      -9.860  13.206  67.482  1.00  0.00    -0.221 S  
HETATM   11  O   UNL     1     -10.905  12.680  68.330  1.00  0.00    -0.226 OA 
HETATM   12  O   UNL     1      -8.561  13.546  68.027  1.00  0.00    -0.158 OA 
BRANCH  10  13
HETATM   13  C   UNL     1      -9.571  12.081  66.135  1.00  0.00    -0.239 A  
HETATM   14  C   UNL     1      -8.439  11.258  66.155  1.00  0.00    -0.135 A  
HETATM   15  C   UNL     1      -8.203  10.391  65.085  1.00  0.00    -0.158 A  
HETATM   16  C   UNL     1      -9.100  10.344  64.016  1.00  0.00    -0.242 A  
HETATM   17  C   UNL     1     -10.235  11.154  64.005  1.00  0.00    -0.419 A  
HETATM   18 CL   UNL     1      -8.800   9.278  62.698  1.00  0.00    -0.233 Cl 
HETATM   19  C   UNL     1     -10.475  12.028  65.068  1.00  0.00    -0.327 A  
ENDBRANCH  10  13
ENDBRANCH   8  10
ENDBRANCH   6   8
ENDBRANCH   4   6
ENDBRANCH   3   4
ENDBRANCH   2   3
TORSDOF 6
ENDMDL
MODEL      231
REMARK 921   NORMALIZED FREE ENERGY PREDICTED BY IDOCK:   -2.98 KCAL/MOL
REMARK 922        TOTAL FREE ENERGY PREDICTED BY IDOCK:   -4.73 KCAL/MOL
REMARK 923 INTER-LIGAND FREE ENERGY PREDICTED BY IDOCK:   -4.50 KCAL/MOL
REMARK 924 INTRA-LIGAND FREE ENERGY PREDICTED BY IDOCK:   -0.23 KCAL/MOL
REMARK 927      BINDING AFFINITY PREDICTED BY RF-SCORE:    0.00 PKD
ROOT
HETATM    1  C   UNL     1      -5.852   4.302  69.903  1.00  0.00    -0.017 C  
HETATM    2  C   UNL     1      -7.247   3.909  69.440  1.00  0.00    -0.046 C  
ENDROOT
BRANCH   2   3
HETATM    3  C   UNL     1      -8.295   4.067  70.539  1.00  0.00    -0.065 C  
BRANCH   3   4
HETATM    4  N   UNL     1      -8.915   5.378  70.548  1.00  0.00    -0.132 N  
HETATM    5  H   UNL     1      -8.428   6.168  70.125  1.00  0.00     0.000 HD 
BRANCH   4   6
HETATM    6  C   UNL     1     -10.141   5.569  71.115  1.00  0.00    -0.207 C  
HETATM    7  O   UNL     1     -10.645   4.794  71.908  1.00  0.00    -0.173 OA 
BRANCH   6   8
HETATM    8  N   UNL     1     -10.743   6.752  70.728  1.00  0.00    -0.226 N  
HETATM    9  H   UNL     1     -10.504   7.139  69.815  1.00  0.00     0.000 HD 
BRANCH   8  10
HETATM   10  S   UNL     1     -11.838   7.579  71.671  1.00  0.00    -0.305 S  
HETATM   11  O   UNL     1     -11.344   7.617  73.028  1.00  0.00    -0.372 OA 
HETATM   12  O   UNL     1     -13.131   7.000  71.367  1.00  0.00    -0.376 OA 
BRANCH  10  13
HETATM   13  C   UNL     1     -11.845   9.226  70.999  1.00  0.00    -0.307 A  
HETATM   14  C   UNL     1     -12.571  10.232  71.647  1.00  0.00    -0.534 A  
HETATM   15  C   UNL     1     -12.593  11.520  71.105  1.00  0.00    -0.463 A  
HETATM   16  C   UNL     1     -11.883  11.795  69.934  1.00  0.00    -0.348 A  
HETATM   17  C   UNL     1     -11.148  10.795  69.298  1.00  0.00    -0.312 A  
HETATM   18 CL   UNL     1     -11.919  13.381  69.268  1.00  0.00    -0.372 Cl 
HETATM   19  C   UNL     1     -11.126   9.503  69.831  1.00  0.00    -0.244 A  
ENDBRANCH  10  13
ENDBRANCH   8  10
ENDBRANCH   6   8
ENDBRANCH   4   6
ENDBRANCH   3   4
ENDBRANCH   2   3
TORSDOF 6
ENDMDL
MODEL      232
REMARK 921   NORMALIZED FREE ENERGY PREDICTED BY IDOCK:   -2.98 KCAL/MOL
REMARK 922        TOTAL FREE ENERGY PREDICTED BY IDOCK:   -4.73 KCAL/MOL
REMARK 923 INTER-LIGAND FREE ENERGY PREDICTED BY IDOCK:   -4.45 KCAL/MOL
REMARK 924 INTRA-LIGAND FREE ENERGY PREDICTED BY IDOCK:   -0.28 KCAL/MOL
REMARK 927      BINDING AFFINITY PREDICTED BY RF-SCORE:    0.00 PKD
ROOT
HETATM    1  C   UNL     1     -12.090  15.441  64.415  1.00  0.00    -0.205 C  
HETATM    2  C   UNL     1     -10.619  15.187  64.711  1.00  0.00    -0.305 C  
ENDROOT
BRANCH   2   3
HETATM    3  C   UNL     1     -10.279  15.366  66.189  1.00  0.00    -0.308 C  
BRANCH   3   4
HETATM    4  N   UNL     1     -10.336  16.749  66.621  1.00  0.00    -0.306 N  
HETATM    5  H   UNL     1      -9.976  17.482  66.011  1.00  0.00     0.000 HD 
BRANCH   4   6
HETATM    6  C   UNL     1     -10.867  17.082  67.833  1.00  0.00    -0.302 C  
HETATM    7  O   UNL     1     -10.809  18.202  68.310  1.00  0.00    -0.240 OA 
BRANCH   6   8
HETATM    8  N   UNL     1     -11.513  16.029  68.456  1.00  0.00    -0.377 N  
HETATM    9  H   UNL     1     -12.452  15.786  68.140  1.00  0.00     0.000 HD 
BRANCH   8  10
HETATM   10  S   UNL     1     -10.842  15.136  69.690  1.00  0.00    -0.297 S  
HETATM   11  O   UNL     1     -11.735  15.173  70.825  1.00  0.00    -0.279 OA 
HETATM   12  O   UNL     1      -9.473  15.599  69.807  1.00  0.00    -0.277 OA 
BRANCH  10  13
HETATM   13  C   UNL     1     -10.769  13.479  69.049  1.00  0.00    -0.149 A  
HETATM   14  C   UNL     1     -11.932  12.701  69.015  1.00  0.00    -0.282 A  
HETATM   15  C   UNL     1     -11.867  11.392  68.532  1.00  0.00    -0.364 A  
HETATM   16  C   UNL     1     -10.652  10.876  68.076  1.00  0.00    -0.202 A  
HETATM   17  C   UNL     1      -9.497  11.658  68.096  1.00  0.00    -0.191 A  
HETATM   18 CL   UNL     1     -10.578   9.261  67.488  1.00  0.00    -0.343 Cl 
HETATM   19  C   UNL     1      -9.552  12.966  68.584  1.00  0.00    -0.025 A  
ENDBRANCH  10  13
ENDBRANCH   8  10
ENDBRANCH   6   8
ENDBRANCH   4   6
ENDBRANCH   3   4
ENDBRANCH   2   3
TORSDOF 6
ENDMDL
MODEL      233
REMARK 921   NORMALIZED FREE ENERGY PREDICTED BY IDOCK:   -2.97 KCAL/MOL
REMARK 922        TOTAL FREE ENERGY PREDICTED BY IDOCK:   -4.71 KCAL/MOL
REMARK 923 INTER-LIGAND FREE ENERGY PREDICTED BY IDOCK:   -4.14 KCAL/MOL
REMARK 924 INTRA-LIGAND FREE ENERGY PREDICTED BY IDOCK:   -0.58 KCAL/MOL
REMARK 927      BINDING AFFINITY PREDICTED BY RF-SCORE:    0.00 PKD
ROOT
HETATM    1  C   UNL     1      -7.923  17.524  68.229  1.00  0.00    -0.259 C  
HETATM    2  C   UNL     1      -7.422  16.090  68.324  1.00  0.00    -0.136 C  
ENDROOT
BRANCH   2   3
HETATM    3  C   UNL     1      -8.095  15.308  69.450  1.00  0.00    -0.230 C  
BRANCH   3   4
HETATM    4  N   UNL     1      -8.734  14.090  68.993  1.00  0.00    -0.372 N  
HETATM    5  H   UNL     1      -8.163  13.273  68.775  1.00  0.00     0.000 HD 
BRANCH   4   6
HETATM    6  C   UNL     1     -10.088  14.022  68.850  1.00  0.00    -0.126 C  
HETATM    7  O   UNL     1     -10.794  14.991  68.630  1.00  0.00    -0.235 OA 
BRANCH   6   8
HETATM    8  N   UNL     1     -10.584  12.733  68.942  1.00  0.00    -0.401 N  
HETATM    9  H   UNL     1     -10.885  12.398  69.857  1.00  0.00     0.000 HD 
BRANCH   8  10
HETATM   10  S   UNL     1     -10.715  11.701  67.643  1.00  0.00    -0.219 S  
HETATM   11  O   UNL     1      -9.816  12.150  66.604  1.00  0.00    -0.203 OA 
HETATM   12  O   UNL     1     -12.136  11.570  67.391  1.00  0.00    -0.593 OA 
BRANCH  10  13
HETATM   13  C   UNL     1     -10.159  10.131  68.267  1.00  0.00    -0.156 A  
HETATM   14  C   UNL     1     -10.622   8.951  67.675  1.00  0.00    -0.292 A  
HETATM   15  C   UNL     1     -10.201   7.718  68.182  1.00  0.00    -0.244 A  
HETATM   16  C   UNL     1      -9.316   7.674  69.261  1.00  0.00    -0.148 A  
HETATM   17  C   UNL     1      -8.844   8.852  69.840  1.00  0.00    -0.154 A  
HETATM   18 CL   UNL     1      -8.807   6.154  69.884  1.00  0.00    -0.138 Cl 
HETATM   19  C   UNL     1      -9.265  10.088  69.343  1.00  0.00    -0.229 A  
ENDBRANCH  10  13
ENDBRANCH   8  10
ENDBRANCH   6   8
ENDBRANCH   4   6
ENDBRANCH   3   4
ENDBRANCH   2   3
TORSDOF 6
ENDMDL
MODEL      234
REMARK 921   NORMALIZED FREE ENERGY PREDICTED BY IDOCK:   -2.97 KCAL/MOL
REMARK 922        TOTAL FREE ENERGY PREDICTED BY IDOCK:   -4.71 KCAL/MOL
REMARK 923 INTER-LIGAND FREE ENERGY PREDICTED BY IDOCK:   -4.40 KCAL/MOL
REMARK 924 INTRA-LIGAND FREE ENERGY PREDICTED BY IDOCK:   -0.31 KCAL/MOL
REMARK 927      BINDING AFFINITY PREDICTED BY RF-SCORE:    0.00 PKD
ROOT
HETATM    1  C   UNL     1     -12.021  15.683  70.465  1.00  0.00    -0.417 C  
HETATM    2  C   UNL     1     -11.362  15.847  69.103  1.00  0.00    -0.366 C  
ENDROOT
BRANCH   2   3
HETATM    3  C   UNL     1     -10.353  14.740  68.804  1.00  0.00    -0.248 C  
BRANCH   3   4
HETATM    4  N   UNL     1     -10.094  14.575  67.387  1.00  0.00    -0.235 N  
HETATM    5  H   UNL     1      -9.893  15.394  66.813  1.00  0.00     0.000 HD 
BRANCH   4   6
HETATM    6  C   UNL     1     -10.117  13.339  66.811  1.00  0.00    -0.258 C  
HETATM    7  O   UNL     1     -10.414  13.143  65.646  1.00  0.00    -0.273 OA 
BRANCH   6   8
HETATM    8  N   UNL     1      -9.731  12.327  67.672  1.00  0.00    -0.190 N  
HETATM    9  H   UNL     1      -9.091  12.559  68.431  1.00  0.00     0.000 HD 
BRANCH   8  10
HETATM   10  S   UNL     1     -10.254  10.753  67.537  1.00  0.00    -0.206 S  
HETATM   11  O   UNL     1      -9.618  10.151  66.387  1.00  0.00    -0.175 OA 
HETATM   12  O   UNL     1     -11.698  10.810  67.642  1.00  0.00    -0.538 OA 
BRANCH  10  13
HETATM   13  C   UNL     1      -9.664   9.962  69.017  1.00  0.00    -0.193 A  
HETATM   14  C   UNL     1     -10.501   9.883  70.137  1.00  0.00    -0.339 A  
HETATM   15  C   UNL     1     -10.027   9.282  71.306  1.00  0.00    -0.341 A  
HETATM   16  C   UNL     1      -8.734   8.755  71.344  1.00  0.00    -0.214 A  
HETATM   17  C   UNL     1      -7.908   8.820  70.222  1.00  0.00    -0.095 A  
HETATM   18 CL   UNL     1      -8.155   8.021  72.788  1.00  0.00    -0.187 Cl 
HETATM   19  C   UNL     1      -8.372   9.426  69.052  1.00  0.00    -0.124 A  
ENDBRANCH  10  13
ENDBRANCH   8  10
ENDBRANCH   6   8
ENDBRANCH   4   6
ENDBRANCH   3   4
ENDBRANCH   2   3
TORSDOF 6
ENDMDL
MODEL      235
REMARK 921   NORMALIZED FREE ENERGY PREDICTED BY IDOCK:   -2.96 KCAL/MOL
REMARK 922        TOTAL FREE ENERGY PREDICTED BY IDOCK:   -4.70 KCAL/MOL
REMARK 923 INTER-LIGAND FREE ENERGY PREDICTED BY IDOCK:   -3.90 KCAL/MOL
REMARK 924 INTRA-LIGAND FREE ENERGY PREDICTED BY IDOCK:   -0.80 KCAL/MOL
REMARK 927      BINDING AFFINITY PREDICTED BY RF-SCORE:    0.00 PKD
ROOT
HETATM    1  C   UNL     1      -5.930   8.081  70.850  1.00  0.00    -0.033 C  
HETATM    2  C   UNL     1      -7.192   7.435  70.298  1.00  0.00    -0.066 C  
ENDROOT
BRANCH   2   3
HETATM    3  C   UNL     1      -8.304   8.448  70.039  1.00  0.00    -0.123 C  
BRANCH   3   4
HETATM    4  N   UNL     1      -8.505   8.723  68.630  1.00  0.00    -0.128 N  
HETATM    5  H   UNL     1      -9.126   8.127  68.084  1.00  0.00     0.000 HD 
BRANCH   4   6
HETATM    6  C   UNL     1      -7.874   9.770  68.024  1.00  0.00    -0.086 C  
HETATM    7  O   UNL     1      -6.669   9.821  67.848  1.00  0.00    -0.064 OA 
BRANCH   6   8
HETATM    8  N   UNL     1      -8.742  10.757  67.593  1.00  0.00    -0.126 N  
HETATM    9  H   UNL     1      -8.376  11.701  67.470  1.00  0.00     0.000 HD 
BRANCH   8  10
HETATM   10  S   UNL     1     -10.352  10.489  67.264  1.00  0.00    -0.242 S  
HETATM   11  O   UNL     1     -11.073  10.416  68.514  1.00  0.00    -0.247 OA 
HETATM   12  O   UNL     1     -10.380   9.385  66.325  1.00  0.00    -0.240 OA 
BRANCH  10  13
HETATM   13  C   UNL     1     -10.867  11.936  66.368  1.00  0.00    -0.279 A  
HETATM   14  C   UNL     1     -11.746  12.844  66.971  1.00  0.00    -0.447 A  
HETATM   15  C   UNL     1     -12.167  13.968  66.257  1.00  0.00    -0.493 A  
HETATM   16  C   UNL     1     -11.700  14.184  64.958  1.00  0.00    -0.376 A  
HETATM   17  C   UNL     1     -10.813  13.286  64.365  1.00  0.00    -0.422 A  
HETATM   18 CL   UNL     1     -12.228  15.567  64.081  1.00  0.00    -0.208 Cl 
HETATM   19  C   UNL     1     -10.392  12.156  65.070  1.00  0.00    -0.320 A  
ENDBRANCH  10  13
ENDBRANCH   8  10
ENDBRANCH   6   8
ENDBRANCH   4   6
ENDBRANCH   3   4
ENDBRANCH   2   3
TORSDOF 6
ENDMDL
MODEL      236
REMARK 921   NORMALIZED FREE ENERGY PREDICTED BY IDOCK:   -2.93 KCAL/MOL
REMARK 922        TOTAL FREE ENERGY PREDICTED BY IDOCK:   -4.66 KCAL/MOL
REMARK 923 INTER-LIGAND FREE ENERGY PREDICTED BY IDOCK:   -4.02 KCAL/MOL
REMARK 924 INTRA-LIGAND FREE ENERGY PREDICTED BY IDOCK:   -0.64 KCAL/MOL
REMARK 927      BINDING AFFINITY PREDICTED BY RF-SCORE:    0.00 PKD
ROOT
HETATM    1  C   UNL     1      -6.964  10.795  68.261  1.00  0.00    -0.069 C  
HETATM    2  C   UNL     1      -7.625  11.236  66.963  1.00  0.00    -0.143 C  
ENDROOT
BRANCH   2   3
HETATM    3  C   UNL     1      -9.028  10.658  66.794  1.00  0.00    -0.138 C  
BRANCH   3   4
HETATM    4  N   UNL     1      -9.218   9.409  67.506  1.00  0.00    -0.123 N  
HETATM    5  H   UNL     1      -8.416   8.950  67.938  1.00  0.00     0.000 HD 
BRANCH   4   6
HETATM    6  C   UNL     1     -10.454   8.841  67.606  1.00  0.00    -0.244 C  
HETATM    7  O   UNL     1     -10.699   7.696  67.267  1.00  0.00    -0.306 OA 
BRANCH   6   8
HETATM    8  N   UNL     1     -11.398   9.681  68.167  1.00  0.00    -0.500 N  
HETATM    9  H   UNL     1     -12.187   9.972  67.590  1.00  0.00     0.000 HD 
BRANCH   8  10
HETATM   10  S   UNL     1     -11.319  10.243  69.732  1.00  0.00    -0.272 S  
HETATM   11  O   UNL     1      -9.996   9.979  70.251  1.00  0.00    -0.244 OA 
HETATM   12  O   UNL     1     -12.496   9.720  70.395  1.00  0.00    -0.122 OA 
BRANCH  10  13
HETATM   13  C   UNL     1     -11.554  12.000  69.584  1.00  0.00    -0.301 A  
HETATM   14  C   UNL     1     -11.109  12.661  68.433  1.00  0.00    -0.297 A  
HETATM   15  C   UNL     1     -11.274  14.044  68.329  1.00  0.00    -0.293 A  
HETATM   16  C   UNL     1     -11.892  14.752  69.363  1.00  0.00    -0.323 A  
HETATM   17  C   UNL     1     -12.349  14.089  70.502  1.00  0.00    -0.437 A  
HETATM   18 CL   UNL     1     -12.087  16.456  69.232  1.00  0.00     0.163 Cl 
HETATM   19  C   UNL     1     -12.181  12.707  70.616  1.00  0.00    -0.373 A  
ENDBRANCH  10  13
ENDBRANCH   8  10
ENDBRANCH   6   8
ENDBRANCH   4   6
ENDBRANCH   3   4
ENDBRANCH   2   3
TORSDOF 6
ENDMDL
MODEL      237
REMARK 921   NORMALIZED FREE ENERGY PREDICTED BY IDOCK:   -2.93 KCAL/MOL
REMARK 922        TOTAL FREE ENERGY PREDICTED BY IDOCK:   -4.66 KCAL/MOL
REMARK 923 INTER-LIGAND FREE ENERGY PREDICTED BY IDOCK:   -4.77 KCAL/MOL
REMARK 924 INTRA-LIGAND FREE ENERGY PREDICTED BY IDOCK:    0.12 KCAL/MOL
REMARK 927      BINDING AFFINITY PREDICTED BY RF-SCORE:    0.00 PKD
ROOT
HETATM    1  C   UNL     1      -6.106  11.936  69.956  1.00  0.00    -0.153 C  
HETATM    2  C   UNL     1      -5.873  13.368  69.495  1.00  0.00    -0.102 C  
ENDROOT
BRANCH   2   3
HETATM    3  C   UNL     1      -6.190  13.565  68.015  1.00  0.00    -0.136 C  
BRANCH   3   4
HETATM    4  N   UNL     1      -7.393  14.342  67.789  1.00  0.00    -0.155 N  
HETATM    5  H   UNL     1      -7.826  14.343  66.866  1.00  0.00     0.000 HD 
BRANCH   4   6
HETATM    6  C   UNL     1      -7.953  15.072  68.796  1.00  0.00    -0.162 C  
HETATM    7  O   UNL     1      -7.312  15.579  69.700  1.00  0.00    -0.205 OA 
BRANCH   6   8
HETATM    8  N   UNL     1      -9.323  15.215  68.671  1.00  0.00    -0.192 N  
HETATM    9  H   UNL     1      -9.921  14.726  69.337  1.00  0.00     0.000 HD 
BRANCH   8  10
HETATM   10  S   UNL     1     -10.050  16.142  67.494  1.00  0.00    -0.261 S  
HETATM   11  O   UNL     1      -9.024  16.868  66.779  1.00  0.00    -0.217 OA 
HETATM   12  O   UNL     1     -11.129  16.842  68.160  1.00  0.00    -0.347 OA 
BRANCH  10  13
HETATM   13  C   UNL     1     -10.804  14.958  66.402  1.00  0.00    -0.325 A  
HETATM   14  C   UNL     1     -11.983  14.312  66.793  1.00  0.00    -0.462 A  
HETATM   15  C   UNL     1     -12.561  13.366  65.943  1.00  0.00    -0.412 A  
HETATM   16  C   UNL     1     -11.970  13.084  64.710  1.00  0.00    -0.395 A  
HETATM   17  C   UNL     1     -10.804  13.740  64.315  1.00  0.00    -0.241 A  
HETATM   18 CL   UNL     1     -12.684  11.913  63.670  1.00  0.00    -0.595 Cl 
HETATM   19  C   UNL     1     -10.216  14.682  65.162  1.00  0.00    -0.414 A  
ENDBRANCH  10  13
ENDBRANCH   8  10
ENDBRANCH   6   8
ENDBRANCH   4   6
ENDBRANCH   3   4
ENDBRANCH   2   3
TORSDOF 6
ENDMDL
MODEL      238
REMARK 921   NORMALIZED FREE ENERGY PREDICTED BY IDOCK:   -2.92 KCAL/MOL
REMARK 922        TOTAL FREE ENERGY PREDICTED BY IDOCK:   -4.65 KCAL/MOL
REMARK 923 INTER-LIGAND FREE ENERGY PREDICTED BY IDOCK:   -4.24 KCAL/MOL
REMARK 924 INTRA-LIGAND FREE ENERGY PREDICTED BY IDOCK:   -0.41 KCAL/MOL
REMARK 927      BINDING AFFINITY PREDICTED BY RF-SCORE:    0.00 PKD
ROOT
HETATM    1  C   UNL     1      -9.960  10.925  64.970  1.00  0.00    -0.356 C  
HETATM    2  C   UNL     1     -10.213  11.256  66.434  1.00  0.00    -0.273 C  
ENDROOT
BRANCH   2   3
HETATM    3  C   UNL     1     -10.013  12.738  66.743  1.00  0.00    -0.237 C  
BRANCH   3   4
HETATM    4  N   UNL     1      -8.672  13.047  67.199  1.00  0.00    -0.203 N  
HETATM    5  H   UNL     1      -7.996  12.294  67.323  1.00  0.00     0.000 HD 
BRANCH   4   6
HETATM    6  C   UNL     1      -8.303  14.333  67.465  1.00  0.00    -0.188 C  
HETATM    7  O   UNL     1      -7.405  14.632  68.233  1.00  0.00    -0.102 OA 
BRANCH   6   8
HETATM    8  N   UNL     1      -9.024  15.269  66.745  1.00  0.00    -0.243 N  
HETATM    9  H   UNL     1      -9.077  15.161  65.732  1.00  0.00     0.000 HD 
BRANCH   8  10
HETATM   10  S   UNL     1      -9.809  16.561  67.441  1.00  0.00    -0.258 S  
HETATM   11  O   UNL     1     -10.228  16.184  68.773  1.00  0.00    -0.218 OA 
HETATM   12  O   UNL     1     -10.774  17.007  66.458  1.00  0.00    -0.212 OA 
BRANCH  10  13
HETATM   13  C   UNL     1      -8.566  17.828  67.550  1.00  0.00    -0.228 A  
HETATM   14  C   UNL     1      -7.680  18.019  66.484  1.00  0.00    -0.283 A  
HETATM   15  C   UNL     1      -6.690  19.000  66.581  1.00  0.00    -0.207 A  
HETATM   16  C   UNL     1      -6.601  19.788  67.731  1.00  0.00    -0.232 A  
HETATM   17  C   UNL     1      -7.494  19.607  68.786  1.00  0.00    -0.364 A  
HETATM   18 CL   UNL     1      -5.376  20.991  67.847  1.00  0.00    -0.302 Cl 
HETATM   19  C   UNL     1      -8.483  18.624  68.699  1.00  0.00    -0.337 A  
ENDBRANCH  10  13
ENDBRANCH   8  10
ENDBRANCH   6   8
ENDBRANCH   4   6
ENDBRANCH   3   4
ENDBRANCH   2   3
TORSDOF 6
ENDMDL
MODEL      239
REMARK 921   NORMALIZED FREE ENERGY PREDICTED BY IDOCK:   -2.92 KCAL/MOL
REMARK 922        TOTAL FREE ENERGY PREDICTED BY IDOCK:   -4.65 KCAL/MOL
REMARK 923 INTER-LIGAND FREE ENERGY PREDICTED BY IDOCK:   -4.12 KCAL/MOL
REMARK 924 INTRA-LIGAND FREE ENERGY PREDICTED BY IDOCK:   -0.53 KCAL/MOL
REMARK 927      BINDING AFFINITY PREDICTED BY RF-SCORE:    0.00 PKD
ROOT
HETATM    1  C   UNL     1     -10.327   7.911  66.891  1.00  0.00    -0.400 C  
HETATM    2  C   UNL     1     -10.865   6.676  67.600  1.00  0.00    -0.393 C  
ENDROOT
BRANCH   2   3
HETATM    3  C   UNL     1     -10.728   6.766  69.118  1.00  0.00    -0.253 C  
BRANCH   3   4
HETATM    4  N   UNL     1     -11.961   6.469  69.819  1.00  0.00    -0.556 N  
HETATM    5  H   UNL     1     -12.616   5.795  69.422  1.00  0.00     0.000 HD 
BRANCH   4   6
HETATM    6  C   UNL     1     -12.258   7.078  71.002  1.00  0.00    -0.374 C  
HETATM    7  O   UNL     1     -13.376   7.461  71.303  1.00  0.00    -0.350 OA 
BRANCH   6   8
HETATM    8  N   UNL     1     -11.171   7.186  71.850  1.00  0.00    -0.243 N  
HETATM    9  H   UNL     1     -10.585   8.018  71.777  1.00  0.00     0.000 HD 
BRANCH   8  10
HETATM   10  S   UNL     1     -10.765   6.035  72.981  1.00  0.00    -0.264 S  
HETATM   11  O   UNL     1     -11.809   5.035  73.017  1.00  0.00    -0.269 OA 
HETATM   12  O   UNL     1     -10.401   6.771  74.175  1.00  0.00    -0.368 OA 
BRANCH  10  13
HETATM   13  C   UNL     1      -9.270   5.304  72.354  1.00  0.00    -0.140 A  
HETATM   14  C   UNL     1      -8.032   5.749  72.831  1.00  0.00    -0.108 A  
HETATM   15  C   UNL     1      -6.859   5.190  72.319  1.00  0.00    -0.073 A  
HETATM   16  C   UNL     1      -6.930   4.186  71.351  1.00  0.00    -0.035 A  
HETATM   17  C   UNL     1      -8.165   3.732  70.888  1.00  0.00    -0.078 A  
HETATM   18 CL   UNL     1      -5.481   3.504  70.721  1.00  0.00    -0.011 Cl 
HETATM   19  C   UNL     1      -9.343   4.292  71.390  1.00  0.00    -0.210 A  
ENDBRANCH  10  13
ENDBRANCH   8  10
ENDBRANCH   6   8
ENDBRANCH   4   6
ENDBRANCH   3   4
ENDBRANCH   2   3
TORSDOF 6
ENDMDL
MODEL      240
REMARK 921   NORMALIZED FREE ENERGY PREDICTED BY IDOCK:   -2.92 KCAL/MOL
REMARK 922        TOTAL FREE ENERGY PREDICTED BY IDOCK:   -4.65 KCAL/MOL
REMARK 923 INTER-LIGAND FREE ENERGY PREDICTED BY IDOCK:   -3.83 KCAL/MOL
REMARK 924 INTRA-LIGAND FREE ENERGY PREDICTED BY IDOCK:   -0.82 KCAL/MOL
REMARK 927      BINDING AFFINITY PREDICTED BY RF-SCORE:    0.00 PKD
ROOT
HETATM    1  C   UNL     1     -10.686  14.994  69.561  1.00  0.00    -0.266 C  
HETATM    2  C   UNL     1     -10.670  14.091  68.335  1.00  0.00    -0.261 C  
ENDROOT
BRANCH   2   3
HETATM    3  C   UNL     1     -11.998  13.368  68.123  1.00  0.00    -0.321 C  
BRANCH   3   4
HETATM    4  N   UNL     1     -11.844  11.937  67.950  1.00  0.00    -0.294 N  
HETATM    5  H   UNL     1     -11.801  11.546  67.009  1.00  0.00     0.000 HD 
BRANCH   4   6
HETATM    6  C   UNL     1     -11.755  11.107  69.028  1.00  0.00    -0.339 C  
HETATM    7  O   UNL     1     -11.913  11.476  70.179  1.00  0.00    -0.325 OA 
BRANCH   6   8
HETATM    8  N   UNL     1     -11.506   9.790  68.686  1.00  0.00    -0.488 N  
HETATM    9  H   UNL     1     -12.155   9.075  69.016  1.00  0.00     0.000 HD 
BRANCH   8  10
HETATM   10  S   UNL     1     -10.206   9.308  67.765  1.00  0.00    -0.232 S  
HETATM   11  O   UNL     1     -10.358   9.847  66.433  1.00  0.00    -0.227 OA 
HETATM   12  O   UNL     1     -10.085   7.879  67.978  1.00  0.00    -0.177 OA 
BRANCH  10  13
HETATM   13  C   UNL     1      -8.801  10.063  68.551  1.00  0.00    -0.120 A  
HETATM   14  C   UNL     1      -8.309  11.279  68.063  1.00  0.00    -0.136 A  
HETATM   15  C   UNL     1      -7.191  11.859  68.668  1.00  0.00    -0.109 A  
HETATM   16  C   UNL     1      -6.585  11.231  69.759  1.00  0.00    -0.130 A  
HETATM   17  C   UNL     1      -7.086  10.028  70.253  1.00  0.00    -0.156 A  
HETATM   18 CL   UNL     1      -5.205  11.948  70.496  1.00  0.00    -0.112 Cl 
HETATM   19  C   UNL     1      -8.200   9.438  69.649  1.00  0.00    -0.136 A  
ENDBRANCH  10  13
ENDBRANCH   8  10
ENDBRANCH   6   8
ENDBRANCH   4   6
ENDBRANCH   3   4
ENDBRANCH   2   3
TORSDOF 6
ENDMDL
MODEL      241
REMARK 921   NORMALIZED FREE ENERGY PREDICTED BY IDOCK:   -2.91 KCAL/MOL
REMARK 922        TOTAL FREE ENERGY PREDICTED BY IDOCK:   -4.64 KCAL/MOL
REMARK 923 INTER-LIGAND FREE ENERGY PREDICTED BY IDOCK:   -4.11 KCAL/MOL
REMARK 924 INTRA-LIGAND FREE ENERGY PREDICTED BY IDOCK:   -0.53 KCAL/MOL
REMARK 927      BINDING AFFINITY PREDICTED BY RF-SCORE:    0.00 PKD
ROOT
HETATM    1  C   UNL     1      -8.727  10.636  65.309  1.00  0.00    -0.198 C  
HETATM    2  C   UNL     1     -10.093   9.999  65.519  1.00  0.00    -0.325 C  
ENDROOT
BRANCH   2   3
HETATM    3  C   UNL     1     -10.132   9.086  66.742  1.00  0.00    -0.274 C  
BRANCH   3   4
HETATM    4  N   UNL     1      -8.816   8.671  67.183  1.00  0.00    -0.127 N  
HETATM    5  H   UNL     1      -8.152   9.371  67.514  1.00  0.00     0.000 HD 
BRANCH   4   6
HETATM    6  C   UNL     1      -8.452   7.356  67.162  1.00  0.00    -0.118 C  
HETATM    7  O   UNL     1      -7.458   6.940  66.595  1.00  0.00    -0.079 OA 
BRANCH   6   8
HETATM    8  N   UNL     1      -9.307   6.541  67.884  1.00  0.00    -0.113 N  
HETATM    9  H   UNL     1     -10.118   6.150  67.405  1.00  0.00     0.000 HD 
BRANCH   8  10
HETATM   10  S   UNL     1      -9.083   6.163  69.489  1.00  0.00    -0.139 S  
HETATM   11  O   UNL     1      -7.811   6.700  69.917  1.00  0.00    -0.110 OA 
HETATM   12  O   UNL     1      -9.367   4.747  69.600  1.00  0.00    -0.109 OA 
BRANCH  10  13
HETATM   13  C   UNL     1     -10.397   7.016  70.332  1.00  0.00    -0.202 A  
HETATM   14  C   UNL     1     -11.605   6.352  70.576  1.00  0.00    -0.424 A  
HETATM   15  C   UNL     1     -12.643   7.032  71.218  1.00  0.00    -0.418 A  
HETATM   16  C   UNL     1     -12.464   8.356  71.621  1.00  0.00    -0.328 A  
HETATM   17  C   UNL     1     -11.254   9.011  71.392  1.00  0.00    -0.394 A  
HETATM   18 CL   UNL     1     -13.749   9.190  72.406  1.00  0.00    -0.529 Cl 
HETATM   19  C   UNL     1     -10.213   8.340  70.744  1.00  0.00    -0.219 A  
ENDBRANCH  10  13
ENDBRANCH   8  10
ENDBRANCH   6   8
ENDBRANCH   4   6
ENDBRANCH   3   4
ENDBRANCH   2   3
TORSDOF 6
ENDMDL
MODEL      242
REMARK 921   NORMALIZED FREE ENERGY PREDICTED BY IDOCK:   -2.91 KCAL/MOL
REMARK 922        TOTAL FREE ENERGY PREDICTED BY IDOCK:   -4.64 KCAL/MOL
REMARK 923 INTER-LIGAND FREE ENERGY PREDICTED BY IDOCK:   -3.92 KCAL/MOL
REMARK 924 INTRA-LIGAND FREE ENERGY PREDICTED BY IDOCK:   -0.72 KCAL/MOL
REMARK 927      BINDING AFFINITY PREDICTED BY RF-SCORE:    0.00 PKD
ROOT
HETATM    1  C   UNL     1      -9.075   2.987  67.009  1.00  0.00    -0.196 C  
HETATM    2  C   UNL     1      -9.341   3.386  68.453  1.00  0.00    -0.238 C  
ENDROOT
BRANCH   2   3
HETATM    3  C   UNL     1      -9.783   4.842  68.586  1.00  0.00    -0.157 C  
BRANCH   3   4
HETATM    4  N   UNL     1      -9.123   5.725  67.646  1.00  0.00    -0.107 N  
HETATM    5  H   UNL     1      -8.287   5.405  67.157  1.00  0.00     0.000 HD 
BRANCH   4   6
HETATM    6  C   UNL     1      -9.604   6.978  67.406  1.00  0.00    -0.135 C  
HETATM    7  O   UNL     1     -10.766   7.212  67.120  1.00  0.00    -0.307 OA 
BRANCH   6   8
HETATM    8  N   UNL     1      -8.650   7.968  67.555  1.00  0.00    -0.126 N  
HETATM    9  H   UNL     1      -8.245   8.378  66.713  1.00  0.00     0.000 HD 
BRANCH   8  10
HETATM   10  S   UNL     1      -8.126   8.528  69.032  1.00  0.00    -0.116 S  
HETATM   11  O   UNL     1      -7.224   9.636  68.813  1.00  0.00    -0.070 OA 
HETATM   12  O   UNL     1      -7.696   7.354  69.765  1.00  0.00    -0.098 OA 
BRANCH  10  13
HETATM   13  C   UNL     1      -9.601   9.118  69.831  1.00  0.00    -0.192 A  
HETATM   14  C   UNL     1     -10.194  10.308  69.394  1.00  0.00    -0.255 A  
HETATM   15  C   UNL     1     -11.340  10.781  70.038  1.00  0.00    -0.397 A  
HETATM   16  C   UNL     1     -11.891  10.059  71.099  1.00  0.00    -0.393 A  
HETATM   17  C   UNL     1     -11.309   8.865  71.523  1.00  0.00    -0.395 A  
HETATM   18 CL   UNL     1     -13.299  10.649  71.892  1.00  0.00    -0.507 Cl 
HETATM   19  C   UNL     1     -10.158   8.389  70.888  1.00  0.00    -0.234 A  
ENDBRANCH  10  13
ENDBRANCH   8  10
ENDBRANCH   6   8
ENDBRANCH   4   6
ENDBRANCH   3   4
ENDBRANCH   2   3
TORSDOF 6
ENDMDL
MODEL      243
REMARK 921   NORMALIZED FREE ENERGY PREDICTED BY IDOCK:   -2.90 KCAL/MOL
REMARK 922        TOTAL FREE ENERGY PREDICTED BY IDOCK:   -4.62 KCAL/MOL
REMARK 923 INTER-LIGAND FREE ENERGY PREDICTED BY IDOCK:   -4.02 KCAL/MOL
REMARK 924 INTRA-LIGAND FREE ENERGY PREDICTED BY IDOCK:   -0.60 KCAL/MOL
REMARK 927      BINDING AFFINITY PREDICTED BY RF-SCORE:    0.00 PKD
ROOT
HETATM    1  C   UNL     1      -7.863   7.596  67.114  1.00  0.00    -0.117 C  
HETATM    2  C   UNL     1      -9.087   7.641  66.211  1.00  0.00    -0.204 C  
ENDROOT
BRANCH   2   3
HETATM    3  C   UNL     1      -9.960   8.867  66.468  1.00  0.00    -0.288 C  
BRANCH   3   4
HETATM    4  N   UNL     1      -9.297  10.115  66.143  1.00  0.00    -0.165 N  
HETATM    5  H   UNL     1      -8.460  10.389  66.657  1.00  0.00     0.000 HD 
BRANCH   4   6
HETATM    6  C   UNL     1      -9.779  10.928  65.160  1.00  0.00    -0.262 C  
HETATM    7  O   UNL     1     -10.348  10.517  64.163  1.00  0.00    -0.313 OA 
BRANCH   6   8
HETATM    8  N   UNL     1      -9.592  12.273  65.421  1.00  0.00    -0.429 N  
HETATM    9  H   UNL     1      -8.807  12.746  64.974  1.00  0.00     0.000 HD 
BRANCH   8  10
HETATM   10  S   UNL     1     -10.578  13.163  66.425  1.00  0.00    -0.289 S  
HETATM   11  O   UNL     1     -11.176  12.272  67.393  1.00  0.00    -0.265 OA 
HETATM   12  O   UNL     1     -11.404  13.968  65.548  1.00  0.00    -0.305 OA 
BRANCH  10  13
HETATM   13  C   UNL     1      -9.472  14.281  67.255  1.00  0.00    -0.220 A  
HETATM   14  C   UNL     1      -9.973  15.467  67.803  1.00  0.00    -0.222 A  
HETATM   15  C   UNL     1      -9.098  16.354  68.435  1.00  0.00    -0.214 A  
HETATM   16  C   UNL     1      -7.739  16.046  68.527  1.00  0.00    -0.158 A  
HETATM   17  C   UNL     1      -7.244  14.855  67.994  1.00  0.00    -0.143 A  
HETATM   18 CL   UNL     1      -6.666  17.145  69.301  1.00  0.00    -0.237 Cl 
HETATM   19  C   UNL     1      -8.112  13.966  67.355  1.00  0.00    -0.190 A  
ENDBRANCH  10  13
ENDBRANCH   8  10
ENDBRANCH   6   8
ENDBRANCH   4   6
ENDBRANCH   3   4
ENDBRANCH   2   3
TORSDOF 6
ENDMDL
MODEL      244
REMARK 921   NORMALIZED FREE ENERGY PREDICTED BY IDOCK:   -2.90 KCAL/MOL
REMARK 922        TOTAL FREE ENERGY PREDICTED BY IDOCK:   -4.62 KCAL/MOL
REMARK 923 INTER-LIGAND FREE ENERGY PREDICTED BY IDOCK:   -3.87 KCAL/MOL
REMARK 924 INTRA-LIGAND FREE ENERGY PREDICTED BY IDOCK:   -0.75 KCAL/MOL
REMARK 927      BINDING AFFINITY PREDICTED BY RF-SCORE:    0.00 PKD
ROOT
HETATM    1  C   UNL     1      -9.538  11.016  63.330  1.00  0.00    -0.370 C  
HETATM    2  C   UNL     1      -9.393   9.996  64.450  1.00  0.00    -0.348 C  
ENDROOT
BRANCH   2   3
HETATM    3  C   UNL     1      -7.939   9.600  64.697  1.00  0.00    -0.135 C  
BRANCH   3   4
HETATM    4  N   UNL     1      -7.654   9.325  66.091  1.00  0.00    -0.095 N  
HETATM    5  H   UNL     1      -8.195   8.616  66.586  1.00  0.00     0.000 HD 
BRANCH   4   6
HETATM    6  C   UNL     1      -6.672  10.003  66.751  1.00  0.00    -0.076 C  
HETATM    7  O   UNL     1      -5.836   9.464  67.455  1.00  0.00    -0.045 OA 
BRANCH   6   8
HETATM    8  N   UNL     1      -6.692  11.366  66.513  1.00  0.00    -0.303 N  
HETATM    9  H   UNL     1      -6.388  11.699  65.598  1.00  0.00     0.000 HD 
BRANCH   8  10
HETATM   10  S   UNL     1      -7.186  12.490  67.636  1.00  0.00    -0.150 S  
HETATM   11  O   UNL     1      -6.330  13.651  67.536  1.00  0.00    -0.245 OA 
HETATM   12  O   UNL     1      -7.312  11.766  68.885  1.00  0.00    -0.112 OA 
BRANCH  10  13
HETATM   13  C   UNL     1      -8.834  12.927  67.130  1.00  0.00    -0.210 A  
HETATM   14  C   UNL     1      -9.054  14.143  66.472  1.00  0.00    -0.198 A  
HETATM   15  C   UNL     1     -10.353  14.494  66.096  1.00  0.00    -0.305 A  
HETATM   16  C   UNL     1     -11.415  13.627  66.365  1.00  0.00    -0.338 A  
HETATM   17  C   UNL     1     -11.191  12.409  67.006  1.00  0.00    -0.358 A  
HETATM   18 CL   UNL     1     -13.013  14.068  65.904  1.00  0.00    -0.391 Cl 
HETATM   19  C   UNL     1      -9.896  12.054  67.392  1.00  0.00    -0.191 A  
ENDBRANCH  10  13
ENDBRANCH   8  10
ENDBRANCH   6   8
ENDBRANCH   4   6
ENDBRANCH   3   4
ENDBRANCH   2   3
TORSDOF 6
ENDMDL
MODEL      245
REMARK 921   NORMALIZED FREE ENERGY PREDICTED BY IDOCK:   -2.88 KCAL/MOL
REMARK 922        TOTAL FREE ENERGY PREDICTED BY IDOCK:   -4.60 KCAL/MOL
REMARK 923 INTER-LIGAND FREE ENERGY PREDICTED BY IDOCK:   -4.04 KCAL/MOL
REMARK 924 INTRA-LIGAND FREE ENERGY PREDICTED BY IDOCK:   -0.56 KCAL/MOL
REMARK 927      BINDING AFFINITY PREDICTED BY RF-SCORE:    0.00 PKD
ROOT
HETATM    1  C   UNL     1      -8.836   2.989  66.198  1.00  0.00    -0.143 C  
HETATM    2  C   UNL     1      -9.184   2.518  67.603  1.00  0.00    -0.225 C  
ENDROOT
BRANCH   2   3
HETATM    3  C   UNL     1      -9.905   3.589  68.418  1.00  0.00     0.170 C  
BRANCH   3   4
HETATM    4  N   UNL     1      -9.242   4.877  68.377  1.00  0.00    -0.118 N  
HETATM    5  H   UNL     1      -8.232   4.919  68.245  1.00  0.00     0.000 HD 
BRANCH   4   6
HETATM    6  C   UNL     1      -9.952   6.034  68.512  1.00  0.00    -0.142 C  
HETATM    7  O   UNL     1     -10.926   6.311  67.835  1.00  0.00    -0.306 OA 
BRANCH   6   8
HETATM    8  N   UNL     1      -9.479   6.850  69.524  1.00  0.00    -0.147 N  
HETATM    9  H   UNL     1      -8.779   7.553  69.288  1.00  0.00     0.000 HD 
BRANCH   8  10
HETATM   10  S   UNL     1      -9.991   6.749  71.105  1.00  0.00    -0.180 S  
HETATM   11  O   UNL     1      -8.835   6.826  71.970  1.00  0.00    -0.134 OA 
HETATM   12  O   UNL     1     -10.881   5.607  71.155  1.00  0.00    -0.257 OA 
BRANCH  10  13
HETATM   13  C   UNL     1     -11.000   8.195  71.337  1.00  0.00    -0.237 A  
HETATM   14  C   UNL     1     -10.656   9.387  70.691  1.00  0.00    -0.354 A  
HETATM   15  C   UNL     1     -11.438  10.528  70.893  1.00  0.00    -0.304 A  
HETATM   16  C   UNL     1     -12.559  10.465  71.724  1.00  0.00    -0.367 A  
HETATM   17  C   UNL     1     -12.909   9.272  72.355  1.00  0.00    -0.418 A  
HETATM   18 CL   UNL     1     -13.514  11.874  71.974  1.00  0.00    -0.473 Cl 
HETATM   19  C   UNL     1     -12.128   8.129  72.163  1.00  0.00    -0.408 A  
ENDBRANCH  10  13
ENDBRANCH   8  10
ENDBRANCH   6   8
ENDBRANCH   4   6
ENDBRANCH   3   4
ENDBRANCH   2   3
TORSDOF 6
ENDMDL
MODEL      246
REMARK 921   NORMALIZED FREE ENERGY PREDICTED BY IDOCK:   -2.88 KCAL/MOL
REMARK 922        TOTAL FREE ENERGY PREDICTED BY IDOCK:   -4.59 KCAL/MOL
REMARK 923 INTER-LIGAND FREE ENERGY PREDICTED BY IDOCK:   -4.07 KCAL/MOL
REMARK 924 INTRA-LIGAND FREE ENERGY PREDICTED BY IDOCK:   -0.52 KCAL/MOL
REMARK 927      BINDING AFFINITY PREDICTED BY RF-SCORE:    0.00 PKD
ROOT
HETATM    1  C   UNL     1     -11.862  15.327  70.241  1.00  0.00    -0.353 C  
HETATM    2  C   UNL     1     -12.194  13.850  70.401  1.00  0.00    -0.438 C  
ENDROOT
BRANCH   2   3
HETATM    3  C   UNL     1     -11.742  13.015  69.205  1.00  0.00    -0.320 C  
BRANCH   3   4
HETATM    4  N   UNL     1     -10.309  12.802  69.170  1.00  0.00    -0.426 N  
HETATM    5  H   UNL     1      -9.763  12.914  70.024  1.00  0.00     0.000 HD 
BRANCH   4   6
HETATM    6  C   UNL     1      -9.681  12.453  68.011  1.00  0.00    -0.210 C  
HETATM    7  O   UNL     1      -9.112  13.250  67.286  1.00  0.00    -0.203 OA 
BRANCH   6   8
HETATM    8  N   UNL     1      -9.720  11.094  67.756  1.00  0.00    -0.169 N  
HETATM    9  H   UNL     1     -10.365  10.757  67.041  1.00  0.00     0.000 HD 
BRANCH   8  10
HETATM   10  S   UNL     1      -8.773   9.979  68.550  1.00  0.00    -0.128 S  
HETATM   11  O   UNL     1      -9.155   9.958  69.944  1.00  0.00    -0.218 OA 
HETATM   12  O   UNL     1      -7.410  10.275  68.157  1.00  0.00    -0.083 OA 
BRANCH  10  13
HETATM   13  C   UNL     1      -9.196   8.424  67.798  1.00  0.00    -0.131 A  
HETATM   14  C   UNL     1      -8.208   7.688  67.133  1.00  0.00    -0.118 A  
HETATM   15  C   UNL     1      -8.548   6.477  66.524  1.00  0.00    -0.123 A  
HETATM   16  C   UNL     1      -9.861   6.006  66.595  1.00  0.00    -0.164 A  
HETATM   17  C   UNL     1     -10.840   6.733  67.271  1.00  0.00    -0.443 A  
HETATM   18 CL   UNL     1     -10.274   4.517  65.838  1.00  0.00    -0.282 Cl 
HETATM   19  C   UNL     1     -10.509   7.948  67.877  1.00  0.00    -0.261 A  
ENDBRANCH  10  13
ENDBRANCH   8  10
ENDBRANCH   6   8
ENDBRANCH   4   6
ENDBRANCH   3   4
ENDBRANCH   2   3
TORSDOF 6
ENDMDL
MODEL      247
REMARK 921   NORMALIZED FREE ENERGY PREDICTED BY IDOCK:   -2.85 KCAL/MOL
REMARK 922        TOTAL FREE ENERGY PREDICTED BY IDOCK:   -4.55 KCAL/MOL
REMARK 923 INTER-LIGAND FREE ENERGY PREDICTED BY IDOCK:   -4.07 KCAL/MOL
REMARK 924 INTRA-LIGAND FREE ENERGY PREDICTED BY IDOCK:   -0.48 KCAL/MOL
REMARK 927      BINDING AFFINITY PREDICTED BY RF-SCORE:    0.00 PKD
ROOT
HETATM    1  C   UNL     1      -8.802  10.245  64.882  1.00  0.00    -0.213 C  
HETATM    2  C   UNL     1     -10.235  10.582  65.270  1.00  0.00    -0.352 C  
ENDROOT
BRANCH   2   3
HETATM    3  C   UNL     1     -10.454  10.558  66.781  1.00  0.00    -0.242 C  
BRANCH   3   4
HETATM    4  N   UNL     1      -9.512   9.704  67.478  1.00  0.00    -0.133 N  
HETATM    5  H   UNL     1      -8.604  10.077  67.755  1.00  0.00     0.000 HD 
BRANCH   4   6
HETATM    6  C   UNL     1      -9.825   8.409  67.768  1.00  0.00    -0.174 C  
HETATM    7  O   UNL     1      -9.234   7.451  67.300  1.00  0.00    -0.127 OA 
BRANCH   6   8
HETATM    8  N   UNL     1     -10.858   8.286  68.680  1.00  0.00    -0.428 N  
HETATM    9  H   UNL     1     -11.789   8.068  68.325  1.00  0.00     0.000 HD 
BRANCH   8  10
HETATM   10  S   UNL     1     -10.665   8.474  70.322  1.00  0.00    -0.231 S  
HETATM   11  O   UNL     1     -11.874   9.050  70.867  1.00  0.00    -0.282 OA 
HETATM   12  O   UNL     1      -9.386   9.134  70.492  1.00  0.00    -0.200 OA 
BRANCH  10  13
HETATM   13  C   UNL     1     -10.472   6.817  70.938  1.00  0.00    -0.213 A  
HETATM   14  C   UNL     1     -10.852   6.520  72.252  1.00  0.00    -0.262 A  
HETATM   15  C   UNL     1     -10.678   5.222  72.740  1.00  0.00    -0.292 A  
HETATM   16  C   UNL     1     -10.141   4.233  71.913  1.00  0.00    -0.167 A  
HETATM   17  C   UNL     1      -9.778   4.527  70.599  1.00  0.00    -0.282 A  
HETATM   18 CL   UNL     1      -9.924   2.638  72.522  1.00  0.00    -0.216 Cl 
HETATM   19  C   UNL     1      -9.942   5.823  70.106  1.00  0.00    -0.258 A  
ENDBRANCH  10  13
ENDBRANCH   8  10
ENDBRANCH   6   8
ENDBRANCH   4   6
ENDBRANCH   3   4
ENDBRANCH   2   3
TORSDOF 6
ENDMDL
MODEL      248
REMARK 921   NORMALIZED FREE ENERGY PREDICTED BY IDOCK:   -2.85 KCAL/MOL
REMARK 922        TOTAL FREE ENERGY PREDICTED BY IDOCK:   -4.55 KCAL/MOL
REMARK 923 INTER-LIGAND FREE ENERGY PREDICTED BY IDOCK:   -3.93 KCAL/MOL
REMARK 924 INTRA-LIGAND FREE ENERGY PREDICTED BY IDOCK:   -0.62 KCAL/MOL
REMARK 927      BINDING AFFINITY PREDICTED BY RF-SCORE:    0.00 PKD
ROOT
HETATM    1  C   UNL     1      -5.271  17.239  70.190  1.00  0.00    -0.216 C  
HETATM    2  C   UNL     1      -6.437  17.104  69.221  1.00  0.00    -0.235 C  
ENDROOT
BRANCH   2   3
HETATM    3  C   UNL     1      -7.029  15.697  69.210  1.00  0.00    -0.179 C  
BRANCH   3   4
HETATM    4  N   UNL     1      -6.028  14.658  69.352  1.00  0.00    -0.096 N  
HETATM    5  H   UNL     1      -5.065  14.846  69.074  1.00  0.00     0.000 HD 
BRANCH   4   6
HETATM    6  C   UNL     1      -6.356  13.433  69.853  1.00  0.00    -0.060 C  
HETATM    7  O   UNL     1      -5.829  12.943  70.836  1.00  0.00    -0.250 OA 
BRANCH   6   8
HETATM    8  N   UNL     1      -7.379  12.814  69.157  1.00  0.00    -0.315 N  
HETATM    9  H   UNL     1      -8.331  12.918  69.507  1.00  0.00     0.000 HD 
BRANCH   8  10
HETATM   10  S   UNL     1      -7.140  11.909  67.781  1.00  0.00    -0.114 S  
HETATM   11  O   UNL     1      -6.926  10.532  68.164  1.00  0.00    -0.071 OA 
HETATM   12  O   UNL     1      -6.148  12.628  67.008  1.00  0.00    -0.281 OA 
BRANCH  10  13
HETATM   13  C   UNL     1      -8.675  12.042  66.892  1.00  0.00    -0.193 A  
HETATM   14  C   UNL     1      -9.090  10.987  66.071  1.00  0.00    -0.212 A  
HETATM   15  C   UNL     1     -10.285  11.104  65.356  1.00  0.00    -0.327 A  
HETATM   16  C   UNL     1     -11.059  12.260  65.477  1.00  0.00    -0.307 A  
HETATM   17  C   UNL     1     -10.652  13.303  66.308  1.00  0.00    -0.294 A  
HETATM   18 CL   UNL     1     -12.527  12.399  64.590  1.00  0.00    -0.533 Cl 
HETATM   19  C   UNL     1      -9.455  13.197  67.021  1.00  0.00    -0.242 A  
ENDBRANCH  10  13
ENDBRANCH   8  10
ENDBRANCH   6   8
ENDBRANCH   4   6
ENDBRANCH   3   4
ENDBRANCH   2   3
TORSDOF 6
ENDMDL
MODEL      249
REMARK 921   NORMALIZED FREE ENERGY PREDICTED BY IDOCK:   -2.84 KCAL/MOL
REMARK 922        TOTAL FREE ENERGY PREDICTED BY IDOCK:   -4.54 KCAL/MOL
REMARK 923 INTER-LIGAND FREE ENERGY PREDICTED BY IDOCK:   -4.11 KCAL/MOL
REMARK 924 INTRA-LIGAND FREE ENERGY PREDICTED BY IDOCK:   -0.43 KCAL/MOL
REMARK 927      BINDING AFFINITY PREDICTED BY RF-SCORE:    0.00 PKD
ROOT
HETATM    1  C   UNL     1     -10.422  11.765  63.053  1.00  0.00    -0.223 C  
HETATM    2  C   UNL     1     -10.915  11.574  64.480  1.00  0.00    -0.367 C  
ENDROOT
BRANCH   2   3
HETATM    3  C   UNL     1      -9.861  10.938  65.383  1.00  0.00    -0.255 C  
BRANCH   3   4
HETATM    4  N   UNL     1     -10.228   9.612  65.839  1.00  0.00    -0.221 N  
HETATM    5  H   UNL     1     -10.464   8.892  65.157  1.00  0.00     0.000 HD 
BRANCH   4   6
HETATM    6  C   UNL     1     -10.263   9.314  67.170  1.00  0.00    -0.257 C  
HETATM    7  O   UNL     1     -10.500   8.201  67.606  1.00  0.00    -0.234 OA 
BRANCH   6   8
HETATM    8  N   UNL     1      -9.964  10.395  67.981  1.00  0.00    -0.153 N  
HETATM    9  H   UNL     1      -8.983  10.641  68.111  1.00  0.00     0.000 HD 
BRANCH   8  10
HETATM   10  S   UNL     1     -11.116  11.314  68.753  1.00  0.00    -0.258 S  
HETATM   11  O   UNL     1     -10.877  11.254  70.177  1.00  0.00     0.017 OA 
HETATM   12  O   UNL     1     -12.387  10.898  68.194  1.00  0.00    -0.306 OA 
BRANCH  10  13
HETATM   13  C   UNL     1     -10.821  12.970  68.175  1.00  0.00    -0.247 A  
HETATM   14  C   UNL     1      -9.816  13.740  68.772  1.00  0.00    -0.093 A  
HETATM   15  C   UNL     1      -9.602  15.049  68.332  1.00  0.00    -0.212 A  
HETATM   16  C   UNL     1     -10.379  15.571  67.295  1.00  0.00    -0.267 A  
HETATM   17  C   UNL     1     -11.369  14.797  66.691  1.00  0.00    -0.347 A  
HETATM   18 CL   UNL     1     -10.114  17.185  66.761  1.00  0.00    -0.293 Cl 
HETATM   19  C   UNL     1     -11.594  13.490  67.131  1.00  0.00    -0.393 A  
ENDBRANCH  10  13
ENDBRANCH   8  10
ENDBRANCH   6   8
ENDBRANCH   4   6
ENDBRANCH   3   4
ENDBRANCH   2   3
TORSDOF 6
ENDMDL
MODEL      250
REMARK 921   NORMALIZED FREE ENERGY PREDICTED BY IDOCK:   -2.82 KCAL/MOL
REMARK 922        TOTAL FREE ENERGY PREDICTED BY IDOCK:   -4.52 KCAL/MOL
REMARK 923 INTER-LIGAND FREE ENERGY PREDICTED BY IDOCK:   -3.93 KCAL/MOL
REMARK 924 INTRA-LIGAND FREE ENERGY PREDICTED BY IDOCK:   -0.59 KCAL/MOL
REMARK 927      BINDING AFFINITY PREDICTED BY RF-SCORE:    0.00 PKD
ROOT
HETATM    1  C   UNL     1     -11.476  15.162  71.471  1.00  0.00    -0.422 C  
HETATM    2  C   UNL     1     -12.252  14.776  70.220  1.00  0.00    -0.394 C  
ENDROOT
BRANCH   2   3
HETATM    3  C   UNL     1     -11.430  13.913  69.264  1.00  0.00    -0.297 C  
BRANCH   3   4
HETATM    4  N   UNL     1     -12.089  12.671  68.913  1.00  0.00    -0.209 N  
HETATM    5  H   UNL     1     -12.703  12.218  69.589  1.00  0.00     0.000 HD 
BRANCH   4   6
HETATM    6  C   UNL     1     -11.897  12.099  67.689  1.00  0.00    -0.246 C  
HETATM    7  O   UNL     1     -12.198  12.638  66.638  1.00  0.00    -0.517 OA 
BRANCH   6   8
HETATM    8  N   UNL     1     -11.291  10.857  67.754  1.00  0.00    -0.310 N  
HETATM    9  H   UNL     1     -11.728  10.082  67.256  1.00  0.00     0.000 HD 
BRANCH   8  10
HETATM   10  S   UNL     1      -9.890  10.559  68.601  1.00  0.00    -0.187 S  
HETATM   11  O   UNL     1     -10.239  10.103  69.928  1.00  0.00    -0.242 OA 
HETATM   12  O   UNL     1      -9.062  11.734  68.413  1.00  0.00    -0.185 OA 
BRANCH  10  13
HETATM   13  C   UNL     1      -9.107   9.234  67.710  1.00  0.00    -0.126 A  
HETATM   14  C   UNL     1      -7.788   8.881  68.016  1.00  0.00    -0.102 A  
HETATM   15  C   UNL     1      -7.168   7.855  67.298  1.00  0.00    -0.090 A  
HETATM   16  C   UNL     1      -7.870   7.183  66.295  1.00  0.00    -0.107 A  
HETATM   17  C   UNL     1      -9.190   7.526  66.002  1.00  0.00    -0.102 A  
HETATM   18 CL   UNL     1      -7.099   5.924  65.411  1.00  0.00    -0.063 Cl 
HETATM   19  C   UNL     1      -9.815   8.555  66.711  1.00  0.00    -0.327 A  
ENDBRANCH  10  13
ENDBRANCH   8  10
ENDBRANCH   6   8
ENDBRANCH   4   6
ENDBRANCH   3   4
ENDBRANCH   2   3
TORSDOF 6
ENDMDL
MODEL      251
REMARK 921   NORMALIZED FREE ENERGY PREDICTED BY IDOCK:   -2.79 KCAL/MOL
REMARK 922        TOTAL FREE ENERGY PREDICTED BY IDOCK:   -4.48 KCAL/MOL
REMARK 923 INTER-LIGAND FREE ENERGY PREDICTED BY IDOCK:   -3.74 KCAL/MOL
REMARK 924 INTRA-LIGAND FREE ENERGY PREDICTED BY IDOCK:   -0.74 KCAL/MOL
REMARK 927      BINDING AFFINITY PREDICTED BY RF-SCORE:    0.00 PKD
ROOT
HETATM    1  C   UNL     1     -13.664   9.183  72.212  1.00  0.00    -0.548 C  
HETATM    2  C   UNL     1     -12.419   8.756  71.449  1.00  0.00    -0.348 C  
ENDROOT
BRANCH   2   3
HETATM    3  C   UNL     1     -11.162   8.785  72.315  1.00  0.00    -0.273 C  
BRANCH   3   4
HETATM    4  N   UNL     1     -10.845   7.498  72.900  1.00  0.00    -0.341 N  
HETATM    5  H   UNL     1     -10.945   7.363  73.906  1.00  0.00     0.000 HD 
BRANCH   4   6
HETATM    6  C   UNL     1     -10.413   6.463  72.122  1.00  0.00    -0.207 C  
HETATM    7  O   UNL     1     -11.159   5.639  71.621  1.00  0.00    -0.251 OA 
BRANCH   6   8
HETATM    8  N   UNL     1      -9.044   6.461  71.926  1.00  0.00    -0.146 N  
HETATM    9  H   UNL     1      -8.440   6.500  72.746  1.00  0.00     0.000 HD 
BRANCH   8  10
HETATM   10  S   UNL     1      -8.329   6.396  70.424  1.00  0.00    -0.127 S  
HETATM   11  O   UNL     1      -8.702   5.152  69.788  1.00  0.00    -0.097 OA 
HETATM   12  O   UNL     1      -6.936   6.730  70.640  1.00  0.00    -0.061 OA 
BRANCH  10  13
HETATM   13  C   UNL     1      -9.049   7.755  69.531  1.00  0.00    -0.146 A  
HETATM   14  C   UNL     1     -10.107   7.516  68.646  1.00  0.00    -0.194 A  
HETATM   15  C   UNL     1     -10.656   8.582  67.929  1.00  0.00    -0.219 A  
HETATM   16  C   UNL     1     -10.156   9.874  68.111  1.00  0.00    -0.165 A  
HETATM   17  C   UNL     1      -9.113  10.112  69.005  1.00  0.00    -0.176 A  
HETATM   18 CL   UNL     1     -10.833  11.182  67.220  1.00  0.00    -0.303 Cl 
HETATM   19  C   UNL     1      -8.554   9.050  69.720  1.00  0.00    -0.138 A  
ENDBRANCH  10  13
ENDBRANCH   8  10
ENDBRANCH   6   8
ENDBRANCH   4   6
ENDBRANCH   3   4
ENDBRANCH   2   3
TORSDOF 6
ENDMDL
MODEL      252
REMARK 921   NORMALIZED FREE ENERGY PREDICTED BY IDOCK:   -2.77 KCAL/MOL
REMARK 922        TOTAL FREE ENERGY PREDICTED BY IDOCK:   -4.44 KCAL/MOL
REMARK 923 INTER-LIGAND FREE ENERGY PREDICTED BY IDOCK:   -3.88 KCAL/MOL
REMARK 924 INTRA-LIGAND FREE ENERGY PREDICTED BY IDOCK:   -0.56 KCAL/MOL
REMARK 927      BINDING AFFINITY PREDICTED BY RF-SCORE:    0.00 PKD
ROOT
HETATM    1  C   UNL     1      -8.804   3.128  66.142  1.00  0.00    -0.141 C  
HETATM    2  C   UNL     1      -9.326   3.105  67.571  1.00  0.00    -0.241 C  
ENDROOT
BRANCH   2   3
HETATM    3  C   UNL     1     -10.023   4.407  67.961  1.00  0.00    -0.009 C  
BRANCH   3   4
HETATM    4  N   UNL     1      -9.166   5.569  67.839  1.00  0.00    -0.108 N  
HETATM    5  H   UNL     1      -8.158   5.467  67.962  1.00  0.00     0.000 HD 
BRANCH   4   6
HETATM    6  C   UNL     1      -9.688   6.798  67.563  1.00  0.00    -0.128 C  
HETATM    7  O   UNL     1     -10.418   7.023  66.613  1.00  0.00    -0.228 OA 
BRANCH   6   8
HETATM    8  N   UNL     1      -9.337   7.763  68.490  1.00  0.00    -0.147 N  
HETATM    9  H   UNL     1      -8.524   8.347  68.293  1.00  0.00     0.000 HD 
BRANCH   8  10
HETATM   10  S   UNL     1     -10.168   8.024  69.908  1.00  0.00    -0.208 S  
HETATM   11  O   UNL     1      -9.235   7.955  71.010  1.00  0.00    -0.148 OA 
HETATM   12  O   UNL     1     -11.319   7.145  69.854  1.00  0.00    -0.239 OA 
BRANCH  10  13
HETATM   13  C   UNL     1     -10.786   9.685  69.760  1.00  0.00    -0.245 A  
HETATM   14  C   UNL     1     -10.475  10.438  68.622  1.00  0.00    -0.216 A  
HETATM   15  C   UNL     1     -10.943  11.750  68.519  1.00  0.00    -0.270 A  
HETATM   16  C   UNL     1     -11.724  12.294  69.541  1.00  0.00    -0.332 A  
HETATM   17  C   UNL     1     -12.046  11.537  70.668  1.00  0.00    -0.450 A  
HETATM   18 CL   UNL     1     -12.292  13.913  69.411  1.00  0.00    -0.322 Cl 
HETATM   19  C   UNL     1     -11.576  10.226  70.781  1.00  0.00    -0.446 A  
ENDBRANCH  10  13
ENDBRANCH   8  10
ENDBRANCH   6   8
ENDBRANCH   4   6
ENDBRANCH   3   4
ENDBRANCH   2   3
TORSDOF 6
ENDMDL
MODEL      253
REMARK 921   NORMALIZED FREE ENERGY PREDICTED BY IDOCK:   -2.77 KCAL/MOL
REMARK 922        TOTAL FREE ENERGY PREDICTED BY IDOCK:   -4.44 KCAL/MOL
REMARK 923 INTER-LIGAND FREE ENERGY PREDICTED BY IDOCK:   -3.91 KCAL/MOL
REMARK 924 INTRA-LIGAND FREE ENERGY PREDICTED BY IDOCK:   -0.53 KCAL/MOL
REMARK 927      BINDING AFFINITY PREDICTED BY RF-SCORE:    0.00 PKD
ROOT
HETATM    1  C   UNL     1      -7.861   7.357  67.867  1.00  0.00    -0.118 C  
HETATM    2  C   UNL     1      -9.094   7.151  67.000  1.00  0.00    -0.149 C  
ENDROOT
BRANCH   2   3
HETATM    3  C   UNL     1     -10.348   7.777  67.606  1.00  0.00    -0.239 C  
BRANCH   3   4
HETATM    4  N   UNL     1     -10.488   9.185  67.295  1.00  0.00    -0.267 N  
HETATM    5  H   UNL     1     -10.343   9.506  66.337  1.00  0.00     0.000 HD 
BRANCH   4   6
HETATM    6  C   UNL     1     -10.810  10.089  68.265  1.00  0.00    -0.241 C  
HETATM    7  O   UNL     1     -11.336   9.785  69.321  1.00  0.00    -0.144 OA 
BRANCH   6   8
HETATM    8  N   UNL     1     -10.447  11.385  67.948  1.00  0.00    -0.179 N  
HETATM    9  H   UNL     1      -9.618  11.776  68.396  1.00  0.00     0.000 HD 
BRANCH   8  10
HETATM   10  S   UNL     1     -11.285  12.341  66.874  1.00  0.00    -0.333 S  
HETATM   11  O   UNL     1     -12.522  12.758  67.495  1.00  0.00    -0.142 OA 
HETATM   12  O   UNL     1     -11.292  11.610  65.623  1.00  0.00    -0.274 OA 
BRANCH  10  13
HETATM   13  C   UNL     1     -10.239  13.759  66.633  1.00  0.00    -0.276 A  
HETATM   14  C   UNL     1     -10.517  14.652  65.591  1.00  0.00    -0.358 A  
HETATM   15  C   UNL     1      -9.680  15.752  65.390  1.00  0.00    -0.146 A  
HETATM   16  C   UNL     1      -8.587  15.960  66.234  1.00  0.00    -0.313 A  
HETATM   17  C   UNL     1      -8.320  15.077  67.280  1.00  0.00    -0.228 A  
HETATM   18 CL   UNL     1      -7.556  17.314  65.977  1.00  0.00    -0.306 Cl 
HETATM   19  C   UNL     1      -9.149  13.971  67.484  1.00  0.00    -0.196 A  
ENDBRANCH  10  13
ENDBRANCH   8  10
ENDBRANCH   6   8
ENDBRANCH   4   6
ENDBRANCH   3   4
ENDBRANCH   2   3
TORSDOF 6
ENDMDL
MODEL      254
REMARK 921   NORMALIZED FREE ENERGY PREDICTED BY IDOCK:   -2.75 KCAL/MOL
REMARK 922        TOTAL FREE ENERGY PREDICTED BY IDOCK:   -4.42 KCAL/MOL
REMARK 923 INTER-LIGAND FREE ENERGY PREDICTED BY IDOCK:   -4.10 KCAL/MOL
REMARK 924 INTRA-LIGAND FREE ENERGY PREDICTED BY IDOCK:   -0.33 KCAL/MOL
REMARK 927      BINDING AFFINITY PREDICTED BY RF-SCORE:    0.00 PKD
ROOT
HETATM    1  C   UNL     1      -8.414  18.275  67.498  1.00  0.00    -0.252 C  
HETATM    2  C   UNL     1      -7.456  17.098  67.612  1.00  0.00    -0.183 C  
ENDROOT
BRANCH   2   3
HETATM    3  C   UNL     1      -7.787  16.185  68.790  1.00  0.00    -0.203 C  
BRANCH   3   4
HETATM    4  N   UNL     1      -7.810  14.781  68.432  1.00  0.00    -0.121 N  
HETATM    5  H   UNL     1      -8.639  14.223  68.635  1.00  0.00     0.000 HD 
BRANCH   4   6
HETATM    6  C   UNL     1      -6.737  14.195  67.826  1.00  0.00    -0.177 C  
HETATM    7  O   UNL     1      -5.585  14.548  68.007  1.00  0.00    -0.123 OA 
BRANCH   6   8
HETATM    8  N   UNL     1      -7.082  13.133  67.010  1.00  0.00    -0.307 N  
HETATM    9  H   UNL     1      -6.679  13.093  66.074  1.00  0.00     0.000 HD 
BRANCH   8  10
HETATM   10  S   UNL     1      -8.119  11.915  67.472  1.00  0.00    -0.166 S  
HETATM   11  O   UNL     1      -8.652  12.233  68.777  1.00  0.00    -0.029 OA 
HETATM   12  O   UNL     1      -7.395  10.680  67.246  1.00  0.00    -0.088 OA 
BRANCH  10  13
HETATM   13  C   UNL     1      -9.428  11.969  66.270  1.00  0.00    -0.229 A  
HETATM   14  C   UNL     1     -10.358  13.014  66.310  1.00  0.00    -0.291 A  
HETATM   15  C   UNL     1     -11.399  13.041  65.378  1.00  0.00    -0.327 A  
HETATM   16  C   UNL     1     -11.495  12.038  64.411  1.00  0.00    -0.343 A  
HETATM   17  C   UNL     1     -10.558  11.006  64.363  1.00  0.00    -0.395 A  
HETATM   18 CL   UNL     1     -12.783  12.074  63.270  1.00  0.00    -0.603 Cl 
HETATM   19  C   UNL     1      -9.518  10.968  65.296  1.00  0.00    -0.259 A  
ENDBRANCH  10  13
ENDBRANCH   8  10
ENDBRANCH   6   8
ENDBRANCH   4   6
ENDBRANCH   3   4
ENDBRANCH   2   3
TORSDOF 6
ENDMDL
MODEL      255
REMARK 921   NORMALIZED FREE ENERGY PREDICTED BY IDOCK:   -2.75 KCAL/MOL
REMARK 922        TOTAL FREE ENERGY PREDICTED BY IDOCK:   -4.42 KCAL/MOL
REMARK 923 INTER-LIGAND FREE ENERGY PREDICTED BY IDOCK:   -3.74 KCAL/MOL
REMARK 924 INTRA-LIGAND FREE ENERGY PREDICTED BY IDOCK:   -0.67 KCAL/MOL
REMARK 927      BINDING AFFINITY PREDICTED BY RF-SCORE:    0.00 PKD
ROOT
HETATM    1  C   UNL     1      -5.626   4.269  72.978  1.00  0.00    -0.007 C  
HETATM    2  C   UNL     1      -6.388   3.197  72.211  1.00  0.00    -0.014 C  
ENDROOT
BRANCH   2   3
HETATM    3  C   UNL     1      -7.645   2.735  72.943  1.00  0.00    -0.050 C  
BRANCH   3   4
HETATM    4  N   UNL     1      -8.491   3.833  73.369  1.00  0.00    -0.087 N  
HETATM    5  H   UNL     1      -8.120   4.534  74.010  1.00  0.00     0.000 HD 
BRANCH   4   6
HETATM    6  C   UNL     1      -9.775   3.941  72.923  1.00  0.00    -0.130 C  
HETATM    7  O   UNL     1     -10.579   3.026  72.952  1.00  0.00    -0.158 OA 
BRANCH   6   8
HETATM    8  N   UNL     1     -10.090   5.208  72.466  1.00  0.00    -0.175 N  
HETATM    9  H   UNL     1     -10.675   5.289  71.634  1.00  0.00     0.000 HD 
BRANCH   8  10
HETATM   10  S   UNL     1      -9.569   6.609  73.200  1.00  0.00    -0.159 S  
HETATM   11  O   UNL     1      -8.147   6.745  72.977  1.00  0.00    -0.108 OA 
HETATM   12  O   UNL     1     -10.110   6.571  74.543  1.00  0.00    -0.344 OA 
BRANCH  10  13
HETATM   13  C   UNL     1     -10.428   7.906  72.338  1.00  0.00    -0.277 A  
HETATM   14  C   UNL     1     -11.759   8.187  72.665  1.00  0.00    -0.419 A  
HETATM   15  C   UNL     1     -12.439   9.192  71.971  1.00  0.00    -0.452 A  
HETATM   16  C   UNL     1     -11.783   9.913  70.971  1.00  0.00    -0.382 A  
HETATM   17  C   UNL     1     -10.451   9.642  70.657  1.00  0.00    -0.379 A  
HETATM   18 CL   UNL     1     -12.627  11.145  70.116  1.00  0.00    -0.288 Cl 
HETATM   19  C   UNL     1      -9.767   8.635  71.342  1.00  0.00    -0.314 A  
ENDBRANCH  10  13
ENDBRANCH   8  10
ENDBRANCH   6   8
ENDBRANCH   4   6
ENDBRANCH   3   4
ENDBRANCH   2   3
TORSDOF 6
ENDMDL
MODEL      256
REMARK 921   NORMALIZED FREE ENERGY PREDICTED BY IDOCK:   -2.74 KCAL/MOL
REMARK 922        TOTAL FREE ENERGY PREDICTED BY IDOCK:   -4.40 KCAL/MOL
REMARK 923 INTER-LIGAND FREE ENERGY PREDICTED BY IDOCK:   -4.22 KCAL/MOL
REMARK 924 INTRA-LIGAND FREE ENERGY PREDICTED BY IDOCK:   -0.19 KCAL/MOL
REMARK 927      BINDING AFFINITY PREDICTED BY RF-SCORE:    0.00 PKD
ROOT
HETATM    1  C   UNL     1      -8.586   9.634  63.517  1.00  0.00    -0.215 C  
HETATM    2  C   UNL     1      -9.359  10.300  62.388  1.00  0.00    -0.301 C  
ENDROOT
BRANCH   2   3
HETATM    3  C   UNL     1     -10.194  11.485  62.868  1.00  0.00    -0.139 C  
BRANCH   3   4
HETATM    4  N   UNL     1     -10.285  11.567  64.313  1.00  0.00    -0.286 N  
HETATM    5  H   UNL     1     -10.399  10.714  64.859  1.00  0.00     0.000 HD 
BRANCH   4   6
HETATM    6  C   UNL     1     -10.219  12.771  64.950  1.00  0.00    -0.272 C  
HETATM    7  O   UNL     1     -10.967  13.703  64.712  1.00  0.00    -0.338 OA 
BRANCH   6   8
HETATM    8  N   UNL     1      -9.240  12.820  65.926  1.00  0.00    -0.452 N  
HETATM    9  H   UNL     1      -8.291  12.545  65.671  1.00  0.00     0.000 HD 
BRANCH   8  10
HETATM   10  S   UNL     1      -9.524  13.304  67.493  1.00  0.00    -0.229 S  
HETATM   11  O   UNL     1      -8.802  12.425  68.386  1.00  0.00    -0.182 OA 
HETATM   12  O   UNL     1     -10.961  13.455  67.601  1.00  0.00    -0.251 OA 
BRANCH  10  13
HETATM   13  C   UNL     1      -8.829  14.938  67.585  1.00  0.00    -0.181 A  
HETATM   14  C   UNL     1      -8.899  15.651  68.788  1.00  0.00    -0.208 A  
HETATM   15  C   UNL     1      -8.372  16.944  68.851  1.00  0.00    -0.208 A  
HETATM   16  C   UNL     1      -7.770  17.507  67.723  1.00  0.00    -0.205 A  
HETATM   17  C   UNL     1      -7.687  16.789  66.530  1.00  0.00    -0.334 A  
HETATM   18 CL   UNL     1      -7.129  19.101  67.805  1.00  0.00    -0.250 Cl 
HETATM   19  C   UNL     1      -8.218  15.498  66.457  1.00  0.00    -0.167 A  
ENDBRANCH  10  13
ENDBRANCH   8  10
ENDBRANCH   6   8
ENDBRANCH   4   6
ENDBRANCH   3   4
ENDBRANCH   2   3
TORSDOF 6
ENDMDL
MODEL      257
REMARK 921   NORMALIZED FREE ENERGY PREDICTED BY IDOCK:   -2.71 KCAL/MOL
REMARK 922        TOTAL FREE ENERGY PREDICTED BY IDOCK:   -4.37 KCAL/MOL
REMARK 923 INTER-LIGAND FREE ENERGY PREDICTED BY IDOCK:   -4.06 KCAL/MOL
REMARK 924 INTRA-LIGAND FREE ENERGY PREDICTED BY IDOCK:   -0.31 KCAL/MOL
REMARK 927      BINDING AFFINITY PREDICTED BY RF-SCORE:    0.00 PKD
ROOT
HETATM    1  C   UNL     1     -13.654   9.715  71.989  1.00  0.00    -0.467 C  
HETATM    2  C   UNL     1     -14.396   8.386  71.984  1.00  0.00    -0.555 C  
ENDROOT
BRANCH   2   3
HETATM    3  C   UNL     1     -13.511   7.223  71.540  1.00  0.00    -0.363 C  
BRANCH   3   4
HETATM    4  N   UNL     1     -12.309   7.087  72.339  1.00  0.00    -0.509 N  
HETATM    5  H   UNL     1     -12.025   7.849  72.954  1.00  0.00     0.000 HD 
BRANCH   4   6
HETATM    6  C   UNL     1     -11.553   5.953  72.279  1.00  0.00    -0.282 C  
HETATM    7  O   UNL     1     -11.368   5.215  73.230  1.00  0.00    -0.321 OA 
BRANCH   6   8
HETATM    8  N   UNL     1     -11.045   5.701  71.017  1.00  0.00    -0.192 N  
HETATM    9  H   UNL     1     -11.592   6.000  70.210  1.00  0.00     0.000 HD 
BRANCH   8  10
HETATM   10  S   UNL     1      -9.592   4.936  70.745  1.00  0.00    -0.199 S  
HETATM   11  O   UNL     1      -9.774   3.515  70.939  1.00  0.00    -0.170 OA 
HETATM   12  O   UNL     1      -8.613   5.672  71.519  1.00  0.00    -0.129 OA 
BRANCH  10  13
HETATM   13  C   UNL     1      -9.238   5.257  69.032  1.00  0.00    -0.118 A  
HETATM   14  C   UNL     1      -9.802   6.375  68.408  1.00  0.00    -0.141 A  
HETATM   15  C   UNL     1      -9.540   6.612  67.056  1.00  0.00    -0.183 A  
HETATM   16  C   UNL     1      -8.710   5.743  66.345  1.00  0.00    -0.128 A  
HETATM   17  C   UNL     1      -8.135   4.638  66.972  1.00  0.00    -0.102 A  
HETATM   18 CL   UNL     1      -8.395   6.037  64.679  1.00  0.00    -0.107 Cl 
HETATM   19  C   UNL     1      -8.398   4.391  68.322  1.00  0.00    -0.097 A  
ENDBRANCH  10  13
ENDBRANCH   8  10
ENDBRANCH   6   8
ENDBRANCH   4   6
ENDBRANCH   3   4
ENDBRANCH   2   3
TORSDOF 6
ENDMDL
MODEL      258
REMARK 921   NORMALIZED FREE ENERGY PREDICTED BY IDOCK:   -2.71 KCAL/MOL
REMARK 922        TOTAL FREE ENERGY PREDICTED BY IDOCK:   -4.36 KCAL/MOL
REMARK 923 INTER-LIGAND FREE ENERGY PREDICTED BY IDOCK:   -4.03 KCAL/MOL
REMARK 924 INTRA-LIGAND FREE ENERGY PREDICTED BY IDOCK:   -0.33 KCAL/MOL
REMARK 927      BINDING AFFINITY PREDICTED BY RF-SCORE:    0.00 PKD
ROOT
HETATM    1  C   UNL     1      -9.079   7.667  66.694  1.00  0.00    -0.198 C  
HETATM    2  C   UNL     1      -9.690   6.860  67.830  1.00  0.00    -0.148 C  
ENDROOT
BRANCH   2   3
HETATM    3  C   UNL     1     -11.072   7.371  68.233  1.00  0.00     0.186 C  
BRANCH   3   4
HETATM    4  N   UNL     1     -11.024   8.360  69.292  1.00  0.00    -0.428 N  
HETATM    5  H   UNL     1     -11.305   8.099  70.237  1.00  0.00     0.000 HD 
BRANCH   4   6
HETATM    6  C   UNL     1     -10.609   9.634  69.041  1.00  0.00    -0.218 C  
HETATM    7  O   UNL     1      -9.597  10.120  69.516  1.00  0.00    -0.214 OA 
BRANCH   6   8
HETATM    8  N   UNL     1     -11.431  10.315  68.162  1.00  0.00    -0.513 N  
HETATM    9  H   UNL     1     -12.374   9.956  68.008  1.00  0.00     0.000 HD 
BRANCH   8  10
HETATM   10  S   UNL     1     -10.969  11.687  67.341  1.00  0.00    -0.279 S  
HETATM   11  O   UNL     1     -10.289  12.569  68.262  1.00  0.00    -0.224 OA 
HETATM   12  O   UNL     1     -12.148  12.128  66.623  1.00  0.00    -0.622 OA 
BRANCH  10  13
HETATM   13  C   UNL     1      -9.814  11.105  66.120  1.00  0.00    -0.225 A  
HETATM   14  C   UNL     1     -10.291  10.611  64.900  1.00  0.00    -0.347 A  
HETATM   15  C   UNL     1      -9.382  10.133  63.952  1.00  0.00    -0.336 A  
HETATM   16  C   UNL     1      -8.012  10.164  64.222  1.00  0.00    -0.155 A  
HETATM   17  C   UNL     1      -7.539  10.671  65.432  1.00  0.00    -0.038 A  
HETATM   18 CL   UNL     1      -6.900   9.569  63.052  1.00  0.00    -0.099 Cl 
HETATM   19  C   UNL     1      -8.441  11.145  66.387  1.00  0.00    -0.167 A  
ENDBRANCH  10  13
ENDBRANCH   8  10
ENDBRANCH   6   8
ENDBRANCH   4   6
ENDBRANCH   3   4
ENDBRANCH   2   3
TORSDOF 6
ENDMDL
MODEL      259
REMARK 921   NORMALIZED FREE ENERGY PREDICTED BY IDOCK:   -2.68 KCAL/MOL
REMARK 922        TOTAL FREE ENERGY PREDICTED BY IDOCK:   -4.33 KCAL/MOL
REMARK 923 INTER-LIGAND FREE ENERGY PREDICTED BY IDOCK:   -3.60 KCAL/MOL
REMARK 924 INTRA-LIGAND FREE ENERGY PREDICTED BY IDOCK:   -0.73 KCAL/MOL
REMARK 927      BINDING AFFINITY PREDICTED BY RF-SCORE:    0.00 PKD
ROOT
HETATM    1  C   UNL     1     -11.515   9.242  71.649  1.00  0.00    -0.468 C  
HETATM    2  C   UNL     1     -11.741   8.121  72.653  1.00  0.00    -0.419 C  
ENDROOT
BRANCH   2   3
HETATM    3  C   UNL     1     -10.449   7.399  73.027  1.00  0.00    -0.323 C  
BRANCH   3   4
HETATM    4  N   UNL     1     -10.296   6.123  72.357  1.00  0.00    -0.189 N  
HETATM    5  H   UNL     1     -10.957   5.371  72.549  1.00  0.00     0.000 HD 
BRANCH   4   6
HETATM    6  C   UNL     1      -9.280   5.915  71.471  1.00  0.00    -0.146 C  
HETATM    7  O   UNL     1      -8.433   5.049  71.606  1.00  0.00    -0.119 OA 
BRANCH   6   8
HETATM    8  N   UNL     1      -9.324   6.762  70.378  1.00  0.00    -0.163 N  
HETATM    9  H   UNL     1      -8.634   7.511  70.321  1.00  0.00     0.000 HD 
BRANCH   8  10
HETATM   10  S   UNL     1     -10.442   6.627  69.152  1.00  0.00    -0.238 S  
HETATM   11  O   UNL     1     -10.450   7.859  68.397  1.00  0.00    -0.205 OA 
HETATM   12  O   UNL     1     -11.651   6.132  69.779  1.00  0.00    -0.405 OA 
BRANCH  10  13
HETATM   13  C   UNL     1      -9.819   5.312  68.129  1.00  0.00    -0.150 A  
HETATM   14  C   UNL     1      -9.287   5.611  66.870  1.00  0.00    -0.129 A  
HETATM   15  C   UNL     1      -8.820   4.573  66.059  1.00  0.00    -0.119 A  
HETATM   16  C   UNL     1      -8.875   3.254  66.515  1.00  0.00    -0.142 A  
HETATM   17  C   UNL     1      -9.391   2.960  67.776  1.00  0.00    -0.247 A  
HETATM   18 CL   UNL     1      -8.303   1.980  65.509  1.00  0.00    -0.088 Cl 
HETATM   19  C   UNL     1      -9.867   3.991  68.590  1.00  0.00    -0.046 A  
ENDBRANCH  10  13
ENDBRANCH   8  10
ENDBRANCH   6   8
ENDBRANCH   4   6
ENDBRANCH   3   4
ENDBRANCH   2   3
TORSDOF 6
ENDMDL
MODEL      260
REMARK 921   NORMALIZED FREE ENERGY PREDICTED BY IDOCK:   -2.68 KCAL/MOL
REMARK 922        TOTAL FREE ENERGY PREDICTED BY IDOCK:   -4.33 KCAL/MOL
REMARK 923 INTER-LIGAND FREE ENERGY PREDICTED BY IDOCK:   -3.58 KCAL/MOL
REMARK 924 INTRA-LIGAND FREE ENERGY PREDICTED BY IDOCK:   -0.75 KCAL/MOL
REMARK 927      BINDING AFFINITY PREDICTED BY RF-SCORE:    0.00 PKD
ROOT
HETATM    1  C   UNL     1      -9.835   8.112  67.970  1.00  0.00    -0.200 C  
HETATM    2  C   UNL     1      -9.187   8.628  66.693  1.00  0.00    -0.227 C  
ENDROOT
BRANCH   2   3
HETATM    3  C   UNL     1      -7.663   8.557  66.740  1.00  0.00    -0.091 C  
BRANCH   3   4
HETATM    4  N   UNL     1      -7.048   9.803  67.152  1.00  0.00    -0.085 N  
HETATM    5  H   UNL     1      -6.639   9.879  68.084  1.00  0.00     0.000 HD 
BRANCH   4   6
HETATM    6  C   UNL     1      -7.009  10.877  66.312  1.00  0.00    -0.120 C  
HETATM    7  O   UNL     1      -6.929  10.781  65.099  1.00  0.00    -0.000 OA 
BRANCH   6   8
HETATM    8  N   UNL     1      -7.109  12.090  66.969  1.00  0.00    -0.283 N  
HETATM    9  H   UNL     1      -6.301  12.712  66.956  1.00  0.00     0.000 HD 
BRANCH   8  10
HETATM   10  S   UNL     1      -8.475  12.591  67.777  1.00  0.00    -0.183 S  
HETATM   11  O   UNL     1      -8.184  13.839  68.446  1.00  0.00    -0.148 OA 
HETATM   12  O   UNL     1      -8.932  11.436  68.524  1.00  0.00    -0.164 OA 
BRANCH  10  13
HETATM   13  C   UNL     1      -9.671  12.875  66.492  1.00  0.00    -0.257 A  
HETATM   14  C   UNL     1     -10.432  11.804  66.009  1.00  0.00    -0.286 A  
HETATM   15  C   UNL     1     -11.355  12.026  64.983  1.00  0.00    -0.365 A  
HETATM   16  C   UNL     1     -11.519  13.310  64.460  1.00  0.00    -0.365 A  
HETATM   17  C   UNL     1     -10.771  14.379  64.953  1.00  0.00    -0.444 A  
HETATM   18 CL   UNL     1     -12.653  13.576  63.193  1.00  0.00    -0.030 Cl 
HETATM   19  C   UNL     1      -9.842  14.164  65.974  1.00  0.00    -0.329 A  
ENDBRANCH  10  13
ENDBRANCH   8  10
ENDBRANCH   6   8
ENDBRANCH   4   6
ENDBRANCH   3   4
ENDBRANCH   2   3
TORSDOF 6
ENDMDL
MODEL      261
REMARK 921   NORMALIZED FREE ENERGY PREDICTED BY IDOCK:   -2.66 KCAL/MOL
REMARK 922        TOTAL FREE ENERGY PREDICTED BY IDOCK:   -4.29 KCAL/MOL
REMARK 923 INTER-LIGAND FREE ENERGY PREDICTED BY IDOCK:   -3.95 KCAL/MOL
REMARK 924 INTRA-LIGAND FREE ENERGY PREDICTED BY IDOCK:   -0.34 KCAL/MOL
REMARK 927      BINDING AFFINITY PREDICTED BY RF-SCORE:    0.00 PKD
ROOT
HETATM    1  C   UNL     1     -12.151   9.770  71.269  1.00  0.00    -0.470 C  
HETATM    2  C   UNL     1     -11.564   8.366  71.312  1.00  0.00    -0.326 C  
ENDROOT
BRANCH   2   3
HETATM    3  C   UNL     1     -12.456   7.338  70.620  1.00  0.00    -0.055 C  
BRANCH   3   4
HETATM    4  N   UNL     1     -11.731   6.487  69.697  1.00  0.00    -0.643 N  
HETATM    5  H   UNL     1     -12.081   6.362  68.747  1.00  0.00     0.000 HD 
BRANCH   4   6
HETATM    6  C   UNL     1     -10.587   5.852  70.081  1.00  0.00    -0.292 C  
HETATM    7  O   UNL     1     -10.472   5.247  71.133  1.00  0.00    -0.229 OA 
BRANCH   6   8
HETATM    8  N   UNL     1      -9.576   5.928  69.140  1.00  0.00    -0.133 N  
HETATM    9  H   UNL     1      -9.551   5.224  68.403  1.00  0.00     0.000 HD 
BRANCH   8  10
HETATM   10  S   UNL     1      -8.400   7.106  69.144  1.00  0.00    -0.129 S  
HETATM   11  O   UNL     1      -7.122   6.482  68.886  1.00  0.00    -0.076 OA 
HETATM   12  O   UNL     1      -8.622   7.875  70.351  1.00  0.00    -0.129 OA 
BRANCH  10  13
HETATM   13  C   UNL     1      -8.827   8.162  67.778  1.00  0.00    -0.130 A  
HETATM   14  C   UNL     1     -10.166   8.515  67.571  1.00  0.00    -0.307 A  
HETATM   15  C   UNL     1     -10.501   9.326  66.484  1.00  0.00    -0.204 A  
HETATM   16  C   UNL     1      -9.501   9.788  65.625  1.00  0.00    -0.246 A  
HETATM   17  C   UNL     1      -8.166   9.449  65.842  1.00  0.00    -0.115 A  
HETATM   18 CL   UNL     1      -9.922  10.783  64.285  1.00  0.00    -0.374 Cl 
HETATM   19  C   UNL     1      -7.824   8.632  66.923  1.00  0.00    -0.091 A  
ENDBRANCH  10  13
ENDBRANCH   8  10
ENDBRANCH   6   8
ENDBRANCH   4   6
ENDBRANCH   3   4
ENDBRANCH   2   3
TORSDOF 6
ENDMDL
MODEL      262
REMARK 921   NORMALIZED FREE ENERGY PREDICTED BY IDOCK:   -2.64 KCAL/MOL
REMARK 922        TOTAL FREE ENERGY PREDICTED BY IDOCK:   -4.26 KCAL/MOL
REMARK 923 INTER-LIGAND FREE ENERGY PREDICTED BY IDOCK:   -4.06 KCAL/MOL
REMARK 924 INTRA-LIGAND FREE ENERGY PREDICTED BY IDOCK:   -0.21 KCAL/MOL
REMARK 927      BINDING AFFINITY PREDICTED BY RF-SCORE:    0.00 PKD
ROOT
HETATM    1  C   UNL     1      -6.501   4.905  72.499  1.00  0.00    -0.046 C  
HETATM    2  C   UNL     1      -7.843   4.478  71.922  1.00  0.00    -0.097 C  
ENDROOT
BRANCH   2   3
HETATM    3  C   UNL     1      -8.986   4.627  72.923  1.00  0.00    -0.118 C  
BRANCH   3   4
HETATM    4  N   UNL     1      -9.397   6.004  73.114  1.00  0.00    -0.139 N  
HETATM    5  H   UNL     1      -8.703   6.705  73.376  1.00  0.00     0.000 HD 
BRANCH   4   6
HETATM    6  C   UNL     1     -10.698   6.376  72.948  1.00  0.00    -0.249 C  
HETATM    7  O   UNL     1     -11.645   5.678  73.266  1.00  0.00    -0.126 OA 
BRANCH   6   8
HETATM    8  N   UNL     1     -10.841   7.645  72.416  1.00  0.00    -0.264 N  
HETATM    9  H   UNL     1     -10.046   8.281  72.467  1.00  0.00     0.000 HD 
BRANCH   8  10
HETATM   10  S   UNL     1     -12.240   8.190  71.697  1.00  0.00    -0.320 S  
HETATM   11  O   UNL     1     -13.143   8.646  72.729  1.00  0.00    -0.304 OA 
HETATM   12  O   UNL     1     -12.635   7.148  70.771  1.00  0.00    -0.282 OA 
BRANCH  10  13
HETATM   13  C   UNL     1     -11.720   9.578  70.713  1.00  0.00    -0.298 A  
HETATM   14  C   UNL     1     -10.688   9.415  69.782  1.00  0.00    -0.250 A  
HETATM   15  C   UNL     1     -10.266  10.512  69.027  1.00  0.00    -0.233 A  
HETATM   16  C   UNL     1     -10.883  11.753  69.196  1.00  0.00    -0.172 A  
HETATM   17  C   UNL     1     -11.922  11.910  70.113  1.00  0.00    -0.413 A  
HETATM   18 CL   UNL     1     -10.355  13.102  68.267  1.00  0.00    -0.247 Cl 
HETATM   19  C   UNL     1     -12.345  10.819  70.877  1.00  0.00    -0.497 A  
ENDBRANCH  10  13
ENDBRANCH   8  10
ENDBRANCH   6   8
ENDBRANCH   4   6
ENDBRANCH   3   4
ENDBRANCH   2   3
TORSDOF 6
ENDMDL
MODEL      263
REMARK 921   NORMALIZED FREE ENERGY PREDICTED BY IDOCK:   -2.63 KCAL/MOL
REMARK 922        TOTAL FREE ENERGY PREDICTED BY IDOCK:   -4.26 KCAL/MOL
REMARK 923 INTER-LIGAND FREE ENERGY PREDICTED BY IDOCK:   -4.30 KCAL/MOL
REMARK 924 INTRA-LIGAND FREE ENERGY PREDICTED BY IDOCK:    0.03 KCAL/MOL
REMARK 927      BINDING AFFINITY PREDICTED BY RF-SCORE:    0.00 PKD
ROOT
HETATM    1  C   UNL     1      -9.699   3.789  66.796  1.00  0.00    -0.149 C  
HETATM    2  C   UNL     1      -9.260   5.204  67.145  1.00  0.00    -0.119 C  
ENDROOT
BRANCH   2   3
HETATM    3  C   UNL     1     -10.161   5.854  68.193  1.00  0.00    -0.184 C  
BRANCH   3   4
HETATM    4  N   UNL     1     -11.007   6.897  67.646  1.00  0.00    -0.494 N  
HETATM    5  H   UNL     1     -11.919   6.655  67.259  1.00  0.00     0.000 HD 
BRANCH   4   6
HETATM    6  C   UNL     1     -10.599   8.199  67.643  1.00  0.00    -0.188 C  
HETATM    7  O   UNL     1     -10.655   8.926  68.619  1.00  0.00    -0.209 OA 
BRANCH   6   8
HETATM    8  N   UNL     1     -10.079   8.606  66.428  1.00  0.00    -0.375 N  
HETATM    9  H   UNL     1     -10.490   8.224  65.576  1.00  0.00     0.000 HD 
BRANCH   8  10
HETATM   10  S   UNL     1      -8.819   9.684  66.279  1.00  0.00    -0.156 S  
HETATM   11  O   UNL     1      -7.965   9.249  65.197  1.00  0.00    -0.109 OA 
HETATM   12  O   UNL     1      -8.293   9.857  67.618  1.00  0.00    -0.114 OA 
BRANCH  10  13
HETATM   13  C   UNL     1      -9.600  11.218  65.833  1.00  0.00    -0.221 A  
HETATM   14  C   UNL     1      -9.946  11.454  64.498  1.00  0.00    -0.318 A  
HETATM   15  C   UNL     1     -10.539  12.670  64.147  1.00  0.00    -0.434 A  
HETATM   16  C   UNL     1     -10.793  13.630  65.129  1.00  0.00    -0.334 A  
HETATM   17  C   UNL     1     -10.462  13.387  66.462  1.00  0.00    -0.283 A  
HETATM   18 CL   UNL     1     -11.518  15.128  64.690  1.00  0.00    -0.392 Cl 
HETATM   19  C   UNL     1      -9.862  12.177  66.819  1.00  0.00    -0.218 A  
ENDBRANCH  10  13
ENDBRANCH   8  10
ENDBRANCH   6   8
ENDBRANCH   4   6
ENDBRANCH   3   4
ENDBRANCH   2   3
TORSDOF 6
ENDMDL
MODEL      264
REMARK 921   NORMALIZED FREE ENERGY PREDICTED BY IDOCK:   -2.59 KCAL/MOL
REMARK 922        TOTAL FREE ENERGY PREDICTED BY IDOCK:   -4.20 KCAL/MOL
REMARK 923 INTER-LIGAND FREE ENERGY PREDICTED BY IDOCK:   -3.83 KCAL/MOL
REMARK 924 INTRA-LIGAND FREE ENERGY PREDICTED BY IDOCK:   -0.38 KCAL/MOL
REMARK 927      BINDING AFFINITY PREDICTED BY RF-SCORE:    0.00 PKD
ROOT
HETATM    1  C   UNL     1     -10.177  13.099  66.377  1.00  0.00    -0.286 C  
HETATM    2  C   UNL     1     -10.594  12.099  67.446  1.00  0.00    -0.253 C  
ENDROOT
BRANCH   2   3
HETATM    3  C   UNL     1     -10.396  10.651  67.002  1.00  0.00    -0.231 C  
BRANCH   3   4
HETATM    4  N   UNL     1      -9.053  10.162  67.245  1.00  0.00    -0.138 N  
HETATM    5  H   UNL     1      -8.271  10.556  66.723  1.00  0.00     0.000 HD 
BRANCH   4   6
HETATM    6  C   UNL     1      -8.822   9.180  68.163  1.00  0.00    -0.129 C  
HETATM    7  O   UNL     1      -8.829   9.367  69.367  1.00  0.00    -0.142 OA 
BRANCH   6   8
HETATM    8  N   UNL     1      -8.614   7.936  67.593  1.00  0.00    -0.127 N  
HETATM    9  H   UNL     1      -7.670   7.697  67.290  1.00  0.00     0.000 HD 
BRANCH   8  10
HETATM   10  S   UNL     1      -9.820   6.809  67.377  1.00  0.00    -0.148 S  
HETATM   11  O   UNL     1      -9.274   5.682  66.655  1.00  0.00    -0.127 OA 
HETATM   12  O   UNL     1     -10.954   7.545  66.856  1.00  0.00    -0.292 OA 
BRANCH  10  13
HETATM   13  C   UNL     1     -10.253   6.301  69.025  1.00  0.00    -0.184 A  
HETATM   14  C   UNL     1     -11.271   6.975  69.709  1.00  0.00    -0.257 A  
HETATM   15  C   UNL     1     -11.593   6.589  71.013  1.00  0.00    -0.405 A  
HETATM   16  C   UNL     1     -10.910   5.529  71.615  1.00  0.00    -0.204 A  
HETATM   17  C   UNL     1      -9.907   4.849  70.925  1.00  0.00    -0.277 A  
HETATM   18 CL   UNL     1     -11.308   5.062  73.222  1.00  0.00    -0.405 Cl 
HETATM   19  C   UNL     1      -9.574   5.234  69.624  1.00  0.00    -0.225 A  
ENDBRANCH  10  13
ENDBRANCH   8  10
ENDBRANCH   6   8
ENDBRANCH   4   6
ENDBRANCH   3   4
ENDBRANCH   2   3
TORSDOF 6
ENDMDL
MODEL      265
REMARK 921   NORMALIZED FREE ENERGY PREDICTED BY IDOCK:   -2.59 KCAL/MOL
REMARK 922        TOTAL FREE ENERGY PREDICTED BY IDOCK:   -4.20 KCAL/MOL
REMARK 923 INTER-LIGAND FREE ENERGY PREDICTED BY IDOCK:   -3.85 KCAL/MOL
REMARK 924 INTRA-LIGAND FREE ENERGY PREDICTED BY IDOCK:   -0.35 KCAL/MOL
REMARK 927      BINDING AFFINITY PREDICTED BY RF-SCORE:    0.00 PKD
ROOT
HETATM    1  C   UNL     1     -11.877  15.360  70.239  1.00  0.00    -0.368 C  
HETATM    2  C   UNL     1     -12.152  13.865  70.326  1.00  0.00    -0.423 C  
ENDROOT
BRANCH   2   3
HETATM    3  C   UNL     1     -11.607  13.098  69.123  1.00  0.00    -0.316 C  
BRANCH   3   4
HETATM    4  N   UNL     1     -10.162  12.978  69.134  1.00  0.00    -0.414 N  
HETATM    5  H   UNL     1      -9.654  13.096  70.010  1.00  0.00     0.000 HD 
BRANCH   4   6
HETATM    6  C   UNL     1      -9.474  12.708  67.987  1.00  0.00    -0.209 C  
HETATM    7  O   UNL     1      -8.944  13.564  67.301  1.00  0.00    -0.202 OA 
BRANCH   6   8
HETATM    8  N   UNL     1      -9.403  11.357  67.697  1.00  0.00    -0.157 N  
HETATM    9  H   UNL     1      -8.952  10.742  68.375  1.00  0.00     0.000 HD 
BRANCH   8  10
HETATM   10  S   UNL     1     -10.015  10.680  66.305  1.00  0.00    -0.229 S  
HETATM   11  O   UNL     1      -9.253  11.171  65.179  1.00  0.00    -0.216 OA 
HETATM   12  O   UNL     1     -11.449  10.875  66.373  1.00  0.00    -0.111 OA 
BRANCH  10  13
HETATM   13  C   UNL     1      -9.726   8.936  66.497  1.00  0.00    -0.254 A  
HETATM   14  C   UNL     1     -10.259   8.266  67.605  1.00  0.00    -0.294 A  
HETATM   15  C   UNL     1     -10.011   6.900  67.766  1.00  0.00    -0.180 A  
HETATM   16  C   UNL     1      -9.250   6.214  66.817  1.00  0.00    -0.135 A  
HETATM   17  C   UNL     1      -8.733   6.880  65.706  1.00  0.00    -0.120 A  
HETATM   18 CL   UNL     1      -8.944   4.534  67.023  1.00  0.00    -0.113 Cl 
HETATM   19  C   UNL     1      -8.971   8.247  65.542  1.00  0.00    -0.114 A  
ENDBRANCH  10  13
ENDBRANCH   8  10
ENDBRANCH   6   8
ENDBRANCH   4   6
ENDBRANCH   3   4
ENDBRANCH   2   3
TORSDOF 6
ENDMDL
MODEL      266
REMARK 921   NORMALIZED FREE ENERGY PREDICTED BY IDOCK:   -2.58 KCAL/MOL
REMARK 922        TOTAL FREE ENERGY PREDICTED BY IDOCK:   -4.19 KCAL/MOL
REMARK 923 INTER-LIGAND FREE ENERGY PREDICTED BY IDOCK:   -3.55 KCAL/MOL
REMARK 924 INTRA-LIGAND FREE ENERGY PREDICTED BY IDOCK:   -0.64 KCAL/MOL
REMARK 927      BINDING AFFINITY PREDICTED BY RF-SCORE:    0.00 PKD
ROOT
HETATM    1  C   UNL     1     -13.542   9.080  71.106  1.00  0.00    -0.143 C  
HETATM    2  C   UNL     1     -12.929   7.691  71.006  1.00  0.00    -0.113 C  
ENDROOT
BRANCH   2   3
HETATM    3  C   UNL     1     -11.514   7.714  70.434  1.00  0.00    -0.174 C  
BRANCH   3   4
HETATM    4  N   UNL     1     -11.060   9.048  70.096  1.00  0.00    -0.299 N  
HETATM    5  H   UNL     1     -11.743   9.793  69.958  1.00  0.00     0.000 HD 
BRANCH   4   6
HETATM    6  C   UNL     1      -9.730   9.322  69.958  1.00  0.00    -0.207 C  
HETATM    7  O   UNL     1      -8.936   9.292  70.882  1.00  0.00    -0.235 OA 
BRANCH   6   8
HETATM    8  N   UNL     1      -9.361   9.601  68.655  1.00  0.00    -0.141 N  
HETATM    9  H   UNL     1      -8.401   9.897  68.479  1.00  0.00     0.000 HD 
BRANCH   8  10
HETATM   10  S   UNL     1     -10.397   9.480  67.357  1.00  0.00    -0.269 S  
HETATM   11  O   UNL     1     -11.409  10.506  67.477  1.00  0.00    -0.396 OA 
HETATM   12  O   UNL     1     -10.764   8.081  67.280  1.00  0.00    -0.300 OA 
BRANCH  10  13
HETATM   13  C   UNL     1      -9.376   9.821  65.942  1.00  0.00    -0.205 A  
HETATM   14  C   UNL     1      -8.003   9.553  66.001  1.00  0.00    -0.107 A  
HETATM   15  C   UNL     1      -7.199   9.843  64.896  1.00  0.00    -0.136 A  
HETATM   16  C   UNL     1      -7.771  10.382  63.741  1.00  0.00    -0.042 A  
HETATM   17  C   UNL     1      -9.141  10.634  63.679  1.00  0.00    -0.248 A  
HETATM   18 CL   UNL     1      -6.774  10.743  62.385  1.00  0.00    -0.126 Cl 
HETATM   19  C   UNL     1      -9.950  10.354  64.782  1.00  0.00    -0.409 A  
ENDBRANCH  10  13
ENDBRANCH   8  10
ENDBRANCH   6   8
ENDBRANCH   4   6
ENDBRANCH   3   4
ENDBRANCH   2   3
TORSDOF 6
ENDMDL
MODEL      267
REMARK 921   NORMALIZED FREE ENERGY PREDICTED BY IDOCK:   -2.58 KCAL/MOL
REMARK 922        TOTAL FREE ENERGY PREDICTED BY IDOCK:   -4.18 KCAL/MOL
REMARK 923 INTER-LIGAND FREE ENERGY PREDICTED BY IDOCK:   -3.35 KCAL/MOL
REMARK 924 INTRA-LIGAND FREE ENERGY PREDICTED BY IDOCK:   -0.83 KCAL/MOL
REMARK 927      BINDING AFFINITY PREDICTED BY RF-SCORE:    0.00 PKD
ROOT
HETATM    1  C   UNL     1     -11.134   8.953  70.413  1.00  0.00    -0.270 C  
HETATM    2  C   UNL     1     -11.373   7.567  70.994  1.00  0.00    -0.292 C  
ENDROOT
BRANCH   2   3
HETATM    3  C   UNL     1     -11.479   6.490  69.916  1.00  0.00    -0.403 C  
BRANCH   3   4
HETATM    4  N   UNL     1     -10.512   5.423  70.082  1.00  0.00    -0.292 N  
HETATM    5  H   UNL     1     -10.837   4.467  70.224  1.00  0.00     0.000 HD 
BRANCH   4   6
HETATM    6  C   UNL     1      -9.173   5.681  70.050  1.00  0.00    -0.144 C  
HETATM    7  O   UNL     1      -8.589   6.325  70.904  1.00  0.00    -0.133 OA 
BRANCH   6   8
HETATM    8  N   UNL     1      -8.531   5.106  68.968  1.00  0.00    -0.090 N  
HETATM    9  H   UNL     1      -7.787   4.433  69.151  1.00  0.00     0.000 HD 
BRANCH   8  10
HETATM   10  S   UNL     1      -8.906   5.452  67.383  1.00  0.00    -0.104 S  
HETATM   11  O   UNL     1     -10.215   4.913  67.090  1.00  0.00    -0.195 OA 
HETATM   12  O   UNL     1      -7.748   5.050  66.611  1.00  0.00    -0.091 OA 
BRANCH  10  13
HETATM   13  C   UNL     1      -8.971   7.228  67.321  1.00  0.00    -0.123 A  
HETATM   14  C   UNL     1      -7.873   7.974  67.762  1.00  0.00    -0.126 A  
HETATM   15  C   UNL     1      -7.936   9.370  67.733  1.00  0.00    -0.096 A  
HETATM   16  C   UNL     1      -9.083  10.006  67.255  1.00  0.00    -0.138 A  
HETATM   17  C   UNL     1     -10.171   9.260  66.801  1.00  0.00    -0.325 A  
HETATM   18 CL   UNL     1      -9.157  11.725  67.227  1.00  0.00    -0.167 Cl 
HETATM   19  C   UNL     1     -10.119   7.864  66.833  1.00  0.00    -0.362 A  
ENDBRANCH  10  13
ENDBRANCH   8  10
ENDBRANCH   6   8
ENDBRANCH   4   6
ENDBRANCH   3   4
ENDBRANCH   2   3
TORSDOF 6
ENDMDL
MODEL      268
REMARK 921   NORMALIZED FREE ENERGY PREDICTED BY IDOCK:   -2.55 KCAL/MOL
REMARK 922        TOTAL FREE ENERGY PREDICTED BY IDOCK:   -4.15 KCAL/MOL
REMARK 923 INTER-LIGAND FREE ENERGY PREDICTED BY IDOCK:   -3.98 KCAL/MOL
REMARK 924 INTRA-LIGAND FREE ENERGY PREDICTED BY IDOCK:   -0.17 KCAL/MOL
REMARK 927      BINDING AFFINITY PREDICTED BY RF-SCORE:    0.00 PKD
ROOT
HETATM    1  C   UNL     1     -11.668  14.892  71.502  1.00  0.00    -0.394 C  
HETATM    2  C   UNL     1     -12.619  14.392  70.425  1.00  0.00    -0.405 C  
ENDROOT
BRANCH   2   3
HETATM    3  C   UNL     1     -11.942  13.439  69.442  1.00  0.00    -0.315 C  
BRANCH   3   4
HETATM    4  N   UNL     1     -11.612  12.156  70.030  1.00  0.00    -0.515 N  
HETATM    5  H   UNL     1     -11.813  11.987  71.015  1.00  0.00     0.000 HD 
BRANCH   4   6
HETATM    6  C   UNL     1     -11.037  11.171  69.282  1.00  0.00    -0.259 C  
HETATM    7  O   UNL     1     -11.072  11.140  68.064  1.00  0.00    -0.232 OA 
BRANCH   6   8
HETATM    8  N   UNL     1     -10.374  10.224  70.042  1.00  0.00    -0.395 N  
HETATM    9  H   UNL     1     -10.351  10.349  71.054  1.00  0.00     0.000 HD 
BRANCH   8  10
HETATM   10  S   UNL     1      -9.613   8.892  69.397  1.00  0.00    -0.166 S  
HETATM   11  O   UNL     1      -8.399   9.326  68.742  1.00  0.00    -0.114 OA 
HETATM   12  O   UNL     1     -10.636   8.175  68.663  1.00  0.00    -0.193 OA 
BRANCH  10  13
HETATM   13  C   UNL     1      -9.198   7.892  70.807  1.00  0.00    -0.157 A  
HETATM   14  C   UNL     1      -8.098   8.240  71.600  1.00  0.00    -0.167 A  
HETATM   15  C   UNL     1      -7.760   7.440  72.694  1.00  0.00    -0.100 A  
HETATM   16  C   UNL     1      -8.528   6.312  72.996  1.00  0.00    -0.117 A  
HETATM   17  C   UNL     1      -9.633   5.976  72.214  1.00  0.00    -0.162 A  
HETATM   18 CL   UNL     1      -8.104   5.327  74.342  1.00  0.00    -0.102 Cl 
HETATM   19  C   UNL     1      -9.972   6.767  71.114  1.00  0.00    -0.194 A  
ENDBRANCH  10  13
ENDBRANCH   8  10
ENDBRANCH   6   8
ENDBRANCH   4   6
ENDBRANCH   3   4
ENDBRANCH   2   3
TORSDOF 6
ENDMDL
MODEL      269
REMARK 921   NORMALIZED FREE ENERGY PREDICTED BY IDOCK:   -2.54 KCAL/MOL
REMARK 922        TOTAL FREE ENERGY PREDICTED BY IDOCK:   -4.13 KCAL/MOL
REMARK 923 INTER-LIGAND FREE ENERGY PREDICTED BY IDOCK:   -3.44 KCAL/MOL
REMARK 924 INTRA-LIGAND FREE ENERGY PREDICTED BY IDOCK:   -0.70 KCAL/MOL
REMARK 927      BINDING AFFINITY PREDICTED BY RF-SCORE:    0.00 PKD
ROOT
HETATM    1  C   UNL     1     -12.829  10.525  71.707  1.00  0.00    -0.559 C  
HETATM    2  C   UNL     1     -13.884   9.589  71.136  1.00  0.00    -0.087 C  
ENDROOT
BRANCH   2   3
HETATM    3  C   UNL     1     -13.764   8.168  71.681  1.00  0.00    -0.355 C  
BRANCH   3   4
HETATM    4  N   UNL     1     -12.912   7.319  70.872  1.00  0.00    -0.598 N  
HETATM    5  H   UNL     1     -13.164   7.131  69.902  1.00  0.00     0.000 HD 
BRANCH   4   6
HETATM    6  C   UNL     1     -11.777   6.769  71.391  1.00  0.00    -0.325 C  
HETATM    7  O   UNL     1     -11.525   6.740  72.583  1.00  0.00    -0.247 OA 
BRANCH   6   8
HETATM    8  N   UNL     1     -10.952   6.209  70.432  1.00  0.00    -0.312 N  
HETATM    9  H   UNL     1     -10.992   5.200  70.292  1.00  0.00     0.000 HD 
BRANCH   8  10
HETATM   10  S   UNL     1      -9.900   7.093  69.492  1.00  0.00    -0.163 S  
HETATM   11  O   UNL     1     -10.586   8.270  69.012  1.00  0.00    -0.215 OA 
HETATM   12  O   UNL     1      -9.313   6.145  68.566  1.00  0.00    -0.118 OA 
BRANCH  10  13
HETATM   13  C   UNL     1      -8.608   7.579  70.613  1.00  0.00    -0.137 A  
HETATM   14  C   UNL     1      -7.876   6.597  71.291  1.00  0.00    -0.102 A  
HETATM   15  C   UNL     1      -6.877   6.983  72.188  1.00  0.00    -0.057 A  
HETATM   16  C   UNL     1      -6.608   8.339  72.391  1.00  0.00    -0.085 A  
HETATM   17  C   UNL     1      -7.327   9.315  71.703  1.00  0.00     0.214 A  
HETATM   18 CL   UNL     1      -5.380   8.807  73.501  1.00  0.00    -0.082 Cl 
HETATM   19  C   UNL     1      -8.333   8.938  70.809  1.00  0.00    -0.205 A  
ENDBRANCH  10  13
ENDBRANCH   8  10
ENDBRANCH   6   8
ENDBRANCH   4   6
ENDBRANCH   3   4
ENDBRANCH   2   3
TORSDOF 6
ENDMDL
MODEL      270
REMARK 921   NORMALIZED FREE ENERGY PREDICTED BY IDOCK:   -2.52 KCAL/MOL
REMARK 922        TOTAL FREE ENERGY PREDICTED BY IDOCK:   -4.10 KCAL/MOL
REMARK 923 INTER-LIGAND FREE ENERGY PREDICTED BY IDOCK:   -3.55 KCAL/MOL
REMARK 924 INTRA-LIGAND FREE ENERGY PREDICTED BY IDOCK:   -0.55 KCAL/MOL
REMARK 927      BINDING AFFINITY PREDICTED BY RF-SCORE:    0.00 PKD
ROOT
HETATM    1  C   UNL     1     -11.736  14.569  68.742  1.00  0.00    -0.362 C  
HETATM    2  C   UNL     1     -11.807  14.102  67.295  1.00  0.00    -0.452 C  
ENDROOT
BRANCH   2   3
HETATM    3  C   UNL     1     -11.579  12.598  67.153  1.00  0.00    -0.368 C  
BRANCH   3   4
HETATM    4  N   UNL     1     -10.182  12.248  66.992  1.00  0.00    -0.215 N  
HETATM    5  H   UNL     1      -9.608  12.762  66.324  1.00  0.00     0.000 HD 
BRANCH   4   6
HETATM    6  C   UNL     1      -9.624  11.240  67.722  1.00  0.00    -0.174 C  
HETATM    7  O   UNL     1      -9.731  10.060  67.436  1.00  0.00    -0.154 OA 
BRANCH   6   8
HETATM    8  N   UNL     1      -8.890  11.690  68.805  1.00  0.00    -0.361 N  
HETATM    9  H   UNL     1      -9.379  11.848  69.686  1.00  0.00     0.000 HD 
BRANCH   8  10
HETATM   10  S   UNL     1      -7.253  11.988  68.749  1.00  0.00    -0.089 S  
HETATM   11  O   UNL     1      -6.718  11.400  67.542  1.00  0.00    -0.067 OA 
HETATM   12  O   UNL     1      -6.742  11.609  70.050  1.00  0.00    -0.050 OA 
BRANCH  10  13
HETATM   13  C   UNL     1      -7.129  13.760  68.647  1.00  0.00    -0.104 A  
HETATM   14  C   UNL     1      -6.625  14.479  69.736  1.00  0.00    -0.158 A  
HETATM   15  C   UNL     1      -6.550  15.873  69.662  1.00  0.00    -0.180 A  
HETATM   16  C   UNL     1      -6.964  16.532  68.502  1.00  0.00    -0.154 A  
HETATM   17  C   UNL     1      -7.452  15.812  67.412  1.00  0.00    -0.225 A  
HETATM   18 CL   UNL     1      -6.874  18.248  68.420  1.00  0.00    -0.227 Cl 
HETATM   19  C   UNL     1      -7.536  14.419  67.481  1.00  0.00    -0.212 A  
ENDBRANCH  10  13
ENDBRANCH   8  10
ENDBRANCH   6   8
ENDBRANCH   4   6
ENDBRANCH   3   4
ENDBRANCH   2   3
TORSDOF 6
ENDMDL
MODEL      271
REMARK 921   NORMALIZED FREE ENERGY PREDICTED BY IDOCK:   -2.50 KCAL/MOL
REMARK 922        TOTAL FREE ENERGY PREDICTED BY IDOCK:   -4.08 KCAL/MOL
REMARK 923 INTER-LIGAND FREE ENERGY PREDICTED BY IDOCK:   -3.79 KCAL/MOL
REMARK 924 INTRA-LIGAND FREE ENERGY PREDICTED BY IDOCK:   -0.30 KCAL/MOL
REMARK 927      BINDING AFFINITY PREDICTED BY RF-SCORE:    0.00 PKD
ROOT
HETATM    1  C   UNL     1      -6.766  19.544  67.530  1.00  0.00    -0.234 C  
HETATM    2  C   UNL     1      -5.989  18.918  68.679  1.00  0.00    -0.228 C  
ENDROOT
BRANCH   2   3
HETATM    3  C   UNL     1      -5.858  17.403  68.541  1.00  0.00    -0.160 C  
BRANCH   3   4
HETATM    4  N   UNL     1      -6.802  16.673  69.364  1.00  0.00    -0.235 N  
HETATM    5  H   UNL     1      -7.045  17.030  70.288  1.00  0.00     0.000 HD 
BRANCH   4   6
HETATM    6  C   UNL     1      -7.371  15.517  68.918  1.00  0.00    -0.150 C  
HETATM    7  O   UNL     1      -7.244  14.442  69.479  1.00  0.00    -0.126 OA 
BRANCH   6   8
HETATM    8  N   UNL     1      -8.143  15.688  67.783  1.00  0.00    -0.140 N  
HETATM    9  H   UNL     1      -7.683  16.018  66.934  1.00  0.00     0.000 HD 
BRANCH   8  10
HETATM   10  S   UNL     1      -9.778  15.386  67.726  1.00  0.00    -0.211 S  
HETATM   11  O   UNL     1     -10.361  16.192  66.677  1.00  0.00    -0.285 OA 
HETATM   12  O   UNL     1     -10.244  15.496  69.093  1.00  0.00    -0.212 OA 
BRANCH  10  13
HETATM   13  C   UNL     1      -9.896  13.668  67.282  1.00  0.00    -0.241 A  
HETATM   14  C   UNL     1     -11.129  13.012  67.381  1.00  0.00    -0.302 A  
HETATM   15  C   UNL     1     -11.213  11.656  67.054  1.00  0.00    -0.376 A  
HETATM   16  C   UNL     1     -10.075  10.972  66.620  1.00  0.00    -0.220 A  
HETATM   17  C   UNL     1      -8.851  11.631  66.506  1.00  0.00    -0.188 A  
HETATM   18 CL   UNL     1     -10.185   9.302  66.224  1.00  0.00    -0.320 Cl 
HETATM   19  C   UNL     1      -8.757  12.985  66.838  1.00  0.00    -0.158 A  
ENDBRANCH  10  13
ENDBRANCH   8  10
ENDBRANCH   6   8
ENDBRANCH   4   6
ENDBRANCH   3   4
ENDBRANCH   2   3
TORSDOF 6
ENDMDL
MODEL      272
REMARK 921   NORMALIZED FREE ENERGY PREDICTED BY IDOCK:   -2.48 KCAL/MOL
REMARK 922        TOTAL FREE ENERGY PREDICTED BY IDOCK:   -4.06 KCAL/MOL
REMARK 923 INTER-LIGAND FREE ENERGY PREDICTED BY IDOCK:   -3.03 KCAL/MOL
REMARK 924 INTRA-LIGAND FREE ENERGY PREDICTED BY IDOCK:   -1.03 KCAL/MOL
REMARK 927      BINDING AFFINITY PREDICTED BY RF-SCORE:    0.00 PKD
ROOT
HETATM    1  C   UNL     1      -9.568   7.568  70.956  1.00  0.00    -0.162 C  
HETATM    2  C   UNL     1     -10.087   6.154  71.172  1.00  0.00    -0.231 C  
ENDROOT
BRANCH   2   3
HETATM    3  C   UNL     1      -9.248   5.105  70.445  1.00  0.00    -0.148 C  
BRANCH   3   4
HETATM    4  N   UNL     1      -9.982   4.413  69.404  1.00  0.00    -0.165 N  
HETATM    5  H   UNL     1     -11.002   4.405  69.427  1.00  0.00     0.000 HD 
BRANCH   4   6
HETATM    6  C   UNL     1      -9.327   3.774  68.393  1.00  0.00    -0.166 C  
HETATM    7  O   UNL     1      -9.342   2.565  68.238  1.00  0.00    -0.188 OA 
BRANCH   6   8
HETATM    8  N   UNL     1      -8.672   4.637  67.533  1.00  0.00    -0.103 N  
HETATM    9  H   UNL     1      -7.653   4.678  67.576  1.00  0.00     0.000 HD 
BRANCH   8  10
HETATM   10  S   UNL     1      -9.453   5.611  66.433  1.00  0.00    -0.155 S  
HETATM   11  O   UNL     1     -10.867   5.312  66.473  1.00  0.00    -0.280 OA 
HETATM   12  O   UNL     1      -8.702   5.488  65.200  1.00  0.00    -0.154 OA 
BRANCH  10  13
HETATM   13  C   UNL     1      -9.182   7.263  67.034  1.00  0.00    -0.145 A  
HETATM   14  C   UNL     1     -10.202   8.214  66.921  1.00  0.00    -0.387 A  
HETATM   15  C   UNL     1      -9.979   9.517  67.373  1.00  0.00    -0.241 A  
HETATM   16  C   UNL     1      -8.750   9.855  67.944  1.00  0.00    -0.129 A  
HETATM   17  C   UNL     1      -7.740   8.902  68.070  1.00  0.00    -0.101 A  
HETATM   18 CL   UNL     1      -8.478  11.463  68.494  1.00  0.00    -0.154 Cl 
HETATM   19  C   UNL     1      -7.953   7.599  67.614  1.00  0.00    -0.121 A  
ENDBRANCH  10  13
ENDBRANCH   8  10
ENDBRANCH   6   8
ENDBRANCH   4   6
ENDBRANCH   3   4
ENDBRANCH   2   3
TORSDOF 6
ENDMDL
MODEL      273
REMARK 921   NORMALIZED FREE ENERGY PREDICTED BY IDOCK:   -2.47 KCAL/MOL
REMARK 922        TOTAL FREE ENERGY PREDICTED BY IDOCK:   -4.04 KCAL/MOL
REMARK 923 INTER-LIGAND FREE ENERGY PREDICTED BY IDOCK:   -3.41 KCAL/MOL
REMARK 924 INTRA-LIGAND FREE ENERGY PREDICTED BY IDOCK:   -0.63 KCAL/MOL
REMARK 927      BINDING AFFINITY PREDICTED BY RF-SCORE:    0.00 PKD
ROOT
HETATM    1  C   UNL     1     -11.831  15.513  69.367  1.00  0.00    -0.392 C  
HETATM    2  C   UNL     1     -12.264  14.056  69.444  1.00  0.00    -0.336 C  
ENDROOT
BRANCH   2   3
HETATM    3  C   UNL     1     -11.515  13.169  68.452  1.00  0.00    -0.315 C  
BRANCH   3   4
HETATM    4  N   UNL     1     -10.567  12.277  69.090  1.00  0.00    -0.429 N  
HETATM    5  H   UNL     1     -10.683  12.040  70.075  1.00  0.00     0.000 HD 
BRANCH   4   6
HETATM    6  C   UNL     1      -9.521  11.751  68.390  1.00  0.00    -0.188 C  
HETATM    7  O   UNL     1      -8.420  12.272  68.328  1.00  0.00    -0.171 OA 
BRANCH   6   8
HETATM    8  N   UNL     1      -9.820  10.544  67.785  1.00  0.00    -0.163 N  
HETATM    9  H   UNL     1      -9.709  10.472  66.774  1.00  0.00     0.000 HD 
BRANCH   8  10
HETATM   10  S   UNL     1     -10.349   9.202  68.616  1.00  0.00    -0.203 S  
HETATM   11  O   UNL     1     -10.474   8.102  67.687  1.00  0.00    -0.234 OA 
HETATM   12  O   UNL     1     -11.486   9.649  69.395  1.00  0.00    -0.074 OA 
BRANCH  10  13
HETATM   13  C   UNL     1      -9.043   8.853  69.772  1.00  0.00    -0.150 A  
HETATM   14  C   UNL     1      -9.321   8.842  71.143  1.00  0.00    -0.297 A  
HETATM   15  C   UNL     1      -8.288   8.590  72.050  1.00  0.00    -0.209 A  
HETATM   16  C   UNL     1      -6.996   8.339  71.582  1.00  0.00    -0.079 A  
HETATM   17  C   UNL     1      -6.724   8.336  70.215  1.00  0.00    -0.036 A  
HETATM   18 CL   UNL     1      -5.727   8.035  72.704  1.00  0.00    -0.041 Cl 
HETATM   19  C   UNL     1      -7.751   8.594  69.302  1.00  0.00    -0.096 A  
ENDBRANCH  10  13
ENDBRANCH   8  10
ENDBRANCH   6   8
ENDBRANCH   4   6
ENDBRANCH   3   4
ENDBRANCH   2   3
TORSDOF 6
ENDMDL
MODEL      274
REMARK 921   NORMALIZED FREE ENERGY PREDICTED BY IDOCK:   -2.46 KCAL/MOL
REMARK 922        TOTAL FREE ENERGY PREDICTED BY IDOCK:   -4.03 KCAL/MOL
REMARK 923 INTER-LIGAND FREE ENERGY PREDICTED BY IDOCK:   -3.44 KCAL/MOL
REMARK 924 INTRA-LIGAND FREE ENERGY PREDICTED BY IDOCK:   -0.60 KCAL/MOL
REMARK 927      BINDING AFFINITY PREDICTED BY RF-SCORE:    0.00 PKD
ROOT
HETATM    1  C   UNL     1     -13.950   9.046  72.418  1.00  0.00    -0.517 C  
HETATM    2  C   UNL     1     -13.156   9.641  71.264  1.00  0.00    -0.437 C  
ENDROOT
BRANCH   2   3
HETATM    3  C   UNL     1     -11.660   9.350  71.371  1.00  0.00    -0.381 C  
BRANCH   3   4
HETATM    4  N   UNL     1     -11.340   8.400  72.418  1.00  0.00    -0.380 N  
HETATM    5  H   UNL     1     -11.338   8.705  73.391  1.00  0.00     0.000 HD 
BRANCH   4   6
HETATM    6  C   UNL     1     -11.041   7.103  72.119  1.00  0.00    -0.248 C  
HETATM    7  O   UNL     1     -11.464   6.150  72.751  1.00  0.00    -0.254 OA 
BRANCH   6   8
HETATM    8  N   UNL     1     -10.236   6.971  71.001  1.00  0.00    -0.197 N  
HETATM    9  H   UNL     1     -10.687   6.808  70.101  1.00  0.00     0.000 HD 
BRANCH   8  10
HETATM   10  S   UNL     1      -8.575   7.063  71.045  1.00  0.00    -0.134 S  
HETATM   11  O   UNL     1      -8.048   5.752  71.349  1.00  0.00    -0.111 OA 
HETATM   12  O   UNL     1      -8.269   8.201  71.888  1.00  0.00    -0.117 OA 
BRANCH  10  13
HETATM   13  C   UNL     1      -8.113   7.515  69.388  1.00  0.00    -0.128 A  
HETATM   14  C   UNL     1      -6.825   8.003  69.140  1.00  0.00    -0.052 A  
HETATM   15  C   UNL     1      -6.472   8.379  67.841  1.00  0.00    -0.057 A  
HETATM   16  C   UNL     1      -7.398   8.252  66.804  1.00  0.00    -0.083 A  
HETATM   17  C   UNL     1      -8.676   7.751  67.050  1.00  0.00    -0.131 A  
HETATM   18 CL   UNL     1      -6.960   8.723  65.208  1.00  0.00    -0.075 Cl 
HETATM   19  C   UNL     1      -9.039   7.379  68.347  1.00  0.00    -0.132 A  
ENDBRANCH  10  13
ENDBRANCH   8  10
ENDBRANCH   6   8
ENDBRANCH   4   6
ENDBRANCH   3   4
ENDBRANCH   2   3
TORSDOF 6
ENDMDL
MODEL      275
REMARK 921   NORMALIZED FREE ENERGY PREDICTED BY IDOCK:   -2.46 KCAL/MOL
REMARK 922        TOTAL FREE ENERGY PREDICTED BY IDOCK:   -4.03 KCAL/MOL
REMARK 923 INTER-LIGAND FREE ENERGY PREDICTED BY IDOCK:   -3.71 KCAL/MOL
REMARK 924 INTRA-LIGAND FREE ENERGY PREDICTED BY IDOCK:   -0.32 KCAL/MOL
REMARK 927      BINDING AFFINITY PREDICTED BY RF-SCORE:    0.00 PKD
ROOT
HETATM    1  C   UNL     1     -11.554  10.934  69.313  1.00  0.00    -0.388 C  
HETATM    2  C   UNL     1     -10.456  11.611  68.504  1.00  0.00    -0.236 C  
ENDROOT
BRANCH   2   3
HETATM    3  C   UNL     1     -11.006  12.420  67.332  1.00  0.00    -0.254 C  
BRANCH   3   4
HETATM    4  N   UNL     1     -10.072  12.531  66.230  1.00  0.00    -0.245 N  
HETATM    5  H   UNL     1      -9.301  13.196  66.289  1.00  0.00     0.000 HD 
BRANCH   4   6
HETATM    6  C   UNL     1     -10.209  11.758  65.115  1.00  0.00    -0.268 C  
HETATM    7  O   UNL     1     -11.279  11.530  64.579  1.00  0.00    -0.305 OA 
BRANCH   6   8
HETATM    8  N   UNL     1      -9.004  11.284  64.626  1.00  0.00    -0.388 N  
HETATM    9  H   UNL     1      -8.846  11.321  63.619  1.00  0.00     0.000 HD 
BRANCH   8  10
HETATM   10  S   UNL     1      -7.800  10.660  65.590  1.00  0.00    -0.079 S  
HETATM   11  O   UNL     1      -7.579  11.563  66.697  1.00  0.00    -0.144 OA 
HETATM   12  O   UNL     1      -6.720  10.312  64.689  1.00  0.00    -0.130 OA 
BRANCH  10  13
HETATM   13  C   UNL     1      -8.470   9.130  66.201  1.00  0.00    -0.129 A  
HETATM   14  C   UNL     1      -7.610   8.171  66.749  1.00  0.00    -0.094 A  
HETATM   15  C   UNL     1      -8.137   6.961  67.208  1.00  0.00    -0.118 A  
HETATM   16  C   UNL     1      -9.511   6.724  67.129  1.00  0.00    -0.142 A  
HETATM   17  C   UNL     1     -10.367   7.687  66.597  1.00  0.00    -0.258 A  
HETATM   18 CL   UNL     1     -10.152   5.229  67.690  1.00  0.00    -0.209 Cl 
HETATM   19  C   UNL     1      -9.848   8.897  66.130  1.00  0.00    -0.326 A  
ENDBRANCH  10  13
ENDBRANCH   8  10
ENDBRANCH   6   8
ENDBRANCH   4   6
ENDBRANCH   3   4
ENDBRANCH   2   3
TORSDOF 6
ENDMDL
MODEL      276
REMARK 921   NORMALIZED FREE ENERGY PREDICTED BY IDOCK:   -2.45 KCAL/MOL
REMARK 922        TOTAL FREE ENERGY PREDICTED BY IDOCK:   -4.01 KCAL/MOL
REMARK 923 INTER-LIGAND FREE ENERGY PREDICTED BY IDOCK:   -3.68 KCAL/MOL
REMARK 924 INTRA-LIGAND FREE ENERGY PREDICTED BY IDOCK:   -0.33 KCAL/MOL
REMARK 927      BINDING AFFINITY PREDICTED BY RF-SCORE:    0.00 PKD
ROOT
HETATM    1  C   UNL     1      -6.847   5.605  69.477  1.00  0.00    -0.061 C  
HETATM    2  C   UNL     1      -7.625   5.653  68.171  1.00  0.00    -0.081 C  
ENDROOT
BRANCH   2   3
HETATM    3  C   UNL     1      -8.535   6.876  68.076  1.00  0.00    -0.124 C  
BRANCH   3   4
HETATM    4  N   UNL     1      -8.067   7.995  68.870  1.00  0.00    -0.122 N  
HETATM    5  H   UNL     1      -7.788   7.843  69.839  1.00  0.00     0.000 HD 
BRANCH   4   6
HETATM    6  C   UNL     1      -7.994   9.249  68.339  1.00  0.00    -0.102 C  
HETATM    7  O   UNL     1      -7.132   9.599  67.551  1.00  0.00    -0.086 OA 
BRANCH   6   8
HETATM    8  N   UNL     1      -9.021  10.079  68.752  1.00  0.00    -0.138 N  
HETATM    9  H   UNL     1      -8.969  10.478  69.689  1.00  0.00     0.000 HD 
BRANCH   8  10
HETATM   10  S   UNL     1     -10.335  10.462  67.806  1.00  0.00    -0.222 S  
HETATM   11  O   UNL     1     -11.258   9.349  67.825  1.00  0.00    -0.040 OA 
HETATM   12  O   UNL     1      -9.787  10.951  66.556  1.00  0.00    -0.193 OA 
BRANCH  10  13
HETATM   13  C   UNL     1     -11.076  11.857  68.621  1.00  0.00    -0.246 A  
HETATM   14  C   UNL     1     -11.672  11.687  69.876  1.00  0.00    -0.414 A  
HETATM   15  C   UNL     1     -12.274  12.781  70.504  1.00  0.00    -0.389 A  
HETATM   16  C   UNL     1     -12.265  14.032  69.884  1.00  0.00    -0.340 A  
HETATM   17  C   UNL     1     -11.657  14.203  68.640  1.00  0.00    -0.352 A  
HETATM   18 CL   UNL     1     -13.012  15.373  70.659  1.00  0.00    -0.478 Cl 
HETATM   19  C   UNL     1     -11.059  13.113  68.003  1.00  0.00    -0.290 A  
ENDBRANCH  10  13
ENDBRANCH   8  10
ENDBRANCH   6   8
ENDBRANCH   4   6
ENDBRANCH   3   4
ENDBRANCH   2   3
TORSDOF 6
ENDMDL
MODEL      277
REMARK 921   NORMALIZED FREE ENERGY PREDICTED BY IDOCK:   -2.44 KCAL/MOL
REMARK 922        TOTAL FREE ENERGY PREDICTED BY IDOCK:   -4.01 KCAL/MOL
REMARK 923 INTER-LIGAND FREE ENERGY PREDICTED BY IDOCK:   -3.60 KCAL/MOL
REMARK 924 INTRA-LIGAND FREE ENERGY PREDICTED BY IDOCK:   -0.40 KCAL/MOL
REMARK 927      BINDING AFFINITY PREDICTED BY RF-SCORE:    0.00 PKD
ROOT
HETATM    1  C   UNL     1     -11.752  14.558  68.730  1.00  0.00    -0.362 C  
HETATM    2  C   UNL     1     -11.924  14.180  67.266  1.00  0.00    -0.449 C  
ENDROOT
BRANCH   2   3
HETATM    3  C   UNL     1     -11.822  12.674  67.034  1.00  0.00    -0.345 C  
BRANCH   3   4
HETATM    4  N   UNL     1     -10.468  12.230  66.771  1.00  0.00    -0.216 N  
HETATM    5  H   UNL     1      -9.718  12.496  67.409  1.00  0.00     0.000 HD 
BRANCH   4   6
HETATM    6  C   UNL     1     -10.182  11.462  65.681  1.00  0.00    -0.251 C  
HETATM    7  O   UNL     1      -9.984  11.917  64.568  1.00  0.00    -0.254 OA 
BRANCH   6   8
HETATM    8  N   UNL     1     -10.102  10.111  65.969  1.00  0.00    -0.255 N  
HETATM    9  H   UNL     1     -10.958   9.559  65.931  1.00  0.00     0.000 HD 
BRANCH   8  10
HETATM   10  S   UNL     1      -8.684   9.338  66.374  1.00  0.00    -0.137 S  
HETATM   11  O   UNL     1      -7.579  10.229  66.102  1.00  0.00    -0.112 OA 
HETATM   12  O   UNL     1      -8.758   8.034  65.748  1.00  0.00    -0.152 OA 
BRANCH  10  13
HETATM   13  C   UNL     1      -8.810   9.072  68.128  1.00  0.00    -0.133 A  
HETATM   14  C   UNL     1      -8.972   7.771  68.618  1.00  0.00    -0.133 A  
HETATM   15  C   UNL     1      -9.094   7.567  69.995  1.00  0.00    -0.148 A  
HETATM   16  C   UNL     1      -9.039   8.656  70.868  1.00  0.00    -0.187 A  
HETATM   17  C   UNL     1      -8.862   9.950  70.379  1.00  0.00     0.025 A  
HETATM   18 CL   UNL     1      -9.196   8.399  72.562  1.00  0.00    -0.332 Cl 
HETATM   19  C   UNL     1      -8.747  10.163  69.003  1.00  0.00    -0.161 A  
ENDBRANCH  10  13
ENDBRANCH   8  10
ENDBRANCH   6   8
ENDBRANCH   4   6
ENDBRANCH   3   4
ENDBRANCH   2   3
TORSDOF 6
ENDMDL
MODEL      278
REMARK 921   NORMALIZED FREE ENERGY PREDICTED BY IDOCK:   -2.42 KCAL/MOL
REMARK 922        TOTAL FREE ENERGY PREDICTED BY IDOCK:   -3.97 KCAL/MOL
REMARK 923 INTER-LIGAND FREE ENERGY PREDICTED BY IDOCK:   -3.44 KCAL/MOL
REMARK 924 INTRA-LIGAND FREE ENERGY PREDICTED BY IDOCK:   -0.53 KCAL/MOL
REMARK 927      BINDING AFFINITY PREDICTED BY RF-SCORE:    0.00 PKD
ROOT
HETATM    1  C   UNL     1      -6.734   6.437  68.880  1.00  0.00    -0.060 C  
HETATM    2  C   UNL     1      -7.833   5.903  67.971  1.00  0.00    -0.104 C  
ENDROOT
BRANCH   2   3
HETATM    3  C   UNL     1      -9.231   6.231  68.488  1.00  0.00    -0.123 C  
BRANCH   3   4
HETATM    4  N   UNL     1      -9.630   7.599  68.220  1.00  0.00    -0.152 N  
HETATM    5  H   UNL     1      -9.470   7.997  67.294  1.00  0.00     0.000 HD 
BRANCH   4   6
HETATM    6  C   UNL     1     -10.216   8.360  69.188  1.00  0.00    -0.211 C  
HETATM    7  O   UNL     1     -10.850   7.896  70.119  1.00  0.00    -0.243 OA 
BRANCH   6   8
HETATM    8  N   UNL     1      -9.988   9.716  69.030  1.00  0.00    -0.177 N  
HETATM    9  H   UNL     1      -9.271  10.153  69.608  1.00  0.00     0.000 HD 
BRANCH   8  10
HETATM   10  S   UNL     1     -10.820  10.670  67.950  1.00  0.00    -0.299 S  
HETATM   11  O   UNL     1     -12.070  11.071  68.554  1.00  0.00    -0.573 OA 
HETATM   12  O   UNL     1     -10.799   9.948  66.694  1.00  0.00    -0.101 OA 
BRANCH  10  13
HETATM   13  C   UNL     1      -9.784  12.100  67.734  1.00  0.00    -0.197 A  
HETATM   14  C   UNL     1     -10.363  13.374  67.714  1.00  0.00    -0.241 A  
HETATM   15  C   UNL     1      -9.549  14.494  67.522  1.00  0.00    -0.210 A  
HETATM   16  C   UNL     1      -8.170  14.335  67.366  1.00  0.00    -0.202 A  
HETATM   17  C   UNL     1      -7.594  13.066  67.402  1.00  0.00    -0.141 A  
HETATM   18 CL   UNL     1      -7.175  15.717  67.124  1.00  0.00    -0.249 Cl 
HETATM   19  C   UNL     1      -8.401  11.941  67.587  1.00  0.00    -0.152 A  
ENDBRANCH  10  13
ENDBRANCH   8  10
ENDBRANCH   6   8
ENDBRANCH   4   6
ENDBRANCH   3   4
ENDBRANCH   2   3
TORSDOF 6
ENDMDL
MODEL      279
REMARK 921   NORMALIZED FREE ENERGY PREDICTED BY IDOCK:   -2.42 KCAL/MOL
REMARK 922        TOTAL FREE ENERGY PREDICTED BY IDOCK:   -3.97 KCAL/MOL
REMARK 923 INTER-LIGAND FREE ENERGY PREDICTED BY IDOCK:   -3.15 KCAL/MOL
REMARK 924 INTRA-LIGAND FREE ENERGY PREDICTED BY IDOCK:   -0.82 KCAL/MOL
REMARK 927      BINDING AFFINITY PREDICTED BY RF-SCORE:    0.00 PKD
ROOT
HETATM    1  C   UNL     1      -6.463   6.129  68.936  1.00  0.00    -0.046 C  
HETATM    2  C   UNL     1      -5.949   5.018  68.032  1.00  0.00    -0.022 C  
ENDROOT
BRANCH   2   3
HETATM    3  C   UNL     1      -7.025   3.987  67.700  1.00  0.00    -0.055 C  
BRANCH   3   4
HETATM    4  N   UNL     1      -7.614   4.182  66.390  1.00  0.00    -0.088 N  
HETATM    5  H   UNL     1      -7.008   4.297  65.578  1.00  0.00     0.000 HD 
BRANCH   4   6
HETATM    6  C   UNL     1      -8.968   4.214  66.229  1.00  0.00    -0.123 C  
HETATM    7  O   UNL     1      -9.542   3.760  65.254  1.00  0.00    -0.161 OA 
BRANCH   6   8
HETATM    8  N   UNL     1      -9.634   4.779  67.301  1.00  0.00    -0.152 N  
HETATM    9  H   UNL     1      -9.874   4.178  68.090  1.00  0.00     0.000 HD 
BRANCH   8  10
HETATM   10  S   UNL     1     -10.063   6.386  67.377  1.00  0.00    -0.181 S  
HETATM   11  O   UNL     1     -11.336   6.555  66.712  1.00  0.00    -0.272 OA 
HETATM   12  O   UNL     1      -8.894   7.123  66.942  1.00  0.00    -0.121 OA 
BRANCH  10  13
HETATM   13  C   UNL     1     -10.256   6.711  69.114  1.00  0.00    -0.179 A  
HETATM   14  C   UNL     1      -9.801   7.924  69.644  1.00  0.00    -0.179 A  
HETATM   15  C   UNL     1      -9.933   8.168  71.013  1.00  0.00    -0.220 A  
HETATM   16  C   UNL     1     -10.529   7.210  71.837  1.00  0.00    -0.197 A  
HETATM   17  C   UNL     1     -10.997   6.009  71.305  1.00  0.00    -0.340 A  
HETATM   18 CL   UNL     1     -10.684   7.514  73.523  1.00  0.00    -0.394 Cl 
HETATM   19  C   UNL     1     -10.862   5.755  69.937  1.00  0.00    -0.417 A  
ENDBRANCH  10  13
ENDBRANCH   8  10
ENDBRANCH   6   8
ENDBRANCH   4   6
ENDBRANCH   3   4
ENDBRANCH   2   3
TORSDOF 6
ENDMDL
MODEL      280
REMARK 921   NORMALIZED FREE ENERGY PREDICTED BY IDOCK:   -2.38 KCAL/MOL
REMARK 922        TOTAL FREE ENERGY PREDICTED BY IDOCK:   -3.92 KCAL/MOL
REMARK 923 INTER-LIGAND FREE ENERGY PREDICTED BY IDOCK:   -3.60 KCAL/MOL
REMARK 924 INTRA-LIGAND FREE ENERGY PREDICTED BY IDOCK:   -0.32 KCAL/MOL
REMARK 927      BINDING AFFINITY PREDICTED BY RF-SCORE:    0.00 PKD
ROOT
HETATM    1  C   UNL     1     -14.022   8.864  72.360  1.00  0.00    -0.516 C  
HETATM    2  C   UNL     1     -12.844   9.268  71.485  1.00  0.00    -0.427 C  
ENDROOT
BRANCH   2   3
HETATM    3  C   UNL     1     -11.500   8.871  72.092  1.00  0.00    -0.317 C  
BRANCH   3   4
HETATM    4  N   UNL     1     -11.560   7.631  72.840  1.00  0.00    -0.601 N  
HETATM    5  H   UNL     1     -11.985   7.622  73.767  1.00  0.00     0.000 HD 
BRANCH   4   6
HETATM    6  C   UNL     1     -11.053   6.475  72.322  1.00  0.00    -0.263 C  
HETATM    7  O   UNL     1     -11.431   5.365  72.653  1.00  0.00    -0.283 OA 
BRANCH   6   8
HETATM    8  N   UNL     1     -10.091   6.687  71.351  1.00  0.00    -0.190 N  
HETATM    9  H   UNL     1      -9.196   7.083  71.638  1.00  0.00     0.000 HD 
BRANCH   8  10
HETATM   10  S   UNL     1     -10.313   6.330  69.740  1.00  0.00    -0.228 S  
HETATM   11  O   UNL     1      -9.978   7.498  68.958  1.00  0.00    -0.167 OA 
HETATM   12  O   UNL     1     -11.629   5.729  69.651  1.00  0.00     0.022 OA 
BRANCH  10  13
HETATM   13  C   UNL     1      -9.137   5.038  69.407  1.00  0.00    -0.103 A  
HETATM   14  C   UNL     1      -9.587   3.725  69.229  1.00  0.00    -0.209 A  
HETATM   15  C   UNL     1      -8.659   2.709  68.990  1.00  0.00    -0.116 A  
HETATM   16  C   UNL     1      -7.297   3.011  68.917  1.00  0.00    -0.048 A  
HETATM   17  C   UNL     1      -6.852   4.323  69.079  1.00  0.00    -0.047 A  
HETATM   18 CL   UNL     1      -6.158   1.754  68.627  1.00  0.00    -0.024 Cl 
HETATM   19  C   UNL     1      -7.774   5.344  69.325  1.00  0.00    -0.085 A  
ENDBRANCH  10  13
ENDBRANCH   8  10
ENDBRANCH   6   8
ENDBRANCH   4   6
ENDBRANCH   3   4
ENDBRANCH   2   3
TORSDOF 6
ENDMDL
MODEL      281
REMARK 921   NORMALIZED FREE ENERGY PREDICTED BY IDOCK:   -2.35 KCAL/MOL
REMARK 922        TOTAL FREE ENERGY PREDICTED BY IDOCK:   -3.88 KCAL/MOL
REMARK 923 INTER-LIGAND FREE ENERGY PREDICTED BY IDOCK:   -3.39 KCAL/MOL
REMARK 924 INTRA-LIGAND FREE ENERGY PREDICTED BY IDOCK:   -0.49 KCAL/MOL
REMARK 927      BINDING AFFINITY PREDICTED BY RF-SCORE:    0.00 PKD
ROOT
HETATM    1  C   UNL     1     -12.131  14.190  67.966  1.00  0.00    -0.303 C  
HETATM    2  C   UNL     1     -12.150  14.042  66.451  1.00  0.00    -0.483 C  
ENDROOT
BRANCH   2   3
HETATM    3  C   UNL     1     -10.853  13.451  65.904  1.00  0.00    -0.274 C  
BRANCH   3   4
HETATM    4  N   UNL     1      -9.936  14.458  65.407  1.00  0.00    -0.499 N  
HETATM    5  H   UNL     1      -9.944  14.701  64.417  1.00  0.00     0.000 HD 
BRANCH   4   6
HETATM    6  C   UNL     1      -9.062  15.084  66.247  1.00  0.00    -0.253 C  
HETATM    7  O   UNL     1      -9.206  16.228  66.640  1.00  0.00    -0.212 OA 
BRANCH   6   8
HETATM    8  N   UNL     1      -8.009  14.277  66.641  1.00  0.00    -0.213 N  
HETATM    9  H   UNL     1      -7.263  14.096  65.969  1.00  0.00     0.000 HD 
BRANCH   8  10
HETATM   10  S   UNL     1      -7.893  13.587  68.151  1.00  0.00    -0.157 S  
HETATM   11  O   UNL     1      -9.051  13.971  68.925  1.00  0.00    -0.095 OA 
HETATM   12  O   UNL     1      -6.554  13.890  68.617  1.00  0.00    -0.082 OA 
BRANCH  10  13
HETATM   13  C   UNL     1      -7.943  11.836  67.843  1.00  0.00    -0.141 A  
HETATM   14  C   UNL     1      -7.762  11.360  66.539  1.00  0.00    -0.093 A  
HETATM   15  C   UNL     1      -7.825   9.985  66.296  1.00  0.00    -0.111 A  
HETATM   16  C   UNL     1      -8.053   9.101  67.353  1.00  0.00    -0.107 A  
HETATM   17  C   UNL     1      -8.218   9.576  68.653  1.00  0.00    -0.112 A  
HETATM   18 CL   UNL     1      -8.135   7.410  67.046  1.00  0.00    -0.112 Cl 
HETATM   19  C   UNL     1      -8.163  10.950  68.903  1.00  0.00    -0.141 A  
ENDBRANCH  10  13
ENDBRANCH   8  10
ENDBRANCH   6   8
ENDBRANCH   4   6
ENDBRANCH   3   4
ENDBRANCH   2   3
TORSDOF 6
ENDMDL
MODEL      282
REMARK 921   NORMALIZED FREE ENERGY PREDICTED BY IDOCK:   -2.34 KCAL/MOL
REMARK 922        TOTAL FREE ENERGY PREDICTED BY IDOCK:   -3.86 KCAL/MOL
REMARK 923 INTER-LIGAND FREE ENERGY PREDICTED BY IDOCK:   -3.41 KCAL/MOL
REMARK 924 INTRA-LIGAND FREE ENERGY PREDICTED BY IDOCK:   -0.45 KCAL/MOL
REMARK 927      BINDING AFFINITY PREDICTED BY RF-SCORE:    0.00 PKD
ROOT
HETATM    1  C   UNL     1      -7.453  13.943  67.331  1.00  0.00    -0.147 C  
HETATM    2  C   UNL     1      -7.759  13.043  68.519  1.00  0.00    -0.111 C  
ENDROOT
BRANCH   2   3
HETATM    3  C   UNL     1      -8.593  11.824  68.131  1.00  0.00    -0.160 C  
BRANCH   3   4
HETATM    4  N   UNL     1      -7.887  10.571  68.310  1.00  0.00    -0.107 N  
HETATM    5  H   UNL     1      -7.550  10.061  67.494  1.00  0.00     0.000 HD 
BRANCH   4   6
HETATM    6  C   UNL     1      -7.665  10.065  69.557  1.00  0.00    -0.146 C  
HETATM    7  O   UNL     1      -6.988  10.624  70.402  1.00  0.00    -0.276 OA 
BRANCH   6   8
HETATM    8  N   UNL     1      -8.318   8.867  69.785  1.00  0.00    -0.119 N  
HETATM    9  H   UNL     1      -7.765   8.070  70.103  1.00  0.00     0.000 HD 
BRANCH   8  10
HETATM   10  S   UNL     1      -9.955   8.653  69.570  1.00  0.00    -0.201 S  
HETATM   11  O   UNL     1     -10.189   8.213  68.214  1.00  0.00    -0.196 OA 
HETATM   12  O   UNL     1     -10.576   9.861  70.077  1.00  0.00    -0.247 OA 
BRANCH  10  13
HETATM   13  C   UNL     1     -10.382   7.346  70.697  1.00  0.00    -0.212 A  
HETATM   14  C   UNL     1      -9.509   6.265  70.863  1.00  0.00    -0.185 A  
HETATM   15  C   UNL     1      -9.858   5.228  71.732  1.00  0.00    -0.222 A  
HETATM   16  C   UNL     1     -11.064   5.285  72.436  1.00  0.00    -0.197 A  
HETATM   17  C   UNL     1     -11.925   6.370  72.281  1.00  0.00    -0.289 A  
HETATM   18 CL   UNL     1     -11.491   4.002  73.500  1.00  0.00    -0.289 Cl 
HETATM   19  C   UNL     1     -11.586   7.408  71.409  1.00  0.00    -0.303 A  
ENDBRANCH  10  13
ENDBRANCH   8  10
ENDBRANCH   6   8
ENDBRANCH   4   6
ENDBRANCH   3   4
ENDBRANCH   2   3
TORSDOF 6
ENDMDL
MODEL      283
REMARK 921   NORMALIZED FREE ENERGY PREDICTED BY IDOCK:   -2.31 KCAL/MOL
REMARK 922        TOTAL FREE ENERGY PREDICTED BY IDOCK:   -3.82 KCAL/MOL
REMARK 923 INTER-LIGAND FREE ENERGY PREDICTED BY IDOCK:   -3.97 KCAL/MOL
REMARK 924 INTRA-LIGAND FREE ENERGY PREDICTED BY IDOCK:    0.15 KCAL/MOL
REMARK 927      BINDING AFFINITY PREDICTED BY RF-SCORE:    0.00 PKD
ROOT
HETATM    1  C   UNL     1     -11.067   6.013  66.910  1.00  0.00    -0.253 C  
HETATM    2  C   UNL     1      -9.710   6.363  66.316  1.00  0.00    -0.082 C  
ENDROOT
BRANCH   2   3
HETATM    3  C   UNL     1      -8.783   7.033  67.328  1.00  0.00    -0.120 C  
BRANCH   3   4
HETATM    4  N   UNL     1      -9.374   8.200  67.954  1.00  0.00    -0.134 N  
HETATM    5  H   UNL     1      -9.909   8.092  68.815  1.00  0.00     0.000 HD 
BRANCH   4   6
HETATM    6  C   UNL     1      -9.223   9.440  67.407  1.00  0.00    -0.126 C  
HETATM    7  O   UNL     1      -8.256  10.154  67.609  1.00  0.00    -0.110 OA 
BRANCH   6   8
HETATM    8  N   UNL     1     -10.261   9.796  66.564  1.00  0.00    -0.232 N  
HETATM    9  H   UNL     1     -10.881   9.060  66.227  1.00  0.00     0.000 HD 
BRANCH   8  10
HETATM   10  S   UNL     1     -10.553  11.359  66.072  1.00  0.00    -0.257 S  
HETATM   11  O   UNL     1     -11.613  11.343  65.090  1.00  0.00    -0.045 OA 
HETATM   12  O   UNL     1      -9.255  11.918  65.755  1.00  0.00    -0.201 OA 
BRANCH  10  13
HETATM   13  C   UNL     1     -11.122  12.186  67.540  1.00  0.00    -0.275 A  
HETATM   14  C   UNL     1     -11.102  13.585  67.596  1.00  0.00    -0.290 A  
HETATM   15  C   UNL     1     -11.527  14.231  68.759  1.00  0.00    -0.327 A  
HETATM   16  C   UNL     1     -11.980  13.482  69.847  1.00  0.00    -0.348 A  
HETATM   17  C   UNL     1     -12.015  12.089  69.784  1.00  0.00    -0.370 A  
HETATM   18 CL   UNL     1     -12.498  14.284  71.278  1.00  0.00    -0.416 Cl 
HETATM   19  C   UNL     1     -11.584  11.435  68.627  1.00  0.00    -0.384 A  
ENDBRANCH  10  13
ENDBRANCH   8  10
ENDBRANCH   6   8
ENDBRANCH   4   6
ENDBRANCH   3   4
ENDBRANCH   2   3
TORSDOF 6
ENDMDL
MODEL      284
REMARK 921   NORMALIZED FREE ENERGY PREDICTED BY IDOCK:   -2.31 KCAL/MOL
REMARK 922        TOTAL FREE ENERGY PREDICTED BY IDOCK:   -3.82 KCAL/MOL
REMARK 923 INTER-LIGAND FREE ENERGY PREDICTED BY IDOCK:   -3.28 KCAL/MOL
REMARK 924 INTRA-LIGAND FREE ENERGY PREDICTED BY IDOCK:   -0.54 KCAL/MOL
REMARK 927      BINDING AFFINITY PREDICTED BY RF-SCORE:    0.00 PKD
ROOT
HETATM    1  C   UNL     1      -5.182  13.820  68.220  1.00  0.00    -0.109 C  
HETATM    2  C   UNL     1      -6.294  13.622  69.241  1.00  0.00    -0.108 C  
ENDROOT
BRANCH   2   3
HETATM    3  C   UNL     1      -6.519  12.151  69.583  1.00  0.00    -0.082 C  
BRANCH   3   4
HETATM    4  N   UNL     1      -7.748  11.620  69.027  1.00  0.00    -0.315 N  
HETATM    5  H   UNL     1      -8.636  11.821  69.486  1.00  0.00     0.000 HD 
BRANCH   4   6
HETATM    6  C   UNL     1      -7.733  10.856  67.897  1.00  0.00    -0.104 C  
HETATM    7  O   UNL     1      -7.135  11.165  66.881  1.00  0.00    -0.114 OA 
BRANCH   6   8
HETATM    8  N   UNL     1      -8.434   9.671  68.029  1.00  0.00    -0.118 N  
HETATM    9  H   UNL     1      -7.947   8.798  67.825  1.00  0.00     0.000 HD 
BRANCH   8  10
HETATM   10  S   UNL     1     -10.027   9.591  68.504  1.00  0.00    -0.173 S  
HETATM   11  O   UNL     1     -10.772   8.862  67.502  1.00  0.00    -0.258 OA 
HETATM   12  O   UNL     1     -10.396  10.945  68.865  1.00  0.00    -0.188 OA 
BRANCH  10  13
HETATM   13  C   UNL     1      -9.993   8.650  70.013  1.00  0.00    -0.185 A  
HETATM   14  C   UNL     1     -10.813   7.523  70.142  1.00  0.00    -0.259 A  
HETATM   15  C   UNL     1     -10.801   6.799  71.337  1.00  0.00    -0.269 A  
HETATM   16  C   UNL     1      -9.965   7.195  72.383  1.00  0.00    -0.166 A  
HETATM   17  C   UNL     1      -9.136   8.309  72.247  1.00  0.00    -0.289 A  
HETATM   18 CL   UNL     1      -9.959   6.303  73.854  1.00  0.00    -0.220 Cl 
HETATM   19  C   UNL     1      -9.148   9.042  71.057  1.00  0.00    -0.322 A  
ENDBRANCH  10  13
ENDBRANCH   8  10
ENDBRANCH   6   8
ENDBRANCH   4   6
ENDBRANCH   3   4
ENDBRANCH   2   3
TORSDOF 6
ENDMDL
MODEL      285
REMARK 921   NORMALIZED FREE ENERGY PREDICTED BY IDOCK:   -2.28 KCAL/MOL
REMARK 922        TOTAL FREE ENERGY PREDICTED BY IDOCK:   -3.78 KCAL/MOL
REMARK 923 INTER-LIGAND FREE ENERGY PREDICTED BY IDOCK:   -3.88 KCAL/MOL
REMARK 924 INTRA-LIGAND FREE ENERGY PREDICTED BY IDOCK:    0.10 KCAL/MOL
REMARK 927      BINDING AFFINITY PREDICTED BY RF-SCORE:    0.00 PKD
ROOT
HETATM    1  C   UNL     1      -8.502   8.291  66.304  1.00  0.00    -0.134 C  
HETATM    2  C   UNL     1      -9.235   7.206  67.081  1.00  0.00    -0.153 C  
ENDROOT
BRANCH   2   3
HETATM    3  C   UNL     1     -10.708   7.540  67.305  1.00  0.00    -0.295 C  
BRANCH   3   4
HETATM    4  N   UNL     1     -11.455   6.445  67.893  1.00  0.00    -0.604 N  
HETATM    5  H   UNL     1     -12.105   5.912  67.316  1.00  0.00     0.000 HD 
BRANCH   4   6
HETATM    6  C   UNL     1     -11.300   6.120  69.208  1.00  0.00    -0.291 C  
HETATM    7  O   UNL     1     -10.741   5.107  69.591  1.00  0.00    -0.212 OA 
BRANCH   6   8
HETATM    8  N   UNL     1     -11.809   7.073  70.072  1.00  0.00    -0.600 N  
HETATM    9  H   UNL     1     -12.475   7.751  69.702  1.00  0.00     0.000 HD 
BRANCH   8  10
HETATM   10  S   UNL     1     -11.394   7.175  71.680  1.00  0.00    -0.262 S  
HETATM   11  O   UNL     1     -11.653   5.898  72.306  1.00  0.00    -0.303 OA 
HETATM   12  O   UNL     1     -12.025   8.384  72.171  1.00  0.00    -0.326 OA 
BRANCH  10  13
HETATM   13  C   UNL     1      -9.642   7.481  71.667  1.00  0.00    -0.150 A  
HETATM   14  C   UNL     1      -8.756   6.411  71.503  1.00  0.00    -0.134 A  
HETATM   15  C   UNL     1      -7.380   6.651  71.517  1.00  0.00    -0.087 A  
HETATM   16  C   UNL     1      -6.902   7.954  71.678  1.00  0.00    -0.057 A  
HETATM   17  C   UNL     1      -7.786   9.021  71.826  1.00  0.00     0.088 A  
HETATM   18 CL   UNL     1      -5.205   8.243  71.699  1.00  0.00    -0.033 Cl 
HETATM   19  C   UNL     1      -9.164   8.788  71.821  1.00  0.00    -0.332 A  
ENDBRANCH  10  13
ENDBRANCH   8  10
ENDBRANCH   6   8
ENDBRANCH   4   6
ENDBRANCH   3   4
ENDBRANCH   2   3
TORSDOF 6
ENDMDL
MODEL      286
REMARK 921   NORMALIZED FREE ENERGY PREDICTED BY IDOCK:   -2.26 KCAL/MOL
REMARK 922        TOTAL FREE ENERGY PREDICTED BY IDOCK:   -3.75 KCAL/MOL
REMARK 923 INTER-LIGAND FREE ENERGY PREDICTED BY IDOCK:   -3.36 KCAL/MOL
REMARK 924 INTRA-LIGAND FREE ENERGY PREDICTED BY IDOCK:   -0.40 KCAL/MOL
REMARK 927      BINDING AFFINITY PREDICTED BY RF-SCORE:    0.00 PKD
ROOT
HETATM    1  C   UNL     1     -10.284  11.075  63.329  1.00  0.00    -0.360 C  
HETATM    2  C   UNL     1      -9.781  10.609  64.688  1.00  0.00    -0.360 C  
ENDROOT
BRANCH   2   3
HETATM    3  C   UNL     1      -8.511   9.767  64.585  1.00  0.00    -0.172 C  
BRANCH   3   4
HETATM    4  N   UNL     1      -7.948   9.428  65.877  1.00  0.00    -0.105 N  
HETATM    5  H   UNL     1      -8.385   8.699  66.441  1.00  0.00     0.000 HD 
BRANCH   4   6
HETATM    6  C   UNL     1      -6.842  10.070  66.349  1.00  0.00    -0.093 C  
HETATM    7  O   UNL     1      -5.803   9.502  66.637  1.00  0.00    -0.053 OA 
BRANCH   6   8
HETATM    8  N   UNL     1      -7.000  11.442  66.434  1.00  0.00    -0.342 N  
HETATM    9  H   UNL     1      -7.013  11.980  65.568  1.00  0.00     0.000 HD 
BRANCH   8  10
HETATM   10  S   UNL     1      -7.172  12.262  67.872  1.00  0.00    -0.120 S  
HETATM   11  O   UNL     1      -7.218  13.680  67.593  1.00  0.00    -0.146 OA 
HETATM   12  O   UNL     1      -6.165  11.712  68.758  1.00  0.00    -0.048 OA 
BRANCH  10  13
HETATM   13  C   UNL     1      -8.749  11.732  68.499  1.00  0.00    -0.118 A  
HETATM   14  C   UNL     1      -9.898  12.468  68.186  1.00  0.00    -0.221 A  
HETATM   15  C   UNL     1     -11.133  12.062  68.699  1.00  0.00    -0.298 A  
HETATM   16  C   UNL     1     -11.213  10.924  69.504  1.00  0.00    -0.277 A  
HETATM   17  C   UNL     1     -10.070  10.183  69.802  1.00  0.00    -0.269 A  
HETATM   18 CL   UNL     1     -12.736  10.433  70.137  1.00  0.00    -0.238 Cl 
HETATM   19  C   UNL     1      -8.830  10.586  69.299  1.00  0.00    -0.135 A  
ENDBRANCH  10  13
ENDBRANCH   8  10
ENDBRANCH   6   8
ENDBRANCH   4   6
ENDBRANCH   3   4
ENDBRANCH   2   3
TORSDOF 6
ENDMDL
MODEL      287
REMARK 921   NORMALIZED FREE ENERGY PREDICTED BY IDOCK:   -2.21 KCAL/MOL
REMARK 922        TOTAL FREE ENERGY PREDICTED BY IDOCK:   -3.68 KCAL/MOL
REMARK 923 INTER-LIGAND FREE ENERGY PREDICTED BY IDOCK:   -3.73 KCAL/MOL
REMARK 924 INTRA-LIGAND FREE ENERGY PREDICTED BY IDOCK:    0.04 KCAL/MOL
REMARK 927      BINDING AFFINITY PREDICTED BY RF-SCORE:    0.00 PKD
ROOT
HETATM    1  C   UNL     1     -10.343  16.478  68.959  1.00  0.00    -0.296 C  
HETATM    2  C   UNL     1     -10.078  16.697  67.477  1.00  0.00    -0.273 C  
ENDROOT
BRANCH   2   3
HETATM    3  C   UNL     1      -9.010  15.753  66.927  1.00  0.00    -0.240 C  
BRANCH   3   4
HETATM    4  N   UNL     1      -9.458  15.000  65.772  1.00  0.00    -0.460 N  
HETATM    5  H   UNL     1      -9.338  15.392  64.839  1.00  0.00     0.000 HD 
BRANCH   4   6
HETATM    6  C   UNL     1     -10.037  13.774  65.918  1.00  0.00    -0.313 C  
HETATM    7  O   UNL     1     -10.974  13.386  65.242  1.00  0.00    -0.285 OA 
BRANCH   6   8
HETATM    8  N   UNL     1      -9.431  12.994  66.886  1.00  0.00    -0.236 N  
HETATM    9  H   UNL     1      -8.667  13.403  67.425  1.00  0.00     0.000 HD 
BRANCH   8  10
HETATM   10  S   UNL     1      -9.880  11.427  67.221  1.00  0.00    -0.191 S  
HETATM   11  O   UNL     1     -11.250  11.238  66.800  1.00  0.00    -0.286 OA 
HETATM   12  O   UNL     1      -9.486  11.193  68.596  1.00  0.00    -0.190 OA 
BRANCH  10  13
HETATM   13  C   UNL     1      -8.809  10.433  66.206  1.00  0.00    -0.152 A  
HETATM   14  C   UNL     1      -7.551  10.058  66.692  1.00  0.00    -0.104 A  
HETATM   15  C   UNL     1      -6.703   9.296  65.884  1.00  0.00    -0.080 A  
HETATM   16  C   UNL     1      -7.120   8.906  64.609  1.00  0.00    -0.088 A  
HETATM   17  C   UNL     1      -8.380   9.268  64.133  1.00  0.00    -0.178 A  
HETATM   18 CL   UNL     1      -6.068   7.974  63.617  1.00  0.00    -0.062 Cl 
HETATM   19  C   UNL     1      -9.231  10.035  64.933  1.00  0.00    -0.291 A  
ENDBRANCH  10  13
ENDBRANCH   8  10
ENDBRANCH   6   8
ENDBRANCH   4   6
ENDBRANCH   3   4
ENDBRANCH   2   3
TORSDOF 6
ENDMDL
MODEL      288
REMARK 921   NORMALIZED FREE ENERGY PREDICTED BY IDOCK:   -2.19 KCAL/MOL
REMARK 922        TOTAL FREE ENERGY PREDICTED BY IDOCK:   -3.67 KCAL/MOL
REMARK 923 INTER-LIGAND FREE ENERGY PREDICTED BY IDOCK:   -3.36 KCAL/MOL
REMARK 924 INTRA-LIGAND FREE ENERGY PREDICTED BY IDOCK:   -0.30 KCAL/MOL
REMARK 927      BINDING AFFINITY PREDICTED BY RF-SCORE:    0.00 PKD
ROOT
HETATM    1  C   UNL     1     -11.175  11.999  66.330  1.00  0.00    -0.394 C  
HETATM    2  C   UNL     1     -10.299  10.823  65.925  1.00  0.00    -0.302 C  
ENDROOT
BRANCH   2   3
HETATM    3  C   UNL     1     -10.304   9.704  66.964  1.00  0.00    -0.248 C  
BRANCH   3   4
HETATM    4  N   UNL     1     -10.796  10.133  68.259  1.00  0.00    -0.242 N  
HETATM    5  H   UNL     1     -11.565  10.800  68.309  1.00  0.00     0.000 HD 
BRANCH   4   6
HETATM    6  C   UNL     1     -10.243   9.656  69.411  1.00  0.00    -0.209 C  
HETATM    7  O   UNL     1     -10.836   9.608  70.474  1.00  0.00    -0.260 OA 
BRANCH   6   8
HETATM    8  N   UNL     1      -8.950   9.193  69.246  1.00  0.00    -0.141 N  
HETATM    9  H   UNL     1      -8.249   9.840  68.885  1.00  0.00     0.000 HD 
BRANCH   8  10
HETATM   10  S   UNL     1      -8.474   7.639  69.606  1.00  0.00    -0.135 S  
HETATM   11  O   UNL     1      -9.192   7.196  70.779  1.00  0.00    -0.156 OA 
HETATM   12  O   UNL     1      -7.026   7.659  69.585  1.00  0.00    -0.050 OA 
BRANCH  10  13
HETATM   13  C   UNL     1      -8.993   6.681  68.200  1.00  0.00    -0.121 A  
HETATM   14  C   UNL     1     -10.296   6.171  68.155  1.00  0.00    -0.242 A  
HETATM   15  C   UNL     1     -10.693   5.400  67.060  1.00  0.00    -0.233 A  
HETATM   16  C   UNL     1      -9.796   5.156  66.017  1.00  0.00    -0.163 A  
HETATM   17  C   UNL     1      -8.503   5.677  66.057  1.00  0.00    -0.132 A  
HETATM   18 CL   UNL     1     -10.290   4.200  64.674  1.00  0.00    -0.222 Cl 
HETATM   19  C   UNL     1      -8.096   6.444  67.151  1.00  0.00    -0.113 A  
ENDBRANCH  10  13
ENDBRANCH   8  10
ENDBRANCH   6   8
ENDBRANCH   4   6
ENDBRANCH   3   4
ENDBRANCH   2   3
TORSDOF 6
ENDMDL
MODEL      289
REMARK 921   NORMALIZED FREE ENERGY PREDICTED BY IDOCK:   -2.16 KCAL/MOL
REMARK 922        TOTAL FREE ENERGY PREDICTED BY IDOCK:   -3.62 KCAL/MOL
REMARK 923 INTER-LIGAND FREE ENERGY PREDICTED BY IDOCK:   -3.66 KCAL/MOL
REMARK 924 INTRA-LIGAND FREE ENERGY PREDICTED BY IDOCK:    0.05 KCAL/MOL
REMARK 927      BINDING AFFINITY PREDICTED BY RF-SCORE:    0.00 PKD
ROOT
HETATM    1  C   UNL     1     -10.904  16.231  66.862  1.00  0.00    -0.151 C  
HETATM    2  C   UNL     1     -10.762  17.733  67.057  1.00  0.00    -0.192 C  
ENDROOT
BRANCH   2   3
HETATM    3  C   UNL     1      -9.555  18.309  66.319  1.00  0.00    -0.251 C  
BRANCH   3   4
HETATM    4  N   UNL     1      -8.912  19.391  67.037  1.00  0.00    -0.292 N  
HETATM    5  H   UNL     1      -8.572  20.204  66.524  1.00  0.00     0.000 HD 
BRANCH   4   6
HETATM    6  C   UNL     1      -8.757  19.337  68.391  1.00  0.00    -0.357 C  
HETATM    7  O   UNL     1      -9.602  18.894  69.150  1.00  0.00    -0.295 OA 
BRANCH   6   8
HETATM    8  N   UNL     1      -7.527  19.802  68.820  1.00  0.00    -0.317 N  
HETATM    9  H   UNL     1      -7.501  20.666  69.362  1.00  0.00     0.000 HD 
BRANCH   8  10
HETATM   10  S   UNL     1      -6.088  19.029  68.500  1.00  0.00    -0.219 S  
HETATM   11  O   UNL     1      -5.168  19.300  69.582  1.00  0.00    -0.186 OA 
HETATM   12  O   UNL     1      -5.752  19.379  67.134  1.00  0.00    -0.175 OA 
BRANCH  10  13
HETATM   13  C   UNL     1      -6.504  17.300  68.498  1.00  0.00    -0.170 A  
HETATM   14  C   UNL     1      -6.825  16.670  67.291  1.00  0.00    -0.212 A  
HETATM   15  C   UNL     1      -7.174  15.317  67.296  1.00  0.00    -0.213 A  
HETATM   16  C   UNL     1      -7.186  14.604  68.497  1.00  0.00    -0.118 A  
HETATM   17  C   UNL     1      -6.851  15.231  69.697  1.00  0.00    -0.187 A  
HETATM   18 CL   UNL     1      -7.623  12.940  68.497  1.00  0.00    -0.129 Cl 
HETATM   19  C   UNL     1      -6.507  16.585  69.701  1.00  0.00    -0.198 A  
ENDBRANCH  10  13
ENDBRANCH   8  10
ENDBRANCH   6   8
ENDBRANCH   4   6
ENDBRANCH   3   4
ENDBRANCH   2   3
TORSDOF 6
ENDMDL
MODEL      290
REMARK 921   NORMALIZED FREE ENERGY PREDICTED BY IDOCK:   -2.16 KCAL/MOL
REMARK 922        TOTAL FREE ENERGY PREDICTED BY IDOCK:   -3.62 KCAL/MOL
REMARK 923 INTER-LIGAND FREE ENERGY PREDICTED BY IDOCK:   -3.28 KCAL/MOL
REMARK 924 INTRA-LIGAND FREE ENERGY PREDICTED BY IDOCK:   -0.33 KCAL/MOL
REMARK 927      BINDING AFFINITY PREDICTED BY RF-SCORE:    0.00 PKD
ROOT
HETATM    1  C   UNL     1      -7.093   4.874  69.823  1.00  0.00    -0.054 C  
HETATM    2  C   UNL     1      -7.329   4.752  68.324  1.00  0.00    -0.066 C  
ENDROOT
BRANCH   2   3
HETATM    3  C   UNL     1      -7.798   6.062  67.697  1.00  0.00    -0.101 C  
BRANCH   3   4
HETATM    4  N   UNL     1      -7.425   7.229  68.471  1.00  0.00    -0.103 N  
HETATM    5  H   UNL     1      -7.537   7.218  69.484  1.00  0.00     0.000 HD 
BRANCH   4   6
HETATM    6  C   UNL     1      -6.924   8.342  67.862  1.00  0.00    -0.078 C  
HETATM    7  O   UNL     1      -5.733   8.547  67.706  1.00  0.00    -0.038 OA 
BRANCH   6   8
HETATM    8  N   UNL     1      -7.905   9.203  67.403  1.00  0.00    -0.099 N  
HETATM    9  H   UNL     1      -8.445   9.728  68.090  1.00  0.00     0.000 HD 
BRANCH   8  10
HETATM   10  S   UNL     1      -8.252   9.428  65.791  1.00  0.00    -0.119 S  
HETATM   11  O   UNL     1      -8.710   8.174  65.237  1.00  0.00    -0.147 OA 
HETATM   12  O   UNL     1      -7.100  10.108  65.235  1.00  0.00    -0.127 OA 
BRANCH  10  13
HETATM   13  C   UNL     1      -9.590  10.600  65.786  1.00  0.00    -0.210 A  
HETATM   14  C   UNL     1      -9.867  11.325  64.621  1.00  0.00    -0.314 A  
HETATM   15  C   UNL     1     -10.904  12.261  64.627  1.00  0.00    -0.349 A  
HETATM   16  C   UNL     1     -11.661  12.455  65.784  1.00  0.00    -0.414 A  
HETATM   17  C   UNL     1     -11.394  11.720  66.939  1.00  0.00    -0.386 A  
HETATM   18 CL   UNL     1     -12.933  13.614  65.786  1.00  0.00    -0.387 Cl 
HETATM   19  C   UNL     1     -10.354  10.787  66.943  1.00  0.00    -0.290 A  
ENDBRANCH  10  13
ENDBRANCH   8  10
ENDBRANCH   6   8
ENDBRANCH   4   6
ENDBRANCH   3   4
ENDBRANCH   2   3
TORSDOF 6
ENDMDL
MODEL      291
REMARK 921   NORMALIZED FREE ENERGY PREDICTED BY IDOCK:   -2.13 KCAL/MOL
REMARK 922        TOTAL FREE ENERGY PREDICTED BY IDOCK:   -3.58 KCAL/MOL
REMARK 923 INTER-LIGAND FREE ENERGY PREDICTED BY IDOCK:   -3.18 KCAL/MOL
REMARK 924 INTRA-LIGAND FREE ENERGY PREDICTED BY IDOCK:   -0.39 KCAL/MOL
REMARK 927      BINDING AFFINITY PREDICTED BY RF-SCORE:    0.00 PKD
ROOT
HETATM    1  C   UNL     1      -7.899  18.154  67.477  1.00  0.00    -0.223 C  
HETATM    2  C   UNL     1      -6.800  18.000  68.518  1.00  0.00    -0.237 C  
ENDROOT
BRANCH   2   3
HETATM    3  C   UNL     1      -5.976  16.730  68.317  1.00  0.00    -0.128 C  
BRANCH   3   4
HETATM    4  N   UNL     1      -6.649  15.536  68.790  1.00  0.00    -0.105 N  
HETATM    5  H   UNL     1      -6.912  15.463  69.773  1.00  0.00     0.000 HD 
BRANCH   4   6
HETATM    6  C   UNL     1      -6.934  14.509  67.939  1.00  0.00    -0.162 C  
HETATM    7  O   UNL     1      -6.343  13.443  67.945  1.00  0.00    -0.119 OA 
BRANCH   6   8
HETATM    8  N   UNL     1      -7.990  14.782  67.088  1.00  0.00    -0.271 N  
HETATM    9  H   UNL     1      -7.815  15.379  66.280  1.00  0.00     0.000 HD 
BRANCH   8  10
HETATM   10  S   UNL     1      -9.529  14.188  67.309  1.00  0.00    -0.237 S  
HETATM   11  O   UNL     1     -10.469  15.276  67.166  1.00  0.00    -0.269 OA 
HETATM   12  O   UNL     1      -9.475  13.409  68.530  1.00  0.00    -0.200 OA 
BRANCH  10  13
HETATM   13  C   UNL     1      -9.754  13.033  65.975  1.00  0.00    -0.216 A  
HETATM   14  C   UNL     1      -9.039  11.830  65.976  1.00  0.00    -0.159 A  
HETATM   15  C   UNL     1      -9.201  10.936  64.915  1.00  0.00    -0.230 A  
HETATM   16  C   UNL     1     -10.081  11.241  63.874  1.00  0.00    -0.340 A  
HETATM   17  C   UNL     1     -10.805  12.433  63.883  1.00  0.00    -0.465 A  
HETATM   18 CL   UNL     1     -10.272  10.137  62.568  1.00  0.00     0.558 Cl 
HETATM   19  C   UNL     1     -10.643  13.336  64.937  1.00  0.00    -0.381 A  
ENDBRANCH  10  13
ENDBRANCH   8  10
ENDBRANCH   6   8
ENDBRANCH   4   6
ENDBRANCH   3   4
ENDBRANCH   2   3
TORSDOF 6
ENDMDL
MODEL      292
REMARK 921   NORMALIZED FREE ENERGY PREDICTED BY IDOCK:   -2.11 KCAL/MOL
REMARK 922        TOTAL FREE ENERGY PREDICTED BY IDOCK:   -3.55 KCAL/MOL
REMARK 923 INTER-LIGAND FREE ENERGY PREDICTED BY IDOCK:   -3.85 KCAL/MOL
REMARK 924 INTRA-LIGAND FREE ENERGY PREDICTED BY IDOCK:    0.30 KCAL/MOL
REMARK 927      BINDING AFFINITY PREDICTED BY RF-SCORE:    0.00 PKD
ROOT
HETATM    1  C   UNL     1      -9.842  10.034  65.028  1.00  0.00    -0.374 C  
HETATM    2  C   UNL     1     -10.322  11.475  65.124  1.00  0.00    -0.329 C  
ENDROOT
BRANCH   2   3
HETATM    3  C   UNL     1     -11.332  11.831  64.037  1.00  0.00    -0.381 C  
BRANCH   3   4
HETATM    4  N   UNL     1     -11.803  13.199  64.124  1.00  0.00    -0.403 N  
HETATM    5  H   UNL     1     -11.572  13.859  63.381  1.00  0.00     0.000 HD 
BRANCH   4   6
HETATM    6  C   UNL     1     -12.551  13.615  65.185  1.00  0.00    -0.430 C  
HETATM    7  O   UNL     1     -13.581  13.069  65.541  1.00  0.00     0.001 OA 
BRANCH   6   8
HETATM    8  N   UNL     1     -12.005  14.701  65.847  1.00  0.00    -0.292 N  
HETATM    9  H   UNL     1     -12.420  14.981  66.736  1.00  0.00     0.000 HD 
BRANCH   8  10
HETATM   10  S   UNL     1     -10.710  15.573  65.273  1.00  0.00    -0.437 S  
HETATM   11  O   UNL     1     -11.139  16.932  65.030  1.00  0.00    -0.492 OA 
HETATM   12  O   UNL     1     -10.141  14.773  64.208  1.00  0.00     0.261 OA 
BRANCH  10  13
HETATM   13  C   UNL     1      -9.536  15.555  66.609  1.00  0.00    -0.253 A  
HETATM   14  C   UNL     1      -8.241  15.074  66.384  1.00  0.00     0.282 A  
HETATM   15  C   UNL     1      -7.329  15.040  67.441  1.00  0.00    -0.231 A  
HETATM   16  C   UNL     1      -7.709  15.496  68.705  1.00  0.00    -0.159 A  
HETATM   17  C   UNL     1      -8.995  15.989  68.924  1.00  0.00    -0.239 A  
HETATM   18 CL   UNL     1      -6.582  15.445  70.004  1.00  0.00    -0.140 Cl 
HETATM   19  C   UNL     1      -9.916  16.020  67.874  1.00  0.00    -0.233 A  
ENDBRANCH  10  13
ENDBRANCH   8  10
ENDBRANCH   6   8
ENDBRANCH   4   6
ENDBRANCH   3   4
ENDBRANCH   2   3
TORSDOF 6
ENDMDL
MODEL      293
REMARK 921   NORMALIZED FREE ENERGY PREDICTED BY IDOCK:   -2.09 KCAL/MOL
REMARK 922        TOTAL FREE ENERGY PREDICTED BY IDOCK:   -3.53 KCAL/MOL
REMARK 923 INTER-LIGAND FREE ENERGY PREDICTED BY IDOCK:   -3.24 KCAL/MOL
REMARK 924 INTRA-LIGAND FREE ENERGY PREDICTED BY IDOCK:   -0.29 KCAL/MOL
REMARK 927      BINDING AFFINITY PREDICTED BY RF-SCORE:    0.00 PKD
ROOT
HETATM    1  C   UNL     1      -7.242   6.023  69.357  1.00  0.00    -0.074 C  
HETATM    2  C   UNL     1      -7.370   6.250  67.858  1.00  0.00    -0.088 C  
ENDROOT
BRANCH   2   3
HETATM    3  C   UNL     1      -7.925   7.632  67.520  1.00  0.00    -0.120 C  
BRANCH   3   4
HETATM    4  N   UNL     1      -8.832   8.142  68.528  1.00  0.00    -0.134 N  
HETATM    5  H   UNL     1      -9.557   7.533  68.908  1.00  0.00     0.000 HD 
BRANCH   4   6
HETATM    6  C   UNL     1      -8.730   9.426  68.977  1.00  0.00    -0.136 C  
HETATM    7  O   UNL     1      -8.217   9.730  70.040  1.00  0.00    -0.168 OA 
BRANCH   6   8
HETATM    8  N   UNL     1      -9.232  10.358  68.088  1.00  0.00    -0.143 N  
HETATM    9  H   UNL     1     -10.214  10.289  67.821  1.00  0.00     0.000 HD 
BRANCH   8  10
HETATM   10  S   UNL     1      -8.323  11.587  67.429  1.00  0.00    -0.155 S  
HETATM   11  O   UNL     1      -7.419  11.021  66.453  1.00  0.00    -0.143 OA 
HETATM   12  O   UNL     1      -7.819  12.347  68.555  1.00  0.00    -0.137 OA 
BRANCH  10  13
HETATM   13  C   UNL     1      -9.510  12.623  66.603  1.00  0.00    -0.244 A  
HETATM   14  C   UNL     1      -9.325  14.010  66.592  1.00  0.00    -0.292 A  
HETATM   15  C   UNL     1     -10.272  14.823  65.963  1.00  0.00    -0.320 A  
HETATM   16  C   UNL     1     -11.381  14.246  65.340  1.00  0.00    -0.329 A  
HETATM   17  C   UNL     1     -11.555  12.863  65.339  1.00  0.00    -0.386 A  
HETATM   18 CL   UNL     1     -12.546  15.253  64.572  1.00  0.00    -0.070 Cl 
HETATM   19  C   UNL     1     -10.617  12.044  65.972  1.00  0.00    -0.303 A  
ENDBRANCH  10  13
ENDBRANCH   8  10
ENDBRANCH   6   8
ENDBRANCH   4   6
ENDBRANCH   3   4
ENDBRANCH   2   3
TORSDOF 6
ENDMDL
MODEL      294
REMARK 921   NORMALIZED FREE ENERGY PREDICTED BY IDOCK:   -2.07 KCAL/MOL
REMARK 922        TOTAL FREE ENERGY PREDICTED BY IDOCK:   -3.49 KCAL/MOL
REMARK 923 INTER-LIGAND FREE ENERGY PREDICTED BY IDOCK:   -2.78 KCAL/MOL
REMARK 924 INTRA-LIGAND FREE ENERGY PREDICTED BY IDOCK:   -0.72 KCAL/MOL
REMARK 927      BINDING AFFINITY PREDICTED BY RF-SCORE:    0.00 PKD
ROOT
HETATM    1  C   UNL     1      -6.661   6.300  68.721  1.00  0.00    -0.055 C  
HETATM    2  C   UNL     1      -6.927   5.402  67.521  1.00  0.00    -0.066 C  
ENDROOT
BRANCH   2   3
HETATM    3  C   UNL     1      -8.404   5.043  67.375  1.00  0.00    -0.106 C  
BRANCH   3   4
HETATM    4  N   UNL     1      -9.228   6.172  66.994  1.00  0.00    -0.120 N  
HETATM    5  H   UNL     1      -8.900   6.814  66.272  1.00  0.00     0.000 HD 
BRANCH   4   6
HETATM    6  C   UNL     1     -10.438   6.388  67.587  1.00  0.00    -0.228 C  
HETATM    7  O   UNL     1     -11.293   7.123  67.126  1.00  0.00    -0.160 OA 
BRANCH   6   8
HETATM    8  N   UNL     1     -10.615   5.658  68.748  1.00  0.00    -0.230 N  
HETATM    9  H   UNL     1     -10.654   4.641  68.676  1.00  0.00     0.000 HD 
BRANCH   8  10
HETATM   10  S   UNL     1     -10.768   6.347  70.255  1.00  0.00    -0.293 S  
HETATM   11  O   UNL     1     -12.174   6.526  70.541  1.00  0.00    -0.325 OA 
HETATM   12  O   UNL     1      -9.859   7.475  70.263  1.00  0.00    -0.183 OA 
BRANCH  10  13
HETATM   13  C   UNL     1     -10.089   5.136  71.367  1.00  0.00    -0.200 A  
HETATM   14  C   UNL     1     -10.834   4.726  72.479  1.00  0.00    -0.208 A  
HETATM   15  C   UNL     1     -10.289   3.791  73.363  1.00  0.00    -0.238 A  
HETATM   16  C   UNL     1      -9.017   3.265  73.124  1.00  0.00    -0.087 A  
HETATM   17  C   UNL     1      -8.283   3.663  72.007  1.00  0.00    -0.072 A  
HETATM   18 CL   UNL     1      -8.349   2.119  74.219  1.00  0.00    -0.058 Cl 
HETATM   19  C   UNL     1      -8.819   4.603  71.122  1.00  0.00    -0.149 A  
ENDBRANCH  10  13
ENDBRANCH   8  10
ENDBRANCH   6   8
ENDBRANCH   4   6
ENDBRANCH   3   4
ENDBRANCH   2   3
TORSDOF 6
ENDMDL
MODEL      295
REMARK 921   NORMALIZED FREE ENERGY PREDICTED BY IDOCK:   -2.06 KCAL/MOL
REMARK 922        TOTAL FREE ENERGY PREDICTED BY IDOCK:   -3.48 KCAL/MOL
REMARK 923 INTER-LIGAND FREE ENERGY PREDICTED BY IDOCK:   -3.12 KCAL/MOL
REMARK 924 INTRA-LIGAND FREE ENERGY PREDICTED BY IDOCK:   -0.36 KCAL/MOL
REMARK 927      BINDING AFFINITY PREDICTED BY RF-SCORE:    0.00 PKD
ROOT
HETATM    1  C   UNL     1     -10.047  13.228  67.772  1.00  0.00    -0.229 C  
HETATM    2  C   UNL     1     -10.607  12.466  68.964  1.00  0.00    -0.087 C  
ENDROOT
BRANCH   2   3
HETATM    3  C   UNL     1     -10.548  10.952  68.772  1.00  0.00    -0.201 C  
BRANCH   3   4
HETATM    4  N   UNL     1      -9.662  10.295  69.712  1.00  0.00    -0.393 N  
HETATM    5  H   UNL     1      -8.692  10.599  69.786  1.00  0.00     0.000 HD 
BRANCH   4   6
HETATM    6  C   UNL     1     -10.109   9.274  70.499  1.00  0.00    -0.255 C  
HETATM    7  O   UNL     1     -10.807   9.438  71.484  1.00  0.00    -0.348 OA 
BRANCH   6   8
HETATM    8  N   UNL     1      -9.723   8.025  70.047  1.00  0.00    -0.172 N  
HETATM    9  H   UNL     1      -8.844   7.639  70.391  1.00  0.00     0.000 HD 
BRANCH   8  10
HETATM   10  S   UNL     1     -10.614   7.118  68.973  1.00  0.00    -0.190 S  
HETATM   11  O   UNL     1     -10.994   7.960  67.861  1.00  0.00    -0.045 OA 
HETATM   12  O   UNL     1     -11.618   6.443  69.770  1.00  0.00    -0.431 OA 
BRANCH  10  13
HETATM   13  C   UNL     1      -9.485   5.866  68.406  1.00  0.00    -0.120 A  
HETATM   14  C   UNL     1      -8.144   5.917  68.804  1.00  0.00    -0.103 A  
HETATM   15  C   UNL     1      -7.253   4.945  68.339  1.00  0.00    -0.062 A  
HETATM   16  C   UNL     1      -7.709   3.929  67.497  1.00  0.00    -0.075 A  
HETATM   17  C   UNL     1      -9.049   3.871  67.115  1.00  0.00    -0.174 A  
HETATM   18 CL   UNL     1      -6.607   2.739  66.924  1.00  0.00    -0.036 Cl 
HETATM   19  C   UNL     1      -9.944   4.843  67.570  1.00  0.00    -0.202 A  
ENDBRANCH  10  13
ENDBRANCH   8  10
ENDBRANCH   6   8
ENDBRANCH   4   6
ENDBRANCH   3   4
ENDBRANCH   2   3
TORSDOF 6
ENDMDL
MODEL      296
REMARK 921   NORMALIZED FREE ENERGY PREDICTED BY IDOCK:   -2.04 KCAL/MOL
REMARK 922        TOTAL FREE ENERGY PREDICTED BY IDOCK:   -3.45 KCAL/MOL
REMARK 923 INTER-LIGAND FREE ENERGY PREDICTED BY IDOCK:   -3.06 KCAL/MOL
REMARK 924 INTRA-LIGAND FREE ENERGY PREDICTED BY IDOCK:   -0.40 KCAL/MOL
REMARK 927      BINDING AFFINITY PREDICTED BY RF-SCORE:    0.00 PKD
ROOT
HETATM    1  C   UNL     1      -7.150   6.073  69.385  1.00  0.00    -0.066 C  
HETATM    2  C   UNL     1      -7.357   6.792  68.060  1.00  0.00    -0.097 C  
ENDROOT
BRANCH   2   3
HETATM    3  C   UNL     1      -7.504   8.302  68.231  1.00  0.00    -0.097 C  
BRANCH   3   4
HETATM    4  N   UNL     1      -8.207   8.671  69.444  1.00  0.00    -0.111 N  
HETATM    5  H   UNL     1      -9.051   8.165  69.710  1.00  0.00     0.000 HD 
BRANCH   4   6
HETATM    6  C   UNL     1      -7.753   9.687  70.234  1.00  0.00    -0.172 C  
HETATM    7  O   UNL     1      -7.266   9.516  71.338  1.00  0.00    -0.330 OA 
BRANCH   6   8
HETATM    8  N   UNL     1      -7.865  10.932  69.642  1.00  0.00    -0.373 N  
HETATM    9  H   UNL     1      -8.797  11.265  69.394  1.00  0.00     0.000 HD 
BRANCH   8  10
HETATM   10  S   UNL     1      -6.565  11.917  69.315  1.00  0.00    -0.099 S  
HETATM   11  O   UNL     1      -5.630  11.188  68.487  1.00  0.00    -0.043 OA 
HETATM   12  O   UNL     1      -6.155  12.462  70.593  1.00  0.00    -0.235 OA 
BRANCH  10  13
HETATM   13  C   UNL     1      -7.254  13.265  68.381  1.00  0.00    -0.110 A  
HETATM   14  C   UNL     1      -6.457  14.376  68.083  1.00  0.00    -0.139 A  
HETATM   15  C   UNL     1      -7.008  15.443  67.369  1.00  0.00    -0.222 A  
HETATM   16  C   UNL     1      -8.339  15.387  66.948  1.00  0.00    -0.255 A  
HETATM   17  C   UNL     1      -9.126  14.272  67.232  1.00  0.00    -0.221 A  
HETATM   18 CL   UNL     1      -9.013  16.707  66.074  1.00  0.00    -0.304 Cl 
HETATM   19  C   UNL     1      -8.585  13.204  67.952  1.00  0.00    -0.185 A  
ENDBRANCH  10  13
ENDBRANCH   8  10
ENDBRANCH   6   8
ENDBRANCH   4   6
ENDBRANCH   3   4
ENDBRANCH   2   3
TORSDOF 6
ENDMDL
MODEL      297
REMARK 921   NORMALIZED FREE ENERGY PREDICTED BY IDOCK:   -2.00 KCAL/MOL
REMARK 922        TOTAL FREE ENERGY PREDICTED BY IDOCK:   -3.41 KCAL/MOL
REMARK 923 INTER-LIGAND FREE ENERGY PREDICTED BY IDOCK:   -3.27 KCAL/MOL
REMARK 924 INTRA-LIGAND FREE ENERGY PREDICTED BY IDOCK:   -0.14 KCAL/MOL
REMARK 927      BINDING AFFINITY PREDICTED BY RF-SCORE:    0.00 PKD
ROOT
HETATM    1  C   UNL     1     -10.060   3.477  66.717  1.00  0.00     0.575 C  
HETATM    2  C   UNL     1      -9.362   4.764  67.133  1.00  0.00    -0.147 C  
ENDROOT
BRANCH   2   3
HETATM    3  C   UNL     1      -9.908   5.330  68.441  1.00  0.00    -0.153 C  
BRANCH   3   4
HETATM    4  N   UNL     1     -10.857   6.407  68.242  1.00  0.00    -0.288 N  
HETATM    5  H   UNL     1     -11.839   6.188  68.073  1.00  0.00     0.000 HD 
BRANCH   4   6
HETATM    6  C   UNL     1     -10.456   7.710  68.278  1.00  0.00    -0.174 C  
HETATM    7  O   UNL     1      -9.927   8.227  69.247  1.00  0.00    -0.182 OA 
BRANCH   6   8
HETATM    8  N   UNL     1     -10.672   8.383  67.089  1.00  0.00    -0.429 N  
HETATM    9  H   UNL     1     -11.534   8.190  66.577  1.00  0.00     0.000 HD 
BRANCH   8  10
HETATM   10  S   UNL     1      -9.607   9.489  66.448  1.00  0.00    -0.233 S  
HETATM   11  O   UNL     1      -9.765   9.503  65.011  1.00  0.00    -0.248 OA 
HETATM   12  O   UNL     1      -8.323   9.189  67.051  1.00  0.00    -0.118 OA 
BRANCH  10  13
HETATM   13  C   UNL     1     -10.134  11.050  67.116  1.00  0.00    -0.193 A  
HETATM   14  C   UNL     1      -9.263  12.145  67.079  1.00  0.00    -0.202 A  
HETATM   15  C   UNL     1      -9.671  13.365  67.625  1.00  0.00    -0.222 A  
HETATM   16  C   UNL     1     -10.944  13.485  68.188  1.00  0.00    -0.254 A  
HETATM   17  C   UNL     1     -11.816  12.397  68.209  1.00  0.00    -0.364 A  
HETATM   18 CL   UNL     1     -11.439  14.988  68.864  1.00  0.00    -0.312 Cl 
HETATM   19  C   UNL     1     -11.413  11.172  67.671  1.00  0.00    -0.328 A  
ENDBRANCH  10  13
ENDBRANCH   8  10
ENDBRANCH   6   8
ENDBRANCH   4   6
ENDBRANCH   3   4
ENDBRANCH   2   3
TORSDOF 6
ENDMDL
MODEL      298
REMARK 921   NORMALIZED FREE ENERGY PREDICTED BY IDOCK:   -1.87 KCAL/MOL
REMARK 922        TOTAL FREE ENERGY PREDICTED BY IDOCK:   -3.23 KCAL/MOL
REMARK 923 INTER-LIGAND FREE ENERGY PREDICTED BY IDOCK:   -2.68 KCAL/MOL
REMARK 924 INTRA-LIGAND FREE ENERGY PREDICTED BY IDOCK:   -0.55 KCAL/MOL
REMARK 927      BINDING AFFINITY PREDICTED BY RF-SCORE:    0.00 PKD
ROOT
HETATM    1  C   UNL     1      -5.487  13.538  67.581  1.00  0.00    -0.012 C  
HETATM    2  C   UNL     1      -6.511  13.504  68.706  1.00  0.00    -0.098 C  
ENDROOT
BRANCH   2   3
HETATM    3  C   UNL     1      -6.259  12.367  69.694  1.00  0.00    -0.130 C  
BRANCH   3   4
HETATM    4  N   UNL     1      -7.390  11.471  69.829  1.00  0.00    -0.319 N  
HETATM    5  H   UNL     1      -8.338  11.846  69.786  1.00  0.00     0.000 HD 
BRANCH   4   6
HETATM    6  C   UNL     1      -7.205  10.132  70.014  1.00  0.00    -0.161 C  
HETATM    7  O   UNL     1      -6.114   9.591  69.978  1.00  0.00    -0.041 OA 
BRANCH   6   8
HETATM    8  N   UNL     1      -8.377   9.450  70.286  1.00  0.00    -0.178 N  
HETATM    9  H   UNL     1      -8.517   9.090  71.229  1.00  0.00     0.000 HD 
BRANCH   8  10
HETATM   10  S   UNL     1      -9.572   9.186  69.157  1.00  0.00    -0.164 S  
HETATM   11  O   UNL     1      -9.241   9.914  67.954  1.00  0.00    -0.131 OA 
HETATM   12  O   UNL     1     -10.822   9.425  69.850  1.00  0.00    -0.224 OA 
BRANCH  10  13
HETATM   13  C   UNL     1      -9.494   7.439  68.831  1.00  0.00    -0.144 A  
HETATM   14  C   UNL     1      -8.366   6.906  68.195  1.00  0.00    -0.118 A  
HETATM   15  C   UNL     1      -8.317   5.537  67.919  1.00  0.00    -0.099 A  
HETATM   16  C   UNL     1      -9.382   4.713  68.290  1.00  0.00    -0.136 A  
HETATM   17  C   UNL     1     -10.498   5.244  68.937  1.00  0.00    -0.190 A  
HETATM   18 CL   UNL     1      -9.318   3.030  67.942  1.00  0.00    -0.255 Cl 
HETATM   19  C   UNL     1     -10.557   6.613  69.210  1.00  0.00    -0.276 A  
ENDBRANCH  10  13
ENDBRANCH   8  10
ENDBRANCH   6   8
ENDBRANCH   4   6
ENDBRANCH   3   4
ENDBRANCH   2   3
TORSDOF 6
ENDMDL
MODEL      299
REMARK 921   NORMALIZED FREE ENERGY PREDICTED BY IDOCK:   -1.58 KCAL/MOL
REMARK 922        TOTAL FREE ENERGY PREDICTED BY IDOCK:   -2.84 KCAL/MOL
REMARK 923 INTER-LIGAND FREE ENERGY PREDICTED BY IDOCK:   -2.38 KCAL/MOL
REMARK 924 INTRA-LIGAND FREE ENERGY PREDICTED BY IDOCK:   -0.46 KCAL/MOL
REMARK 927      BINDING AFFINITY PREDICTED BY RF-SCORE:    0.00 PKD
ROOT
HETATM    1  C   UNL     1      -6.423   5.836  69.271  1.00  0.00    -0.046 C  
HETATM    2  C   UNL     1      -5.500   4.896  68.509  1.00  0.00    -0.015 C  
ENDROOT
BRANCH   2   3
HETATM    3  C   UNL     1      -6.156   3.551  68.205  1.00  0.00    -0.031 C  
BRANCH   3   4
HETATM    4  N   UNL     1      -6.597   3.432  66.829  1.00  0.00    -0.040 N  
HETATM    5  H   UNL     1      -5.906   3.403  66.080  1.00  0.00     0.000 HD 
BRANCH   4   6
HETATM    6  C   UNL     1      -7.924   3.356  66.523  1.00  0.00    -0.084 C  
HETATM    7  O   UNL     1      -8.415   2.455  65.867  1.00  0.00    -0.090 OA 
BRANCH   6   8
HETATM    8  N   UNL     1      -8.669   4.388  67.065  1.00  0.00    -0.107 N  
HETATM    9  H   UNL     1      -8.570   4.583  68.061  1.00  0.00     0.000 HD 
BRANCH   8  10
HETATM   10  S   UNL     1      -9.719   5.330  66.180  1.00  0.00    -0.148 S  
HETATM   11  O   UNL     1     -10.957   4.605  66.008  1.00  0.00    -0.132 OA 
HETATM   12  O   UNL     1      -8.961   5.788  65.034  1.00  0.00    -0.044 OA 
BRANCH  10  13
HETATM   13  C   UNL     1     -10.007   6.754  67.205  1.00  0.00    -0.157 A  
HETATM   14  C   UNL     1     -10.553   6.586  68.483  1.00  0.00    -0.291 A  
HETATM   15  C   UNL     1     -10.799   7.709  69.277  1.00  0.00    -0.111 A  
HETATM   16  C   UNL     1     -10.487   8.983  68.799  1.00  0.00    -0.206 A  
HETATM   17  C   UNL     1      -9.928   9.148  67.531  1.00  0.00    -0.258 A  
HETATM   18 CL   UNL     1     -10.798  10.362  69.779  1.00  0.00    -0.313 Cl 
HETATM   19  C   UNL     1      -9.685   8.030  66.728  1.00  0.00    -0.305 A  
ENDBRANCH  10  13
ENDBRANCH   8  10
ENDBRANCH   6   8
ENDBRANCH   4   6
ENDBRANCH   3   4
ENDBRANCH   2   3
TORSDOF 6
ENDMDL
MODEL      300
REMARK 921   NORMALIZED FREE ENERGY PREDICTED BY IDOCK:   -1.56 KCAL/MOL
REMARK 922        TOTAL FREE ENERGY PREDICTED BY IDOCK:   -2.81 KCAL/MOL
REMARK 923 INTER-LIGAND FREE ENERGY PREDICTED BY IDOCK:   -2.66 KCAL/MOL
REMARK 924 INTRA-LIGAND FREE ENERGY PREDICTED BY IDOCK:   -0.14 KCAL/MOL
REMARK 927      BINDING AFFINITY PREDICTED BY RF-SCORE:    0.00 PKD
ROOT
HETATM    1  C   UNL     1      -7.234  20.996  66.743  1.00  0.00    -0.188 C  
HETATM    2  C   UNL     1      -6.710  20.397  68.040  1.00  0.00    -0.336 C  
ENDROOT
BRANCH   2   3
HETATM    3  C   UNL     1      -6.512  18.886  67.950  1.00  0.00    -0.216 C  
BRANCH   3   4
HETATM    4  N   UNL     1      -5.672  18.359  69.007  1.00  0.00    -0.205 N  
HETATM    5  H   UNL     1      -4.971  18.960  69.440  1.00  0.00     0.000 HD 
BRANCH   4   6
HETATM    6  C   UNL     1      -5.807  17.069  69.431  1.00  0.00    -0.202 C  
HETATM    7  O   UNL     1      -5.769  16.737  70.602  1.00  0.00    -0.128 OA 
BRANCH   6   8
HETATM    8  N   UNL     1      -6.029  16.175  68.399  1.00  0.00    -0.104 N  
HETATM    9  H   UNL     1      -5.236  15.904  67.817  1.00  0.00     0.000 HD 
BRANCH   8  10
HETATM   10  S   UNL     1      -7.519  15.517  68.055  1.00  0.00    -0.136 S  
HETATM   11  O   UNL     1      -7.969  16.033  66.782  1.00  0.00    -0.225 OA 
HETATM   12  O   UNL     1      -8.313  15.699  69.253  1.00  0.00    -0.229 OA 
BRANCH  10  13
HETATM   13  C   UNL     1      -7.208  13.772  67.908  1.00  0.00    -0.154 A  
HETATM   14  C   UNL     1      -8.097  12.972  67.179  1.00  0.00    -0.114 A  
HETATM   15  C   UNL     1      -7.862  11.598  67.085  1.00  0.00    -0.163 A  
HETATM   16  C   UNL     1      -6.742  11.038  67.703  1.00  0.00    -0.073 A  
HETATM   17  C   UNL     1      -5.850  11.838  68.415  1.00  0.00    -0.049 A  
HETATM   18 CL   UNL     1      -6.463   9.344  67.587  1.00  0.00    -0.062 Cl 
HETATM   19  C   UNL     1      -6.081  13.212  68.520  1.00  0.00    -0.078 A  
ENDBRANCH  10  13
ENDBRANCH   8  10
ENDBRANCH   6   8
ENDBRANCH   4   6
ENDBRANCH   3   4
ENDBRANCH   2   3
TORSDOF 6
ENDMDL
MODEL      301
REMARK 921   NORMALIZED FREE ENERGY PREDICTED BY IDOCK:   -1.09 KCAL/MOL
REMARK 922        TOTAL FREE ENERGY PREDICTED BY IDOCK:   -2.17 KCAL/MOL
REMARK 923 INTER-LIGAND FREE ENERGY PREDICTED BY IDOCK:   -1.93 KCAL/MOL
REMARK 924 INTRA-LIGAND FREE ENERGY PREDICTED BY IDOCK:   -0.24 KCAL/MOL
REMARK 927      BINDING AFFINITY PREDICTED BY RF-SCORE:    0.00 PKD
ROOT
HETATM    1  C   UNL     1      -6.454   5.763  69.128  1.00  0.00    -0.046 C  
HETATM    2  C   UNL     1      -5.156   5.151  68.620  1.00  0.00     0.000 C  
ENDROOT
BRANCH   2   3
HETATM    3  C   UNL     1      -5.262   3.641  68.418  1.00  0.00    -0.012 C  
BRANCH   3   4
HETATM    4  N   UNL     1      -5.984   3.277  67.215  1.00  0.00    -0.023 N  
HETATM    5  H   UNL     1      -5.559   3.446  66.303  1.00  0.00     0.000 HD 
BRANCH   4   6
HETATM    6  C   UNL     1      -7.223   2.713  67.286  1.00  0.00    -0.053 C  
HETATM    7  O   UNL     1      -7.759   2.142  66.352  1.00  0.00    -0.069 OA 
BRANCH   6   8
HETATM    8  N   UNL     1      -7.802   2.820  68.538  1.00  0.00    -0.054 N  
HETATM    9  H   UNL     1      -7.187   2.864  69.350  1.00  0.00     0.000 HD 
BRANCH   8  10
HETATM   10  S   UNL     1      -9.446   2.881  68.791  1.00  0.00    -0.026 S  
HETATM   11  O   UNL     1      -9.891   1.586  69.254  1.00  0.00    -0.001 OA 
HETATM   12  O   UNL     1     -10.004   3.473  67.592  1.00  0.00     0.012 OA 
BRANCH  10  13
HETATM   13  C   UNL     1      -9.649   4.075  70.094  1.00  0.00    -0.200 A  
HETATM   14  C   UNL     1     -10.317   5.276  69.831  1.00  0.00    -0.374 A  
HETATM   15  C   UNL     1     -10.456   6.221  70.850  1.00  0.00    -0.274 A  
HETATM   16  C   UNL     1      -9.941   5.956  72.121  1.00  0.00    -0.170 A  
HETATM   17  C   UNL     1      -9.289   4.752  72.386  1.00  0.00    -0.157 A  
HETATM   18 CL   UNL     1     -10.109   7.127  73.370  1.00  0.00    -0.304 Cl 
HETATM   19  C   UNL     1      -9.141   3.804  71.370  1.00  0.00    -0.177 A  
ENDBRANCH  10  13
ENDBRANCH   8  10
ENDBRANCH   6   8
ENDBRANCH   4   6
ENDBRANCH   3   4
ENDBRANCH   2   3
TORSDOF 6
ENDMDL
MODEL      302
REMARK 921   NORMALIZED FREE ENERGY PREDICTED BY IDOCK:   -1.03 KCAL/MOL
REMARK 922        TOTAL FREE ENERGY PREDICTED BY IDOCK:   -2.10 KCAL/MOL
REMARK 923 INTER-LIGAND FREE ENERGY PREDICTED BY IDOCK:   -1.69 KCAL/MOL
REMARK 924 INTRA-LIGAND FREE ENERGY PREDICTED BY IDOCK:   -0.41 KCAL/MOL
REMARK 927      BINDING AFFINITY PREDICTED BY RF-SCORE:    0.00 PKD
ROOT
HETATM    1  C   UNL     1      -6.421   5.771  69.137  1.00  0.00    -0.046 C  
HETATM    2  C   UNL     1      -5.145   5.166  68.569  1.00  0.00     0.000 C  
ENDROOT
BRANCH   2   3
HETATM    3  C   UNL     1      -5.261   3.661  68.341  1.00  0.00    -0.012 C  
BRANCH   3   4
HETATM    4  N   UNL     1      -5.283   3.299  66.937  1.00  0.00    -0.011 N  
HETATM    5  H   UNL     1      -4.421   3.342  66.393  1.00  0.00     0.000 HD 
BRANCH   4   6
HETATM    6  C   UNL     1      -6.440   2.902  66.335  1.00  0.00    -0.032 C  
HETATM    7  O   UNL     1      -6.480   2.347  65.250  1.00  0.00    -0.023 OA 
BRANCH   6   8
HETATM    8  N   UNL     1      -7.568   3.157  67.094  1.00  0.00    -0.073 N  
HETATM    9  H   UNL     1      -7.482   3.120  68.110  1.00  0.00     0.000 HD 
BRANCH   8  10
HETATM   10  S   UNL     1      -9.055   3.523  66.442  1.00  0.00    -0.168 S  
HETATM   11  O   UNL     1      -9.902   2.356  66.541  1.00  0.00     0.384 OA 
HETATM   12  O   UNL     1      -8.779   4.133  65.158  1.00  0.00    -0.117 OA 
BRANCH  10  13
HETATM   13  C   UNL     1      -9.695   4.808  67.492  1.00  0.00    -0.171 A  
HETATM   14  C   UNL     1      -9.928   6.081  66.960  1.00  0.00    -0.197 A  
HETATM   15  C   UNL     1     -10.409   7.095  67.793  1.00  0.00    -0.257 A  
HETATM   16  C   UNL     1     -10.665   6.828  69.139  1.00  0.00    -0.253 A  
HETATM   17  C   UNL     1     -10.447   5.554  69.664  1.00  0.00    -0.379 A  
HETATM   18 CL   UNL     1     -11.253   8.082  70.161  1.00  0.00    -0.200 Cl 
HETATM   19  C   UNL     1      -9.960   4.537  68.840  1.00  0.00    -0.131 A  
ENDBRANCH  10  13
ENDBRANCH   8  10
ENDBRANCH   6   8
ENDBRANCH   4   6
ENDBRANCH   3   4
ENDBRANCH   2   3
TORSDOF 6
ENDMDL
