MODEL        1
REMARK 921   NORMALIZED FREE ENERGY PREDICTED BY IDOCK:   -6.61 KCAL/MOL
REMARK 922        TOTAL FREE ENERGY PREDICTED BY IDOCK:   -8.03 KCAL/MOL
REMARK 923 INTER-LIGAND FREE ENERGY PREDICTED BY IDOCK:   -7.76 KCAL/MOL
REMARK 924 INTRA-LIGAND FREE ENERGY PREDICTED BY IDOCK:   -0.26 KCAL/MOL
REMARK 927      BINDING AFFINITY PREDICTED BY RF-SCORE:    0.00 PKD
ROOT
HETATM    1  C   UNL     1     -11.917  13.111  63.488  1.00  0.00    -0.513 C  
HETATM    2  N   UNL     1     -12.321  14.173  64.409  1.00  0.00    -0.636 NA 
HETATM    3  C   UNL     1     -12.911  13.621  65.646  1.00  0.00    -0.371 C  
HETATM    4  C   UNL     1     -11.894  13.074  66.679  1.00  0.00    -0.393 C  
HETATM    5  N   UNL     1     -10.801  14.008  67.040  1.00  0.00    -0.288 NA 
HETATM    6  C   UNL     1     -10.185  14.456  65.762  1.00  0.00    -0.337 C  
HETATM    7  C   UNL     1     -11.179  15.049  64.736  1.00  0.00    -0.386 C  
ENDROOT
BRANCH   5   8
HETATM    8  C   UNL     1     -11.271  15.157  67.881  1.00  0.00    -0.329 C  
BRANCH   8   9
HETATM    9  C   UNL     1     -11.838  14.715  69.239  1.00  0.00    -0.357 A  
HETATM   10  C   UNL     1     -12.447  15.661  70.086  1.00  0.00    -0.311 A  
HETATM   11  C   UNL     1     -11.861  13.366  69.641  1.00  0.00    -0.394 A  
HETATM   12  C   UNL     1     -13.073  15.274  71.275  1.00  0.00    -0.540 A  
HETATM   13  C   UNL     1     -13.090  13.932  71.648  1.00  0.00    -0.446 A  
HETATM   14  C   UNL     1     -12.475  12.981  70.838  1.00  0.00    -0.396 A  
ENDBRANCH   8   9
BRANCH   8  15
HETATM   15  C   UNL     1     -10.175  16.233  68.006  1.00  0.00    -0.256 A  
HETATM   16  C   UNL     1      -8.316  18.236  68.666  1.00  0.00    -0.287 A  
HETATM   17 CL   UNL     1      -7.218  19.468  69.152  1.00  0.00    -0.397 Cl 
HETATM   18  C   UNL     1      -9.518  18.583  68.059  1.00  0.00    -0.326 A  
HETATM   19  C   UNL     1      -8.931  15.901  68.577  1.00  0.00    -0.199 A  
HETATM   20  C   UNL     1     -10.441  17.588  67.731  1.00  0.00    -0.381 A  
HETATM   21  C   UNL     1      -8.013  16.900  68.916  1.00  0.00    -0.224 A  
ENDBRANCH   8  15
ENDBRANCH   5   8
TORSDOF 3
ENDMDL
MODEL        2
REMARK 921   NORMALIZED FREE ENERGY PREDICTED BY IDOCK:   -6.56 KCAL/MOL
REMARK 922        TOTAL FREE ENERGY PREDICTED BY IDOCK:   -7.97 KCAL/MOL
REMARK 923 INTER-LIGAND FREE ENERGY PREDICTED BY IDOCK:   -7.97 KCAL/MOL
REMARK 924 INTRA-LIGAND FREE ENERGY PREDICTED BY IDOCK:   -0.00 KCAL/MOL
REMARK 927      BINDING AFFINITY PREDICTED BY RF-SCORE:    0.00 PKD
ROOT
HETATM    1  C   UNL     1     -10.244  14.439  65.388  1.00  0.00    -0.382 C  
HETATM    2  N   UNL     1      -9.853  14.219  66.780  1.00  0.00    -0.261 NA 
HETATM    3  C   UNL     1     -10.505  15.187  67.685  1.00  0.00    -0.253 C  
HETATM    4  C   UNL     1     -11.986  14.884  68.026  1.00  0.00    -0.185 C  
HETATM    5  N   UNL     1     -12.249  13.510  68.516  1.00  0.00    -0.247 NA 
HETATM    6  C   UNL     1     -11.654  12.580  67.519  1.00  0.00    -0.361 C  
HETATM    7  C   UNL     1     -10.162  12.839  67.202  1.00  0.00    -0.233 C  
ENDROOT
BRANCH   5   8
HETATM    8  C   UNL     1     -11.722  13.276  69.901  1.00  0.00    -0.259 C  
BRANCH   8   9
HETATM    9  C   UNL     1     -12.294  14.259  70.935  1.00  0.00    -0.429 A  
HETATM   10  C   UNL     1     -13.689  14.388  71.084  1.00  0.00    -0.297 A  
HETATM   11  C   UNL     1     -11.472  14.979  71.823  1.00  0.00    -0.376 A  
HETATM   12  C   UNL     1     -14.241  15.186  72.091  1.00  0.00    -0.656 A  
HETATM   13  C   UNL     1     -13.406  15.883  72.963  1.00  0.00    -0.663 A  
HETATM   14  C   UNL     1     -12.024  15.789  72.821  1.00  0.00    -0.598 A  
ENDBRANCH   8   9
BRANCH   8  15
HETATM   15  C   UNL     1     -11.891  11.801  70.313  1.00  0.00    -0.382 A  
HETATM   16  C   UNL     1     -11.965   9.227  71.439  1.00  0.00    -0.351 A  
HETATM   17 CL   UNL     1     -11.957   7.681  72.195  1.00  0.00    -0.334 Cl 
HETATM   18  C   UNL     1     -10.979   9.546  70.511  1.00  0.00    -0.348 A  
HETATM   19  C   UNL     1     -12.908  11.440  71.217  1.00  0.00    -0.481 A  
HETATM   20  C   UNL     1     -10.942  10.825  69.953  1.00  0.00    -0.304 A  
HETATM   21  C   UNL     1     -12.937  10.162  71.785  1.00  0.00    -0.567 A  
ENDBRANCH   8  15
ENDBRANCH   5   8
TORSDOF 3
ENDMDL
MODEL        3
REMARK 921   NORMALIZED FREE ENERGY PREDICTED BY IDOCK:   -6.47 KCAL/MOL
REMARK 922        TOTAL FREE ENERGY PREDICTED BY IDOCK:   -7.87 KCAL/MOL
REMARK 923 INTER-LIGAND FREE ENERGY PREDICTED BY IDOCK:   -7.61 KCAL/MOL
REMARK 924 INTRA-LIGAND FREE ENERGY PREDICTED BY IDOCK:   -0.26 KCAL/MOL
REMARK 927      BINDING AFFINITY PREDICTED BY RF-SCORE:    0.00 PKD
ROOT
HETATM    1  C   UNL     1      -9.095  18.511  67.375  1.00  0.00    -0.275 C  
HETATM    2  N   UNL     1     -10.327  17.732  67.252  1.00  0.00    -0.353 NA 
HETATM    3  C   UNL     1     -10.290  16.846  66.070  1.00  0.00    -0.325 C  
HETATM    4  C   UNL     1      -9.456  15.551  66.236  1.00  0.00    -0.323 C  
HETATM    5  N   UNL     1      -9.782  14.744  67.436  1.00  0.00    -0.213 NA 
HETATM    6  C   UNL     1      -9.710  15.665  68.602  1.00  0.00    -0.204 C  
HETATM    7  C   UNL     1     -10.574  16.941  68.474  1.00  0.00    -0.367 C  
ENDROOT
BRANCH   5   8
HETATM    8  C   UNL     1     -11.111  14.057  67.332  1.00  0.00    -0.303 C  
BRANCH   8   9
HETATM    9  C   UNL     1     -11.252  13.211  66.057  1.00  0.00    -0.316 A  
HETATM   10  C   UNL     1     -12.464  13.221  65.339  1.00  0.00    -0.543 A  
HETATM   11  C   UNL     1     -10.175  12.487  65.512  1.00  0.00    -0.295 A  
HETATM   12  C   UNL     1     -12.589  12.555  64.117  1.00  0.00    -0.474 A  
HETATM   13  C   UNL     1     -11.506  11.851  63.593  1.00  0.00    -0.551 A  
HETATM   14  C   UNL     1     -10.304  11.808  64.296  1.00  0.00    -0.359 A  
ENDBRANCH   8   9
BRANCH   8  15
HETATM   15  C   UNL     1     -11.425  13.268  68.618  1.00  0.00    -0.339 A  
HETATM   16  C   UNL     1     -12.383  11.704  70.749  1.00  0.00    -0.358 A  
HETATM   17 CL   UNL     1     -13.046  10.735  72.006  1.00  0.00    -0.569 Cl 
HETATM   18  C   UNL     1     -12.612  13.076  70.742  1.00  0.00    -0.321 A  
HETATM   19  C   UNL     1     -11.164  11.885  68.670  1.00  0.00    -0.311 A  
HETATM   20  C   UNL     1     -12.136  13.853  69.683  1.00  0.00    -0.404 A  
HETATM   21  C   UNL     1     -11.651  11.107  69.725  1.00  0.00    -0.409 A  
ENDBRANCH   8  15
ENDBRANCH   5   8
TORSDOF 3
ENDMDL
MODEL        4
REMARK 921   NORMALIZED FREE ENERGY PREDICTED BY IDOCK:   -6.44 KCAL/MOL
REMARK 922        TOTAL FREE ENERGY PREDICTED BY IDOCK:   -7.83 KCAL/MOL
REMARK 923 INTER-LIGAND FREE ENERGY PREDICTED BY IDOCK:   -7.57 KCAL/MOL
REMARK 924 INTRA-LIGAND FREE ENERGY PREDICTED BY IDOCK:   -0.26 KCAL/MOL
REMARK 927      BINDING AFFINITY PREDICTED BY RF-SCORE:    0.00 PKD
ROOT
HETATM    1  C   UNL     1      -9.070  18.692  67.444  1.00  0.00    -0.279 C  
HETATM    2  N   UNL     1     -10.304  17.913  67.347  1.00  0.00    -0.363 NA 
HETATM    3  C   UNL     1     -10.367  17.155  66.081  1.00  0.00    -0.322 C  
HETATM    4  C   UNL     1      -9.516  15.861  66.039  1.00  0.00    -0.354 C  
HETATM    5  N   UNL     1      -9.732  14.930  67.172  1.00  0.00    -0.224 NA 
HETATM    6  C   UNL     1      -9.562  15.726  68.417  1.00  0.00    -0.200 C  
HETATM    7  C   UNL     1     -10.440  16.997  68.497  1.00  0.00    -0.373 C  
ENDROOT
BRANCH   5   8
HETATM    8  C   UNL     1     -11.062  14.240  67.113  1.00  0.00    -0.311 C  
BRANCH   8   9
HETATM    9  C   UNL     1     -11.287  13.480  65.795  1.00  0.00    -0.318 A  
HETATM   10  C   UNL     1     -10.183  12.981  65.076  1.00  0.00    -0.287 A  
HETATM   11  C   UNL     1     -12.574  13.173  65.315  1.00  0.00    -0.531 A  
HETATM   12  C   UNL     1     -10.357  12.189  63.937  1.00  0.00    -0.441 A  
HETATM   13  C   UNL     1     -11.641  11.892  63.485  1.00  0.00    -0.537 A  
HETATM   14  C   UNL     1     -12.748  12.393  64.167  1.00  0.00    -0.446 A  
ENDBRANCH   8   9
BRANCH   8  15
HETATM   15  C   UNL     1     -11.284  13.363  68.360  1.00  0.00    -0.311 A  
HETATM   16  C   UNL     1     -12.069  11.624  70.424  1.00  0.00    -0.373 A  
HETATM   17 CL   UNL     1     -12.627  10.543  71.642  1.00  0.00    -0.509 Cl 
HETATM   18  C   UNL     1     -12.395  12.974  70.498  1.00  0.00    -0.365 A  
HETATM   19  C   UNL     1     -10.924  12.002  68.330  1.00  0.00    -0.276 A  
HETATM   20  C   UNL     1     -12.005  13.837  69.472  1.00  0.00    -0.399 A  
HETATM   21  C   UNL     1     -11.325  11.136  69.353  1.00  0.00    -0.352 A  
ENDBRANCH   8  15
ENDBRANCH   5   8
TORSDOF 3
ENDMDL
MODEL        5
REMARK 921   NORMALIZED FREE ENERGY PREDICTED BY IDOCK:   -6.39 KCAL/MOL
REMARK 922        TOTAL FREE ENERGY PREDICTED BY IDOCK:   -7.77 KCAL/MOL
REMARK 923 INTER-LIGAND FREE ENERGY PREDICTED BY IDOCK:   -7.40 KCAL/MOL
REMARK 924 INTRA-LIGAND FREE ENERGY PREDICTED BY IDOCK:   -0.38 KCAL/MOL
REMARK 927      BINDING AFFINITY PREDICTED BY RF-SCORE:    0.00 PKD
ROOT
HETATM    1  C   UNL     1     -11.728  12.608  63.432  1.00  0.00    -0.498 C  
HETATM    2  N   UNL     1     -10.944  12.655  64.666  1.00  0.00    -0.298 NA 
HETATM    3  C   UNL     1     -10.074  13.848  64.709  1.00  0.00    -0.215 C  
HETATM    4  C   UNL     1     -10.784  15.175  65.077  1.00  0.00    -0.430 C  
HETATM    5  N   UNL     1     -11.601  15.128  66.313  1.00  0.00    -0.165 NA 
HETATM    6  C   UNL     1     -12.521  13.968  66.171  1.00  0.00    -0.430 C  
HETATM    7  C   UNL     1     -11.825  12.624  65.850  1.00  0.00    -0.444 C  
ENDROOT
BRANCH   5   8
HETATM    8  C   UNL     1     -10.770  15.049  67.558  1.00  0.00    -0.284 C  
BRANCH   8   9
HETATM    9  C   UNL     1      -9.906  16.300  67.785  1.00  0.00    -0.237 A  
HETATM   10  C   UNL     1     -10.407  17.570  67.440  1.00  0.00    -0.351 A  
HETATM   11  C   UNL     1      -8.651  16.242  68.420  1.00  0.00    -0.200 A  
HETATM   12  C   UNL     1      -9.696  18.737  67.738  1.00  0.00    -0.356 A  
HETATM   13  C   UNL     1      -8.459  18.655  68.374  1.00  0.00    -0.366 A  
HETATM   14  C   UNL     1      -7.932  17.408  68.704  1.00  0.00    -0.271 A  
ENDBRANCH   8   9
BRANCH   8  15
HETATM   15  C   UNL     1     -11.637  14.686  68.778  1.00  0.00    -0.346 A  
HETATM   16  C   UNL     1     -12.851  14.129  71.252  1.00  0.00    -0.359 A  
HETATM   17 CL   UNL     1     -13.514  13.803  72.806  1.00  0.00    -0.604 Cl 
HETATM   18  C   UNL     1     -12.281  13.096  70.515  1.00  0.00    -0.405 A  
HETATM   19  C   UNL     1     -12.263  15.707  69.519  1.00  0.00    -0.231 A  
HETATM   20  C   UNL     1     -11.678  13.373  69.287  1.00  0.00    -0.383 A  
HETATM   21  C   UNL     1     -12.857  15.429  70.755  1.00  0.00    -0.524 A  
ENDBRANCH   8  15
ENDBRANCH   5   8
TORSDOF 3
ENDMDL
MODEL        6
REMARK 921   NORMALIZED FREE ENERGY PREDICTED BY IDOCK:   -6.28 KCAL/MOL
REMARK 922        TOTAL FREE ENERGY PREDICTED BY IDOCK:   -7.64 KCAL/MOL
REMARK 923 INTER-LIGAND FREE ENERGY PREDICTED BY IDOCK:   -7.85 KCAL/MOL
REMARK 924 INTRA-LIGAND FREE ENERGY PREDICTED BY IDOCK:    0.21 KCAL/MOL
REMARK 927      BINDING AFFINITY PREDICTED BY RF-SCORE:    0.00 PKD
ROOT
HETATM    1  C   UNL     1     -11.938  13.290  63.581  1.00  0.00    -0.486 C  
HETATM    2  N   UNL     1     -12.412  14.333  64.491  1.00  0.00    -0.660 NA 
HETATM    3  C   UNL     1     -12.753  13.780  65.817  1.00  0.00    -0.446 C  
HETATM    4  C   UNL     1     -11.546  13.484  66.743  1.00  0.00    -0.363 C  
HETATM    5  N   UNL     1     -10.597  14.609  66.917  1.00  0.00    -0.277 NA 
HETATM    6  C   UNL     1     -10.217  15.061  65.552  1.00  0.00    -0.378 C  
HETATM    7  C   UNL     1     -11.408  15.407  64.629  1.00  0.00    -0.355 C  
ENDROOT
BRANCH   5   8
HETATM    8  C   UNL     1     -11.160  15.721  67.751  1.00  0.00    -0.313 C  
BRANCH   8   9
HETATM    9  C   UNL     1     -11.504  15.284  69.183  1.00  0.00    -0.330 A  
HETATM   10  C   UNL     1     -11.218  16.139  70.266  1.00  0.00    -0.389 A  
HETATM   11  C   UNL     1     -12.190  14.086  69.459  1.00  0.00    -0.355 A  
HETATM   12  C   UNL     1     -11.619  15.822  71.567  1.00  0.00    -0.531 A  
HETATM   13  C   UNL     1     -12.305  14.634  71.814  1.00  0.00    -0.415 A  
HETATM   14  C   UNL     1     -12.579  13.762  70.763  1.00  0.00    -0.410 A  
ENDBRANCH   8   9
BRANCH   8  15
HETATM   15  C   UNL     1     -10.249  16.963  67.701  1.00  0.00    -0.306 A  
HETATM   16  C   UNL     1      -8.561  19.146  67.163  1.00  0.00    -0.285 A  
HETATM   17 CL   UNL     1      -7.522  20.453  66.748  1.00  0.00    -0.332 Cl 
HETATM   18  C   UNL     1      -8.016  17.941  67.594  1.00  0.00    -0.219 A  
HETATM   19  C   UNL     1     -10.782  18.206  67.310  1.00  0.00    -0.336 A  
HETATM   20  C   UNL     1      -8.854  16.857  67.861  1.00  0.00    -0.218 A  
HETATM   21  C   UNL     1      -9.940  19.288  67.032  1.00  0.00    -0.447 A  
ENDBRANCH   8  15
ENDBRANCH   5   8
TORSDOF 3
ENDMDL
MODEL        7
REMARK 921   NORMALIZED FREE ENERGY PREDICTED BY IDOCK:   -6.22 KCAL/MOL
REMARK 922        TOTAL FREE ENERGY PREDICTED BY IDOCK:   -7.57 KCAL/MOL
REMARK 923 INTER-LIGAND FREE ENERGY PREDICTED BY IDOCK:   -7.09 KCAL/MOL
REMARK 924 INTRA-LIGAND FREE ENERGY PREDICTED BY IDOCK:   -0.48 KCAL/MOL
REMARK 927      BINDING AFFINITY PREDICTED BY RF-SCORE:    0.00 PKD
ROOT
HETATM    1  C   UNL     1     -12.284  12.271  63.383  1.00  0.00    -0.527 C  
HETATM    2  N   UNL     1     -11.302  12.246  64.467  1.00  0.00    -0.316 NA 
HETATM    3  C   UNL     1     -10.366  13.386  64.376  1.00  0.00    -0.325 C  
HETATM    4  C   UNL     1     -10.923  14.743  64.875  1.00  0.00    -0.412 C  
HETATM    5  N   UNL     1     -11.522  14.715  66.231  1.00  0.00    -0.359 NA 
HETATM    6  C   UNL     1     -12.521  13.613  66.233  1.00  0.00    -0.366 C  
HETATM    7  C   UNL     1     -11.970  12.239  65.783  1.00  0.00    -0.293 C  
ENDROOT
BRANCH   5   8
HETATM    8  C   UNL     1     -10.499  14.561  67.316  1.00  0.00    -0.266 C  
BRANCH   8   9
HETATM    9  C   UNL     1      -9.401  15.636  67.265  1.00  0.00    -0.223 A  
HETATM   10  C   UNL     1      -8.045  15.256  67.296  1.00  0.00    -0.229 A  
HETATM   11  C   UNL     1      -9.695  17.002  67.090  1.00  0.00    -0.259 A  
HETATM   12  C   UNL     1      -7.024  16.198  67.137  1.00  0.00    -0.244 A  
HETATM   13  C   UNL     1      -7.339  17.543  66.957  1.00  0.00    -0.222 A  
HETATM   14  C   UNL     1      -8.673  17.946  66.945  1.00  0.00    -0.258 A  
ENDBRANCH   8   9
BRANCH   8  15
HETATM   15  C   UNL     1     -11.172  14.452  68.698  1.00  0.00    -0.280 A  
HETATM   16  C   UNL     1     -12.774  14.131  70.985  1.00  0.00    -0.362 A  
HETATM   17 CL   UNL     1     -13.826  13.920  72.331  1.00  0.00    -0.645 Cl 
HETATM   18  C   UNL     1     -12.618  15.394  70.423  1.00  0.00    -0.433 A  
HETATM   19  C   UNL     1     -11.306  13.192  69.313  1.00  0.00    -0.312 A  
HETATM   20  C   UNL     1     -11.823  15.552  69.286  1.00  0.00    -0.372 A  
HETATM   21  C   UNL     1     -12.112  13.032  70.444  1.00  0.00    -0.391 A  
ENDBRANCH   8  15
ENDBRANCH   5   8
TORSDOF 3
ENDMDL
MODEL        8
REMARK 921   NORMALIZED FREE ENERGY PREDICTED BY IDOCK:   -6.20 KCAL/MOL
REMARK 922        TOTAL FREE ENERGY PREDICTED BY IDOCK:   -7.54 KCAL/MOL
REMARK 923 INTER-LIGAND FREE ENERGY PREDICTED BY IDOCK:   -6.98 KCAL/MOL
REMARK 924 INTRA-LIGAND FREE ENERGY PREDICTED BY IDOCK:   -0.56 KCAL/MOL
REMARK 927      BINDING AFFINITY PREDICTED BY RF-SCORE:    0.00 PKD
ROOT
HETATM    1  C   UNL     1      -9.729  17.548  68.133  1.00  0.00    -0.302 C  
HETATM    2  N   UNL     1     -10.829  16.613  67.895  1.00  0.00    -0.344 NA 
HETATM    3  C   UNL     1     -10.678  15.919  66.600  1.00  0.00    -0.270 C  
HETATM    4  C   UNL     1      -9.653  14.757  66.586  1.00  0.00    -0.272 C  
HETATM    5  N   UNL     1      -9.831  13.749  67.658  1.00  0.00    -0.229 NA 
HETATM    6  C   UNL     1      -9.880  14.498  68.943  1.00  0.00    -0.191 C  
HETATM    7  C   UNL     1     -10.932  15.631  68.992  1.00  0.00    -0.263 C  
ENDROOT
BRANCH   5   8
HETATM    8  C   UNL     1     -11.041  12.888  67.453  1.00  0.00    -0.273 C  
BRANCH   8   9
HETATM    9  C   UNL     1     -11.193  12.401  66.002  1.00  0.00    -0.374 A  
HETATM   10  C   UNL     1     -12.302  12.812  65.237  1.00  0.00    -0.546 A  
HETATM   11  C   UNL     1     -10.207  11.625  65.362  1.00  0.00    -0.306 A  
HETATM   12  C   UNL     1     -12.412  12.482  63.883  1.00  0.00    -0.540 A  
HETATM   13  C   UNL     1     -11.420  11.720  63.269  1.00  0.00    -0.332 A  
HETATM   14  C   UNL     1     -10.325  11.282  64.011  1.00  0.00    -0.430 A  
ENDBRANCH   8   9
BRANCH   8  15
HETATM   15  C   UNL     1     -11.083  11.741  68.481  1.00  0.00    -0.288 A  
HETATM   16  C   UNL     1     -10.990   9.955  70.650  1.00  0.00    -0.337 A  
HETATM   17 CL   UNL     1     -10.892   8.927  72.026  1.00  0.00    -0.428 Cl 
HETATM   18  C   UNL     1      -9.941   9.987  69.736  1.00  0.00    -0.276 A  
HETATM   19  C   UNL     1     -12.154  11.657  69.391  1.00  0.00    -0.328 A  
HETATM   20  C   UNL     1      -9.988  10.875  68.660  1.00  0.00    -0.196 A  
HETATM   21  C   UNL     1     -12.101  10.776  70.476  1.00  0.00    -0.459 A  
ENDBRANCH   8  15
ENDBRANCH   5   8
TORSDOF 3
ENDMDL
MODEL        9
REMARK 921   NORMALIZED FREE ENERGY PREDICTED BY IDOCK:   -6.17 KCAL/MOL
REMARK 922        TOTAL FREE ENERGY PREDICTED BY IDOCK:   -7.52 KCAL/MOL
REMARK 923 INTER-LIGAND FREE ENERGY PREDICTED BY IDOCK:   -7.03 KCAL/MOL
REMARK 924 INTRA-LIGAND FREE ENERGY PREDICTED BY IDOCK:   -0.48 KCAL/MOL
REMARK 927      BINDING AFFINITY PREDICTED BY RF-SCORE:    0.00 PKD
ROOT
HETATM    1  C   UNL     1      -9.333  19.771  66.161  1.00  0.00    -0.363 C  
HETATM    2  N   UNL     1     -10.549  18.971  66.315  1.00  0.00    -0.432 NA 
HETATM    3  C   UNL     1     -10.413  17.650  65.669  1.00  0.00    -0.144 C  
HETATM    4  C   UNL     1      -9.591  16.604  66.463  1.00  0.00    -0.273 C  
HETATM    5  N   UNL     1     -10.013  16.412  67.871  1.00  0.00    -0.239 NA 
HETATM    6  C   UNL     1     -10.039  17.762  68.495  1.00  0.00    -0.377 C  
HETATM    7  C   UNL     1     -10.893  18.808  67.741  1.00  0.00    -0.269 C  
ENDROOT
BRANCH   5   8
HETATM    8  C   UNL     1     -11.327  15.701  67.994  1.00  0.00    -0.324 C  
BRANCH   8   9
HETATM    9  C   UNL     1     -11.406  14.432  67.130  1.00  0.00    -0.356 A  
HETATM   10  C   UNL     1     -10.568  13.336  67.414  1.00  0.00    -0.250 A  
HETATM   11  C   UNL     1     -12.362  14.277  66.108  1.00  0.00    -0.411 A  
HETATM   12  C   UNL     1     -10.693  12.128  66.722  1.00  0.00    -0.269 A  
HETATM   13  C   UNL     1     -11.652  11.995  65.720  1.00  0.00    -0.353 A  
HETATM   14  C   UNL     1     -12.478  13.073  65.406  1.00  0.00    -0.531 A  
ENDBRANCH   8   9
BRANCH   8  15
HETATM   15  C   UNL     1     -11.680  15.447  69.472  1.00  0.00    -0.364 A  
HETATM   16  C   UNL     1     -12.395  15.434  72.191  1.00  0.00    -0.379 A  
HETATM   17 CL   UNL     1     -12.836  15.518  73.852  1.00  0.00    -0.666 Cl 
HETATM   18  C   UNL     1     -11.052  15.480  71.830  1.00  0.00    -0.237 A  
HETATM   19  C   UNL     1     -13.030  15.352  69.861  1.00  0.00     0.111 A  
HETATM   20  C   UNL     1     -10.698  15.487  70.480  1.00  0.00    -0.309 A  
HETATM   21  C   UNL     1     -13.384  15.357  71.214  1.00  0.00    -0.598 A  
ENDBRANCH   8  15
ENDBRANCH   5   8
TORSDOF 3
ENDMDL
MODEL       10
REMARK 921   NORMALIZED FREE ENERGY PREDICTED BY IDOCK:   -6.16 KCAL/MOL
REMARK 922        TOTAL FREE ENERGY PREDICTED BY IDOCK:   -7.51 KCAL/MOL
REMARK 923 INTER-LIGAND FREE ENERGY PREDICTED BY IDOCK:   -7.24 KCAL/MOL
REMARK 924 INTRA-LIGAND FREE ENERGY PREDICTED BY IDOCK:   -0.26 KCAL/MOL
REMARK 927      BINDING AFFINITY PREDICTED BY RF-SCORE:    0.00 PKD
ROOT
HETATM    1  C   UNL     1      -6.646  16.410  67.840  1.00  0.00    -0.133 C  
HETATM    2  N   UNL     1      -7.312  15.155  68.187  1.00  0.00    -0.105 NA 
HETATM    3  C   UNL     1      -8.010  15.254  69.485  1.00  0.00    -0.199 C  
HETATM    4  C   UNL     1      -9.369  15.997  69.454  1.00  0.00    -0.218 C  
HETATM    5  N   UNL     1     -10.324  15.517  68.427  1.00  0.00    -0.227 NA 
HETATM    6  C   UNL     1      -9.596  15.530  67.129  1.00  0.00    -0.222 C  
HETATM    7  C   UNL     1      -8.259  14.752  67.129  1.00  0.00    -0.211 C  
ENDROOT
BRANCH   5   8
HETATM    8  C   UNL     1     -10.895  14.168  68.747  1.00  0.00    -0.258 C  
BRANCH   8   9
HETATM    9  C   UNL     1     -11.891  14.201  69.917  1.00  0.00    -0.387 A  
HETATM   10  C   UNL     1     -12.553  15.401  70.242  1.00  0.00    -0.377 A  
HETATM   11  C   UNL     1     -12.249  13.041  70.632  1.00  0.00    -0.390 A  
HETATM   12  C   UNL     1     -13.548  15.438  71.224  1.00  0.00    -0.585 A  
HETATM   13  C   UNL     1     -13.891  14.276  71.912  1.00  0.00    -0.545 A  
HETATM   14  C   UNL     1     -13.234  13.082  71.625  1.00  0.00    -0.426 A  
ENDBRANCH   8   9
BRANCH   8  15
HETATM   15  C   UNL     1     -11.469  13.498  67.485  1.00  0.00    -0.361 A  
HETATM   16  C   UNL     1     -12.154  12.452  64.967  1.00  0.00    -0.407 A  
HETATM   17 CL   UNL     1     -12.503  11.858  63.390  1.00  0.00    -0.669 Cl 
HETATM   18  C   UNL     1     -12.715  13.652  65.392  1.00  0.00    -0.500 A  
HETATM   19  C   UNL     1     -10.951  12.261  67.053  1.00  0.00    -0.314 A  
HETATM   20  C   UNL     1     -12.374  14.171  66.642  1.00  0.00    -0.375 A  
HETATM   21  C   UNL     1     -11.284  11.748  65.796  1.00  0.00    -0.337 A  
ENDBRANCH   8  15
ENDBRANCH   5   8
TORSDOF 3
ENDMDL
MODEL       11
REMARK 921   NORMALIZED FREE ENERGY PREDICTED BY IDOCK:   -6.05 KCAL/MOL
REMARK 922        TOTAL FREE ENERGY PREDICTED BY IDOCK:   -7.37 KCAL/MOL
REMARK 923 INTER-LIGAND FREE ENERGY PREDICTED BY IDOCK:   -6.95 KCAL/MOL
REMARK 924 INTRA-LIGAND FREE ENERGY PREDICTED BY IDOCK:   -0.43 KCAL/MOL
REMARK 927      BINDING AFFINITY PREDICTED BY RF-SCORE:    0.00 PKD
ROOT
HETATM    1  C   UNL     1      -6.873  17.891  67.844  1.00  0.00    -0.194 C  
HETATM    2  N   UNL     1      -8.279  17.744  67.467  1.00  0.00    -0.223 NA 
HETATM    3  C   UNL     1      -8.443  16.794  66.349  1.00  0.00    -0.303 C  
HETATM    4  C   UNL     1      -8.362  15.295  66.733  1.00  0.00    -0.223 C  
HETATM    5  N   UNL     1      -9.246  14.885  67.850  1.00  0.00    -0.181 NA 
HETATM    6  C   UNL     1      -8.969  15.816  68.977  1.00  0.00    -0.246 C  
HETATM    7  C   UNL     1      -9.092  17.316  68.623  1.00  0.00    -0.260 C  
ENDROOT
BRANCH   5   8
HETATM    8  C   UNL     1     -10.696  14.866  67.469  1.00  0.00    -0.276 C  
BRANCH   8   9
HETATM    9  C   UNL     1     -10.976  14.026  66.212  1.00  0.00    -0.300 A  
HETATM   10  C   UNL     1     -11.864  14.507  65.230  1.00  0.00    -0.358 A  
HETATM   11  C   UNL     1     -10.300  12.820  65.948  1.00  0.00    -0.298 A  
HETATM   12  C   UNL     1     -12.053  13.824  64.025  1.00  0.00    -0.448 A  
HETATM   13  C   UNL     1     -11.367  12.636  63.783  1.00  0.00    -0.529 A  
HETATM   14  C   UNL     1     -10.500  12.128  64.749  1.00  0.00    -0.332 A  
ENDBRANCH   8   9
BRANCH   8  15
HETATM   15  C   UNL     1     -11.577  14.469  68.668  1.00  0.00    -0.346 A  
HETATM   16  C   UNL     1     -12.825  13.861  71.113  1.00  0.00    -0.351 A  
HETATM   17 CL   UNL     1     -13.511  13.507  72.651  1.00  0.00    -0.642 Cl 
HETATM   18  C   UNL     1     -12.201  12.852  70.386  1.00  0.00    -0.381 A  
HETATM   19  C   UNL     1     -12.256  15.464  69.397  1.00  0.00    -0.250 A  
HETATM   20  C   UNL     1     -11.581  13.154  69.173  1.00  0.00    -0.368 A  
HETATM   21  C   UNL     1     -12.867  15.162  70.619  1.00  0.00    -0.440 A  
ENDBRANCH   8  15
ENDBRANCH   5   8
TORSDOF 3
ENDMDL
MODEL       12
REMARK 921   NORMALIZED FREE ENERGY PREDICTED BY IDOCK:   -6.02 KCAL/MOL
REMARK 922        TOTAL FREE ENERGY PREDICTED BY IDOCK:   -7.34 KCAL/MOL
REMARK 923 INTER-LIGAND FREE ENERGY PREDICTED BY IDOCK:   -7.21 KCAL/MOL
REMARK 924 INTRA-LIGAND FREE ENERGY PREDICTED BY IDOCK:   -0.13 KCAL/MOL
REMARK 927      BINDING AFFINITY PREDICTED BY RF-SCORE:    0.00 PKD
ROOT
HETATM    1  C   UNL     1     -10.740  13.112  64.175  1.00  0.00    -0.374 C  
HETATM    2  N   UNL     1     -10.125  13.218  65.498  1.00  0.00    -0.285 NA 
HETATM    3  C   UNL     1     -10.817  14.217  66.338  1.00  0.00    -0.307 C  
HETATM    4  C   UNL     1     -12.152  13.746  66.967  1.00  0.00    -0.397 C  
HETATM    5  N   UNL     1     -12.080  12.461  67.703  1.00  0.00    -0.449 NA 
HETATM    6  C   UNL     1     -11.464  11.473  66.778  1.00  0.00    -0.157 C  
HETATM    7  C   UNL     1     -10.106  11.907  66.177  1.00  0.00    -0.228 C  
ENDROOT
BRANCH   5   8
HETATM    8  C   UNL     1     -11.332  12.574  68.998  1.00  0.00    -0.290 C  
BRANCH   8   9
HETATM    9  C   UNL     1     -11.789  13.766  69.854  1.00  0.00    -0.394 A  
HETATM   10  C   UNL     1     -12.973  13.673  70.612  1.00  0.00    -0.134 A  
HETATM   11  C   UNL     1     -11.015  14.934  69.991  1.00  0.00    -0.234 A  
HETATM   12  C   UNL     1     -13.356  14.693  71.488  1.00  0.00    -0.438 A  
HETATM   13  C   UNL     1     -12.569  15.836  71.613  1.00  0.00    -0.521 A  
HETATM   14  C   UNL     1     -11.406  15.962  70.856  1.00  0.00    -0.428 A  
ENDBRANCH   8   9
BRANCH   8  15
HETATM   15  C   UNL     1     -11.353  11.238  69.765  1.00  0.00    -0.348 A  
HETATM   16  C   UNL     1     -11.295   9.052  71.532  1.00  0.00    -0.346 A  
HETATM   17 CL   UNL     1     -11.232   7.772  72.679  1.00  0.00    -0.408 Cl 
HETATM   18  C   UNL     1     -10.161   9.375  70.795  1.00  0.00    -0.366 A  
HETATM   19  C   UNL     1     -12.504  10.864  70.486  1.00  0.00    -0.438 A  
HETATM   20  C   UNL     1     -10.190  10.460  69.917  1.00  0.00    -0.190 A  
HETATM   21  C   UNL     1     -12.470   9.783  71.373  1.00  0.00    -0.482 A  
ENDBRANCH   8  15
ENDBRANCH   5   8
TORSDOF 3
ENDMDL
MODEL       13
REMARK 921   NORMALIZED FREE ENERGY PREDICTED BY IDOCK:   -6.00 KCAL/MOL
REMARK 922        TOTAL FREE ENERGY PREDICTED BY IDOCK:   -7.31 KCAL/MOL
REMARK 923 INTER-LIGAND FREE ENERGY PREDICTED BY IDOCK:   -6.70 KCAL/MOL
REMARK 924 INTRA-LIGAND FREE ENERGY PREDICTED BY IDOCK:   -0.61 KCAL/MOL
REMARK 927      BINDING AFFINITY PREDICTED BY RF-SCORE:    0.00 PKD
ROOT
HETATM    1  C   UNL     1     -12.837  14.753  73.221  1.00  0.00    -0.507 C  
HETATM    2  N   UNL     1     -13.032  15.456  71.953  1.00  0.00    -0.382 NA 
HETATM    3  C   UNL     1     -11.827  16.215  71.564  1.00  0.00    -0.463 C  
HETATM    4  C   UNL     1     -10.680  15.372  70.950  1.00  0.00    -0.108 C  
HETATM    5  N   UNL     1     -11.081  14.491  69.828  1.00  0.00    -0.234 NA 
HETATM    6  C   UNL     1     -12.235  13.685  70.308  1.00  0.00    -0.353 C  
HETATM    7  C   UNL     1     -13.409  14.513  70.881  1.00  0.00    -0.265 C  
ENDROOT
BRANCH   5   8
HETATM    8  C   UNL     1     -11.398  15.251  68.575  1.00  0.00    -0.327 C  
BRANCH   8   9
HETATM    9  C   UNL     1     -10.332  16.302  68.224  1.00  0.00    -0.272 A  
HETATM   10  C   UNL     1      -9.055  15.890  67.797  1.00  0.00    -0.196 A  
HETATM   11  C   UNL     1     -10.611  17.682  68.219  1.00  0.00    -0.342 A  
HETATM   12  C   UNL     1      -8.102  16.816  67.361  1.00  0.00    -0.190 A  
HETATM   13  C   UNL     1      -8.403  18.176  67.358  1.00  0.00    -0.239 A  
HETATM   14  C   UNL     1      -9.652  18.610  67.797  1.00  0.00    -0.332 A  
ENDBRANCH   8   9
BRANCH   8  15
HETATM   15  C   UNL     1     -11.706  14.292  67.410  1.00  0.00    -0.422 A  
HETATM   16  C   UNL     1     -11.875  12.690  65.105  1.00  0.00    -0.396 A  
HETATM   17 CL   UNL     1     -11.903  11.752  63.664  1.00  0.00    -0.543 Cl 
HETATM   18  C   UNL     1     -12.531  13.916  65.144  1.00  0.00    -0.479 A  
HETATM   19  C   UNL     1     -11.090  13.026  67.366  1.00  0.00    -0.302 A  
HETATM   20  C   UNL     1     -12.446  14.711  66.288  1.00  0.00     0.016 A  
HETATM   21  C   UNL     1     -11.166  12.235  66.214  1.00  0.00    -0.367 A  
ENDBRANCH   8  15
ENDBRANCH   5   8
TORSDOF 3
ENDMDL
MODEL       14
REMARK 921   NORMALIZED FREE ENERGY PREDICTED BY IDOCK:   -5.84 KCAL/MOL
REMARK 922        TOTAL FREE ENERGY PREDICTED BY IDOCK:   -7.12 KCAL/MOL
REMARK 923 INTER-LIGAND FREE ENERGY PREDICTED BY IDOCK:   -7.18 KCAL/MOL
REMARK 924 INTRA-LIGAND FREE ENERGY PREDICTED BY IDOCK:    0.05 KCAL/MOL
REMARK 927      BINDING AFFINITY PREDICTED BY RF-SCORE:    0.00 PKD
ROOT
HETATM    1  C   UNL     1     -10.205   7.908  68.930  1.00  0.00    -0.205 C  
HETATM    2  N   UNL     1      -9.696   9.279  68.957  1.00  0.00    -0.159 NA 
HETATM    3  C   UNL     1      -9.950   9.975  67.679  1.00  0.00    -0.176 C  
HETATM    4  C   UNL     1     -11.399  10.489  67.479  1.00  0.00    -0.101 C  
HETATM    5  N   UNL     1     -11.933  11.309  68.592  1.00  0.00    -0.537 NA 
HETATM    6  C   UNL     1     -11.737  10.518  69.837  1.00  0.00    -0.294 C  
HETATM    7  C   UNL     1     -10.287  10.037  70.077  1.00  0.00    -0.272 C  
ENDROOT
BRANCH   5   8
HETATM    8  C   UNL     1     -11.300  12.665  68.672  1.00  0.00    -0.291 C  
BRANCH   8   9
HETATM    9  C   UNL     1     -11.195  13.361  67.305  1.00  0.00    -0.319 A  
HETATM   10  C   UNL     1     -12.358  13.600  66.548  1.00  0.00    -0.412 A  
HETATM   11  C   UNL     1      -9.977  13.864  66.810  1.00  0.00    -0.269 A  
HETATM   12  C   UNL     1     -12.312  14.330  65.357  1.00  0.00    -0.421 A  
HETATM   13  C   UNL     1     -11.095  14.824  64.890  1.00  0.00    -0.416 A  
HETATM   14  C   UNL     1      -9.928  14.581  65.610  1.00  0.00    -0.376 A  
ENDBRANCH   8   9
BRANCH   8  15
HETATM   15  C   UNL     1     -11.992  13.535  69.740  1.00  0.00    -0.405 A  
HETATM   16  C   UNL     1     -12.864  15.081  71.919  1.00  0.00    -0.337 A  
HETATM   17 CL   UNL     1     -13.320  16.007  73.296  1.00  0.00    -0.674 Cl 
HETATM   18  C   UNL     1     -13.177  13.727  71.864  1.00  0.00    -0.486 A  
HETATM   19  C   UNL     1     -11.729  14.918  69.793  1.00  0.00    -0.344 A  
HETATM   20  C   UNL     1     -12.744  12.959  70.781  1.00  0.00    -0.229 A  
HETATM   21  C   UNL     1     -12.154  15.683  70.884  1.00  0.00    -0.452 A  
ENDBRANCH   8  15
ENDBRANCH   5   8
TORSDOF 3
ENDMDL
MODEL       15
REMARK 921   NORMALIZED FREE ENERGY PREDICTED BY IDOCK:   -5.81 KCAL/MOL
REMARK 922        TOTAL FREE ENERGY PREDICTED BY IDOCK:   -7.10 KCAL/MOL
REMARK 923 INTER-LIGAND FREE ENERGY PREDICTED BY IDOCK:   -6.59 KCAL/MOL
REMARK 924 INTRA-LIGAND FREE ENERGY PREDICTED BY IDOCK:   -0.51 KCAL/MOL
REMARK 927      BINDING AFFINITY PREDICTED BY RF-SCORE:    0.00 PKD
ROOT
HETATM    1  C   UNL     1      -5.180  14.856  69.445  1.00  0.00    -0.087 C  
HETATM    2  N   UNL     1      -6.573  15.224  69.702  1.00  0.00    -0.162 NA 
HETATM    3  C   UNL     1      -6.854  16.609  69.273  1.00  0.00    -0.232 C  
HETATM    4  C   UNL     1      -7.055  16.805  67.749  1.00  0.00    -0.131 C  
HETATM    5  N   UNL     1      -8.045  15.894  67.125  1.00  0.00    -0.187 NA 
HETATM    6  C   UNL     1      -7.656  14.512  67.513  1.00  0.00    -0.190 C  
HETATM    7  C   UNL     1      -7.497  14.286  69.034  1.00  0.00    -0.102 C  
ENDROOT
BRANCH   5   8
HETATM    8  C   UNL     1      -9.457  16.219  67.508  1.00  0.00    -0.227 C  
BRANCH   8   9
HETATM    9  C   UNL     1      -9.761  17.725  67.463  1.00  0.00    -0.284 A  
HETATM   10  C   UNL     1      -9.896  18.450  68.663  1.00  0.00    -0.403 A  
HETATM   11  C   UNL     1      -9.819  18.444  66.254  1.00  0.00    -0.338 A  
HETATM   12  C   UNL     1     -10.059  19.839  68.657  1.00  0.00    -0.546 A  
HETATM   13  C   UNL     1     -10.105  20.530  67.448  1.00  0.00    -0.441 A  
HETATM   14  C   UNL     1      -9.997  19.832  66.248  1.00  0.00    -0.581 A  
ENDBRANCH   8   9
BRANCH   8  15
HETATM   15  C   UNL     1     -10.458  15.377  66.693  1.00  0.00    -0.293 A  
HETATM   16  C   UNL     1     -12.011  13.488  65.307  1.00  0.00    -0.373 A  
HETATM   17 CL   UNL     1     -12.898  12.270  64.477  1.00  0.00    -0.391 Cl 
HETATM   18  C   UNL     1     -11.069  14.246  64.619  1.00  0.00    -0.371 A  
HETATM   19  C   UNL     1     -11.451  14.633  67.360  1.00  0.00    -0.384 A  
HETATM   20  C   UNL     1     -10.298  15.184  65.308  1.00  0.00    -0.425 A  
HETATM   21  C   UNL     1     -12.215  13.685  66.671  1.00  0.00    -0.437 A  
ENDBRANCH   8  15
ENDBRANCH   5   8
TORSDOF 3
ENDMDL
MODEL       16
REMARK 921   NORMALIZED FREE ENERGY PREDICTED BY IDOCK:   -5.78 KCAL/MOL
REMARK 922        TOTAL FREE ENERGY PREDICTED BY IDOCK:   -7.05 KCAL/MOL
REMARK 923 INTER-LIGAND FREE ENERGY PREDICTED BY IDOCK:   -6.43 KCAL/MOL
REMARK 924 INTRA-LIGAND FREE ENERGY PREDICTED BY IDOCK:   -0.62 KCAL/MOL
REMARK 927      BINDING AFFINITY PREDICTED BY RF-SCORE:    0.00 PKD
ROOT
HETATM    1  C   UNL     1     -11.986  13.197  63.345  1.00  0.00    -0.483 C  
HETATM    2  N   UNL     1     -11.016  13.503  64.397  1.00  0.00    -0.390 NA 
HETATM    3  C   UNL     1     -11.584  14.420  65.406  1.00  0.00    -0.347 C  
HETATM    4  C   UNL     1     -12.536  13.763  66.438  1.00  0.00    -0.355 C  
HETATM    5  N   UNL     1     -11.991  12.567  67.123  1.00  0.00    -0.516 NA 
HETATM    6  C   UNL     1     -11.523  11.642  66.056  1.00  0.00    -0.125 C  
HETATM    7  C   UNL     1     -10.534  12.267  65.044  1.00  0.00    -0.290 C  
ENDROOT
BRANCH   5   8
HETATM    8  C   UNL     1     -10.908  12.901  68.105  1.00  0.00    -0.236 C  
BRANCH   8   9
HETATM    9  C   UNL     1     -11.369  13.878  69.198  1.00  0.00    -0.331 A  
HETATM   10  C   UNL     1     -10.730  15.125  69.339  1.00  0.00    -0.269 A  
HETATM   11  C   UNL     1     -12.483  13.616  70.019  1.00  0.00    -0.267 A  
HETATM   12  C   UNL     1     -11.197  16.081  70.246  1.00  0.00    -0.397 A  
HETATM   13  C   UNL     1     -12.306  15.803  71.042  1.00  0.00    -0.465 A  
HETATM   14  C   UNL     1     -12.941  14.567  70.937  1.00  0.00    -0.424 A  
ENDBRANCH   8   9
BRANCH   8  15
HETATM   15  C   UNL     1     -10.264  11.621  68.671  1.00  0.00    -0.215 A  
HETATM   16  C   UNL     1      -9.029   9.530  70.087  1.00  0.00    -0.236 A  
HETATM   17 CL   UNL     1      -8.257   8.308  71.021  1.00  0.00    -0.107 Cl 
HETATM   18  C   UNL     1      -8.271  10.333  69.241  1.00  0.00    -0.164 A  
HETATM   19  C   UNL     1     -11.020  10.765  69.496  1.00  0.00    -0.317 A  
HETATM   20  C   UNL     1      -8.885  11.372  68.539  1.00  0.00    -0.151 A  
HETATM   21  C   UNL     1     -10.401   9.732  70.208  1.00  0.00    -0.348 A  
ENDBRANCH   8  15
ENDBRANCH   5   8
TORSDOF 3
ENDMDL
MODEL       17
REMARK 921   NORMALIZED FREE ENERGY PREDICTED BY IDOCK:   -5.72 KCAL/MOL
REMARK 922        TOTAL FREE ENERGY PREDICTED BY IDOCK:   -6.98 KCAL/MOL
REMARK 923 INTER-LIGAND FREE ENERGY PREDICTED BY IDOCK:   -6.44 KCAL/MOL
REMARK 924 INTRA-LIGAND FREE ENERGY PREDICTED BY IDOCK:   -0.55 KCAL/MOL
REMARK 927      BINDING AFFINITY PREDICTED BY RF-SCORE:    0.00 PKD
ROOT
HETATM    1  C   UNL     1      -8.422  19.545  66.632  1.00  0.00    -0.327 C  
HETATM    2  N   UNL     1      -8.287  18.299  67.388  1.00  0.00    -0.242 NA 
HETATM    3  C   UNL     1      -9.168  18.288  68.573  1.00  0.00    -0.318 C  
HETATM    4  C   UNL     1     -10.661  17.984  68.288  1.00  0.00    -0.285 C  
HETATM    5  N   UNL     1     -10.911  16.762  67.486  1.00  0.00    -0.270 NA 
HETATM    6  C   UNL     1     -10.070  16.875  66.263  1.00  0.00    -0.324 C  
HETATM    7  C   UNL     1      -8.569  17.131  66.531  1.00  0.00    -0.271 C  
ENDROOT
BRANCH   5   8
HETATM    8  C   UNL     1     -10.641  15.500  68.249  1.00  0.00    -0.255 C  
BRANCH   8   9
HETATM    9  C   UNL     1     -11.459  15.396  69.546  1.00  0.00    -0.330 A  
HETATM   10  C   UNL     1     -10.817  15.523  70.793  1.00  0.00    -0.298 A  
HETATM   11  C   UNL     1     -12.862  15.271  69.542  1.00  0.00     0.250 A  
HETATM   12  C   UNL     1     -11.546  15.547  71.986  1.00  0.00    -0.542 A  
HETATM   13  C   UNL     1     -12.934  15.430  71.957  1.00  0.00    -0.485 A  
HETATM   14  C   UNL     1     -13.590  15.280  70.737  1.00  0.00    -0.313 A  
ENDBRANCH   8   9
BRANCH   8  15
HETATM   15  C   UNL     1     -10.790  14.264  67.341  1.00  0.00    -0.288 A  
HETATM   16  C   UNL     1     -10.850  12.262  65.368  1.00  0.00    -0.286 A  
HETATM   17 CL   UNL     1     -10.853  11.097  64.102  1.00  0.00    -0.422 Cl 
HETATM   18  C   UNL     1     -11.955  13.088  65.549  1.00  0.00    -0.470 A  
HETATM   19  C   UNL     1      -9.702  13.386  67.173  1.00  0.00    -0.237 A  
HETATM   20  C   UNL     1     -11.925  14.082  66.528  1.00  0.00    -0.470 A  
HETATM   21  C   UNL     1      -9.730  12.398  66.184  1.00  0.00    -0.254 A  
ENDBRANCH   8  15
ENDBRANCH   5   8
TORSDOF 3
ENDMDL
MODEL       18
REMARK 921   NORMALIZED FREE ENERGY PREDICTED BY IDOCK:   -5.68 KCAL/MOL
REMARK 922        TOTAL FREE ENERGY PREDICTED BY IDOCK:   -6.94 KCAL/MOL
REMARK 923 INTER-LIGAND FREE ENERGY PREDICTED BY IDOCK:   -6.56 KCAL/MOL
REMARK 924 INTRA-LIGAND FREE ENERGY PREDICTED BY IDOCK:   -0.38 KCAL/MOL
REMARK 927      BINDING AFFINITY PREDICTED BY RF-SCORE:    0.00 PKD
ROOT
HETATM    1  C   UNL     1     -12.265  13.442  63.397  1.00  0.00    -0.349 C  
HETATM    2  N   UNL     1     -12.676  12.803  64.648  1.00  0.00    -0.707 NA 
HETATM    3  C   UNL     1     -11.646  11.866  65.140  1.00  0.00    -0.215 C  
HETATM    4  C   UNL     1     -10.431  12.523  65.843  1.00  0.00    -0.265 C  
HETATM    5  N   UNL     1     -10.773  13.478  66.924  1.00  0.00    -0.273 NA 
HETATM    6  C   UNL     1     -11.737  14.451  66.344  1.00  0.00    -0.386 C  
HETATM    7  C   UNL     1     -12.980  13.814  65.680  1.00  0.00    -0.295 C  
ENDROOT
BRANCH   5   8
HETATM    8  C   UNL     1     -11.312  12.803  68.150  1.00  0.00    -0.288 C  
BRANCH   8   9
HETATM    9  C   UNL     1     -10.426  11.644  68.636  1.00  0.00    -0.234 A  
HETATM   10  C   UNL     1      -9.025  11.734  68.514  1.00  0.00    -0.132 A  
HETATM   11  C   UNL     1     -10.955  10.518  69.295  1.00  0.00    -0.291 A  
HETATM   12  C   UNL     1      -8.186  10.751  69.048  1.00  0.00    -0.139 A  
HETATM   13  C   UNL     1      -8.733   9.650  69.704  1.00  0.00    -0.206 A  
HETATM   14  C   UNL     1     -10.116   9.528  69.817  1.00  0.00    -0.238 A  
ENDBRANCH   8   9
BRANCH   8  15
HETATM   15  C   UNL     1     -11.621  13.830  69.255  1.00  0.00    -0.362 A  
HETATM   16  C   UNL     1     -11.887  15.469  71.524  1.00  0.00    -0.406 A  
HETATM   17 CL   UNL     1     -11.995  16.415  72.957  1.00  0.00    -0.612 Cl 
HETATM   18  C   UNL     1     -12.791  14.434  71.310  1.00  0.00    -0.412 A  
HETATM   19  C   UNL     1     -10.747  14.914  69.467  1.00  0.00    -0.256 A  
HETATM   20  C   UNL     1     -12.659  13.620  70.183  1.00  0.00    -0.215 A  
HETATM   21  C   UNL     1     -10.874  15.721  70.602  1.00  0.00    -0.281 A  
ENDBRANCH   8  15
ENDBRANCH   5   8
TORSDOF 3
ENDMDL
MODEL       19
REMARK 921   NORMALIZED FREE ENERGY PREDICTED BY IDOCK:   -5.66 KCAL/MOL
REMARK 922        TOTAL FREE ENERGY PREDICTED BY IDOCK:   -6.91 KCAL/MOL
REMARK 923 INTER-LIGAND FREE ENERGY PREDICTED BY IDOCK:   -6.39 KCAL/MOL
REMARK 924 INTRA-LIGAND FREE ENERGY PREDICTED BY IDOCK:   -0.53 KCAL/MOL
REMARK 927      BINDING AFFINITY PREDICTED BY RF-SCORE:    0.00 PKD
ROOT
HETATM    1  C   UNL     1     -12.834  15.226  70.848  1.00  0.00    -0.449 C  
HETATM    2  N   UNL     1     -11.666  14.468  70.402  1.00  0.00    -0.290 NA 
HETATM    3  C   UNL     1     -12.017  13.512  69.332  1.00  0.00    -0.330 C  
HETATM    4  C   UNL     1     -12.190  14.128  67.921  1.00  0.00    -0.155 C  
HETATM    5  N   UNL     1     -11.062  14.974  67.463  1.00  0.00    -0.308 NA 
HETATM    6  C   UNL     1     -10.816  15.975  68.535  1.00  0.00    -0.304 C  
HETATM    7  C   UNL     1     -10.594  15.374  69.943  1.00  0.00    -0.303 C  
ENDROOT
BRANCH   5   8
HETATM    8  C   UNL     1      -9.835  14.178  67.133  1.00  0.00    -0.253 C  
BRANCH   8   9
HETATM    9  C   UNL     1     -10.063  13.164  66.000  1.00  0.00    -0.286 A  
HETATM   10  C   UNL     1      -9.820  11.795  66.224  1.00  0.00    -0.245 A  
HETATM   11  C   UNL     1     -10.603  13.538  64.754  1.00  0.00    -0.429 A  
HETATM   12  C   UNL     1     -10.124  10.835  65.254  1.00  0.00    -0.353 A  
HETATM   13  C   UNL     1     -10.666  11.228  64.032  1.00  0.00    -0.444 A  
HETATM   14  C   UNL     1     -10.894  12.579  63.778  1.00  0.00    -0.489 A  
ENDBRANCH   8   9
BRANCH   8  15
HETATM   15  C   UNL     1      -8.629  15.103  66.881  1.00  0.00    -0.289 A  
HETATM   16  C   UNL     1      -6.544  16.987  66.817  1.00  0.00    -0.227 A  
HETATM   17 CL   UNL     1      -5.303  18.179  66.852  1.00  0.00    -0.147 Cl 
HETATM   18  C   UNL     1      -7.729  17.245  66.136  1.00  0.00    -0.317 A  
HETATM   19  C   UNL     1      -7.402  14.842  67.523  1.00  0.00    -0.225 A  
HETATM   20  C   UNL     1      -8.764  16.309  66.169  1.00  0.00    -0.353 A  
HETATM   21  C   UNL     1      -6.370  15.786  67.499  1.00  0.00    -0.192 A  
ENDBRANCH   8  15
ENDBRANCH   5   8
TORSDOF 3
ENDMDL
MODEL       20
REMARK 921   NORMALIZED FREE ENERGY PREDICTED BY IDOCK:   -5.65 KCAL/MOL
REMARK 922        TOTAL FREE ENERGY PREDICTED BY IDOCK:   -6.91 KCAL/MOL
REMARK 923 INTER-LIGAND FREE ENERGY PREDICTED BY IDOCK:   -7.77 KCAL/MOL
REMARK 924 INTRA-LIGAND FREE ENERGY PREDICTED BY IDOCK:    0.86 KCAL/MOL
REMARK 927      BINDING AFFINITY PREDICTED BY RF-SCORE:    0.00 PKD
ROOT
HETATM    1  C   UNL     1     -10.908  13.660  64.869  1.00  0.00    -0.375 C  
HETATM    2  N   UNL     1     -11.915  13.174  65.813  1.00  0.00    -0.400 NA 
HETATM    3  C   UNL     1     -11.487  11.917  66.460  1.00  0.00    -0.314 C  
HETATM    4  C   UNL     1     -10.454  12.078  67.604  1.00  0.00    -0.205 C  
HETATM    5  N   UNL     1     -10.824  13.060  68.650  1.00  0.00    -0.254 NA 
HETATM    6  C   UNL     1     -11.152  14.329  67.948  1.00  0.00    -0.278 C  
HETATM    7  C   UNL     1     -12.217  14.196  66.834  1.00  0.00    -0.365 C  
ENDROOT
BRANCH   5   8
HETATM    8  C   UNL     1     -11.946  12.584  69.524  1.00  0.00    -0.266 C  
BRANCH   8   9
HETATM    9  C   UNL     1     -11.722  11.166  70.071  1.00  0.00    -0.438 A  
HETATM   10  C   UNL     1     -10.443  10.581  70.002  1.00  0.00    -0.163 A  
HETATM   11  C   UNL     1     -12.735  10.448  70.736  1.00  0.00    -0.460 A  
HETATM   12  C   UNL     1     -10.178   9.341  70.592  1.00  0.00    -0.335 A  
HETATM   13  C   UNL     1     -11.195   8.653  71.251  1.00  0.00    -0.338 A  
HETATM   14  C   UNL     1     -12.474   9.200  71.313  1.00  0.00    -0.366 A  
ENDBRANCH   8   9
BRANCH   8  15
HETATM   15  C   UNL     1     -12.261  13.613  70.627  1.00  0.00    -0.434 A  
HETATM   16  C   UNL     1     -12.526  15.264  72.886  1.00  0.00    -0.406 A  
HETATM   17 CL   UNL     1     -12.632  16.219  74.314  1.00  0.00    -0.615 Cl 
HETATM   18  C   UNL     1     -13.410  14.208  72.695  1.00  0.00    -0.638 A  
HETATM   19  C   UNL     1     -11.407  14.718  70.816  1.00  0.00    -0.217 A  
HETATM   20  C   UNL     1     -13.278  13.388  71.573  1.00  0.00    -0.395 A  
HETATM   21  C   UNL     1     -11.534  15.531  71.946  1.00  0.00    -0.506 A  
ENDBRANCH   8  15
ENDBRANCH   5   8
TORSDOF 3
ENDMDL
MODEL       21
REMARK 921   NORMALIZED FREE ENERGY PREDICTED BY IDOCK:   -5.62 KCAL/MOL
REMARK 922        TOTAL FREE ENERGY PREDICTED BY IDOCK:   -6.86 KCAL/MOL
REMARK 923 INTER-LIGAND FREE ENERGY PREDICTED BY IDOCK:   -6.22 KCAL/MOL
REMARK 924 INTRA-LIGAND FREE ENERGY PREDICTED BY IDOCK:   -0.64 KCAL/MOL
REMARK 927      BINDING AFFINITY PREDICTED BY RF-SCORE:    0.00 PKD
ROOT
HETATM    1  C   UNL     1     -12.149  13.043  63.465  1.00  0.00    -0.542 C  
HETATM    2  N   UNL     1     -11.541  12.490  64.676  1.00  0.00    -0.328 NA 
HETATM    3  C   UNL     1     -10.184  13.029  64.895  1.00  0.00    -0.284 C  
HETATM    4  C   UNL     1     -10.125  14.460  65.487  1.00  0.00    -0.356 C  
HETATM    5  N   UNL     1     -10.931  14.666  66.714  1.00  0.00    -0.316 NA 
HETATM    6  C   UNL     1     -12.307  14.194  66.403  1.00  0.00    -0.400 C  
HETATM    7  C   UNL     1     -12.389  12.750  65.856  1.00  0.00    -0.252 C  
ENDROOT
BRANCH   5   8
HETATM    8  C   UNL     1     -10.350  13.980  67.914  1.00  0.00    -0.239 C  
BRANCH   8   9
HETATM    9  C   UNL     1      -8.885  14.366  68.175  1.00  0.00    -0.180 A  
HETATM   10  C   UNL     1      -8.518  15.724  68.243  1.00  0.00    -0.164 A  
HETATM   11  C   UNL     1      -7.892  13.406  68.448  1.00  0.00    -0.138 A  
HETATM   12  C   UNL     1      -7.220  16.109  68.591  1.00  0.00    -0.160 A  
HETATM   13  C   UNL     1      -6.256  15.141  68.866  1.00  0.00    -0.093 A  
HETATM   14  C   UNL     1      -6.589  13.790  68.782  1.00  0.00    -0.100 A  
ENDBRANCH   8   9
BRANCH   8  15
HETATM   15  C   UNL     1     -11.252  14.169  69.148  1.00  0.00    -0.307 A  
HETATM   16  C   UNL     1     -12.510  14.523  71.637  1.00  0.00    -0.352 A  
HETATM   17 CL   UNL     1     -13.198  14.732  73.200  1.00  0.00    -0.580 Cl 
HETATM   18  C   UNL     1     -12.366  13.243  71.112  1.00  0.00    -0.323 A  
HETATM   19  C   UNL     1     -11.452  15.459  69.677  1.00  0.00    -0.331 A  
HETATM   20  C   UNL     1     -11.741  13.068  69.876  1.00  0.00    -0.326 A  
HETATM   21  C   UNL     1     -12.068  15.632  70.921  1.00  0.00    -0.452 A  
ENDBRANCH   8  15
ENDBRANCH   5   8
TORSDOF 3
ENDMDL
MODEL       22
REMARK 921   NORMALIZED FREE ENERGY PREDICTED BY IDOCK:   -5.61 KCAL/MOL
REMARK 922        TOTAL FREE ENERGY PREDICTED BY IDOCK:   -6.85 KCAL/MOL
REMARK 923 INTER-LIGAND FREE ENERGY PREDICTED BY IDOCK:   -6.48 KCAL/MOL
REMARK 924 INTRA-LIGAND FREE ENERGY PREDICTED BY IDOCK:   -0.38 KCAL/MOL
REMARK 927      BINDING AFFINITY PREDICTED BY RF-SCORE:    0.00 PKD
ROOT
HETATM    1  C   UNL     1      -8.897   7.463  69.295  1.00  0.00    -0.136 C  
HETATM    2  N   UNL     1      -8.540   8.757  68.713  1.00  0.00    -0.135 NA 
HETATM    3  C   UNL     1      -9.146   8.935  67.378  1.00  0.00    -0.132 C  
HETATM    4  C   UNL     1     -10.648   9.318  67.375  1.00  0.00    -0.255 C  
HETATM    5  N   UNL     1     -11.001  10.479  68.226  1.00  0.00    -0.243 NA 
HETATM    6  C   UNL     1     -10.449  10.200  69.579  1.00  0.00    -0.241 C  
HETATM    7  C   UNL     1      -8.940   9.863  69.606  1.00  0.00    -0.216 C  
ENDROOT
BRANCH   5   8
HETATM    8  C   UNL     1     -10.511  11.781  67.667  1.00  0.00    -0.197 C  
BRANCH   8   9
HETATM    9  C   UNL     1     -10.863  11.968  66.182  1.00  0.00    -0.325 A  
HETATM   10  C   UNL     1     -12.140  12.437  65.818  1.00  0.00    -0.381 A  
HETATM   11  C   UNL     1      -9.918  11.777  65.156  1.00  0.00    -0.285 A  
HETATM   12  C   UNL     1     -12.455  12.726  64.487  1.00  0.00    -0.501 A  
HETATM   13  C   UNL     1     -11.500  12.538  63.489  1.00  0.00    -0.570 A  
HETATM   14  C   UNL     1     -10.237  12.052  63.822  1.00  0.00    -0.447 A  
ENDBRANCH   8   9
BRANCH   8  15
HETATM   15  C   UNL     1     -10.961  12.963  68.547  1.00  0.00    -0.288 A  
HETATM   16  C   UNL     1     -11.472  14.967  70.451  1.00  0.00    -0.280 A  
HETATM   17 CL   UNL     1     -11.727  16.151  71.673  1.00  0.00    -0.560 Cl 
HETATM   18  C   UNL     1     -12.267  13.827  70.418  1.00  0.00    -0.433 A  
HETATM   19  C   UNL     1     -10.199  14.148  68.568  1.00  0.00    -0.247 A  
HETATM   20  C   UNL     1     -12.013  12.832  69.472  1.00  0.00    -0.338 A  
HETATM   21  C   UNL     1     -10.447  15.138  69.523  1.00  0.00    -0.268 A  
ENDBRANCH   8  15
ENDBRANCH   5   8
TORSDOF 3
ENDMDL
MODEL       23
REMARK 921   NORMALIZED FREE ENERGY PREDICTED BY IDOCK:   -5.58 KCAL/MOL
REMARK 922        TOTAL FREE ENERGY PREDICTED BY IDOCK:   -6.82 KCAL/MOL
REMARK 923 INTER-LIGAND FREE ENERGY PREDICTED BY IDOCK:   -6.24 KCAL/MOL
REMARK 924 INTRA-LIGAND FREE ENERGY PREDICTED BY IDOCK:   -0.59 KCAL/MOL
REMARK 927      BINDING AFFINITY PREDICTED BY RF-SCORE:    0.00 PKD
ROOT
HETATM    1  C   UNL     1      -6.154  11.166  68.575  1.00  0.00    -0.042 C  
HETATM    2  N   UNL     1      -6.542  11.913  67.379  1.00  0.00    -0.110 NA 
HETATM    3  C   UNL     1      -7.745  11.336  66.747  1.00  0.00    -0.155 C  
HETATM    4  C   UNL     1      -9.090  11.685  67.433  1.00  0.00    -0.169 C  
HETATM    5  N   UNL     1      -9.315  13.131  67.672  1.00  0.00    -0.197 NA 
HETATM    6  C   UNL     1      -8.116  13.636  68.394  1.00  0.00    -0.146 C  
HETATM    7  C   UNL     1      -6.768  13.337  67.698  1.00  0.00    -0.166 C  
ENDROOT
BRANCH   5   8
HETATM    8  C   UNL     1      -9.585  13.894  66.410  1.00  0.00    -0.277 C  
BRANCH   8   9
HETATM    9  C   UNL     1     -10.578  13.181  65.478  1.00  0.00    -0.299 A  
HETATM   10  C   UNL     1     -11.946  13.140  65.809  1.00  0.00    -0.473 A  
HETATM   11  C   UNL     1     -10.188  12.640  64.237  1.00  0.00    -0.358 A  
HETATM   12  C   UNL     1     -12.890  12.601  64.930  1.00  0.00    -0.312 A  
HETATM   13  C   UNL     1     -12.482  12.078  63.705  1.00  0.00    -0.637 A  
HETATM   14  C   UNL     1     -11.131  12.087  63.364  1.00  0.00    -0.476 A  
ENDBRANCH   8   9
BRANCH   8  15
HETATM   15  C   UNL     1      -9.987  15.349  66.721  1.00  0.00    -0.256 A  
HETATM   16  C   UNL     1     -10.325  18.025  67.513  1.00  0.00    -0.385 A  
HETATM   17 CL   UNL     1     -10.456  19.655  68.047  1.00  0.00    -0.561 Cl 
HETATM   18  C   UNL     1     -10.900  17.004  68.264  1.00  0.00    -0.341 A  
HETATM   19  C   UNL     1      -9.455  16.401  65.950  1.00  0.00    -0.289 A  
HETATM   20  C   UNL     1     -10.732  15.675  67.870  1.00  0.00    -0.294 A  
HETATM   21  C   UNL     1      -9.615  17.730  66.352  1.00  0.00    -0.293 A  
ENDBRANCH   8  15
ENDBRANCH   5   8
TORSDOF 3
ENDMDL
MODEL       24
REMARK 921   NORMALIZED FREE ENERGY PREDICTED BY IDOCK:   -5.58 KCAL/MOL
REMARK 922        TOTAL FREE ENERGY PREDICTED BY IDOCK:   -6.82 KCAL/MOL
REMARK 923 INTER-LIGAND FREE ENERGY PREDICTED BY IDOCK:   -6.57 KCAL/MOL
REMARK 924 INTRA-LIGAND FREE ENERGY PREDICTED BY IDOCK:   -0.25 KCAL/MOL
REMARK 927      BINDING AFFINITY PREDICTED BY RF-SCORE:    0.00 PKD
ROOT
HETATM    1  C   UNL     1     -10.729  11.482  63.607  1.00  0.00    -0.424 C  
HETATM    2  N   UNL     1      -9.941  11.862  64.780  1.00  0.00    -0.252 NA 
HETATM    3  C   UNL     1     -10.484  13.073  65.426  1.00  0.00    -0.296 C  
HETATM    4  C   UNL     1     -11.738  12.850  66.308  1.00  0.00    -0.399 C  
HETATM    5  N   UNL     1     -11.610  11.777  67.322  1.00  0.00    -0.531 NA 
HETATM    6  C   UNL     1     -11.154  10.559  66.599  1.00  0.00     0.064 C  
HETATM    7  C   UNL     1      -9.875  10.752  65.751  1.00  0.00    -0.240 C  
ENDROOT
BRANCH   5   8
HETATM    8  C   UNL     1     -10.695  12.147  68.450  1.00  0.00    -0.228 C  
BRANCH   8   9
HETATM    9  C   UNL     1     -10.798  13.629  68.846  1.00  0.00    -0.264 A  
HETATM   10  C   UNL     1      -9.684  14.476  68.689  1.00  0.00    -0.221 A  
HETATM   11  C   UNL     1     -12.007  14.209  69.278  1.00  0.00    -0.382 A  
HETATM   12  C   UNL     1      -9.778  15.850  68.931  1.00  0.00    -0.230 A  
HETATM   13  C   UNL     1     -10.986  16.403  69.350  1.00  0.00    -0.325 A  
HETATM   14  C   UNL     1     -12.096  15.581  69.534  1.00  0.00    -0.326 A  
ENDBRANCH   8   9
BRANCH   8  15
HETATM   15  C   UNL     1     -10.875  11.190  69.644  1.00  0.00    -0.200 A  
HETATM   16  C   UNL     1     -11.361   9.147  71.513  1.00  0.00    -0.368 A  
HETATM   17 CL   UNL     1     -11.696   7.848  72.590  1.00  0.00    -0.420 Cl 
HETATM   18  C   UNL     1     -12.315  10.139  71.310  1.00  0.00    -0.501 A  
HETATM   19  C   UNL     1      -9.903  10.203  69.901  1.00  0.00    -0.223 A  
HETATM   20  C   UNL     1     -12.073  11.153  70.381  1.00  0.00    -0.475 A  
HETATM   21  C   UNL     1     -10.152   9.181  70.823  1.00  0.00    -0.333 A  
ENDBRANCH   8  15
ENDBRANCH   5   8
TORSDOF 3
ENDMDL
MODEL       25
REMARK 921   NORMALIZED FREE ENERGY PREDICTED BY IDOCK:   -5.54 KCAL/MOL
REMARK 922        TOTAL FREE ENERGY PREDICTED BY IDOCK:   -6.77 KCAL/MOL
REMARK 923 INTER-LIGAND FREE ENERGY PREDICTED BY IDOCK:   -6.72 KCAL/MOL
REMARK 924 INTRA-LIGAND FREE ENERGY PREDICTED BY IDOCK:   -0.05 KCAL/MOL
REMARK 927      BINDING AFFINITY PREDICTED BY RF-SCORE:    0.00 PKD
ROOT
HETATM    1  C   UNL     1      -8.728   7.374  68.371  1.00  0.00    -0.123 C  
HETATM    2  N   UNL     1     -10.000   8.067  68.163  1.00  0.00    -0.178 NA 
HETATM    3  C   UNL     1     -10.550   8.581  69.433  1.00  0.00    -0.195 C  
HETATM    4  C   UNL     1      -9.896   9.883  69.962  1.00  0.00    -0.243 C  
HETATM    5  N   UNL     1      -9.825  10.992  68.981  1.00  0.00    -0.184 NA 
HETATM    6  C   UNL     1      -9.177  10.441  67.760  1.00  0.00    -0.142 C  
HETATM    7  C   UNL     1      -9.846   9.168  67.191  1.00  0.00    -0.195 C  
ENDROOT
BRANCH   5   8
HETATM    8  C   UNL     1     -11.164  11.601  68.691  1.00  0.00    -0.250 C  
BRANCH   8   9
HETATM    9  C   UNL     1     -11.857  12.153  69.947  1.00  0.00    -0.392 A  
HETATM   10  C   UNL     1     -11.954  13.545  70.140  1.00  0.00    -0.399 A  
HETATM   11  C   UNL     1     -12.495  11.317  70.884  1.00  0.00    -0.493 A  
HETATM   12  C   UNL     1     -12.676  14.081  71.211  1.00  0.00    -0.439 A  
HETATM   13  C   UNL     1     -13.305  13.234  72.120  1.00  0.00    -0.618 A  
HETATM   14  C   UNL     1     -13.204  11.853  71.964  1.00  0.00    -0.461 A  
ENDBRANCH   8   9
BRANCH   8  15
HETATM   15  C   UNL     1     -11.066  12.634  67.553  1.00  0.00    -0.313 A  
HETATM   16  C   UNL     1     -11.130  14.790  65.750  1.00  0.00    -0.338 A  
HETATM   17 CL   UNL     1     -11.225  16.153  64.704  1.00  0.00    -0.411 Cl 
HETATM   18  C   UNL     1     -12.067  13.768  65.638  1.00  0.00    -0.444 A  
HETATM   19  C   UNL     1     -10.099  13.655  67.617  1.00  0.00    -0.242 A  
HETATM   20  C   UNL     1     -12.035  12.697  66.533  1.00  0.00    -0.401 A  
HETATM   21  C   UNL     1     -10.139  14.733  66.726  1.00  0.00    -0.258 A  
ENDBRANCH   8  15
ENDBRANCH   5   8
TORSDOF 3
ENDMDL
MODEL       26
REMARK 921   NORMALIZED FREE ENERGY PREDICTED BY IDOCK:   -5.44 KCAL/MOL
REMARK 922        TOTAL FREE ENERGY PREDICTED BY IDOCK:   -6.66 KCAL/MOL
REMARK 923 INTER-LIGAND FREE ENERGY PREDICTED BY IDOCK:   -6.59 KCAL/MOL
REMARK 924 INTRA-LIGAND FREE ENERGY PREDICTED BY IDOCK:   -0.06 KCAL/MOL
REMARK 927      BINDING AFFINITY PREDICTED BY RF-SCORE:    0.00 PKD
ROOT
HETATM    1  C   UNL     1      -8.500   8.177  66.841  1.00  0.00    -0.119 C  
HETATM    2  N   UNL     1      -9.859   8.718  66.882  1.00  0.00    -0.206 NA 
HETATM    3  C   UNL     1     -10.348   8.848  68.269  1.00  0.00    -0.206 C  
HETATM    4  C   UNL     1      -9.809  10.071  69.052  1.00  0.00    -0.199 C  
HETATM    5  N   UNL     1      -9.959  11.374  68.362  1.00  0.00    -0.198 NA 
HETATM    6  C   UNL     1      -9.365  11.211  67.008  1.00  0.00    -0.170 C  
HETATM    7  C   UNL     1      -9.926  10.023  66.194  1.00  0.00    -0.256 C  
ENDROOT
BRANCH   5   8
HETATM    8  C   UNL     1     -11.382  11.843  68.308  1.00  0.00    -0.277 C  
BRANCH   8   9
HETATM    9  C   UNL     1     -11.988  12.087  69.700  1.00  0.00    -0.360 A  
HETATM   10  C   UNL     1     -12.129  13.402  70.183  1.00  0.00    -0.415 A  
HETATM   11  C   UNL     1     -12.505  11.041  70.488  1.00  0.00    -0.432 A  
HETATM   12  C   UNL     1     -12.779  13.665  71.393  1.00  0.00    -0.437 A  
HETATM   13  C   UNL     1     -13.290  12.614  72.152  1.00  0.00    -0.570 A  
HETATM   14  C   UNL     1     -13.142  11.303  71.706  1.00  0.00    -0.527 A  
ENDBRANCH   8   9
BRANCH   8  15
HETATM   15  C   UNL     1     -11.529  13.054  67.366  1.00  0.00    -0.380 A  
HETATM   16  C   UNL     1     -11.501  15.042  65.379  1.00  0.00    -0.287 A  
HETATM   17 CL   UNL     1     -11.419  16.211  64.120  1.00  0.00    -0.214 Cl 
HETATM   18  C   UNL     1     -10.671  15.163  66.488  1.00  0.00    -0.310 A  
HETATM   19  C   UNL     1     -12.395  12.977  66.259  1.00  0.00    -0.278 A  
HETATM   20  C   UNL     1     -10.685  14.175  67.475  1.00  0.00    -0.270 A  
HETATM   21  C   UNL     1     -12.372  13.961  65.265  1.00  0.00    -0.485 A  
ENDBRANCH   8  15
ENDBRANCH   5   8
TORSDOF 3
ENDMDL
MODEL       27
REMARK 921   NORMALIZED FREE ENERGY PREDICTED BY IDOCK:   -5.42 KCAL/MOL
REMARK 922        TOTAL FREE ENERGY PREDICTED BY IDOCK:   -6.63 KCAL/MOL
REMARK 923 INTER-LIGAND FREE ENERGY PREDICTED BY IDOCK:   -6.40 KCAL/MOL
REMARK 924 INTRA-LIGAND FREE ENERGY PREDICTED BY IDOCK:   -0.23 KCAL/MOL
REMARK 927      BINDING AFFINITY PREDICTED BY RF-SCORE:    0.00 PKD
ROOT
HETATM    1  C   UNL     1      -7.616   8.289  65.852  1.00  0.00    -0.082 C  
HETATM    2  N   UNL     1      -7.659   9.702  66.226  1.00  0.00    -0.100 NA 
HETATM    3  C   UNL     1      -8.556  10.470  65.339  1.00  0.00    -0.180 C  
HETATM    4  C   UNL     1     -10.070  10.318  65.634  1.00  0.00    -0.271 C  
HETATM    5  N   UNL     1     -10.461  10.558  67.044  1.00  0.00    -0.237 NA 
HETATM    6  C   UNL     1      -9.591   9.690  67.881  1.00  0.00    -0.139 C  
HETATM    7  C   UNL     1      -8.074   9.862  67.633  1.00  0.00    -0.110 C  
ENDROOT
BRANCH   5   8
HETATM    8  C   UNL     1     -10.373  12.002  67.435  1.00  0.00    -0.207 C  
BRANCH   8   9
HETATM    9  C   UNL     1     -10.885  12.954  66.342  1.00  0.00    -0.293 A  
HETATM   10  C   UNL     1     -12.233  12.896  65.937  1.00  0.00    -0.469 A  
HETATM   11  C   UNL     1     -10.077  13.962  65.783  1.00  0.00    -0.336 A  
HETATM   12  C   UNL     1     -12.758  13.820  65.029  1.00  0.00    -0.379 A  
HETATM   13  C   UNL     1     -11.941  14.815  64.496  1.00  0.00    -0.451 A  
HETATM   14  C   UNL     1     -10.598  14.878  64.864  1.00  0.00    -0.417 A  
ENDBRANCH   8   9
BRANCH   8  15
HETATM   15  C   UNL     1     -11.037  12.244  68.804  1.00  0.00    -0.295 A  
HETATM   16  C   UNL     1     -12.640  12.691  71.070  1.00  0.00    -0.262 A  
HETATM   17 CL   UNL     1     -13.693  12.973  72.401  1.00  0.00    -0.658 Cl 
HETATM   18  C   UNL     1     -12.037  13.768  70.427  1.00  0.00    -0.421 A  
HETATM   19  C   UNL     1     -11.618  11.166  69.500  1.00  0.00    -0.392 A  
HETATM   20  C   UNL     1     -11.241  13.545  69.302  1.00  0.00    -0.285 A  
HETATM   21  C   UNL     1     -12.425  11.392  70.620  1.00  0.00    -0.419 A  
ENDBRANCH   8  15
ENDBRANCH   5   8
TORSDOF 3
ENDMDL
MODEL       28
REMARK 921   NORMALIZED FREE ENERGY PREDICTED BY IDOCK:   -5.40 KCAL/MOL
REMARK 922        TOTAL FREE ENERGY PREDICTED BY IDOCK:   -6.61 KCAL/MOL
REMARK 923 INTER-LIGAND FREE ENERGY PREDICTED BY IDOCK:   -6.83 KCAL/MOL
REMARK 924 INTRA-LIGAND FREE ENERGY PREDICTED BY IDOCK:    0.22 KCAL/MOL
REMARK 927      BINDING AFFINITY PREDICTED BY RF-SCORE:    0.00 PKD
ROOT
HETATM    1  C   UNL     1     -10.481  18.273  67.787  1.00  0.00    -0.410 C  
HETATM    2  N   UNL     1      -9.860  17.058  68.314  1.00  0.00    -0.266 NA 
HETATM    3  C   UNL     1     -10.572  16.562  69.509  1.00  0.00    -0.321 C  
HETATM    4  C   UNL     1     -11.890  15.797  69.228  1.00  0.00    -0.346 C  
HETATM    5  N   UNL     1     -11.780  14.699  68.239  1.00  0.00    -0.328 NA 
HETATM    6  C   UNL     1     -11.144  15.279  67.025  1.00  0.00    -0.305 C  
HETATM    7  C   UNL     1      -9.803  16.005  67.281  1.00  0.00    -0.236 C  
ENDROOT
BRANCH   5   8
HETATM    8  C   UNL     1     -11.027  13.514  68.766  1.00  0.00    -0.261 C  
BRANCH   8   9
HETATM    9  C   UNL     1     -11.836  12.691  69.781  1.00  0.00    -0.379 A  
HETATM   10  C   UNL     1     -11.813  11.284  69.721  1.00  0.00    -0.437 A  
HETATM   11  C   UNL     1     -12.536  13.289  70.847  1.00  0.00    -0.424 A  
HETATM   12  C   UNL     1     -12.444  10.505  70.696  1.00  0.00    -0.456 A  
HETATM   13  C   UNL     1     -13.124  11.120  71.745  1.00  0.00    -0.536 A  
HETATM   14  C   UNL     1     -13.179  12.510  71.814  1.00  0.00    -0.444 A  
ENDBRANCH   8   9
BRANCH   8  15
HETATM   15  C   UNL     1     -10.460  12.663  67.614  1.00  0.00    -0.226 A  
HETATM   16  C   UNL     1      -9.556  10.750  65.762  1.00  0.00    -0.208 A  
HETATM   17 CL   UNL     1      -9.024   9.515  64.689  1.00  0.00    -0.261 Cl 
HETATM   18  C   UNL     1      -8.666  11.298  66.680  1.00  0.00    -0.174 A  
HETATM   19  C   UNL     1     -11.332  12.131  66.644  1.00  0.00    -0.405 A  
HETATM   20  C   UNL     1      -9.115  12.247  67.600  1.00  0.00    -0.184 A  
HETATM   21  C   UNL     1     -10.883  11.171  65.731  1.00  0.00    -0.218 A  
ENDBRANCH   8  15
ENDBRANCH   5   8
TORSDOF 3
ENDMDL
MODEL       29
REMARK 921   NORMALIZED FREE ENERGY PREDICTED BY IDOCK:   -5.40 KCAL/MOL
REMARK 922        TOTAL FREE ENERGY PREDICTED BY IDOCK:   -6.60 KCAL/MOL
REMARK 923 INTER-LIGAND FREE ENERGY PREDICTED BY IDOCK:   -6.44 KCAL/MOL
REMARK 924 INTRA-LIGAND FREE ENERGY PREDICTED BY IDOCK:   -0.16 KCAL/MOL
REMARK 927      BINDING AFFINITY PREDICTED BY RF-SCORE:    0.00 PKD
ROOT
HETATM    1  C   UNL     1     -12.773  11.932  63.640  1.00  0.00    -0.390 C  
HETATM    2  N   UNL     1     -12.460  12.275  65.028  1.00  0.00    -0.537 NA 
HETATM    3  C   UNL     1     -11.024  12.089  65.320  1.00  0.00    -0.308 C  
HETATM    4  C   UNL     1     -10.090  13.214  64.803  1.00  0.00    -0.223 C  
HETATM    5  N   UNL     1     -10.490  14.588  65.190  1.00  0.00    -0.391 NA 
HETATM    6  C   UNL     1     -11.913  14.748  64.786  1.00  0.00    -0.404 C  
HETATM    7  C   UNL     1     -12.867  13.660  65.332  1.00  0.00    -0.389 C  
ENDROOT
BRANCH   5   8
HETATM    8  C   UNL     1     -10.275  14.868  66.647  1.00  0.00    -0.261 C  
BRANCH   8   9
HETATM    9  C   UNL     1      -8.953  14.293  67.182  1.00  0.00    -0.237 A  
HETATM   10  C   UNL     1      -7.776  15.062  67.116  1.00  0.00    -0.202 A  
HETATM   11  C   UNL     1      -8.885  13.046  67.832  1.00  0.00    -0.193 A  
HETATM   12  C   UNL     1      -6.584  14.616  67.694  1.00  0.00    -0.177 A  
HETATM   13  C   UNL     1      -6.542  13.382  68.339  1.00  0.00    -0.094 A  
HETATM   14  C   UNL     1      -7.689  12.592  68.398  1.00  0.00    -0.133 A  
ENDBRANCH   8   9
BRANCH   8  15
HETATM   15  C   UNL     1     -10.446  16.369  66.951  1.00  0.00    -0.289 A  
HETATM   16  C   UNL     1     -10.302  19.125  67.488  1.00  0.00    -0.432 A  
HETATM   17 CL   UNL     1     -10.123  20.804  67.819  1.00  0.00    -0.318 Cl 
HETATM   18  C   UNL     1     -10.404  18.221  68.540  1.00  0.00    -0.341 A  
HETATM   19  C   UNL     1     -10.391  17.306  65.900  1.00  0.00    -0.287 A  
HETATM   20  C   UNL     1     -10.475  16.852  68.273  1.00  0.00    -0.352 A  
HETATM   21  C   UNL     1     -10.308  18.675  66.170  1.00  0.00    -0.481 A  
ENDBRANCH   8  15
ENDBRANCH   5   8
TORSDOF 3
ENDMDL
MODEL       30
REMARK 921   NORMALIZED FREE ENERGY PREDICTED BY IDOCK:   -5.37 KCAL/MOL
REMARK 922        TOTAL FREE ENERGY PREDICTED BY IDOCK:   -6.57 KCAL/MOL
REMARK 923 INTER-LIGAND FREE ENERGY PREDICTED BY IDOCK:   -5.97 KCAL/MOL
REMARK 924 INTRA-LIGAND FREE ENERGY PREDICTED BY IDOCK:   -0.60 KCAL/MOL
REMARK 927      BINDING AFFINITY PREDICTED BY RF-SCORE:    0.00 PKD
ROOT
HETATM    1  C   UNL     1     -13.444  14.793  72.983  1.00  0.00    -0.370 C  
HETATM    2  N   UNL     1     -12.236  14.320  72.306  1.00  0.00    -0.125 NA 
HETATM    3  C   UNL     1     -12.560  13.624  71.044  1.00  0.00    -0.363 C  
HETATM    4  C   UNL     1     -12.902  14.546  69.847  1.00  0.00     0.056 C  
HETATM    5  N   UNL     1     -11.909  15.612  69.571  1.00  0.00    -0.367 NA 
HETATM    6  C   UNL     1     -11.695  16.337  70.852  1.00  0.00    -0.234 C  
HETATM    7  C   UNL     1     -11.306  15.437  72.049  1.00  0.00    -0.379 C  
ENDROOT
BRANCH   5   8
HETATM    8  C   UNL     1     -10.630  15.081  68.995  1.00  0.00    -0.245 C  
BRANCH   8   9
HETATM    9  C   UNL     1     -10.857  14.053  67.875  1.00  0.00    -0.255 A  
HETATM   10  C   UNL     1     -10.399  12.731  68.033  1.00  0.00    -0.232 A  
HETATM   11  C   UNL     1     -11.599  14.355  66.717  1.00  0.00    -0.399 A  
HETATM   12  C   UNL     1     -10.687  11.744  67.085  1.00  0.00    -0.283 A  
HETATM   13  C   UNL     1     -11.430  12.065  65.951  1.00  0.00    -0.392 A  
HETATM   14  C   UNL     1     -11.875  13.371  65.761  1.00  0.00    -0.412 A  
ENDBRANCH   8   9
BRANCH   8  15
HETATM   15  C   UNL     1      -9.694  16.231  68.578  1.00  0.00    -0.224 A  
HETATM   16  C   UNL     1      -8.082  18.507  68.226  1.00  0.00    -0.303 A  
HETATM   17 CL   UNL     1      -7.126  19.931  68.090  1.00  0.00    -0.319 Cl 
HETATM   18  C   UNL     1      -9.381  18.497  67.729  1.00  0.00    -0.308 A  
HETATM   19  C   UNL     1      -8.360  16.246  69.031  1.00  0.00    -0.239 A  
HETATM   20  C   UNL     1     -10.181  17.367  67.904  1.00  0.00    -0.348 A  
HETATM   21  C   UNL     1      -7.564  17.383  68.865  1.00  0.00    -0.224 A  
ENDBRANCH   8  15
ENDBRANCH   5   8
TORSDOF 3
ENDMDL
MODEL       31
REMARK 921   NORMALIZED FREE ENERGY PREDICTED BY IDOCK:   -5.36 KCAL/MOL
REMARK 922        TOTAL FREE ENERGY PREDICTED BY IDOCK:   -6.56 KCAL/MOL
REMARK 923 INTER-LIGAND FREE ENERGY PREDICTED BY IDOCK:   -6.17 KCAL/MOL
REMARK 924 INTRA-LIGAND FREE ENERGY PREDICTED BY IDOCK:   -0.39 KCAL/MOL
REMARK 927      BINDING AFFINITY PREDICTED BY RF-SCORE:    0.00 PKD
ROOT
HETATM    1  C   UNL     1      -9.260   5.560  66.515  1.00  0.00    -0.141 C  
HETATM    2  N   UNL     1     -10.336   5.445  67.499  1.00  0.00    -0.200 NA 
HETATM    3  C   UNL     1      -9.810   5.122  68.841  1.00  0.00    -0.172 C  
HETATM    4  C   UNL     1      -9.193   6.314  69.616  1.00  0.00    -0.141 C  
HETATM    5  N   UNL     1     -10.056   7.516  69.710  1.00  0.00    -0.191 NA 
HETATM    6  C   UNL     1     -10.477   7.848  68.323  1.00  0.00    -0.164 C  
HETATM    7  C   UNL     1     -11.138   6.683  67.550  1.00  0.00    -0.292 C  
ENDROOT
BRANCH   5   8
HETATM    8  C   UNL     1     -11.224   7.323  70.630  1.00  0.00    -0.274 C  
BRANCH   8   9
HETATM    9  C   UNL     1     -10.849   6.601  71.934  1.00  0.00    -0.267 A  
HETATM   10  C   UNL     1     -10.058   7.257  72.897  1.00  0.00    -0.272 A  
HETATM   11  C   UNL     1     -11.348   5.324  72.257  1.00  0.00    -0.135 A  
HETATM   12  C   UNL     1      -9.794   6.674  74.140  1.00  0.00    -0.335 A  
HETATM   13  C   UNL     1     -10.306   5.413  74.440  1.00  0.00    -0.293 A  
HETATM   14  C   UNL     1     -11.072   4.734  73.495  1.00  0.00    -0.412 A  
ENDBRANCH   8   9
BRANCH   8  15
HETATM   15  C   UNL     1     -11.963   8.654  70.869  1.00  0.00    -0.220 A  
HETATM   16  C   UNL     1     -13.032  11.130  71.661  1.00  0.00    -0.443 A  
HETATM   17 CL   UNL     1     -13.632  12.643  72.219  1.00  0.00    -0.611 Cl 
HETATM   18  C   UNL     1     -13.642   9.950  72.075  1.00  0.00    -0.399 A  
HETATM   19  C   UNL     1     -11.391   9.861  70.423  1.00  0.00    -0.376 A  
HETATM   20  C   UNL     1     -13.110   8.721  71.682  1.00  0.00    -0.394 A  
HETATM   21  C   UNL     1     -11.917  11.092  70.827  1.00  0.00    -0.436 A  
ENDBRANCH   8  15
ENDBRANCH   5   8
TORSDOF 3
ENDMDL
MODEL       32
REMARK 921   NORMALIZED FREE ENERGY PREDICTED BY IDOCK:   -5.36 KCAL/MOL
REMARK 922        TOTAL FREE ENERGY PREDICTED BY IDOCK:   -6.56 KCAL/MOL
REMARK 923 INTER-LIGAND FREE ENERGY PREDICTED BY IDOCK:   -6.43 KCAL/MOL
REMARK 924 INTRA-LIGAND FREE ENERGY PREDICTED BY IDOCK:   -0.13 KCAL/MOL
REMARK 927      BINDING AFFINITY PREDICTED BY RF-SCORE:    0.00 PKD
ROOT
HETATM    1  C   UNL     1     -11.074  15.035  64.724  1.00  0.00    -0.376 C  
HETATM    2  N   UNL     1     -10.466  14.719  66.016  1.00  0.00    -0.290 NA 
HETATM    3  C   UNL     1     -11.456  14.787  67.111  1.00  0.00    -0.364 C  
HETATM    4  C   UNL     1     -12.403  13.566  67.227  1.00  0.00    -0.133 C  
HETATM    5  N   UNL     1     -11.725  12.248  67.269  1.00  0.00    -0.488 NA 
HETATM    6  C   UNL     1     -10.815  12.199  66.094  1.00  0.00    -0.282 C  
HETATM    7  C   UNL     1      -9.830  13.387  65.987  1.00  0.00    -0.263 C  
ENDROOT
BRANCH   5   8
HETATM    8  C   UNL     1     -11.003  12.006  68.561  1.00  0.00    -0.240 C  
BRANCH   8   9
HETATM    9  C   UNL     1     -11.901  12.191  69.795  1.00  0.00    -0.397 A  
HETATM   10  C   UNL     1     -12.407  11.063  70.470  1.00  0.00    -0.462 A  
HETATM   11  C   UNL     1     -12.167  13.458  70.348  1.00  0.00    -0.415 A  
HETATM   12  C   UNL     1     -13.130  11.193  71.659  1.00  0.00    -0.529 A  
HETATM   13  C   UNL     1     -13.374  12.457  72.191  1.00  0.00    -0.508 A  
HETATM   14  C   UNL     1     -12.903  13.589  71.530  1.00  0.00    -0.440 A  
ENDBRANCH   8   9
BRANCH   8  15
HETATM   15  C   UNL     1     -10.278  10.646  68.541  1.00  0.00    -0.191 A  
HETATM   16  C   UNL     1      -8.757   8.320  68.123  1.00  0.00    -0.136 A  
HETATM   17 CL   UNL     1      -7.798   6.931  67.788  1.00  0.00    -0.111 Cl 
HETATM   18  C   UNL     1     -10.072   8.376  67.672  1.00  0.00    -0.268 A  
HETATM   19  C   UNL     1      -8.961  10.549  69.031  1.00  0.00    -0.183 A  
HETATM   20  C   UNL     1     -10.827   9.532  67.879  1.00  0.00    -0.240 A  
HETATM   21  C   UNL     1      -8.203   9.395  68.812  1.00  0.00    -0.108 A  
ENDBRANCH   8  15
ENDBRANCH   5   8
TORSDOF 3
ENDMDL
MODEL       33
REMARK 921   NORMALIZED FREE ENERGY PREDICTED BY IDOCK:   -5.33 KCAL/MOL
REMARK 922        TOTAL FREE ENERGY PREDICTED BY IDOCK:   -6.53 KCAL/MOL
REMARK 923 INTER-LIGAND FREE ENERGY PREDICTED BY IDOCK:   -6.71 KCAL/MOL
REMARK 924 INTRA-LIGAND FREE ENERGY PREDICTED BY IDOCK:    0.18 KCAL/MOL
REMARK 927      BINDING AFFINITY PREDICTED BY RF-SCORE:    0.00 PKD
ROOT
HETATM    1  C   UNL     1      -8.560   9.069  66.065  1.00  0.00    -0.142 C  
HETATM    2  N   UNL     1      -9.829   8.769  66.730  1.00  0.00    -0.223 NA 
HETATM    3  C   UNL     1      -9.614   8.105  68.031  1.00  0.00    -0.156 C  
HETATM    4  C   UNL     1      -9.196   9.040  69.193  1.00  0.00    -0.144 C  
HETATM    5  N   UNL     1     -10.067  10.223  69.392  1.00  0.00    -0.224 NA 
HETATM    6  C   UNL     1     -10.169  10.903  68.073  1.00  0.00    -0.178 C  
HETATM    7  C   UNL     1     -10.631   9.995  66.909  1.00  0.00    -0.192 C  
ENDROOT
BRANCH   5   8
HETATM    8  C   UNL     1     -11.410   9.868  69.956  1.00  0.00    -0.249 C  
BRANCH   8   9
HETATM    9  C   UNL     1     -11.341   8.759  71.019  1.00  0.00    -0.332 A  
HETATM   10  C   UNL     1     -12.100   7.584  70.856  1.00  0.00    -0.254 A  
HETATM   11  C   UNL     1     -10.466   8.826  72.120  1.00  0.00    -0.384 A  
HETATM   12  C   UNL     1     -11.974   6.510  71.742  1.00  0.00    -0.394 A  
HETATM   13  C   UNL     1     -11.096   6.596  72.820  1.00  0.00    -0.283 A  
HETATM   14  C   UNL     1     -10.351   7.757  73.015  1.00  0.00    -0.410 A  
ENDBRANCH   8   9
BRANCH   8  15
HETATM   15  C   UNL     1     -12.153  11.126  70.446  1.00  0.00    -0.475 A  
HETATM   16  C   UNL     1     -13.145  13.486  71.607  1.00  0.00    -0.374 A  
HETATM   17 CL   UNL     1     -13.680  14.930  72.374  1.00  0.00    -0.526 Cl 
HETATM   18  C   UNL     1     -13.529  12.250  72.118  1.00  0.00    -0.431 A  
HETATM   19  C   UNL     1     -11.816  12.387  69.915  1.00  0.00    -0.376 A  
HETATM   20  C   UNL     1     -13.035  11.079  71.541  1.00  0.00    -0.553 A  
HETATM   21  C   UNL     1     -12.302  13.560  70.502  1.00  0.00    -0.412 A  
ENDBRANCH   8  15
ENDBRANCH   5   8
TORSDOF 3
ENDMDL
MODEL       34
REMARK 921   NORMALIZED FREE ENERGY PREDICTED BY IDOCK:   -5.31 KCAL/MOL
REMARK 922        TOTAL FREE ENERGY PREDICTED BY IDOCK:   -6.50 KCAL/MOL
REMARK 923 INTER-LIGAND FREE ENERGY PREDICTED BY IDOCK:   -6.44 KCAL/MOL
REMARK 924 INTRA-LIGAND FREE ENERGY PREDICTED BY IDOCK:   -0.06 KCAL/MOL
REMARK 927      BINDING AFFINITY PREDICTED BY RF-SCORE:    0.00 PKD
ROOT
HETATM    1  C   UNL     1      -8.884  18.813  66.458  1.00  0.00    -0.312 C  
HETATM    2  N   UNL     1      -8.596  17.811  67.485  1.00  0.00    -0.226 NA 
HETATM    3  C   UNL     1      -9.596  17.848  68.572  1.00  0.00    -0.326 C  
HETATM    4  C   UNL     1     -10.951  17.169  68.251  1.00  0.00    -0.229 C  
HETATM    5  N   UNL     1     -10.851  15.784  67.732  1.00  0.00    -0.310 NA 
HETATM    6  C   UNL     1      -9.907  15.826  66.583  1.00  0.00    -0.252 C  
HETATM    7  C   UNL     1      -8.532  16.459  66.898  1.00  0.00    -0.221 C  
ENDROOT
BRANCH   5   8
HETATM    8  C   UNL     1     -10.430  14.798  68.781  1.00  0.00    -0.250 C  
BRANCH   8   9
HETATM    9  C   UNL     1     -11.285  14.875  70.056  1.00  0.00    -0.293 A  
HETATM   10  C   UNL     1     -12.293  13.918  70.283  1.00  0.00    -0.413 A  
HETATM   11  C   UNL     1     -11.039  15.819  71.071  1.00  0.00    -0.327 A  
HETATM   12  C   UNL     1     -13.011  13.891  71.482  1.00  0.00    -0.436 A  
HETATM   13  C   UNL     1     -12.744  14.831  72.475  1.00  0.00    -0.455 A  
HETATM   14  C   UNL     1     -11.767  15.801  72.265  1.00  0.00    -0.580 A  
ENDBRANCH   8   9
BRANCH   8  15
HETATM   15  C   UNL     1     -10.344  13.375  68.197  1.00  0.00    -0.249 A  
HETATM   16  C   UNL     1     -10.390  10.647  67.519  1.00  0.00    -0.214 A  
HETATM   17 CL   UNL     1     -10.451   8.960  67.187  1.00  0.00    -0.353 Cl 
HETATM   18  C   UNL     1      -9.249  11.197  68.094  1.00  0.00    -0.166 A  
HETATM   19  C   UNL     1     -11.471  12.807  67.570  1.00  0.00    -0.390 A  
HETATM   20  C   UNL     1      -9.227  12.551  68.431  1.00  0.00    -0.139 A  
HETATM   21  C   UNL     1     -11.496  11.448  67.244  1.00  0.00    -0.301 A  
ENDBRANCH   8  15
ENDBRANCH   5   8
TORSDOF 3
ENDMDL
MODEL       35
REMARK 921   NORMALIZED FREE ENERGY PREDICTED BY IDOCK:   -5.30 KCAL/MOL
REMARK 922        TOTAL FREE ENERGY PREDICTED BY IDOCK:   -6.50 KCAL/MOL
REMARK 923 INTER-LIGAND FREE ENERGY PREDICTED BY IDOCK:   -6.47 KCAL/MOL
REMARK 924 INTRA-LIGAND FREE ENERGY PREDICTED BY IDOCK:   -0.02 KCAL/MOL
REMARK 927      BINDING AFFINITY PREDICTED BY RF-SCORE:    0.00 PKD
ROOT
HETATM    1  C   UNL     1     -13.153  16.444  73.577  1.00  0.00    -0.198 C  
HETATM    2  N   UNL     1     -12.086  15.568  73.094  1.00  0.00    -0.443 NA 
HETATM    3  C   UNL     1     -12.423  14.144  73.292  1.00  0.00     0.150 C  
HETATM    4  C   UNL     1     -13.415  13.547  72.262  1.00  0.00    -0.571 C  
HETATM    5  N   UNL     1     -13.052  13.765  70.842  1.00  0.00    -0.210 NA 
HETATM    6  C   UNL     1     -12.818  15.226  70.681  1.00  0.00    -0.409 C  
HETATM    7  C   UNL     1     -11.794  15.830  71.671  1.00  0.00    -0.464 C  
ENDROOT
BRANCH   5   8
HETATM    8  C   UNL     1     -11.872  12.947  70.410  1.00  0.00    -0.157 C  
BRANCH   8   9
HETATM    9  C   UNL     1     -12.060  11.442  70.663  1.00  0.00    -0.469 A  
HETATM   10  C   UNL     1     -11.080  10.530  70.225  1.00  0.00    -0.359 A  
HETATM   11  C   UNL     1     -13.140  10.934  71.409  1.00  0.00    -0.457 A  
HETATM   12  C   UNL     1     -11.163   9.170  70.538  1.00  0.00    -0.309 A  
HETATM   13  C   UNL     1     -12.238   8.692  71.285  1.00  0.00    -0.320 A  
HETATM   14  C   UNL     1     -13.231   9.571  71.709  1.00  0.00    -0.505 A  
ENDBRANCH   8   9
BRANCH   8  15
HETATM   15  C   UNL     1     -11.480  13.270  68.955  1.00  0.00    -0.350 A  
HETATM   16  C   UNL     1     -10.685  13.411  66.263  1.00  0.00    -0.287 A  
HETATM   17 CL   UNL     1     -10.177  13.409  64.619  1.00  0.00    -0.377 Cl 
HETATM   18  C   UNL     1      -9.761  13.668  67.270  1.00  0.00    -0.243 A  
HETATM   19  C   UNL     1     -12.410  13.061  67.918  1.00  0.00     0.147 A  
HETATM   20  C   UNL     1     -10.156  13.598  68.607  1.00  0.00    -0.182 A  
HETATM   21  C   UNL     1     -12.009  13.120  66.579  1.00  0.00    -0.459 A  
ENDBRANCH   8  15
ENDBRANCH   5   8
TORSDOF 3
ENDMDL
MODEL       36
REMARK 921   NORMALIZED FREE ENERGY PREDICTED BY IDOCK:   -5.26 KCAL/MOL
REMARK 922        TOTAL FREE ENERGY PREDICTED BY IDOCK:   -6.44 KCAL/MOL
REMARK 923 INTER-LIGAND FREE ENERGY PREDICTED BY IDOCK:   -5.99 KCAL/MOL
REMARK 924 INTRA-LIGAND FREE ENERGY PREDICTED BY IDOCK:   -0.45 KCAL/MOL
REMARK 927      BINDING AFFINITY PREDICTED BY RF-SCORE:    0.00 PKD
ROOT
HETATM    1  C   UNL     1     -13.089  15.073  71.098  1.00  0.00    -0.415 C  
HETATM    2  N   UNL     1     -11.807  14.572  70.601  1.00  0.00    -0.299 NA 
HETATM    3  C   UNL     1     -11.992  13.654  69.459  1.00  0.00    -0.341 C  
HETATM    4  C   UNL     1     -12.283  14.337  68.098  1.00  0.00    -0.129 C  
HETATM    5  N   UNL     1     -11.326  15.402  67.714  1.00  0.00    -0.327 NA 
HETATM    6  C   UNL     1     -11.254  16.345  68.862  1.00  0.00    -0.304 C  
HETATM    7  C   UNL     1     -10.918  15.687  70.221  1.00  0.00    -0.348 C  
ENDROOT
BRANCH   5   8
HETATM    8  C   UNL     1      -9.980  14.866  67.331  1.00  0.00    -0.223 C  
BRANCH   8   9
HETATM    9  C   UNL     1     -10.061  13.671  66.367  1.00  0.00    -0.295 A  
HETATM   10  C   UNL     1     -10.617  13.842  65.084  1.00  0.00    -0.385 A  
HETATM   11  C   UNL     1      -9.509  12.414  66.679  1.00  0.00    -0.232 A  
HETATM   12  C   UNL     1     -10.603  12.807  64.143  1.00  0.00    -0.441 A  
HETATM   13  C   UNL     1     -10.043  11.574  64.472  1.00  0.00    -0.324 A  
HETATM   14  C   UNL     1      -9.508  11.374  65.743  1.00  0.00    -0.256 A  
ENDBRANCH   8   9
BRANCH   8  15
HETATM   15  C   UNL     1      -9.062  15.993  66.819  1.00  0.00    -0.271 A  
HETATM   16  C   UNL     1      -7.360  18.174  66.322  1.00  0.00    -0.267 A  
HETATM   17 CL   UNL     1      -6.326  19.532  66.106  1.00  0.00    -0.190 Cl 
HETATM   18  C   UNL     1      -8.736  18.325  66.182  1.00  0.00    -0.118 A  
HETATM   19  C   UNL     1      -7.664  15.850  66.907  1.00  0.00    -0.268 A  
HETATM   20  C   UNL     1      -9.581  17.242  66.429  1.00  0.00    -0.290 A  
HETATM   21  C   UNL     1      -6.819  16.939  66.671  1.00  0.00    -0.271 A  
ENDBRANCH   8  15
ENDBRANCH   5   8
TORSDOF 3
ENDMDL
MODEL       37
REMARK 921   NORMALIZED FREE ENERGY PREDICTED BY IDOCK:   -5.23 KCAL/MOL
REMARK 922        TOTAL FREE ENERGY PREDICTED BY IDOCK:   -6.41 KCAL/MOL
REMARK 923 INTER-LIGAND FREE ENERGY PREDICTED BY IDOCK:   -5.75 KCAL/MOL
REMARK 924 INTRA-LIGAND FREE ENERGY PREDICTED BY IDOCK:   -0.66 KCAL/MOL
REMARK 927      BINDING AFFINITY PREDICTED BY RF-SCORE:    0.00 PKD
ROOT
HETATM    1  C   UNL     1      -6.928   6.270  73.638  1.00  0.00    -0.083 C  
HETATM    2  N   UNL     1      -7.998   5.932  72.699  1.00  0.00    -0.105 NA 
HETATM    3  C   UNL     1      -9.308   6.421  73.174  1.00  0.00    -0.134 C  
HETATM    4  C   UNL     1      -9.567   7.935  72.966  1.00  0.00    -0.276 C  
HETATM    5  N   UNL     1      -9.337   8.427  71.587  1.00  0.00    -0.191 NA 
HETATM    6  C   UNL     1      -7.970   7.988  71.200  1.00  0.00    -0.094 C  
HETATM    7  C   UNL     1      -7.709   6.471  71.356  1.00  0.00    -0.099 C  
ENDROOT
BRANCH   5   8
HETATM    8  C   UNL     1     -10.383   7.959  70.620  1.00  0.00    -0.202 C  
BRANCH   8   9
HETATM    9  C   UNL     1     -11.815   8.243  71.099  1.00  0.00    -0.302 A  
HETATM   10  C   UNL     1     -12.770   7.208  71.109  1.00  0.00    -0.363 A  
HETATM   11  C   UNL     1     -12.198   9.491  71.627  1.00  0.00    -0.477 A  
HETATM   12  C   UNL     1     -14.047   7.403  71.645  1.00  0.00    -0.552 A  
HETATM   13  C   UNL     1     -14.400   8.645  72.169  1.00  0.00    -0.518 A  
HETATM   14  C   UNL     1     -13.480   9.691  72.150  1.00  0.00    -0.516 A  
ENDBRANCH   8   9
BRANCH   8  15
HETATM   15  C   UNL     1     -10.103   8.496  69.203  1.00  0.00    -0.207 A  
HETATM   16  C   UNL     1     -10.042   9.560  66.602  1.00  0.00    -0.252 A  
HETATM   17 CL   UNL     1     -10.095  10.217  65.012  1.00  0.00    -0.393 Cl 
HETATM   18  C   UNL     1     -10.129   8.184  66.783  1.00  0.00    -0.365 A  
HETATM   19  C   UNL     1      -9.967   9.882  68.995  1.00  0.00    -0.193 A  
HETATM   20  C   UNL     1     -10.160   7.656  68.075  1.00  0.00    -0.226 A  
HETATM   21  C   UNL     1      -9.948  10.411  67.700  1.00  0.00    -0.205 A  
ENDBRANCH   8  15
ENDBRANCH   5   8
TORSDOF 3
ENDMDL
MODEL       38
REMARK 921   NORMALIZED FREE ENERGY PREDICTED BY IDOCK:   -5.23 KCAL/MOL
REMARK 922        TOTAL FREE ENERGY PREDICTED BY IDOCK:   -6.41 KCAL/MOL
REMARK 923 INTER-LIGAND FREE ENERGY PREDICTED BY IDOCK:   -5.94 KCAL/MOL
REMARK 924 INTRA-LIGAND FREE ENERGY PREDICTED BY IDOCK:   -0.47 KCAL/MOL
REMARK 927      BINDING AFFINITY PREDICTED BY RF-SCORE:    0.00 PKD
ROOT
HETATM    1  C   UNL     1     -10.310  17.563  67.279  1.00  0.00    -0.337 C  
HETATM    2  N   UNL     1     -11.183  16.414  67.037  1.00  0.00     0.078 NA 
HETATM    3  C   UNL     1     -10.726  15.623  65.877  1.00  0.00    -0.329 C  
HETATM    4  C   UNL     1      -9.522  14.686  66.144  1.00  0.00    -0.276 C  
HETATM    5  N   UNL     1      -9.673  13.787  67.314  1.00  0.00    -0.236 NA 
HETATM    6  C   UNL     1     -10.039  14.649  68.470  1.00  0.00    -0.238 C  
HETATM    7  C   UNL     1     -11.269  15.558  68.236  1.00  0.00    -0.343 C  
ENDROOT
BRANCH   5   8
HETATM    8  C   UNL     1     -10.670  12.692  67.081  1.00  0.00    -0.241 C  
BRANCH   8   9
HETATM    9  C   UNL     1     -10.377  11.872  65.814  1.00  0.00    -0.285 A  
HETATM   10  C   UNL     1     -11.200  12.015  64.680  1.00  0.00    -0.380 A  
HETATM   11  C   UNL     1      -9.247  11.039  65.703  1.00  0.00    -0.231 A  
HETATM   12  C   UNL     1     -10.895  11.372  63.477  1.00  0.00    -0.430 A  
HETATM   13  C   UNL     1      -9.767  10.558  63.388  1.00  0.00    -0.368 A  
HETATM   14  C   UNL     1      -8.951  10.383  64.503  1.00  0.00    -0.241 A  
ENDBRANCH   8   9
BRANCH   8  15
HETATM   15  C   UNL     1     -10.835  11.819  68.340  1.00  0.00    -0.260 A  
HETATM   16  C   UNL     1     -11.230   9.889  70.345  1.00  0.00    -0.313 A  
HETATM   17 CL   UNL     1     -11.499   8.649  71.508  1.00  0.00    -0.336 Cl 
HETATM   18  C   UNL     1     -12.274  10.736  69.986  1.00  0.00    -0.409 A  
HETATM   19  C   UNL     1      -9.779  10.984  68.754  1.00  0.00    -0.199 A  
HETATM   20  C   UNL     1     -12.077  11.694  68.990  1.00  0.00    -0.288 A  
HETATM   21  C   UNL     1      -9.981  10.016  69.744  1.00  0.00    -0.276 A  
ENDBRANCH   8  15
ENDBRANCH   5   8
TORSDOF 3
ENDMDL
MODEL       39
REMARK 921   NORMALIZED FREE ENERGY PREDICTED BY IDOCK:   -5.20 KCAL/MOL
REMARK 922        TOTAL FREE ENERGY PREDICTED BY IDOCK:   -6.38 KCAL/MOL
REMARK 923 INTER-LIGAND FREE ENERGY PREDICTED BY IDOCK:   -5.72 KCAL/MOL
REMARK 924 INTRA-LIGAND FREE ENERGY PREDICTED BY IDOCK:   -0.66 KCAL/MOL
REMARK 927      BINDING AFFINITY PREDICTED BY RF-SCORE:    0.00 PKD
ROOT
HETATM    1  C   UNL     1      -6.236   7.025  73.118  1.00  0.00    -0.057 C  
HETATM    2  N   UNL     1      -7.294   6.609  72.198  1.00  0.00    -0.088 NA 
HETATM    3  C   UNL     1      -8.630   6.750  72.811  1.00  0.00    -0.121 C  
HETATM    4  C   UNL     1      -9.195   8.192  72.849  1.00  0.00    -0.273 C  
HETATM    5  N   UNL     1      -9.181   8.906  71.550  1.00  0.00    -0.260 NA 
HETATM    6  C   UNL     1      -7.791   8.812  71.027  1.00  0.00    -0.123 C  
HETATM    7  C   UNL     1      -7.228   7.375  70.938  1.00  0.00    -0.068 C  
ENDROOT
BRANCH   5   8
HETATM    8  C   UNL     1     -10.192   8.372  70.580  1.00  0.00    -0.194 C  
BRANCH   8   9
HETATM    9  C   UNL     1     -11.620   8.353  71.151  1.00  0.00    -0.317 A  
HETATM   10  C   UNL     1     -12.184   9.536  71.668  1.00  0.00    -0.477 A  
HETATM   11  C   UNL     1     -12.438   7.209  71.093  1.00  0.00    -0.400 A  
HETATM   12  C   UNL     1     -13.516   9.580  72.088  1.00  0.00    -0.535 A  
HETATM   13  C   UNL     1     -14.309   8.437  72.014  1.00  0.00    -0.555 A  
HETATM   14  C   UNL     1     -13.766   7.249  71.527  1.00  0.00    -0.451 A  
ENDBRANCH   8   9
BRANCH   8  15
HETATM   15  C   UNL     1     -10.094   9.097  69.225  1.00  0.00    -0.196 A  
HETATM   16  C   UNL     1     -10.371  10.431  66.766  1.00  0.00    -0.235 A  
HETATM   17 CL   UNL     1     -10.630  11.238  65.269  1.00  0.00    -0.334 Cl 
HETATM   18  C   UNL     1     -10.228   9.048  66.789  1.00  0.00    -0.341 A  
HETATM   19  C   UNL     1     -10.191  10.501  69.174  1.00  0.00    -0.241 A  
HETATM   20  C   UNL     1     -10.091   8.385  68.010  1.00  0.00    -0.245 A  
HETATM   21  C   UNL     1     -10.340  11.162  67.951  1.00  0.00    -0.211 A  
ENDBRANCH   8  15
ENDBRANCH   5   8
TORSDOF 3
ENDMDL
MODEL       40
REMARK 921   NORMALIZED FREE ENERGY PREDICTED BY IDOCK:   -5.19 KCAL/MOL
REMARK 922        TOTAL FREE ENERGY PREDICTED BY IDOCK:   -6.36 KCAL/MOL
REMARK 923 INTER-LIGAND FREE ENERGY PREDICTED BY IDOCK:   -6.44 KCAL/MOL
REMARK 924 INTRA-LIGAND FREE ENERGY PREDICTED BY IDOCK:    0.08 KCAL/MOL
REMARK 927      BINDING AFFINITY PREDICTED BY RF-SCORE:    0.00 PKD
ROOT
HETATM    1  C   UNL     1      -7.884  18.206  66.062  1.00  0.00    -0.139 C  
HETATM    2  N   UNL     1      -9.174  17.516  66.101  1.00  0.00    -0.486 NA 
HETATM    3  C   UNL     1      -9.014  16.060  65.913  1.00  0.00    -0.221 C  
HETATM    4  C   UNL     1      -8.528  15.279  67.160  1.00  0.00    -0.209 C  
HETATM    5  N   UNL     1      -9.306  15.524  68.397  1.00  0.00    -0.188 NA 
HETATM    6  C   UNL     1      -9.352  16.999  68.586  1.00  0.00    -0.270 C  
HETATM    7  C   UNL     1      -9.880  17.792  67.368  1.00  0.00    -0.311 C  
ENDROOT
BRANCH   5   8
HETATM    8  C   UNL     1     -10.673  14.911  68.357  1.00  0.00    -0.245 C  
BRANCH   8   9
HETATM    9  C   UNL     1     -10.679  13.494  67.763  1.00  0.00    -0.262 A  
HETATM   10  C   UNL     1     -11.454  13.215  66.620  1.00  0.00    -0.389 A  
HETATM   11  C   UNL     1      -9.856  12.466  68.262  1.00  0.00    -0.224 A  
HETATM   12  C   UNL     1     -11.394  11.969  65.989  1.00  0.00    -0.398 A  
HETATM   13  C   UNL     1     -10.565  10.970  66.496  1.00  0.00    -0.310 A  
HETATM   14  C   UNL     1      -9.806  11.215  67.638  1.00  0.00    -0.191 A  
ENDBRANCH   8   9
BRANCH   8  15
HETATM   15  C   UNL     1     -11.354  14.990  69.737  1.00  0.00    -0.310 A  
HETATM   16  C   UNL     1     -12.888  15.421  72.053  1.00  0.00    -0.388 A  
HETATM   17 CL   UNL     1     -13.874  15.747  73.424  1.00  0.00    -0.249 Cl 
HETATM   18  C   UNL     1     -11.730  16.163  71.843  1.00  0.00    -0.575 A  
HETATM   19  C   UNL     1     -12.503  14.217  69.994  1.00  0.00    -0.352 A  
HETATM   20  C   UNL     1     -10.969  15.949  70.692  1.00  0.00    -0.312 A  
HETATM   21  C   UNL     1     -13.271  14.441  71.141  1.00  0.00    -0.414 A  
ENDBRANCH   8  15
ENDBRANCH   5   8
TORSDOF 3
ENDMDL
MODEL       41
REMARK 921   NORMALIZED FREE ENERGY PREDICTED BY IDOCK:   -5.19 KCAL/MOL
REMARK 922        TOTAL FREE ENERGY PREDICTED BY IDOCK:   -6.36 KCAL/MOL
REMARK 923 INTER-LIGAND FREE ENERGY PREDICTED BY IDOCK:   -6.47 KCAL/MOL
REMARK 924 INTRA-LIGAND FREE ENERGY PREDICTED BY IDOCK:    0.11 KCAL/MOL
REMARK 927      BINDING AFFINITY PREDICTED BY RF-SCORE:    0.00 PKD
ROOT
HETATM    1  C   UNL     1     -10.744  13.436  64.208  1.00  0.00    -0.355 C  
HETATM    2  N   UNL     1     -10.125  13.443  65.534  1.00  0.00    -0.288 NA 
HETATM    3  C   UNL     1     -10.992  14.100  66.533  1.00  0.00    -0.309 C  
HETATM    4  C   UNL     1     -12.170  13.240  67.058  1.00  0.00    -0.253 C  
HETATM    5  N   UNL     1     -11.792  11.895  67.554  1.00  0.00    -0.597 NA 
HETATM    6  C   UNL     1     -11.004  11.247  66.472  1.00  0.00    -0.245 C  
HETATM    7  C   UNL     1      -9.796  12.071  65.968  1.00  0.00    -0.237 C  
ENDROOT
BRANCH   5   8
HETATM    8  C   UNL     1     -11.046  11.942  68.854  1.00  0.00    -0.247 C  
BRANCH   8   9
HETATM    9  C   UNL     1     -11.917  12.411  70.030  1.00  0.00    -0.372 A  
HETATM   10  C   UNL     1     -12.575  11.462  70.837  1.00  0.00    -0.453 A  
HETATM   11  C   UNL     1     -12.013  13.765  70.402  1.00  0.00    -0.385 A  
HETATM   12  C   UNL     1     -13.282  11.847  71.981  1.00  0.00    -0.461 A  
HETATM   13  C   UNL     1     -13.356  13.193  72.333  1.00  0.00    -0.591 A  
HETATM   14  C   UNL     1     -12.732  14.152  71.538  1.00  0.00    -0.436 A  
ENDBRANCH   8   9
BRANCH   8  15
HETATM   15  C   UNL     1     -10.331  10.606  69.128  1.00  0.00    -0.242 A  
HETATM   16  C   UNL     1      -9.063   8.280  70.069  1.00  0.00    -0.150 A  
HETATM   17 CL   UNL     1      -8.291   6.891  70.729  1.00  0.00    -0.126 Cl 
HETATM   18  C   UNL     1      -8.297   9.371  69.671  1.00  0.00    -0.147 A  
HETATM   19  C   UNL     1     -11.083   9.472  69.490  1.00  0.00    -0.168 A  
HETATM   20  C   UNL     1      -8.927  10.526  69.204  1.00  0.00    -0.171 A  
HETATM   21  C   UNL     1     -10.451   8.320  69.969  1.00  0.00    -0.231 A  
ENDBRANCH   8  15
ENDBRANCH   5   8
TORSDOF 3
ENDMDL
MODEL       42
REMARK 921   NORMALIZED FREE ENERGY PREDICTED BY IDOCK:   -5.18 KCAL/MOL
REMARK 922        TOTAL FREE ENERGY PREDICTED BY IDOCK:   -6.35 KCAL/MOL
REMARK 923 INTER-LIGAND FREE ENERGY PREDICTED BY IDOCK:   -6.55 KCAL/MOL
REMARK 924 INTRA-LIGAND FREE ENERGY PREDICTED BY IDOCK:    0.21 KCAL/MOL
REMARK 927      BINDING AFFINITY PREDICTED BY RF-SCORE:    0.00 PKD
ROOT
HETATM    1  C   UNL     1     -11.607   5.979  71.956  1.00  0.00    -0.276 C  
HETATM    2  N   UNL     1     -12.224   6.896  70.997  1.00  0.00    -0.387 NA 
HETATM    3  C   UNL     1     -12.893   8.022  71.679  1.00  0.00    -0.329 C  
HETATM    4  C   UNL     1     -11.953   9.144  72.187  1.00  0.00    -0.294 C  
HETATM    5  N   UNL     1     -11.012   9.681  71.175  1.00  0.00    -0.360 NA 
HETATM    6  C   UNL     1     -10.301   8.512  70.591  1.00  0.00    -0.199 C  
HETATM    7  C   UNL     1     -11.225   7.403  70.036  1.00  0.00    -0.180 C  
ENDROOT
BRANCH   5   8
HETATM    8  C   UNL     1     -11.694  10.514  70.131  1.00  0.00    -0.326 C  
BRANCH   8   9
HETATM    9  C   UNL     1     -12.239  11.841  70.683  1.00  0.00    -0.443 A  
HETATM   10  C   UNL     1     -11.968  13.046  70.007  1.00  0.00    -0.383 A  
HETATM   11  C   UNL     1     -13.091  11.896  71.803  1.00  0.00    -0.465 A  
HETATM   12  C   UNL     1     -12.542  14.253  70.417  1.00  0.00    -0.405 A  
HETATM   13  C   UNL     1     -13.389  14.282  71.523  1.00  0.00    -0.429 A  
HETATM   14  C   UNL     1     -13.654  13.106  72.222  1.00  0.00    -0.677 A  
ENDBRANCH   8   9
BRANCH   8  15
HETATM   15  C   UNL     1     -10.790  10.700  68.897  1.00  0.00    -0.272 A  
HETATM   16  C   UNL     1      -9.052  10.594  66.690  1.00  0.00    -0.160 A  
HETATM   17 CL   UNL     1      -7.970  10.442  65.361  1.00  0.00    -0.149 Cl 
HETATM   18  C   UNL     1      -8.569  10.996  67.931  1.00  0.00    -0.133 A  
HETATM   19  C   UNL     1     -11.268  10.342  67.622  1.00  0.00    -0.287 A  
HETATM   20  C   UNL     1      -9.432  11.048  69.027  1.00  0.00    -0.123 A  
HETATM   21  C   UNL     1     -10.399  10.279  66.527  1.00  0.00    -0.276 A  
ENDBRANCH   8  15
ENDBRANCH   5   8
TORSDOF 3
ENDMDL
MODEL       43
REMARK 921   NORMALIZED FREE ENERGY PREDICTED BY IDOCK:   -5.14 KCAL/MOL
REMARK 922        TOTAL FREE ENERGY PREDICTED BY IDOCK:   -6.30 KCAL/MOL
REMARK 923 INTER-LIGAND FREE ENERGY PREDICTED BY IDOCK:   -6.23 KCAL/MOL
REMARK 924 INTRA-LIGAND FREE ENERGY PREDICTED BY IDOCK:   -0.07 KCAL/MOL
REMARK 927      BINDING AFFINITY PREDICTED BY RF-SCORE:    0.00 PKD
ROOT
HETATM    1  C   UNL     1     -11.080  15.098  66.275  1.00  0.00    -0.309 C  
HETATM    2  N   UNL     1     -10.204  14.224  67.055  1.00  0.00    -0.258 NA 
HETATM    3  C   UNL     1     -10.651  14.125  68.460  1.00  0.00    -0.252 C  
HETATM    4  C   UNL     1     -11.857  13.185  68.708  1.00  0.00    -0.324 C  
HETATM    5  N   UNL     1     -11.714  11.819  68.149  1.00  0.00    -0.455 NA 
HETATM    6  C   UNL     1     -11.358  11.982  66.714  1.00  0.00    -0.339 C  
HETATM    7  C   UNL     1     -10.127  12.880  66.449  1.00  0.00    -0.269 C  
ENDROOT
BRANCH   5   8
HETATM    8  C   UNL     1     -10.714  10.987  68.894  1.00  0.00    -0.211 C  
BRANCH   8   9
HETATM    9  C   UNL     1     -11.301  10.325  70.151  1.00  0.00    -0.388 A  
HETATM   10  C   UNL     1     -12.641  10.568  70.511  1.00  0.00    -0.423 A  
HETATM   11  C   UNL     1     -10.575   9.396  70.921  1.00  0.00    -0.390 A  
HETATM   12  C   UNL     1     -13.238   9.895  71.581  1.00  0.00    -0.519 A  
HETATM   13  C   UNL     1     -12.502   8.973  72.323  1.00  0.00    -0.427 A  
HETATM   14  C   UNL     1     -11.168   8.733  72.000  1.00  0.00    -0.443 A  
ENDBRANCH   8   9
BRANCH   8  15
HETATM   15  C   UNL     1     -10.020   9.983  67.953  1.00  0.00    -0.183 A  
HETATM   16  C   UNL     1      -8.729   7.883  66.602  1.00  0.00    -0.142 A  
HETATM   17 CL   UNL     1      -7.931   6.555  65.855  1.00  0.00    -0.109 Cl 
HETATM   18  C   UNL     1      -7.982   8.942  67.107  1.00  0.00    -0.096 A  
HETATM   19  C   UNL     1     -10.761   8.926  67.390  1.00  0.00    -0.225 A  
HETATM   20  C   UNL     1      -8.624   9.985  67.778  1.00  0.00    -0.118 A  
HETATM   21  C   UNL     1     -10.116   7.876  66.729  1.00  0.00    -0.352 A  
ENDBRANCH   8  15
ENDBRANCH   5   8
TORSDOF 3
ENDMDL
MODEL       44
REMARK 921   NORMALIZED FREE ENERGY PREDICTED BY IDOCK:   -5.09 KCAL/MOL
REMARK 922        TOTAL FREE ENERGY PREDICTED BY IDOCK:   -6.24 KCAL/MOL
REMARK 923 INTER-LIGAND FREE ENERGY PREDICTED BY IDOCK:   -5.73 KCAL/MOL
REMARK 924 INTRA-LIGAND FREE ENERGY PREDICTED BY IDOCK:   -0.52 KCAL/MOL
REMARK 927      BINDING AFFINITY PREDICTED BY RF-SCORE:    0.00 PKD
ROOT
HETATM    1  C   UNL     1     -12.190  15.532  71.364  1.00  0.00    -0.393 C  
HETATM    2  N   UNL     1     -11.967  15.935  69.976  1.00  0.00    -0.323 NA 
HETATM    3  C   UNL     1     -10.595  16.443  69.774  1.00  0.00    -0.288 C  
HETATM    4  C   UNL     1      -9.494  15.359  69.664  1.00  0.00    -0.216 C  
HETATM    5  N   UNL     1      -9.764  14.288  68.675  1.00  0.00    -0.227 NA 
HETATM    6  C   UNL     1     -11.116  13.751  68.987  1.00  0.00    -0.259 C  
HETATM    7  C   UNL     1     -12.236  14.815  69.053  1.00  0.00    -0.145 C  
ENDROOT
BRANCH   5   8
HETATM    8  C   UNL     1      -9.652  14.764  67.258  1.00  0.00    -0.223 C  
BRANCH   8   9
HETATM    9  C   UNL     1      -8.351  15.536  66.984  1.00  0.00    -0.265 A  
HETATM   10  C   UNL     1      -8.387  16.724  66.229  1.00  0.00    -0.353 A  
HETATM   11  C   UNL     1      -7.117  15.153  67.545  1.00  0.00    -0.225 A  
HETATM   12  C   UNL     1      -7.243  17.510  66.058  1.00  0.00    -0.298 A  
HETATM   13  C   UNL     1      -6.035  17.116  66.629  1.00  0.00    -0.240 A  
HETATM   14  C   UNL     1      -5.970  15.932  67.362  1.00  0.00    -0.125 A  
ENDBRANCH   8   9
BRANCH   8  15
HETATM   15  C   UNL     1      -9.885  13.606  66.267  1.00  0.00    -0.310 A  
HETATM   16  C   UNL     1      -9.904  11.609  64.289  1.00  0.00    -0.230 A  
HETATM   17 CL   UNL     1      -9.838  10.422  63.046  1.00  0.00    -0.284 Cl 
HETATM   18  C   UNL     1     -10.542  12.822  64.052  1.00  0.00    -0.446 A  
HETATM   19  C   UNL     1      -9.287  12.353  66.504  1.00  0.00    -0.233 A  
HETATM   20  C   UNL     1     -10.532  13.814  65.035  1.00  0.00    -0.418 A  
HETATM   21  C   UNL     1      -9.288  11.365  65.514  1.00  0.00    -0.228 A  
ENDBRANCH   8  15
ENDBRANCH   5   8
TORSDOF 3
ENDMDL
MODEL       45
REMARK 921   NORMALIZED FREE ENERGY PREDICTED BY IDOCK:   -5.08 KCAL/MOL
REMARK 922        TOTAL FREE ENERGY PREDICTED BY IDOCK:   -6.24 KCAL/MOL
REMARK 923 INTER-LIGAND FREE ENERGY PREDICTED BY IDOCK:   -6.08 KCAL/MOL
REMARK 924 INTRA-LIGAND FREE ENERGY PREDICTED BY IDOCK:   -0.16 KCAL/MOL
REMARK 927      BINDING AFFINITY PREDICTED BY RF-SCORE:    0.00 PKD
ROOT
HETATM    1  C   UNL     1      -9.058   8.479  68.794  1.00  0.00    -0.143 C  
HETATM    2  N   UNL     1      -8.840   9.320  67.617  1.00  0.00    -0.120 NA 
HETATM    3  C   UNL     1     -10.116   9.683  66.968  1.00  0.00    -0.214 C  
HETATM    4  C   UNL     1     -10.915  10.816  67.662  1.00  0.00    -0.306 C  
HETATM    5  N   UNL     1     -10.142  12.051  67.937  1.00  0.00    -0.190 NA 
HETATM    6  C   UNL     1      -8.919  11.633  68.673  1.00  0.00    -0.084 C  
HETATM    7  C   UNL     1      -8.084  10.537  67.972  1.00  0.00    -0.111 C  
ENDROOT
BRANCH   5   8
HETATM    8  C   UNL     1      -9.824  12.827  66.695  1.00  0.00    -0.250 C  
BRANCH   8   9
HETATM    9  C   UNL     1     -10.709  12.438  65.499  1.00  0.00    -0.315 A  
HETATM   10  C   UNL     1     -12.083  12.743  65.515  1.00  0.00    -0.517 A  
HETATM   11  C   UNL     1     -10.179  11.864  64.328  1.00  0.00    -0.346 A  
HETATM   12  C   UNL     1     -12.892  12.507  64.400  1.00  0.00    -0.366 A  
HETATM   13  C   UNL     1     -12.344  11.945  63.248  1.00  0.00    -0.508 A  
HETATM   14  C   UNL     1     -10.991  11.613  63.217  1.00  0.00    -0.361 A  
ENDBRANCH   8   9
BRANCH   8  15
HETATM   15  C   UNL     1      -9.823  14.342  66.976  1.00  0.00    -0.252 A  
HETATM   16  C   UNL     1     -10.224  17.109  67.273  1.00  0.00    -0.316 A  
HETATM   17 CL   UNL     1     -10.543  18.794  67.403  1.00  0.00    -0.481 Cl 
HETATM   18  C   UNL     1      -9.455  16.632  66.217  1.00  0.00    -0.321 A  
HETATM   19  C   UNL     1     -10.558  14.851  68.066  1.00  0.00    -0.248 A  
HETATM   20  C   UNL     1      -9.257  15.257  66.069  1.00  0.00    -0.308 A  
HETATM   21  C   UNL     1     -10.765  16.227  68.205  1.00  0.00    -0.322 A  
ENDBRANCH   8  15
ENDBRANCH   5   8
TORSDOF 3
ENDMDL
MODEL       46
REMARK 921   NORMALIZED FREE ENERGY PREDICTED BY IDOCK:   -5.07 KCAL/MOL
REMARK 922        TOTAL FREE ENERGY PREDICTED BY IDOCK:   -6.22 KCAL/MOL
REMARK 923 INTER-LIGAND FREE ENERGY PREDICTED BY IDOCK:   -6.34 KCAL/MOL
REMARK 924 INTRA-LIGAND FREE ENERGY PREDICTED BY IDOCK:    0.11 KCAL/MOL
REMARK 927      BINDING AFFINITY PREDICTED BY RF-SCORE:    0.00 PKD
ROOT
HETATM    1  C   UNL     1      -9.772   6.595  71.528  1.00  0.00    -0.164 C  
HETATM    2  N   UNL     1      -9.317   7.962  71.272  1.00  0.00    -0.145 NA 
HETATM    3  C   UNL     1      -9.374   8.290  69.833  1.00  0.00    -0.159 C  
HETATM    4  C   UNL     1     -10.783   8.628  69.284  1.00  0.00    -0.136 C  
HETATM    5  N   UNL     1     -11.523   9.662  70.046  1.00  0.00    -0.192 NA 
HETATM    6  C   UNL     1     -11.514   9.230  71.470  1.00  0.00    -0.384 C  
HETATM    7  C   UNL     1     -10.111   8.934  72.049  1.00  0.00    -0.281 C  
ENDROOT
BRANCH   5   8
HETATM    8  C   UNL     1     -10.954  11.037  69.864  1.00  0.00    -0.150 C  
BRANCH   8   9
HETATM    9  C   UNL     1     -10.485  11.308  68.425  1.00  0.00    -0.219 A  
HETATM   10  C   UNL     1     -11.431  11.411  67.387  1.00  0.00    -0.328 A  
HETATM   11  C   UNL     1      -9.136  11.555  68.108  1.00  0.00    -0.181 A  
HETATM   12  C   UNL     1     -11.049  11.769  66.090  1.00  0.00    -0.358 A  
HETATM   13  C   UNL     1      -9.709  12.017  65.802  1.00  0.00    -0.254 A  
HETATM   14  C   UNL     1      -8.752  11.899  66.808  1.00  0.00    -0.193 A  
ENDBRANCH   8   9
BRANCH   8  15
HETATM   15  C   UNL     1     -11.925  12.110  70.393  1.00  0.00    -0.360 A  
HETATM   16  C   UNL     1     -13.355  14.186  71.638  1.00  0.00    -0.364 A  
HETATM   17 CL   UNL     1     -14.160  15.468  72.456  1.00  0.00    -0.632 Cl 
HETATM   18  C   UNL     1     -13.503  12.878  72.089  1.00  0.00    -0.619 A  
HETATM   19  C   UNL     1     -11.828  13.434  69.923  1.00  0.00    -0.385 A  
HETATM   20  C   UNL     1     -12.793  11.848  71.471  1.00  0.00    -0.421 A  
HETATM   21  C   UNL     1     -12.532  14.467  70.550  1.00  0.00    -0.416 A  
ENDBRANCH   8  15
ENDBRANCH   5   8
TORSDOF 3
ENDMDL
MODEL       47
REMARK 921   NORMALIZED FREE ENERGY PREDICTED BY IDOCK:   -5.05 KCAL/MOL
REMARK 922        TOTAL FREE ENERGY PREDICTED BY IDOCK:   -6.19 KCAL/MOL
REMARK 923 INTER-LIGAND FREE ENERGY PREDICTED BY IDOCK:   -5.82 KCAL/MOL
REMARK 924 INTRA-LIGAND FREE ENERGY PREDICTED BY IDOCK:   -0.37 KCAL/MOL
REMARK 927      BINDING AFFINITY PREDICTED BY RF-SCORE:    0.00 PKD
ROOT
HETATM    1  C   UNL     1     -10.499  16.816  67.114  1.00  0.00    -0.299 C  
HETATM    2  N   UNL     1     -11.110  15.515  66.839  1.00  0.00    -0.272 NA 
HETATM    3  C   UNL     1     -10.201  14.643  66.067  1.00  0.00    -0.311 C  
HETATM    4  C   UNL     1      -9.071  13.970  66.887  1.00  0.00    -0.248 C  
HETATM    5  N   UNL     1      -9.522  13.247  68.100  1.00  0.00    -0.218 NA 
HETATM    6  C   UNL     1     -10.352  14.202  68.883  1.00  0.00    -0.199 C  
HETATM    7  C   UNL     1     -11.514  14.848  68.092  1.00  0.00    -0.330 C  
ENDROOT
BRANCH   5   8
HETATM    8  C   UNL     1     -10.256  11.979  67.783  1.00  0.00    -0.202 C  
BRANCH   8   9
HETATM    9  C   UNL     1      -9.481  11.058  66.827  1.00  0.00    -0.203 A  
HETATM   10  C   UNL     1     -10.165  10.375  65.803  1.00  0.00    -0.305 A  
HETATM   11  C   UNL     1      -8.079  10.938  66.872  1.00  0.00    -0.137 A  
HETATM   12  C   UNL     1      -9.475   9.621  64.848  1.00  0.00    -0.288 A  
HETATM   13  C   UNL     1      -8.087   9.524  64.907  1.00  0.00    -0.131 A  
HETATM   14  C   UNL     1      -7.390  10.172  65.925  1.00  0.00    -0.121 A  
ENDBRANCH   8   9
BRANCH   8  15
HETATM   15  C   UNL     1     -10.709  11.266  69.072  1.00  0.00    -0.257 A  
HETATM   16  C   UNL     1     -11.649   9.620  71.148  1.00  0.00    -0.381 A  
HETATM   17 CL   UNL     1     -12.251   8.553  72.356  1.00  0.00    -0.448 Cl 
HETATM   18  C   UNL     1     -12.492  10.575  70.589  1.00  0.00    -0.456 A  
HETATM   19  C   UNL     1      -9.859  10.326  69.686  1.00  0.00    -0.230 A  
HETATM   20  C   UNL     1     -12.025  11.392  69.557  1.00  0.00    -0.409 A  
HETATM   21  C   UNL     1     -10.332   9.500  70.711  1.00  0.00    -0.377 A  
ENDBRANCH   8  15
ENDBRANCH   5   8
TORSDOF 3
ENDMDL
MODEL       48
REMARK 921   NORMALIZED FREE ENERGY PREDICTED BY IDOCK:   -4.99 KCAL/MOL
REMARK 922        TOTAL FREE ENERGY PREDICTED BY IDOCK:   -6.13 KCAL/MOL
REMARK 923 INTER-LIGAND FREE ENERGY PREDICTED BY IDOCK:   -5.95 KCAL/MOL
REMARK 924 INTRA-LIGAND FREE ENERGY PREDICTED BY IDOCK:   -0.17 KCAL/MOL
REMARK 927      BINDING AFFINITY PREDICTED BY RF-SCORE:    0.00 PKD
ROOT
HETATM    1  C   UNL     1     -14.019  16.045  72.759  1.00  0.00    -0.256 C  
HETATM    2  N   UNL     1     -14.256  15.166  71.614  1.00  0.00    -0.521 NA 
HETATM    3  C   UNL     1     -13.322  15.456  70.507  1.00  0.00    -0.125 C  
HETATM    4  C   UNL     1     -11.890  14.890  70.680  1.00  0.00    -0.301 C  
HETATM    5  N   UNL     1     -11.822  13.445  71.005  1.00  0.00     0.066 NA 
HETATM    6  C   UNL     1     -12.705  13.230  72.183  1.00  0.00    -0.062 C  
HETATM    7  C   UNL     1     -14.152  13.747  72.010  1.00  0.00    -0.433 C  
ENDROOT
BRANCH   5   8
HETATM    8  C   UNL     1     -12.193  12.569  69.846  1.00  0.00    -0.163 C  
BRANCH   8   9
HETATM    9  C   UNL     1     -11.441  12.929  68.555  1.00  0.00    -0.345 A  
HETATM   10  C   UNL     1     -12.161  13.198  67.375  1.00  0.00    -0.316 A  
HETATM   11  C   UNL     1     -10.043  13.098  68.522  1.00  0.00    -0.203 A  
HETATM   12  C   UNL     1     -11.516  13.639  66.215  1.00  0.00    -0.352 A  
HETATM   13  C   UNL     1     -10.132  13.806  66.209  1.00  0.00    -0.304 A  
HETATM   14  C   UNL     1      -9.396  13.524  67.357  1.00  0.00    -0.228 A  
ENDBRANCH   8   9
BRANCH   8  15
HETATM   15  C   UNL     1     -12.072  11.079  70.219  1.00  0.00    -0.448 A  
HETATM   16  C   UNL     1     -11.762   8.512  71.322  1.00  0.00    -0.284 A  
HETATM   17 CL   UNL     1     -11.548   6.980  72.075  1.00  0.00    -0.306 Cl 
HETATM   18  C   UNL     1     -10.688   9.124  70.684  1.00  0.00    -0.313 A  
HETATM   19  C   UNL     1     -13.159  10.421  70.827  1.00  0.00    -0.362 A  
HETATM   20  C   UNL     1     -10.842  10.399  70.137  1.00  0.00    -0.333 A  
HETATM   21  C   UNL     1     -12.999   9.148  71.385  1.00  0.00    -0.366 A  
ENDBRANCH   8  15
ENDBRANCH   5   8
TORSDOF 3
ENDMDL
MODEL       49
REMARK 921   NORMALIZED FREE ENERGY PREDICTED BY IDOCK:   -4.98 KCAL/MOL
REMARK 922        TOTAL FREE ENERGY PREDICTED BY IDOCK:   -6.12 KCAL/MOL
REMARK 923 INTER-LIGAND FREE ENERGY PREDICTED BY IDOCK:   -5.99 KCAL/MOL
REMARK 924 INTRA-LIGAND FREE ENERGY PREDICTED BY IDOCK:   -0.12 KCAL/MOL
REMARK 927      BINDING AFFINITY PREDICTED BY RF-SCORE:    0.00 PKD
ROOT
HETATM    1  C   UNL     1      -7.846   8.018  63.919  1.00  0.00    -0.142 C  
HETATM    2  N   UNL     1      -7.691   9.168  64.810  1.00  0.00    -0.107 NA 
HETATM    3  C   UNL     1      -8.411  10.351  64.295  1.00  0.00    -0.138 C  
HETATM    4  C   UNL     1      -9.944  10.346  64.524  1.00  0.00    -0.331 C  
HETATM    5  N   UNL     1     -10.369  10.090  65.920  1.00  0.00    -0.187 NA 
HETATM    6  C   UNL     1      -9.689   8.839  66.351  1.00  0.00    -0.265 C  
HETATM    7  C   UNL     1      -8.152   8.844  66.174  1.00  0.00    -0.114 C  
ENDROOT
BRANCH   5   8
HETATM    8  C   UNL     1     -10.081  11.241  66.838  1.00  0.00    -0.212 C  
BRANCH   8   9
HETATM    9  C   UNL     1     -10.611  12.581  66.304  1.00  0.00    -0.273 A  
HETATM   10  C   UNL     1      -9.743  13.685  66.192  1.00  0.00    -0.269 A  
HETATM   11  C   UNL     1     -11.927  12.733  65.825  1.00  0.00    -0.502 A  
HETATM   12  C   UNL     1     -10.163  14.882  65.606  1.00  0.00    -0.382 A  
HETATM   13  C   UNL     1     -11.467  15.006  65.131  1.00  0.00    -0.339 A  
HETATM   14  C   UNL     1     -12.351  13.936  65.252  1.00  0.00    -0.485 A  
ENDBRANCH   8   9
BRANCH   8  15
HETATM   15  C   UNL     1     -10.552  10.934  68.272  1.00  0.00    -0.223 A  
HETATM   16  C   UNL     1     -11.525   9.964  70.725  1.00  0.00    -0.354 A  
HETATM   17 CL   UNL     1     -12.147   9.295  72.183  1.00  0.00    -0.399 Cl 
HETATM   18  C   UNL     1     -12.354  10.720  69.903  1.00  0.00    -0.340 A  
HETATM   19  C   UNL     1      -9.716  10.208  69.142  1.00  0.00    -0.225 A  
HETATM   20  C   UNL     1     -11.871  11.201  68.685  1.00  0.00    -0.357 A  
HETATM   21  C   UNL     1     -10.205   9.716  70.356  1.00  0.00    -0.348 A  
ENDBRANCH   8  15
ENDBRANCH   5   8
TORSDOF 3
ENDMDL
MODEL       50
REMARK 921   NORMALIZED FREE ENERGY PREDICTED BY IDOCK:   -4.95 KCAL/MOL
REMARK 922        TOTAL FREE ENERGY PREDICTED BY IDOCK:   -6.08 KCAL/MOL
REMARK 923 INTER-LIGAND FREE ENERGY PREDICTED BY IDOCK:   -5.46 KCAL/MOL
REMARK 924 INTRA-LIGAND FREE ENERGY PREDICTED BY IDOCK:   -0.62 KCAL/MOL
REMARK 927      BINDING AFFINITY PREDICTED BY RF-SCORE:    0.00 PKD
ROOT
HETATM    1  C   UNL     1      -8.800   7.411  68.774  1.00  0.00    -0.130 C  
HETATM    2  N   UNL     1      -8.388   8.407  67.785  1.00  0.00    -0.129 NA 
HETATM    3  C   UNL     1      -9.481   8.715  66.841  1.00  0.00    -0.180 C  
HETATM    4  C   UNL     1     -10.578   9.667  67.382  1.00  0.00    -0.268 C  
HETATM    5  N   UNL     1     -10.077  10.931  67.971  1.00  0.00    -0.173 NA 
HETATM    6  C   UNL     1      -9.050  10.554  68.979  1.00  0.00    -0.181 C  
HETATM    7  C   UNL     1      -7.921   9.642  68.444  1.00  0.00    -0.096 C  
ENDROOT
BRANCH   5   8
HETATM    8  C   UNL     1      -9.543  11.882  66.942  1.00  0.00    -0.200 C  
BRANCH   8   9
HETATM    9  C   UNL     1     -10.502  12.084  65.757  1.00  0.00    -0.290 A  
HETATM   10  C   UNL     1     -10.101  11.712  64.459  1.00  0.00    -0.321 A  
HETATM   11  C   UNL     1     -11.821  12.545  65.927  1.00  0.00    -0.489 A  
HETATM   12  C   UNL     1     -10.986  11.776  63.379  1.00  0.00    -0.458 A  
HETATM   13  C   UNL     1     -12.290  12.228  63.574  1.00  0.00    -0.670 A  
HETATM   14  C   UNL     1     -12.703  12.623  64.844  1.00  0.00    -0.450 A  
ENDBRANCH   8   9
BRANCH   8  15
HETATM   15  C   UNL     1      -9.100  13.207  67.592  1.00  0.00    -0.201 A  
HETATM   16  C   UNL     1      -8.472  15.822  68.408  1.00  0.00    -0.170 A  
HETATM   17 CL   UNL     1      -8.118  17.453  68.827  1.00  0.00    -0.261 Cl 
HETATM   18  C   UNL     1      -7.516  15.057  67.748  1.00  0.00    -0.175 A  
HETATM   19  C   UNL     1     -10.035  13.983  68.303  1.00  0.00    -0.236 A  
HETATM   20  C   UNL     1      -7.829  13.758  67.342  1.00  0.00    -0.167 A  
HETATM   21  C   UNL     1      -9.724  15.288  68.699  1.00  0.00    -0.212 A  
ENDBRANCH   8  15
ENDBRANCH   5   8
TORSDOF 3
ENDMDL
MODEL       51
REMARK 921   NORMALIZED FREE ENERGY PREDICTED BY IDOCK:   -4.91 KCAL/MOL
REMARK 922        TOTAL FREE ENERGY PREDICTED BY IDOCK:   -6.03 KCAL/MOL
REMARK 923 INTER-LIGAND FREE ENERGY PREDICTED BY IDOCK:   -5.50 KCAL/MOL
REMARK 924 INTRA-LIGAND FREE ENERGY PREDICTED BY IDOCK:   -0.53 KCAL/MOL
REMARK 927      BINDING AFFINITY PREDICTED BY RF-SCORE:    0.00 PKD
ROOT
HETATM    1  C   UNL     1     -10.465   7.279  70.201  1.00  0.00    -0.218 C  
HETATM    2  N   UNL     1      -9.542   8.244  69.605  1.00  0.00    -0.167 NA 
HETATM    3  C   UNL     1      -9.453   8.075  68.141  1.00  0.00    -0.143 C  
HETATM    4  C   UNL     1     -10.635   8.666  67.331  1.00  0.00    -0.228 C  
HETATM    5  N   UNL     1     -10.960  10.079  67.637  1.00  0.00    -0.282 NA 
HETATM    6  C   UNL     1     -11.131  10.169  69.112  1.00  0.00    -0.212 C  
HETATM    7  C   UNL     1      -9.940   9.627  69.936  1.00  0.00    -0.241 C  
ENDROOT
BRANCH   5   8
HETATM    8  C   UNL     1      -9.929  11.039  67.123  1.00  0.00    -0.187 C  
BRANCH   8   9
HETATM    9  C   UNL     1      -9.705  10.925  65.606  1.00  0.00    -0.279 A  
HETATM   10  C   UNL     1     -10.669  11.435  64.715  1.00  0.00    -0.362 A  
HETATM   11  C   UNL     1      -8.515  10.410  65.058  1.00  0.00    -0.180 A  
HETATM   12  C   UNL     1     -10.446  11.450  63.335  1.00  0.00    -0.452 A  
HETATM   13  C   UNL     1      -9.256  10.943  62.816  1.00  0.00    -0.360 A  
HETATM   14  C   UNL     1      -8.297  10.412  63.676  1.00  0.00    -0.153 A  
ENDBRANCH   8   9
BRANCH   8  15
HETATM   15  C   UNL     1     -10.236  12.477  67.581  1.00  0.00    -0.220 A  
HETATM   16  C   UNL     1     -10.788  15.205  67.973  1.00  0.00    -0.284 A  
HETATM   17 CL   UNL     1     -11.114  16.888  68.123  1.00  0.00    -0.293 Cl 
HETATM   18  C   UNL     1      -9.479  14.744  68.073  1.00  0.00    -0.204 A  
HETATM   19  C   UNL     1     -11.559  12.958  67.532  1.00  0.00    -0.409 A  
HETATM   20  C   UNL     1      -9.206  13.389  67.878  1.00  0.00    -0.216 A  
HETATM   21  C   UNL     1     -11.830  14.318  67.716  1.00  0.00    -0.414 A  
ENDBRANCH   8  15
ENDBRANCH   5   8
TORSDOF 3
ENDMDL
MODEL       52
REMARK 921   NORMALIZED FREE ENERGY PREDICTED BY IDOCK:   -4.90 KCAL/MOL
REMARK 922        TOTAL FREE ENERGY PREDICTED BY IDOCK:   -6.02 KCAL/MOL
REMARK 923 INTER-LIGAND FREE ENERGY PREDICTED BY IDOCK:   -5.40 KCAL/MOL
REMARK 924 INTRA-LIGAND FREE ENERGY PREDICTED BY IDOCK:   -0.62 KCAL/MOL
REMARK 927      BINDING AFFINITY PREDICTED BY RF-SCORE:    0.00 PKD
ROOT
HETATM    1  C   UNL     1     -11.836   9.022  71.139  1.00  0.00    -0.301 C  
HETATM    2  N   UNL     1     -10.750   9.785  70.524  1.00  0.00    -0.297 NA 
HETATM    3  C   UNL     1     -10.117   9.031  69.422  1.00  0.00    -0.198 C  
HETATM    4  C   UNL     1     -10.902   9.022  68.086  1.00  0.00    -0.027 C  
HETATM    5  N   UNL     1     -11.310  10.358  67.588  1.00  0.00    -0.375 NA 
HETATM    6  C   UNL     1     -12.023  11.030  68.707  1.00  0.00    -0.225 C  
HETATM    7  C   UNL     1     -11.234  11.091  70.036  1.00  0.00    -0.224 C  
ENDROOT
BRANCH   5   8
HETATM    8  C   UNL     1     -10.154  11.167  67.080  1.00  0.00    -0.191 C  
BRANCH   8   9
HETATM    9  C   UNL     1      -9.252  10.384  66.112  1.00  0.00    -0.199 A  
HETATM   10  C   UNL     1      -9.730  10.036  64.834  1.00  0.00    -0.377 A  
HETATM   11  C   UNL     1      -7.912  10.076  66.416  1.00  0.00    -0.116 A  
HETATM   12  C   UNL     1      -8.899   9.425  63.890  1.00  0.00    -0.205 A  
HETATM   13  C   UNL     1      -7.574   9.138  64.210  1.00  0.00    -0.115 A  
HETATM   14  C   UNL     1      -7.084   9.452  65.476  1.00  0.00    -0.087 A  
ENDBRANCH   8   9
BRANCH   8  15
HETATM   15  C   UNL     1     -10.634  12.512  66.503  1.00  0.00    -0.265 A  
HETATM   16  C   UNL     1     -11.367  14.803  65.048  1.00  0.00    -0.391 A  
HETATM   17 CL   UNL     1     -11.777  16.168  64.084  1.00  0.00    -0.162 Cl 
HETATM   18  C   UNL     1     -10.140  14.764  65.703  1.00  0.00    -0.393 A  
HETATM   19  C   UNL     1     -11.891  12.593  65.872  1.00  0.00    -0.499 A  
HETATM   20  C   UNL     1      -9.777  13.626  66.425  1.00  0.00    -0.300 A  
HETATM   21  C   UNL     1     -12.249  13.729  65.139  1.00  0.00    -0.453 A  
ENDBRANCH   8  15
ENDBRANCH   5   8
TORSDOF 3
ENDMDL
MODEL       53
REMARK 921   NORMALIZED FREE ENERGY PREDICTED BY IDOCK:   -4.88 KCAL/MOL
REMARK 922        TOTAL FREE ENERGY PREDICTED BY IDOCK:   -6.00 KCAL/MOL
REMARK 923 INTER-LIGAND FREE ENERGY PREDICTED BY IDOCK:   -5.47 KCAL/MOL
REMARK 924 INTRA-LIGAND FREE ENERGY PREDICTED BY IDOCK:   -0.53 KCAL/MOL
REMARK 927      BINDING AFFINITY PREDICTED BY RF-SCORE:    0.00 PKD
ROOT
HETATM    1  C   UNL     1      -8.704   5.253  74.557  1.00  0.00    -0.107 C  
HETATM    2  N   UNL     1      -9.872   5.364  73.684  1.00  0.00    -0.157 NA 
HETATM    3  C   UNL     1     -10.477   6.709  73.758  1.00  0.00    -0.333 C  
HETATM    4  C   UNL     1      -9.741   7.813  72.958  1.00  0.00    -0.267 C  
HETATM    5  N   UNL     1      -9.467   7.483  71.539  1.00  0.00    -0.150 NA 
HETATM    6  C   UNL     1      -8.774   6.166  71.533  1.00  0.00    -0.135 C  
HETATM    7  C   UNL     1      -9.519   5.040  72.288  1.00  0.00    -0.139 C  
ENDROOT
BRANCH   5   8
HETATM    8  C   UNL     1     -10.705   7.480  70.692  1.00  0.00    -0.230 C  
BRANCH   8   9
HETATM    9  C   UNL     1     -11.551   8.752  70.861  1.00  0.00    -0.320 A  
HETATM   10  C   UNL     1     -12.737   8.711  71.620  1.00  0.00    -0.379 A  
HETATM   11  C   UNL     1     -11.138  10.002  70.360  1.00  0.00    -0.393 A  
HETATM   12  C   UNL     1     -13.468   9.872  71.887  1.00  0.00    -0.467 A  
HETATM   13  C   UNL     1     -13.035  11.098  71.388  1.00  0.00    -0.506 A  
HETATM   14  C   UNL     1     -11.878  11.161  70.615  1.00  0.00    -0.403 A  
ENDBRANCH   8   9
BRANCH   8  15
HETATM   15  C   UNL     1     -10.366   7.171  69.221  1.00  0.00    -0.209 A  
HETATM   16  C   UNL     1      -9.477   6.282  66.707  1.00  0.00    -0.144 A  
HETATM   17 CL   UNL     1      -8.875   5.682  65.211  1.00  0.00    -0.123 Cl 
HETATM   18  C   UNL     1      -8.855   7.368  67.315  1.00  0.00    -0.124 A  
HETATM   19  C   UNL     1     -11.012   6.105  68.565  1.00  0.00    -0.404 A  
HETATM   20  C   UNL     1      -9.297   7.809  68.564  1.00  0.00    -0.147 A  
HETATM   21  C   UNL     1     -10.560   5.657  67.319  1.00  0.00    -0.328 A  
ENDBRANCH   8  15
ENDBRANCH   5   8
TORSDOF 3
ENDMDL
MODEL       54
REMARK 921   NORMALIZED FREE ENERGY PREDICTED BY IDOCK:   -4.87 KCAL/MOL
REMARK 922        TOTAL FREE ENERGY PREDICTED BY IDOCK:   -5.98 KCAL/MOL
REMARK 923 INTER-LIGAND FREE ENERGY PREDICTED BY IDOCK:   -5.68 KCAL/MOL
REMARK 924 INTRA-LIGAND FREE ENERGY PREDICTED BY IDOCK:   -0.30 KCAL/MOL
REMARK 927      BINDING AFFINITY PREDICTED BY RF-SCORE:    0.00 PKD
ROOT
HETATM    1  C   UNL     1     -12.646   8.999  72.699  1.00  0.00    -0.174 C  
HETATM    2  N   UNL     1     -12.823   8.943  71.248  1.00  0.00    -0.275 NA 
HETATM    3  C   UNL     1     -13.262  10.245  70.707  1.00  0.00    -0.216 C  
HETATM    4  C   UNL     1     -12.148  11.312  70.556  1.00  0.00    -0.387 C  
HETATM    5  N   UNL     1     -10.944  10.862  69.818  1.00  0.00    -0.250 NA 
HETATM    6  C   UNL     1     -10.493   9.601  70.466  1.00  0.00    -0.303 C  
HETATM    7  C   UNL     1     -11.580   8.507  70.582  1.00  0.00    -0.194 C  
ENDROOT
BRANCH   5   8
HETATM    8  C   UNL     1     -11.192  10.691  68.349  1.00  0.00    -0.288 C  
BRANCH   8   9
HETATM    9  C   UNL     1     -11.430  12.024  67.621  1.00  0.00    -0.392 A  
HETATM   10  C   UNL     1     -11.753  12.027  66.250  1.00  0.00    -0.319 A  
HETATM   11  C   UNL     1     -11.432  13.260  68.296  1.00  0.00    -0.351 A  
HETATM   12  C   UNL     1     -12.087  13.211  65.585  1.00  0.00    -0.501 A  
HETATM   13  C   UNL     1     -12.090  14.421  66.277  1.00  0.00    -0.384 A  
HETATM   14  C   UNL     1     -11.751  14.446  67.628  1.00  0.00    -0.421 A  
ENDBRANCH   8   9
BRANCH   8  15
HETATM   15  C   UNL     1     -10.086   9.838  67.698  1.00  0.00    -0.236 A  
HETATM   16  C   UNL     1      -8.151   8.527  66.136  1.00  0.00    -0.105 A  
HETATM   17 CL   UNL     1      -6.996   7.773  65.108  1.00  0.00    -0.058 Cl 
HETATM   18  C   UNL     1      -9.422   7.976  66.269  1.00  0.00    -0.241 A  
HETATM   19  C   UNL     1      -8.780  10.352  67.589  1.00  0.00    -0.118 A  
HETATM   20  C   UNL     1     -10.382   8.627  67.044  1.00  0.00    -0.368 A  
HETATM   21  C   UNL     1      -7.822   9.705  66.802  1.00  0.00    -0.102 A  
ENDBRANCH   8  15
ENDBRANCH   5   8
TORSDOF 3
ENDMDL
MODEL       55
REMARK 921   NORMALIZED FREE ENERGY PREDICTED BY IDOCK:   -4.87 KCAL/MOL
REMARK 922        TOTAL FREE ENERGY PREDICTED BY IDOCK:   -5.98 KCAL/MOL
REMARK 923 INTER-LIGAND FREE ENERGY PREDICTED BY IDOCK:   -5.62 KCAL/MOL
REMARK 924 INTRA-LIGAND FREE ENERGY PREDICTED BY IDOCK:   -0.36 KCAL/MOL
REMARK 927      BINDING AFFINITY PREDICTED BY RF-SCORE:    0.00 PKD
ROOT
HETATM    1  C   UNL     1     -11.338  15.519  67.706  1.00  0.00    -0.286 C  
HETATM    2  N   UNL     1     -10.816  16.871  67.906  1.00  0.00    -0.342 NA 
HETATM    3  C   UNL     1      -9.910  16.934  69.071  1.00  0.00    -0.247 C  
HETATM    4  C   UNL     1      -8.480  16.389  68.831  1.00  0.00    -0.247 C  
HETATM    5  N   UNL     1      -7.785  16.949  67.647  1.00  0.00    -0.162 NA 
HETATM    6  C   UNL     1      -8.704  16.772  66.490  1.00  0.00    -0.275 C  
HETATM    7  C   UNL     1     -10.123  17.353  66.695  1.00  0.00    -0.317 C  
ENDROOT
BRANCH   5   8
HETATM    8  C   UNL     1      -7.374  18.379  67.835  1.00  0.00    -0.235 C  
BRANCH   8   9
HETATM    9  C   UNL     1      -6.543  18.602  69.109  1.00  0.00    -0.289 A  
HETATM   10  C   UNL     1      -6.595  19.844  69.771  1.00  0.00    -0.353 A  
HETATM   11  C   UNL     1      -5.792  17.572  69.707  1.00  0.00    -0.244 A  
HETATM   12  C   UNL     1      -5.943  20.043  70.992  1.00  0.00    -0.322 A  
HETATM   13  C   UNL     1      -5.212  19.007  71.569  1.00  0.00    -0.328 A  
HETATM   14  C   UNL     1      -5.127  17.776  70.921  1.00  0.00    -0.250 A  
ENDBRANCH   8   9
BRANCH   8  15
HETATM   15  C   UNL     1      -6.694  18.929  66.567  1.00  0.00    -0.215 A  
HETATM   16  C   UNL     1      -5.782  19.713  64.026  1.00  0.00    -0.278 A  
HETATM   17 CL   UNL     1      -5.288  20.139  62.434  1.00  0.00    -0.242 Cl 
HETATM   18  C   UNL     1      -5.224  18.600  64.647  1.00  0.00    -0.210 A  
HETATM   19  C   UNL     1      -7.210  20.080  65.940  1.00  0.00    -0.327 A  
HETATM   20  C   UNL     1      -5.677  18.211  65.909  1.00  0.00    -0.234 A  
HETATM   21  C   UNL     1      -6.763  20.461  64.671  1.00  0.00    -0.220 A  
ENDBRANCH   8  15
ENDBRANCH   5   8
TORSDOF 3
ENDMDL
MODEL       56
REMARK 921   NORMALIZED FREE ENERGY PREDICTED BY IDOCK:   -4.85 KCAL/MOL
REMARK 922        TOTAL FREE ENERGY PREDICTED BY IDOCK:   -5.96 KCAL/MOL
REMARK 923 INTER-LIGAND FREE ENERGY PREDICTED BY IDOCK:   -5.71 KCAL/MOL
REMARK 924 INTRA-LIGAND FREE ENERGY PREDICTED BY IDOCK:   -0.26 KCAL/MOL
REMARK 927      BINDING AFFINITY PREDICTED BY RF-SCORE:    0.00 PKD
ROOT
HETATM    1  C   UNL     1      -5.166  11.611  67.912  1.00  0.00    -0.048 C  
HETATM    2  N   UNL     1      -6.299  12.423  68.356  1.00  0.00    -0.052 NA 
HETATM    3  C   UNL     1      -7.222  12.720  67.241  1.00  0.00    -0.082 C  
HETATM    4  C   UNL     1      -8.173  11.564  66.841  1.00  0.00    -0.167 C  
HETATM    5  N   UNL     1      -8.941  10.968  67.959  1.00  0.00    -0.140 NA 
HETATM    6  C   UNL     1      -7.953  10.603  69.009  1.00  0.00    -0.140 C  
HETATM    7  C   UNL     1      -7.025  11.757  69.455  1.00  0.00    -0.026 C  
ENDROOT
BRANCH   5   8
HETATM    8  C   UNL     1     -10.015  11.877  68.478  1.00  0.00    -0.192 C  
BRANCH   8   9
HETATM    9  C   UNL     1     -10.703  12.689  67.368  1.00  0.00    -0.251 A  
HETATM   10  C   UNL     1     -11.448  12.027  66.374  1.00  0.00    -0.417 A  
HETATM   11  C   UNL     1     -10.699  14.097  67.356  1.00  0.00    -0.284 A  
HETATM   12  C   UNL     1     -12.178  12.740  65.418  1.00  0.00    -0.532 A  
HETATM   13  C   UNL     1     -12.167  14.133  65.431  1.00  0.00    -0.441 A  
HETATM   14  C   UNL     1     -11.418  14.811  66.391  1.00  0.00    -0.319 A  
ENDBRANCH   8   9
BRANCH   8  15
HETATM   15  C   UNL     1     -11.010  11.104  69.365  1.00  0.00    -0.298 A  
HETATM   16  C   UNL     1     -12.557   9.821  71.330  1.00  0.00    -0.386 A  
HETATM   17 CL   UNL     1     -13.441   9.059  72.595  1.00  0.00    -0.477 Cl 
HETATM   18  C   UNL     1     -11.605   9.098  70.621  1.00  0.00    -0.282 A  
HETATM   19  C   UNL     1     -12.014  11.805  70.062  1.00  0.00    -0.421 A  
HETATM   20  C   UNL     1     -10.836   9.736  69.645  1.00  0.00    -0.274 A  
HETATM   21  C   UNL     1     -12.775  11.168  71.048  1.00  0.00    -0.476 A  
ENDBRANCH   8  15
ENDBRANCH   5   8
TORSDOF 3
ENDMDL
MODEL       57
REMARK 921   NORMALIZED FREE ENERGY PREDICTED BY IDOCK:   -4.81 KCAL/MOL
REMARK 922        TOTAL FREE ENERGY PREDICTED BY IDOCK:   -5.92 KCAL/MOL
REMARK 923 INTER-LIGAND FREE ENERGY PREDICTED BY IDOCK:   -5.33 KCAL/MOL
REMARK 924 INTRA-LIGAND FREE ENERGY PREDICTED BY IDOCK:   -0.59 KCAL/MOL
REMARK 927      BINDING AFFINITY PREDICTED BY RF-SCORE:    0.00 PKD
ROOT
HETATM    1  C   UNL     1     -11.425   9.755  71.412  1.00  0.00    -0.365 C  
HETATM    2  N   UNL     1     -11.777   9.710  69.992  1.00  0.00    -0.098 NA 
HETATM    3  C   UNL     1     -12.148  11.047  69.485  1.00  0.00    -0.329 C  
HETATM    4  C   UNL     1     -10.962  11.998  69.188  1.00  0.00    -0.178 C  
HETATM    5  N   UNL     1      -9.902  11.428  68.321  1.00  0.00    -0.194 NA 
HETATM    6  C   UNL     1      -9.502  10.133  68.933  1.00  0.00    -0.182 C  
HETATM    7  C   UNL     1     -10.669   9.151  69.193  1.00  0.00    -0.172 C  
ENDROOT
BRANCH   5   8
HETATM    8  C   UNL     1     -10.336  11.276  66.894  1.00  0.00    -0.234 C  
BRANCH   8   9
HETATM    9  C   UNL     1     -10.829  12.592  66.272  1.00  0.00    -0.300 A  
HETATM   10  C   UNL     1      -9.961  13.699  66.193  1.00  0.00    -0.314 A  
HETATM   11  C   UNL     1     -12.101  12.715  65.681  1.00  0.00    -0.502 A  
HETATM   12  C   UNL     1     -10.338  14.871  65.532  1.00  0.00    -0.388 A  
HETATM   13  C   UNL     1     -11.600  14.967  64.948  1.00  0.00    -0.395 A  
HETATM   14  C   UNL     1     -12.484  13.894  65.033  1.00  0.00    -0.447 A  
ENDBRANCH   8   9
BRANCH   8  15
HETATM   15  C   UNL     1      -9.244  10.584  66.056  1.00  0.00    -0.205 A  
HETATM   16  C   UNL     1      -7.245   9.708  64.284  1.00  0.00    -0.122 A  
HETATM   17 CL   UNL     1      -6.034   9.249  63.153  1.00  0.00    -0.088 Cl 
HETATM   18  C   UNL     1      -8.574   9.372  64.047  1.00  0.00    -0.222 A  
HETATM   19  C   UNL     1      -7.888  10.872  66.302  1.00  0.00    -0.158 A  
HETATM   20  C   UNL     1      -9.567   9.807  64.927  1.00  0.00    -0.316 A  
HETATM   21  C   UNL     1      -6.896  10.445  65.413  1.00  0.00    -0.120 A  
ENDBRANCH   8  15
ENDBRANCH   5   8
TORSDOF 3
ENDMDL
MODEL       58
REMARK 921   NORMALIZED FREE ENERGY PREDICTED BY IDOCK:   -4.79 KCAL/MOL
REMARK 922        TOTAL FREE ENERGY PREDICTED BY IDOCK:   -5.89 KCAL/MOL
REMARK 923 INTER-LIGAND FREE ENERGY PREDICTED BY IDOCK:   -5.71 KCAL/MOL
REMARK 924 INTRA-LIGAND FREE ENERGY PREDICTED BY IDOCK:   -0.18 KCAL/MOL
REMARK 927      BINDING AFFINITY PREDICTED BY RF-SCORE:    0.00 PKD
ROOT
HETATM    1  C   UNL     1      -6.043   8.493  68.233  1.00  0.00    -0.050 C  
HETATM    2  N   UNL     1      -7.481   8.396  67.981  1.00  0.00    -0.096 NA 
HETATM    3  C   UNL     1      -8.251   8.383  69.241  1.00  0.00    -0.116 C  
HETATM    4  C   UNL     1      -8.436   9.763  69.921  1.00  0.00    -0.201 C  
HETATM    5  N   UNL     1      -8.967  10.831  69.040  1.00  0.00    -0.160 NA 
HETATM    6  C   UNL     1      -8.096  10.861  67.834  1.00  0.00    -0.113 C  
HETATM    7  C   UNL     1      -7.938   9.501  67.115  1.00  0.00    -0.102 C  
ENDROOT
BRANCH   5   8
HETATM    8  C   UNL     1     -10.413  10.635  68.695  1.00  0.00    -0.191 C  
BRANCH   8   9
HETATM    9  C   UNL     1     -11.303  10.423  69.931  1.00  0.00    -0.370 A  
HETATM   10  C   UNL     1     -12.041  11.501  70.457  1.00  0.00    -0.472 A  
HETATM   11  C   UNL     1     -11.489   9.155  70.514  1.00  0.00    -0.271 A  
HETATM   12  C   UNL     1     -12.945  11.318  71.507  1.00  0.00    -0.520 A  
HETATM   13  C   UNL     1     -13.119  10.052  72.063  1.00  0.00    -0.541 A  
HETATM   14  C   UNL     1     -12.383   8.974  71.575  1.00  0.00    -0.397 A  
ENDBRANCH   8   9
BRANCH   8  15
HETATM   15  C   UNL     1     -10.918  11.763  67.775  1.00  0.00    -0.277 A  
HETATM   16  C   UNL     1     -11.448  13.761  65.869  1.00  0.00    -0.322 A  
HETATM   17 CL   UNL     1     -11.689  14.970  64.669  1.00  0.00    -0.414 Cl 
HETATM   18  C   UNL     1     -10.890  14.107  67.095  1.00  0.00    -0.291 A  
HETATM   19  C   UNL     1     -11.527  11.443  66.546  1.00  0.00    -0.093 A  
HETATM   20  C   UNL     1     -10.626  13.114  68.041  1.00  0.00    -0.246 A  
HETATM   21  C   UNL     1     -11.780  12.437  65.595  1.00  0.00    -0.468 A  
ENDBRANCH   8  15
ENDBRANCH   5   8
TORSDOF 3
ENDMDL
MODEL       59
REMARK 921   NORMALIZED FREE ENERGY PREDICTED BY IDOCK:   -4.69 KCAL/MOL
REMARK 922        TOTAL FREE ENERGY PREDICTED BY IDOCK:   -5.77 KCAL/MOL
REMARK 923 INTER-LIGAND FREE ENERGY PREDICTED BY IDOCK:   -5.51 KCAL/MOL
REMARK 924 INTRA-LIGAND FREE ENERGY PREDICTED BY IDOCK:   -0.26 KCAL/MOL
REMARK 927      BINDING AFFINITY PREDICTED BY RF-SCORE:    0.00 PKD
ROOT
HETATM    1  C   UNL     1      -8.527   7.209  66.013  1.00  0.00    -0.145 C  
HETATM    2  N   UNL     1      -9.492   6.887  67.066  1.00  0.00    -0.145 NA 
HETATM    3  C   UNL     1      -8.841   6.805  68.389  1.00  0.00    -0.122 C  
HETATM    4  C   UNL     1      -8.524   8.166  69.058  1.00  0.00    -0.129 C  
HETATM    5  N   UNL     1      -9.666   9.108  69.138  1.00  0.00    -0.160 NA 
HETATM    6  C   UNL     1     -10.220   9.223  67.762  1.00  0.00    -0.218 C  
HETATM    7  C   UNL     1     -10.587   7.876  67.096  1.00  0.00    -0.313 C  
ENDROOT
BRANCH   5   8
HETATM    8  C   UNL     1     -10.701   8.684  70.136  1.00  0.00    -0.234 C  
BRANCH   8   9
HETATM    9  C   UNL     1     -10.097   8.012  71.380  1.00  0.00    -0.228 A  
HETATM   10  C   UNL     1     -10.340   6.647  71.627  1.00  0.00    -0.227 A  
HETATM   11  C   UNL     1      -9.219   8.688  72.248  1.00  0.00    -0.297 A  
HETATM   12  C   UNL     1      -9.715   5.978  72.684  1.00  0.00    -0.166 A  
HETATM   13  C   UNL     1      -8.843   6.667  73.525  1.00  0.00    -0.140 A  
HETATM   14  C   UNL     1      -8.604   8.023  73.314  1.00  0.00    -0.297 A  
ENDBRANCH   8   9
BRANCH   8  15
HETATM   15  C   UNL     1     -11.647   9.851  70.481  1.00  0.00    -0.386 A  
HETATM   16  C   UNL     1     -13.077  12.070  71.446  1.00  0.00    -0.197 A  
HETATM   17 CL   UNL     1     -13.893  13.433  72.106  1.00  0.00    -0.615 Cl 
HETATM   18  C   UNL     1     -13.431  10.788  71.856  1.00  0.00    -0.327 A  
HETATM   19  C   UNL     1     -11.337  11.153  70.043  1.00  0.00    -0.326 A  
HETATM   20  C   UNL     1     -12.720   9.687  71.376  1.00  0.00    -0.466 A  
HETATM   21  C   UNL     1     -12.042  12.257  70.533  1.00  0.00    -0.371 A  
ENDBRANCH   8  15
ENDBRANCH   5   8
TORSDOF 3
ENDMDL
MODEL       60
REMARK 921   NORMALIZED FREE ENERGY PREDICTED BY IDOCK:   -4.69 KCAL/MOL
REMARK 922        TOTAL FREE ENERGY PREDICTED BY IDOCK:   -5.77 KCAL/MOL
REMARK 923 INTER-LIGAND FREE ENERGY PREDICTED BY IDOCK:   -5.13 KCAL/MOL
REMARK 924 INTRA-LIGAND FREE ENERGY PREDICTED BY IDOCK:   -0.64 KCAL/MOL
REMARK 927      BINDING AFFINITY PREDICTED BY RF-SCORE:    0.00 PKD
ROOT
HETATM    1  C   UNL     1      -9.692  17.968  67.710  1.00  0.00    -0.292 C  
HETATM    2  N   UNL     1     -10.544  16.791  67.875  1.00  0.00    -0.340 NA 
HETATM    3  C   UNL     1     -11.013  16.277  66.572  1.00  0.00    -0.007 C  
HETATM    4  C   UNL     1      -9.976  15.447  65.773  1.00  0.00    -0.362 C  
HETATM    5  N   UNL     1      -9.340  14.342  66.529  1.00  0.00    -0.283 NA 
HETATM    6  C   UNL     1      -8.804  14.937  67.783  1.00  0.00    -0.173 C  
HETATM    7  C   UNL     1      -9.838  15.729  68.618  1.00  0.00    -0.210 C  
ENDROOT
BRANCH   5   8
HETATM    8  C   UNL     1     -10.277  13.202  66.794  1.00  0.00    -0.252 C  
BRANCH   8   9
HETATM    9  C   UNL     1     -11.009  12.721  65.530  1.00  0.00    -0.310 A  
HETATM   10  C   UNL     1     -12.410  12.843  65.441  1.00  0.00    -0.538 A  
HETATM   11  C   UNL     1     -10.321  12.241  64.399  1.00  0.00    -0.358 A  
HETATM   12  C   UNL     1     -13.093  12.521  64.265  1.00  0.00    -0.093 A  
HETATM   13  C   UNL     1     -12.389  12.057  63.156  1.00  0.00    -0.394 A  
HETATM   14  C   UNL     1     -11.006  11.906  63.227  1.00  0.00    -0.399 A  
ENDBRANCH   8   9
BRANCH   8  15
HETATM   15  C   UNL     1      -9.563  12.064  67.547  1.00  0.00    -0.177 A  
HETATM   16  C   UNL     1      -8.483   9.708  68.638  1.00  0.00    -0.119 A  
HETATM   17 CL   UNL     1      -7.877   8.219  69.250  1.00  0.00    -0.106 Cl 
HETATM   18  C   UNL     1      -9.599  10.294  69.227  1.00  0.00    -0.239 A  
HETATM   19  C   UNL     1      -8.405  11.480  66.997  1.00  0.00    -0.165 A  
HETATM   20  C   UNL     1     -10.135  11.463  68.685  1.00  0.00    -0.217 A  
HETATM   21  C   UNL     1      -7.876  10.302  67.534  1.00  0.00    -0.102 A  
ENDBRANCH   8  15
ENDBRANCH   5   8
TORSDOF 3
ENDMDL
MODEL       61
REMARK 921   NORMALIZED FREE ENERGY PREDICTED BY IDOCK:   -4.67 KCAL/MOL
REMARK 922        TOTAL FREE ENERGY PREDICTED BY IDOCK:   -5.76 KCAL/MOL
REMARK 923 INTER-LIGAND FREE ENERGY PREDICTED BY IDOCK:   -5.20 KCAL/MOL
REMARK 924 INTRA-LIGAND FREE ENERGY PREDICTED BY IDOCK:   -0.56 KCAL/MOL
REMARK 927      BINDING AFFINITY PREDICTED BY RF-SCORE:    0.00 PKD
ROOT
HETATM    1  C   UNL     1     -11.267  13.277  66.623  1.00  0.00    -0.306 C  
HETATM    2  N   UNL     1     -11.832  11.962  66.927  1.00  0.00    -0.610 NA 
HETATM    3  C   UNL     1     -11.062  10.880  66.280  1.00  0.00     0.033 C  
HETATM    4  C   UNL     1      -9.733  10.501  66.981  1.00  0.00    -0.177 C  
HETATM    5  N   UNL     1      -9.847  10.214  68.430  1.00  0.00    -0.148 NA 
HETATM    6  C   UNL     1     -10.543  11.377  69.042  1.00  0.00    -0.191 C  
HETATM    7  C   UNL     1     -11.896  11.741  68.385  1.00  0.00    -0.282 C  
ENDROOT
BRANCH   5   8
HETATM    8  C   UNL     1     -10.544   8.917  68.714  1.00  0.00    -0.157 C  
BRANCH   8   9
HETATM    9  C   UNL     1     -10.034   7.757  67.844  1.00  0.00    -0.212 A  
HETATM   10  C   UNL     1      -8.655   7.475  67.790  1.00  0.00    -0.120 A  
HETATM   11  C   UNL     1     -10.907   6.889  67.160  1.00  0.00    -0.447 A  
HETATM   12  C   UNL     1      -8.169   6.359  67.101  1.00  0.00    -0.113 A  
HETATM   13  C   UNL     1      -9.053   5.510  66.439  1.00  0.00    -0.145 A  
HETATM   14  C   UNL     1     -10.420   5.782  66.459  1.00  0.00    -0.280 A  
ENDBRANCH   8   9
BRANCH   8  15
HETATM   15  C   UNL     1     -10.521   8.596  70.221  1.00  0.00    -0.229 A  
HETATM   16  C   UNL     1     -10.220   7.654  72.852  1.00  0.00    -0.298 A  
HETATM   17 CL   UNL     1      -9.991   7.005  74.429  1.00  0.00    -0.247 Cl 
HETATM   18  C   UNL     1     -11.348   7.303  72.118  1.00  0.00    -0.301 A  
HETATM   19  C   UNL     1      -9.411   8.978  70.999  1.00  0.00    -0.342 A  
HETATM   20  C   UNL     1     -11.497   7.771  70.811  1.00  0.00    -0.285 A  
HETATM   21  C   UNL     1      -9.257   8.499  72.304  1.00  0.00    -0.343 A  
ENDBRANCH   8  15
ENDBRANCH   5   8
TORSDOF 3
ENDMDL
MODEL       62
REMARK 921   NORMALIZED FREE ENERGY PREDICTED BY IDOCK:   -4.67 KCAL/MOL
REMARK 922        TOTAL FREE ENERGY PREDICTED BY IDOCK:   -5.75 KCAL/MOL
REMARK 923 INTER-LIGAND FREE ENERGY PREDICTED BY IDOCK:   -5.40 KCAL/MOL
REMARK 924 INTRA-LIGAND FREE ENERGY PREDICTED BY IDOCK:   -0.35 KCAL/MOL
REMARK 927      BINDING AFFINITY PREDICTED BY RF-SCORE:    0.00 PKD
ROOT
HETATM    1  C   UNL     1     -10.938   7.594  73.063  1.00  0.00    -0.400 C  
HETATM    2  N   UNL     1     -11.629   7.829  71.795  1.00  0.00    -0.262 NA 
HETATM    3  C   UNL     1     -11.399   9.201  71.299  1.00  0.00    -0.336 C  
HETATM    4  C   UNL     1     -10.024   9.441  70.625  1.00  0.00    -0.284 C  
HETATM    5  N   UNL     1      -9.671   8.475  69.558  1.00  0.00    -0.174 NA 
HETATM    6  C   UNL     1      -9.830   7.117  70.143  1.00  0.00    -0.179 C  
HETATM    7  C   UNL     1     -11.213   6.843  70.779  1.00  0.00    -0.294 C  
ENDROOT
BRANCH   5   8
HETATM    8  C   UNL     1     -10.486   8.659  68.313  1.00  0.00    -0.184 C  
BRANCH   8   9
HETATM    9  C   UNL     1     -10.394  10.082  67.739  1.00  0.00    -0.261 A  
HETATM   10  C   UNL     1      -9.163  10.562  67.250  1.00  0.00    -0.156 A  
HETATM   11  C   UNL     1     -11.524  10.907  67.590  1.00  0.00    -0.281 A  
HETATM   12  C   UNL     1      -9.069  11.806  66.618  1.00  0.00    -0.194 A  
HETATM   13  C   UNL     1     -10.204  12.602  66.475  1.00  0.00    -0.255 A  
HETATM   14  C   UNL     1     -11.428  12.158  66.971  1.00  0.00    -0.415 A  
ENDBRANCH   8   9
BRANCH   8  15
HETATM   15  C   UNL     1     -10.161   7.567  67.275  1.00  0.00    -0.337 A  
HETATM   16  C   UNL     1      -9.405   5.340  65.735  1.00  0.00    -0.139 A  
HETATM   17 CL   UNL     1      -8.905   3.941  64.868  1.00  0.00    -0.118 Cl 
HETATM   18  C   UNL     1      -8.549   6.431  65.839  1.00  0.00    -0.151 A  
HETATM   19  C   UNL     1     -11.033   6.472  67.117  1.00  0.00    -0.480 A  
HETATM   20  C   UNL     1      -8.924   7.537  66.604  1.00  0.00    -0.177 A  
HETATM   21  C   UNL     1     -10.650   5.360  66.360  1.00  0.00    -0.322 A  
ENDBRANCH   8  15
ENDBRANCH   5   8
TORSDOF 3
ENDMDL
MODEL       63
REMARK 921   NORMALIZED FREE ENERGY PREDICTED BY IDOCK:   -4.67 KCAL/MOL
REMARK 922        TOTAL FREE ENERGY PREDICTED BY IDOCK:   -5.75 KCAL/MOL
REMARK 923 INTER-LIGAND FREE ENERGY PREDICTED BY IDOCK:   -5.80 KCAL/MOL
REMARK 924 INTRA-LIGAND FREE ENERGY PREDICTED BY IDOCK:    0.06 KCAL/MOL
REMARK 927      BINDING AFFINITY PREDICTED BY RF-SCORE:    0.00 PKD
ROOT
HETATM    1  C   UNL     1     -11.920  15.384  64.150  1.00  0.00    -0.097 C  
HETATM    2  N   UNL     1     -11.024  15.022  65.249  1.00  0.00    -0.359 NA 
HETATM    3  C   UNL     1     -11.711  15.101  66.554  1.00  0.00    -0.029 C  
HETATM    4  C   UNL     1     -12.644  13.910  66.887  1.00  0.00     0.011 C  
HETATM    5  N   UNL     1     -12.026  12.570  66.746  1.00  0.00    -0.559 NA 
HETATM    6  C   UNL     1     -11.435  12.515  65.382  1.00  0.00    -0.344 C  
HETATM    7  C   UNL     1     -10.464  13.672  65.049  1.00  0.00    -0.391 C  
ENDROOT
BRANCH   5   8
HETATM    8  C   UNL     1     -11.017  12.278  67.816  1.00  0.00    -0.232 C  
BRANCH   8   9
HETATM    9  C   UNL     1     -11.641  12.179  69.218  1.00  0.00    -0.377 A  
HETATM   10  C   UNL     1     -12.031  13.349  69.897  1.00  0.00    -0.408 A  
HETATM   11  C   UNL     1     -11.931  10.942  69.825  1.00  0.00    -0.423 A  
HETATM   12  C   UNL     1     -12.703  13.288  71.121  1.00  0.00    -0.404 A  
HETATM   13  C   UNL     1     -12.987  12.052  71.699  1.00  0.00    -0.439 A  
HETATM   14  C   UNL     1     -12.591  10.881  71.057  1.00  0.00    -0.517 A  
ENDBRANCH   8   9
BRANCH   8  15
HETATM   15  C   UNL     1     -10.161  11.051  67.448  1.00  0.00    -0.229 A  
HETATM   16  C   UNL     1      -8.570   9.003  66.364  1.00  0.00    -0.125 A  
HETATM   17 CL   UNL     1      -7.603   7.791  65.619  1.00  0.00    -0.081 Cl 
HETATM   18  C   UNL     1      -9.953   8.861  66.394  1.00  0.00    -0.354 A  
HETATM   19  C   UNL     1      -8.756  11.153  67.451  1.00  0.00    -0.133 A  
HETATM   20  C   UNL     1     -10.743   9.878  66.933  1.00  0.00    -0.195 A  
HETATM   21  C   UNL     1      -7.967  10.138  66.900  1.00  0.00    -0.114 A  
ENDBRANCH   8  15
ENDBRANCH   5   8
TORSDOF 3
ENDMDL
MODEL       64
REMARK 921   NORMALIZED FREE ENERGY PREDICTED BY IDOCK:   -4.65 KCAL/MOL
REMARK 922        TOTAL FREE ENERGY PREDICTED BY IDOCK:   -5.73 KCAL/MOL
REMARK 923 INTER-LIGAND FREE ENERGY PREDICTED BY IDOCK:   -5.19 KCAL/MOL
REMARK 924 INTRA-LIGAND FREE ENERGY PREDICTED BY IDOCK:   -0.54 KCAL/MOL
REMARK 927      BINDING AFFINITY PREDICTED BY RF-SCORE:    0.00 PKD
ROOT
HETATM    1  C   UNL     1     -12.016  14.507  67.661  1.00  0.00    -0.320 C  
HETATM    2  N   UNL     1     -10.845  13.729  68.064  1.00  0.00    -0.245 NA 
HETATM    3  C   UNL     1     -11.011  13.164  69.418  1.00  0.00     0.001 C  
HETATM    4  C   UNL     1     -11.911  11.905  69.507  1.00  0.00    -0.331 C  
HETATM    5  N   UNL     1     -11.559  10.814  68.566  1.00  0.00    -0.375 NA 
HETATM    6  C   UNL     1     -11.499  11.423  67.210  1.00  0.00    -0.224 C  
HETATM    7  C   UNL     1     -10.569  12.652  67.092  1.00  0.00    -0.236 C  
ENDROOT
BRANCH   5   8
HETATM    8  C   UNL     1     -10.284  10.117  68.935  1.00  0.00    -0.199 C  
BRANCH   8   9
HETATM    9  C   UNL     1     -10.386   9.335  70.255  1.00  0.00    -0.272 A  
HETATM   10  C   UNL     1      -9.225   9.072  71.007  1.00  0.00    -0.331 A  
HETATM   11  C   UNL     1     -11.623   8.946  70.804  1.00  0.00    -0.301 A  
HETATM   12  C   UNL     1      -9.296   8.466  72.264  1.00  0.00    -0.356 A  
HETATM   13  C   UNL     1     -10.532   8.096  72.791  1.00  0.00    -0.385 A  
HETATM   14  C   UNL     1     -11.693   8.326  72.056  1.00  0.00    -0.407 A  
ENDBRANCH   8   9
BRANCH   8  15
HETATM   15  C   UNL     1      -9.766   9.258  67.765  1.00  0.00    -0.182 A  
HETATM   16  C   UNL     1      -8.659   7.416  65.954  1.00  0.00    -0.153 A  
HETATM   17 CL   UNL     1      -7.945   6.243  64.916  1.00  0.00    -0.120 Cl 
HETATM   18  C   UNL     1      -7.939   8.551  66.311  1.00  0.00    -0.102 A  
HETATM   19  C   UNL     1     -10.497   8.127  67.352  1.00  0.00    -0.356 A  
HETATM   20  C   UNL     1      -8.489   9.466  67.211  1.00  0.00    -0.125 A  
HETATM   21  C   UNL     1      -9.939   7.206  66.460  1.00  0.00    -0.173 A  
ENDBRANCH   8  15
ENDBRANCH   5   8
TORSDOF 3
ENDMDL
MODEL       65
REMARK 921   NORMALIZED FREE ENERGY PREDICTED BY IDOCK:   -4.65 KCAL/MOL
REMARK 922        TOTAL FREE ENERGY PREDICTED BY IDOCK:   -5.73 KCAL/MOL
REMARK 923 INTER-LIGAND FREE ENERGY PREDICTED BY IDOCK:   -5.15 KCAL/MOL
REMARK 924 INTRA-LIGAND FREE ENERGY PREDICTED BY IDOCK:   -0.58 KCAL/MOL
REMARK 927      BINDING AFFINITY PREDICTED BY RF-SCORE:    0.00 PKD
ROOT
HETATM    1  C   UNL     1     -10.642   6.673  73.750  1.00  0.00    -0.278 C  
HETATM    2  N   UNL     1     -11.414   7.047  72.565  1.00  0.00    -0.259 NA 
HETATM    3  C   UNL     1     -11.309   8.494  72.285  1.00  0.00    -0.371 C  
HETATM    4  C   UNL     1      -9.992   8.944  71.603  1.00  0.00    -0.327 C  
HETATM    5  N   UNL     1      -9.628   8.187  70.381  1.00  0.00    -0.170 NA 
HETATM    6  C   UNL     1      -9.658   6.746  70.748  1.00  0.00    -0.168 C  
HETATM    7  C   UNL     1     -10.983   6.268  71.388  1.00  0.00    -0.275 C  
ENDROOT
BRANCH   5   8
HETATM    8  C   UNL     1     -10.518   8.498  69.216  1.00  0.00    -0.215 C  
BRANCH   8   9
HETATM    9  C   UNL     1     -10.551   9.995  68.868  1.00  0.00    -0.239 A  
HETATM   10  C   UNL     1     -11.747  10.724  69.020  1.00  0.00    -0.357 A  
HETATM   11  C   UNL     1      -9.396  10.704  68.487  1.00  0.00    -0.170 A  
HETATM   12  C   UNL     1     -11.783  12.108  68.822  1.00  0.00    -0.374 A  
HETATM   13  C   UNL     1     -10.625  12.789  68.453  1.00  0.00    -0.262 A  
HETATM   14  C   UNL     1      -9.435  12.086  68.274  1.00  0.00    -0.199 A  
ENDBRANCH   8   9
BRANCH   8  15
HETATM   15  C   UNL     1     -10.178   7.605  68.007  1.00  0.00    -0.248 A  
HETATM   16  C   UNL     1      -9.464   5.655  66.113  1.00  0.00    -0.139 A  
HETATM   17 CL   UNL     1      -9.003   4.407  65.022  1.00  0.00    -0.139 Cl 
HETATM   18  C   UNL     1      -8.520   6.585  66.536  1.00  0.00    -0.120 A  
HETATM   19  C   UNL     1     -11.130   6.684  67.529  1.00  0.00    -0.374 A  
HETATM   20  C   UNL     1      -8.875   7.553  67.477  1.00  0.00    -0.127 A  
HETATM   21  C   UNL     1     -10.769   5.708  66.595  1.00  0.00    -0.339 A  
ENDBRANCH   8  15
ENDBRANCH   5   8
TORSDOF 3
ENDMDL
MODEL       66
REMARK 921   NORMALIZED FREE ENERGY PREDICTED BY IDOCK:   -4.62 KCAL/MOL
REMARK 922        TOTAL FREE ENERGY PREDICTED BY IDOCK:   -5.69 KCAL/MOL
REMARK 923 INTER-LIGAND FREE ENERGY PREDICTED BY IDOCK:   -5.14 KCAL/MOL
REMARK 924 INTRA-LIGAND FREE ENERGY PREDICTED BY IDOCK:   -0.55 KCAL/MOL
REMARK 927      BINDING AFFINITY PREDICTED BY RF-SCORE:    0.00 PKD
ROOT
HETATM    1  C   UNL     1      -5.807  12.187  69.214  1.00  0.00    -0.079 C  
HETATM    2  N   UNL     1      -7.220  11.810  69.180  1.00  0.00    -0.082 NA 
HETATM    3  C   UNL     1      -7.945  12.524  68.110  1.00  0.00    -0.157 C  
HETATM    4  C   UNL     1      -7.735  11.966  66.679  1.00  0.00     0.018 C  
HETATM    5  N   UNL     1      -7.967  10.509  66.533  1.00  0.00    -0.127 NA 
HETATM    6  C   UNL     1      -7.140   9.839  67.572  1.00  0.00    -0.088 C  
HETATM    7  C   UNL     1      -7.371  10.351  69.013  1.00  0.00    -0.097 C  
ENDROOT
BRANCH   5   8
HETATM    8  C   UNL     1      -9.416  10.138  66.630  1.00  0.00    -0.170 C  
BRANCH   8   9
HETATM    9  C   UNL     1     -10.322  11.018  65.754  1.00  0.00    -0.316 A  
HETATM   10  C   UNL     1     -10.279  10.891  64.352  1.00  0.00    -0.423 A  
HETATM   11  C   UNL     1     -11.278  11.894  66.303  1.00  0.00    -0.392 A  
HETATM   12  C   UNL     1     -11.169  11.593  63.532  1.00  0.00    -0.462 A  
HETATM   13  C   UNL     1     -12.112  12.448  64.098  1.00  0.00    -0.539 A  
HETATM   14  C   UNL     1     -12.158  12.607  65.482  1.00  0.00    -0.515 A  
ENDBRANCH   8   9
BRANCH   8  15
HETATM   15  C   UNL     1      -9.617   8.631  66.382  1.00  0.00    -0.316 A  
HETATM   16  C   UNL     1      -9.747   5.823  66.316  1.00  0.00    -0.117 A  
HETATM   17 CL   UNL     1      -9.771   4.103  66.347  1.00  0.00    -0.218 Cl 
HETATM   18  C   UNL     1      -8.758   6.486  65.596  1.00  0.00    -0.102 A  
HETATM   19  C   UNL     1     -10.639   7.941  67.064  1.00  0.00    -0.381 A  
HETATM   20  C   UNL     1      -8.694   7.881  65.630  1.00  0.00    -0.145 A  
HETATM   21  C   UNL     1     -10.694   6.543  67.039  1.00  0.00    -0.434 A  
ENDBRANCH   8  15
ENDBRANCH   5   8
TORSDOF 3
ENDMDL
MODEL       67
REMARK 921   NORMALIZED FREE ENERGY PREDICTED BY IDOCK:   -4.61 KCAL/MOL
REMARK 922        TOTAL FREE ENERGY PREDICTED BY IDOCK:   -5.68 KCAL/MOL
REMARK 923 INTER-LIGAND FREE ENERGY PREDICTED BY IDOCK:   -5.51 KCAL/MOL
REMARK 924 INTRA-LIGAND FREE ENERGY PREDICTED BY IDOCK:   -0.16 KCAL/MOL
REMARK 927      BINDING AFFINITY PREDICTED BY RF-SCORE:    0.00 PKD
ROOT
HETATM    1  C   UNL     1      -9.102   4.621  74.480  1.00  0.00    -0.110 C  
HETATM    2  N   UNL     1      -8.728   5.696  73.560  1.00  0.00    -0.120 NA 
HETATM    3  C   UNL     1      -8.810   5.256  72.152  1.00  0.00    -0.130 C  
HETATM    4  C   UNL     1     -10.239   5.205  71.555  1.00  0.00    -0.207 C  
HETATM    5  N   UNL     1     -11.033   6.446  71.721  1.00  0.00    -0.244 NA 
HETATM    6  C   UNL     1     -10.993   6.786  73.169  1.00  0.00    -0.246 C  
HETATM    7  C   UNL     1      -9.572   6.887  73.772  1.00  0.00    -0.225 C  
ENDROOT
BRANCH   5   8
HETATM    8  C   UNL     1     -10.545   7.570  70.857  1.00  0.00    -0.220 C  
BRANCH   8   9
HETATM    9  C   UNL     1     -10.288   7.142  69.403  1.00  0.00    -0.206 A  
HETATM   10  C   UNL     1      -9.022   7.354  68.823  1.00  0.00    -0.129 A  
HETATM   11  C   UNL     1     -11.249   6.449  68.642  1.00  0.00    -0.338 A  
HETATM   12  C   UNL     1      -8.720   6.876  67.545  1.00  0.00    -0.120 A  
HETATM   13  C   UNL     1      -9.685   6.185  66.814  1.00  0.00    -0.191 A  
HETATM   14  C   UNL     1     -10.951   5.983  67.357  1.00  0.00    -0.344 A  
ENDBRANCH   8   9
BRANCH   8  15
HETATM   15  C   UNL     1     -11.473   8.795  70.970  1.00  0.00    -0.337 A  
HETATM   16  C   UNL     1     -12.921  11.134  71.547  1.00  0.00    -0.437 A  
HETATM   17 CL   UNL     1     -13.759  12.574  71.977  1.00  0.00    -0.368 Cl 
HETATM   18  C   UNL     1     -13.395   9.902  71.987  1.00  0.00    -0.532 A  
HETATM   19  C   UNL     1     -11.038  10.047  70.494  1.00  0.00    -0.400 A  
HETATM   20  C   UNL     1     -12.675   8.741  71.700  1.00  0.00    -0.394 A  
HETATM   21  C   UNL     1     -11.754  11.211  70.792  1.00  0.00    -0.215 A  
ENDBRANCH   8  15
ENDBRANCH   5   8
TORSDOF 3
ENDMDL
MODEL       68
REMARK 921   NORMALIZED FREE ENERGY PREDICTED BY IDOCK:   -4.60 KCAL/MOL
REMARK 922        TOTAL FREE ENERGY PREDICTED BY IDOCK:   -5.67 KCAL/MOL
REMARK 923 INTER-LIGAND FREE ENERGY PREDICTED BY IDOCK:   -5.89 KCAL/MOL
REMARK 924 INTRA-LIGAND FREE ENERGY PREDICTED BY IDOCK:    0.22 KCAL/MOL
REMARK 927      BINDING AFFINITY PREDICTED BY RF-SCORE:    0.00 PKD
ROOT
HETATM    1  C   UNL     1     -11.242   4.836  73.020  1.00  0.00    -0.262 C  
HETATM    2  N   UNL     1     -10.382   5.946  72.608  1.00  0.00    -0.191 NA 
HETATM    3  C   UNL     1     -10.141   5.931  71.151  1.00  0.00    -0.198 C  
HETATM    4  C   UNL     1     -11.303   6.473  70.280  1.00  0.00    -0.395 C  
HETATM    5  N   UNL     1     -11.812   7.809  70.673  1.00  0.00    -0.189 NA 
HETATM    6  C   UNL     1     -12.126   7.735  72.125  1.00  0.00    -0.304 C  
HETATM    7  C   UNL     1     -10.962   7.240  73.016  1.00  0.00    -0.344 C  
ENDROOT
BRANCH   5   8
HETATM    8  C   UNL     1     -10.851   8.915  70.353  1.00  0.00    -0.236 C  
BRANCH   8   9
HETATM    9  C   UNL     1     -10.060   8.667  69.058  1.00  0.00    -0.207 A  
HETATM   10  C   UNL     1     -10.735   8.612  67.823  1.00  0.00    -0.178 A  
HETATM   11  C   UNL     1      -8.654   8.586  69.040  1.00  0.00    -0.130 A  
HETATM   12  C   UNL     1     -10.035   8.503  66.618  1.00  0.00    -0.363 A  
HETATM   13  C   UNL     1      -8.643   8.432  66.625  1.00  0.00    -0.127 A  
HETATM   14  C   UNL     1      -7.955   8.462  67.836  1.00  0.00    -0.115 A  
ENDBRANCH   8   9
BRANCH   8  15
HETATM   15  C   UNL     1     -11.559  10.283  70.375  1.00  0.00    -0.411 A  
HETATM   16  C   UNL     1     -12.477  12.928  70.632  1.00  0.00    -0.252 A  
HETATM   17 CL   UNL     1     -12.965  14.564  70.840  1.00  0.00    -0.414 Cl 
HETATM   18  C   UNL     1     -12.860  11.970  71.566  1.00  0.00    -0.403 A  
HETATM   19  C   UNL     1     -11.224  11.259  69.415  1.00  0.00    -0.345 A  
HETATM   20  C   UNL     1     -12.403  10.657  71.437  1.00  0.00    -0.455 A  
HETATM   21  C   UNL     1     -11.673  12.576  69.551  1.00  0.00    -0.375 A  
ENDBRANCH   8  15
ENDBRANCH   5   8
TORSDOF 3
ENDMDL
MODEL       69
REMARK 921   NORMALIZED FREE ENERGY PREDICTED BY IDOCK:   -4.57 KCAL/MOL
REMARK 922        TOTAL FREE ENERGY PREDICTED BY IDOCK:   -5.63 KCAL/MOL
REMARK 923 INTER-LIGAND FREE ENERGY PREDICTED BY IDOCK:   -5.12 KCAL/MOL
REMARK 924 INTRA-LIGAND FREE ENERGY PREDICTED BY IDOCK:   -0.51 KCAL/MOL
REMARK 927      BINDING AFFINITY PREDICTED BY RF-SCORE:    0.00 PKD
ROOT
HETATM    1  C   UNL     1     -10.055  13.857  65.921  1.00  0.00    -0.317 C  
HETATM    2  N   UNL     1      -9.237  12.867  66.623  1.00  0.00    -0.240 NA 
HETATM    3  C   UNL     1      -9.658  12.719  68.031  1.00  0.00    -0.217 C  
HETATM    4  C   UNL     1     -10.932  11.866  68.258  1.00  0.00    -0.230 C  
HETATM    5  N   UNL     1     -10.916  10.531  67.614  1.00  0.00    -0.300 NA 
HETATM    6  C   UNL     1     -10.581  10.752  66.182  1.00  0.00    -0.175 C  
HETATM    7  C   UNL     1      -9.286  11.561  65.936  1.00  0.00    -0.226 C  
ENDROOT
BRANCH   5   8
HETATM    8  C   UNL     1      -9.972   9.575  68.280  1.00  0.00    -0.161 C  
BRANCH   8   9
HETATM    9  C   UNL     1     -10.339   9.290  69.745  1.00  0.00    -0.232 A  
HETATM   10  C   UNL     1     -11.643   9.558  70.206  1.00  0.00    -0.219 A  
HETATM   11  C   UNL     1      -9.442   8.675  70.639  1.00  0.00    -0.218 A  
HETATM   12  C   UNL     1     -12.042   9.206  71.499  1.00  0.00    -0.422 A  
HETATM   13  C   UNL     1     -11.139   8.590  72.363  1.00  0.00    -0.397 A  
HETATM   14  C   UNL     1      -9.837   8.335  71.937  1.00  0.00    -0.300 A  
ENDBRANCH   8   9
BRANCH   8  15
HETATM   15  C   UNL     1      -9.802   8.294  67.441  1.00  0.00    -0.246 A  
HETATM   16  C   UNL     1      -9.387   5.756  66.307  1.00  0.00    -0.156 A  
HETATM   17 CL   UNL     1      -9.105   4.173  65.694  1.00  0.00    -0.129 Cl 
HETATM   18  C   UNL     1      -8.356   6.689  66.306  1.00  0.00    -0.125 A  
HETATM   19  C   UNL     1     -10.845   7.350  67.387  1.00  0.00    -0.299 A  
HETATM   20  C   UNL     1      -8.562   7.950  66.869  1.00  0.00    -0.130 A  
HETATM   21  C   UNL     1     -10.634   6.083  66.833  1.00  0.00    -0.384 A  
ENDBRANCH   8  15
ENDBRANCH   5   8
TORSDOF 3
ENDMDL
MODEL       70
REMARK 921   NORMALIZED FREE ENERGY PREDICTED BY IDOCK:   -4.55 KCAL/MOL
REMARK 922        TOTAL FREE ENERGY PREDICTED BY IDOCK:   -5.62 KCAL/MOL
REMARK 923 INTER-LIGAND FREE ENERGY PREDICTED BY IDOCK:   -5.13 KCAL/MOL
REMARK 924 INTRA-LIGAND FREE ENERGY PREDICTED BY IDOCK:   -0.48 KCAL/MOL
REMARK 927      BINDING AFFINITY PREDICTED BY RF-SCORE:    0.00 PKD
ROOT
HETATM    1  C   UNL     1     -11.366  12.742  67.907  1.00  0.00    -0.293 C  
HETATM    2  N   UNL     1     -11.920  11.388  67.933  1.00  0.00    -0.644 NA 
HETATM    3  C   UNL     1     -11.181  10.485  67.027  1.00  0.00     0.011 C  
HETATM    4  C   UNL     1      -9.824   9.968  67.566  1.00  0.00    -0.175 C  
HETATM    5  N   UNL     1      -9.875   9.363  68.918  1.00  0.00    -0.166 NA 
HETATM    6  C   UNL     1     -10.541  10.354  69.805  1.00  0.00    -0.258 C  
HETATM    7  C   UNL     1     -11.920  10.845  69.305  1.00  0.00    -0.310 C  
ENDROOT
BRANCH   5   8
HETATM    8  C   UNL     1     -10.562   8.030  68.934  1.00  0.00    -0.140 C  
BRANCH   8   9
HETATM    9  C   UNL     1     -10.019   7.061  67.871  1.00  0.00    -0.183 A  
HETATM   10  C   UNL     1     -10.878   6.112  67.283  1.00  0.00    -0.438 A  
HETATM   11  C   UNL     1      -8.701   7.144  67.381  1.00  0.00    -0.120 A  
HETATM   12  C   UNL     1     -10.446   5.294  66.234  1.00  0.00    -0.311 A  
HETATM   13  C   UNL     1      -9.140   5.400  65.761  1.00  0.00    -0.160 A  
HETATM   14  C   UNL     1      -8.265   6.316  66.342  1.00  0.00    -0.114 A  
ENDBRANCH   8   9
BRANCH   8  15
HETATM   15  C   UNL     1     -10.567   7.428  70.352  1.00  0.00    -0.238 A  
HETATM   16  C   UNL     1     -10.482   5.935  72.732  1.00  0.00    -0.209 A  
HETATM   17 CL   UNL     1     -10.420   4.945  74.138  1.00  0.00    -0.308 Cl 
HETATM   18  C   UNL     1     -11.703   6.176  72.112  1.00  0.00    -0.361 A  
HETATM   19  C   UNL     1      -9.347   7.212  71.023  1.00  0.00    -0.158 A  
HETATM   20  C   UNL     1     -11.745   6.918  70.929  1.00  0.00    -0.408 A  
HETATM   21  C   UNL     1      -9.306   6.459  72.201  1.00  0.00    -0.149 A  
ENDBRANCH   8  15
ENDBRANCH   5   8
TORSDOF 3
ENDMDL
MODEL       71
REMARK 921   NORMALIZED FREE ENERGY PREDICTED BY IDOCK:   -4.54 KCAL/MOL
REMARK 922        TOTAL FREE ENERGY PREDICTED BY IDOCK:   -5.60 KCAL/MOL
REMARK 923 INTER-LIGAND FREE ENERGY PREDICTED BY IDOCK:   -5.41 KCAL/MOL
REMARK 924 INTRA-LIGAND FREE ENERGY PREDICTED BY IDOCK:   -0.19 KCAL/MOL
REMARK 927      BINDING AFFINITY PREDICTED BY RF-SCORE:    0.00 PKD
ROOT
HETATM    1  C   UNL     1     -11.768  13.341  69.815  1.00  0.00    -0.284 C  
HETATM    2  N   UNL     1     -12.148  12.345  68.813  1.00  0.00    -0.207 NA 
HETATM    3  C   UNL     1     -11.496  12.609  67.514  1.00  0.00    -0.340 C  
HETATM    4  C   UNL     1     -10.011  12.178  67.417  1.00  0.00    -0.199 C  
HETATM    5  N   UNL     1      -9.735  10.779  67.822  1.00  0.00    -0.161 NA 
HETATM    6  C   UNL     1     -10.330  10.601  69.173  1.00  0.00    -0.221 C  
HETATM    7  C   UNL     1     -11.825  10.981  69.278  1.00  0.00    -0.340 C  
ENDROOT
BRANCH   5   8
HETATM    8  C   UNL     1     -10.250   9.775  66.835  1.00  0.00    -0.245 C  
BRANCH   8   9
HETATM    9  C   UNL     1      -9.764  10.039  65.400  1.00  0.00    -0.368 A  
HETATM   10  C   UNL     1      -8.644   9.345  64.900  1.00  0.00    -0.198 A  
HETATM   11  C   UNL     1     -10.457  10.887  64.516  1.00  0.00    -0.393 A  
HETATM   12  C   UNL     1      -8.246   9.476  63.567  1.00  0.00    -0.164 A  
HETATM   13  C   UNL     1      -8.952  10.316  62.708  1.00  0.00    -0.266 A  
HETATM   14  C   UNL     1     -10.049  11.030  63.185  1.00  0.00    -0.350 A  
ENDBRANCH   8   9
BRANCH   8  15
HETATM   15  C   UNL     1      -9.968   8.338  67.312  1.00  0.00    -0.289 A  
HETATM   16  C   UNL     1      -9.723   5.819  68.537  1.00  0.00    -0.131 A  
HETATM   17 CL   UNL     1      -9.621   4.310  69.357  1.00  0.00    -0.257 Cl 
HETATM   18  C   UNL     1      -8.755   6.793  68.761  1.00  0.00    -0.125 A  
HETATM   19  C   UNL     1     -10.910   7.321  67.062  1.00  0.00    -0.350 A  
HETATM   20  C   UNL     1      -8.877   8.044  68.153  1.00  0.00    -0.132 A  
HETATM   21  C   UNL     1     -10.792   6.072  67.681  1.00  0.00    -0.386 A  
ENDBRANCH   8  15
ENDBRANCH   5   8
TORSDOF 3
ENDMDL
MODEL       72
REMARK 921   NORMALIZED FREE ENERGY PREDICTED BY IDOCK:   -4.48 KCAL/MOL
REMARK 922        TOTAL FREE ENERGY PREDICTED BY IDOCK:   -5.53 KCAL/MOL
REMARK 923 INTER-LIGAND FREE ENERGY PREDICTED BY IDOCK:   -5.57 KCAL/MOL
REMARK 924 INTRA-LIGAND FREE ENERGY PREDICTED BY IDOCK:    0.04 KCAL/MOL
REMARK 927      BINDING AFFINITY PREDICTED BY RF-SCORE:    0.00 PKD
ROOT
HETATM    1  C   UNL     1      -9.185  10.774  64.345  1.00  0.00    -0.221 C  
HETATM    2  N   UNL     1     -10.222  10.280  65.251  1.00  0.00    -0.289 NA 
HETATM    3  C   UNL     1      -9.655   9.403  66.295  1.00  0.00    -0.234 C  
HETATM    4  C   UNL     1      -8.945  10.134  67.463  1.00  0.00    -0.131 C  
HETATM    5  N   UNL     1      -9.740  11.204  68.110  1.00  0.00    -0.175 NA 
HETATM    6  C   UNL     1     -10.204  12.107  67.022  1.00  0.00    -0.207 C  
HETATM    7  C   UNL     1     -10.956  11.401  65.870  1.00  0.00    -0.207 C  
ENDROOT
BRANCH   5   8
HETATM    8  C   UNL     1     -10.876  10.671  68.931  1.00  0.00    -0.231 C  
BRANCH   8   9
HETATM    9  C   UNL     1     -10.494   9.426  69.748  1.00  0.00    -0.243 A  
HETATM   10  C   UNL     1      -9.458   9.502  70.699  1.00  0.00    -0.277 A  
HETATM   11  C   UNL     1     -11.208   8.217  69.654  1.00  0.00     0.085 A  
HETATM   12  C   UNL     1      -9.162   8.423  71.537  1.00  0.00    -0.257 A  
HETATM   13  C   UNL     1      -9.888   7.239  71.431  1.00  0.00    -0.191 A  
HETATM   14  C   UNL     1     -10.902   7.132  70.482  1.00  0.00    -0.269 A  
ENDBRANCH   8   9
BRANCH   8  15
HETATM   15  C   UNL     1     -11.507  11.785  69.788  1.00  0.00    -0.320 A  
HETATM   16  C   UNL     1     -13.032  13.749  71.099  1.00  0.00    -0.298 A  
HETATM   17 CL   UNL     1     -14.032  14.937  71.840  1.00  0.00    -0.523 Cl 
HETATM   18  C   UNL     1     -12.177  14.115  70.064  1.00  0.00    -0.418 A  
HETATM   19  C   UNL     1     -12.343  11.445  70.870  1.00  0.00    -0.483 A  
HETATM   20  C   UNL     1     -11.420  13.139  69.414  1.00  0.00    -0.321 A  
HETATM   21  C   UNL     1     -13.110  12.422  71.513  1.00  0.00    -0.362 A  
ENDBRANCH   8  15
ENDBRANCH   5   8
TORSDOF 3
ENDMDL
MODEL       73
REMARK 921   NORMALIZED FREE ENERGY PREDICTED BY IDOCK:   -4.48 KCAL/MOL
REMARK 922        TOTAL FREE ENERGY PREDICTED BY IDOCK:   -5.52 KCAL/MOL
REMARK 923 INTER-LIGAND FREE ENERGY PREDICTED BY IDOCK:   -4.93 KCAL/MOL
REMARK 924 INTRA-LIGAND FREE ENERGY PREDICTED BY IDOCK:   -0.59 KCAL/MOL
REMARK 927      BINDING AFFINITY PREDICTED BY RF-SCORE:    0.00 PKD
ROOT
HETATM    1  C   UNL     1      -5.194  13.756  69.248  1.00  0.00    -0.081 C  
HETATM    2  N   UNL     1      -6.601  13.467  69.529  1.00  0.00    -0.089 NA 
HETATM    3  C   UNL     1      -7.499  14.292  68.696  1.00  0.00    -0.127 C  
HETATM    4  C   UNL     1      -7.667  13.818  67.230  1.00  0.00    -0.076 C  
HETATM    5  N   UNL     1      -8.033  12.390  67.070  1.00  0.00    -0.145 NA 
HETATM    6  C   UNL     1      -7.040  11.605  67.851  1.00  0.00    -0.081 C  
HETATM    7  C   UNL     1      -6.893  12.034  69.329  1.00  0.00    -0.066 C  
ENDROOT
BRANCH   5   8
HETATM    8  C   UNL     1      -9.444  12.101  67.486  1.00  0.00    -0.180 C  
BRANCH   8   9
HETATM    9  C   UNL     1     -10.488  12.775  66.582  1.00  0.00    -0.270 A  
HETATM   10  C   UNL     1     -10.318  12.762  65.184  1.00  0.00    -0.314 A  
HETATM   11  C   UNL     1     -11.677  13.332  67.091  1.00  0.00    -0.425 A  
HETATM   12  C   UNL     1     -11.302  13.264  64.328  1.00  0.00    -0.428 A  
HETATM   13  C   UNL     1     -12.474  13.803  64.855  1.00  0.00    -0.420 A  
HETATM   14  C   UNL     1     -12.656  13.848  66.235  1.00  0.00    -0.376 A  
ENDBRANCH   8   9
BRANCH   8  15
HETATM   15  C   UNL     1      -9.672  10.585  67.646  1.00  0.00    -0.187 A  
HETATM   16  C   UNL     1     -10.521   7.911  67.821  1.00  0.00    -0.212 A  
HETATM   17 CL   UNL     1     -11.125   6.303  67.913  1.00  0.00    -0.415 Cl 
HETATM   18  C   UNL     1     -10.474   8.698  68.967  1.00  0.00    -0.216 A  
HETATM   19  C   UNL     1      -9.681   9.757  66.507  1.00  0.00    -0.267 A  
HETATM   20  C   UNL     1     -10.053  10.026  68.880  1.00  0.00    -0.200 A  
HETATM   21  C   UNL     1     -10.114   8.430  66.594  1.00  0.00    -0.358 A  
ENDBRANCH   8  15
ENDBRANCH   5   8
TORSDOF 3
ENDMDL
MODEL       74
REMARK 921   NORMALIZED FREE ENERGY PREDICTED BY IDOCK:   -4.44 KCAL/MOL
REMARK 922        TOTAL FREE ENERGY PREDICTED BY IDOCK:   -5.48 KCAL/MOL
REMARK 923 INTER-LIGAND FREE ENERGY PREDICTED BY IDOCK:   -5.68 KCAL/MOL
REMARK 924 INTRA-LIGAND FREE ENERGY PREDICTED BY IDOCK:    0.21 KCAL/MOL
REMARK 927      BINDING AFFINITY PREDICTED BY RF-SCORE:    0.00 PKD
ROOT
HETATM    1  C   UNL     1     -10.037   6.364  73.865  1.00  0.00    -0.288 C  
HETATM    2  N   UNL     1      -9.298   6.968  72.756  1.00  0.00    -0.134 NA 
HETATM    3  C   UNL     1      -9.462   6.192  71.510  1.00  0.00    -0.148 C  
HETATM    4  C   UNL     1     -10.805   6.407  70.767  1.00  0.00    -0.267 C  
HETATM    5  N   UNL     1     -11.158   7.823  70.506  1.00  0.00    -0.257 NA 
HETATM    6  C   UNL     1     -11.068   8.532  71.811  1.00  0.00    -0.307 C  
HETATM    7  C   UNL     1      -9.716   8.367  72.545  1.00  0.00    -0.289 C  
ENDROOT
BRANCH   5   8
HETATM    8  C   UNL     1     -10.298   8.454  69.453  1.00  0.00    -0.215 C  
BRANCH   8   9
HETATM    9  C   UNL     1      -9.926   7.483  68.320  1.00  0.00    -0.193 A  
HETATM   10  C   UNL     1      -8.573   7.280  67.986  1.00  0.00    -0.125 A  
HETATM   11  C   UNL     1     -10.890   6.704  67.651  1.00  0.00    -0.393 A  
HETATM   12  C   UNL     1      -8.195   6.321  67.040  1.00  0.00    -0.109 A  
HETATM   13  C   UNL     1      -9.167   5.556  66.398  1.00  0.00    -0.155 A  
HETATM   14  C   UNL     1     -10.513   5.756  66.695  1.00  0.00    -0.330 A  
ENDBRANCH   8   9
BRANCH   8  15
HETATM   15  C   UNL     1     -10.923   9.766  68.942  1.00  0.00    -0.183 A  
HETATM   16  C   UNL     1     -11.640  12.328  68.033  1.00  0.00    -0.349 A  
HETATM   17 CL   UNL     1     -11.994  13.922  67.493  1.00  0.00    -0.429 Cl 
HETATM   18  C   UNL     1     -11.777  12.009  69.381  1.00  0.00    -0.402 A  
HETATM   19  C   UNL     1     -10.838  10.095  67.575  1.00  0.00    -0.349 A  
HETATM   20  C   UNL     1     -11.420  10.737  69.832  1.00  0.00    -0.398 A  
HETATM   21  C   UNL     1     -11.185  11.374  67.127  1.00  0.00    -0.363 A  
ENDBRANCH   8  15
ENDBRANCH   5   8
TORSDOF 3
ENDMDL
MODEL       75
REMARK 921   NORMALIZED FREE ENERGY PREDICTED BY IDOCK:   -4.32 KCAL/MOL
REMARK 922        TOTAL FREE ENERGY PREDICTED BY IDOCK:   -5.34 KCAL/MOL
REMARK 923 INTER-LIGAND FREE ENERGY PREDICTED BY IDOCK:   -4.75 KCAL/MOL
REMARK 924 INTRA-LIGAND FREE ENERGY PREDICTED BY IDOCK:   -0.59 KCAL/MOL
REMARK 927      BINDING AFFINITY PREDICTED BY RF-SCORE:    0.00 PKD
ROOT
HETATM    1  C   UNL     1     -12.581  13.176  65.685  1.00  0.00    -0.351 C  
HETATM    2  N   UNL     1     -12.016  13.914  66.814  1.00  0.00    -0.421 NA 
HETATM    3  C   UNL     1     -10.971  13.130  67.504  1.00  0.00    -0.263 C  
HETATM    4  C   UNL     1      -9.591  13.098  66.800  1.00  0.00    -0.249 C  
HETATM    5  N   UNL     1      -9.040  14.425  66.438  1.00  0.00    -0.211 NA 
HETATM    6  C   UNL     1     -10.098  15.130  65.666  1.00  0.00    -0.363 C  
HETATM    7  C   UNL     1     -11.471  15.213  66.374  1.00  0.00    -0.160 C  
ENDROOT
BRANCH   5   8
HETATM    8  C   UNL     1      -8.585  15.211  67.631  1.00  0.00    -0.172 C  
BRANCH   8   9
HETATM    9  C   UNL     1      -7.469  14.510  68.422  1.00  0.00    -0.116 A  
HETATM   10  C   UNL     1      -6.556  13.672  67.754  1.00  0.00    -0.178 A  
HETATM   11  C   UNL     1      -7.257  14.747  69.794  1.00  0.00    -0.098 A  
HETATM   12  C   UNL     1      -5.463  13.110  68.422  1.00  0.00    -0.079 A  
HETATM   13  C   UNL     1      -5.270  13.366  69.778  1.00  0.00    -0.088 A  
HETATM   14  C   UNL     1      -6.173  14.174  70.466  1.00  0.00    -0.138 A  
ENDBRANCH   8   9
BRANCH   8  15
HETATM   15  C   UNL     1      -8.226  16.657  67.235  1.00  0.00    -0.197 A  
HETATM   16  C   UNL     1      -7.293  19.283  66.872  1.00  0.00    -0.212 A  
HETATM   17 CL   UNL     1      -6.675  20.883  66.729  1.00  0.00    -0.360 Cl 
HETATM   18  C   UNL     1      -8.478  19.061  67.565  1.00  0.00    -0.307 A  
HETATM   19  C   UNL     1      -7.054  16.909  66.496  1.00  0.00    -0.281 A  
HETATM   20  C   UNL     1      -8.942  17.757  67.745  1.00  0.00    -0.249 A  
HETATM   21  C   UNL     1      -6.585  18.215  66.326  1.00  0.00    -0.261 A  
ENDBRANCH   8  15
ENDBRANCH   5   8
TORSDOF 3
ENDMDL
MODEL       76
REMARK 921   NORMALIZED FREE ENERGY PREDICTED BY IDOCK:   -4.31 KCAL/MOL
REMARK 922        TOTAL FREE ENERGY PREDICTED BY IDOCK:   -5.33 KCAL/MOL
REMARK 923 INTER-LIGAND FREE ENERGY PREDICTED BY IDOCK:   -5.01 KCAL/MOL
REMARK 924 INTRA-LIGAND FREE ENERGY PREDICTED BY IDOCK:   -0.32 KCAL/MOL
REMARK 927      BINDING AFFINITY PREDICTED BY RF-SCORE:    0.00 PKD
ROOT
HETATM    1  C   UNL     1      -5.163   8.700  67.283  1.00  0.00    -0.033 C  
HETATM    2  N   UNL     1      -6.570   8.355  67.083  1.00  0.00    -0.058 NA 
HETATM    3  C   UNL     1      -7.144   7.708  68.280  1.00  0.00    -0.080 C  
HETATM    4  C   UNL     1      -7.516   8.666  69.439  1.00  0.00    -0.080 C  
HETATM    5  N   UNL     1      -8.370   9.815  69.054  1.00  0.00    -0.120 NA 
HETATM    6  C   UNL     1      -7.696  10.482  67.908  1.00  0.00    -0.092 C  
HETATM    7  C   UNL     1      -7.359   9.549  66.722  1.00  0.00    -0.090 C  
ENDROOT
BRANCH   5   8
HETATM    8  C   UNL     1      -9.778   9.411  68.731  1.00  0.00    -0.156 C  
BRANCH   8   9
HETATM    9  C   UNL     1     -10.462   8.649  69.877  1.00  0.00    -0.221 A  
HETATM   10  C   UNL     1     -10.629   9.268  71.131  1.00  0.00    -0.402 A  
HETATM   11  C   UNL     1     -11.025   7.371  69.699  1.00  0.00    -0.186 A  
HETATM   12  C   UNL     1     -11.347   8.648  72.157  1.00  0.00    -0.434 A  
HETATM   13  C   UNL     1     -11.902   7.386  71.955  1.00  0.00    -0.332 A  
HETATM   14  C   UNL     1     -11.731   6.743  70.731  1.00  0.00    -0.439 A  
ENDBRANCH   8   9
BRANCH   8  15
HETATM   15  C   UNL     1     -10.598  10.618  68.235  1.00  0.00    -0.227 A  
HETATM   16  C   UNL     1     -11.688  13.021  67.266  1.00  0.00    -0.375 A  
HETATM   17 CL   UNL     1     -12.272  14.526  66.672  1.00  0.00    -0.343 Cl 
HETATM   18  C   UNL     1     -11.570  12.820  68.638  1.00  0.00    -0.352 A  
HETATM   19  C   UNL     1     -10.772  10.824  66.853  1.00  0.00    -0.309 A  
HETATM   20  C   UNL     1     -11.028  11.626  69.118  1.00  0.00    -0.270 A  
HETATM   21  C   UNL     1     -11.304  12.025  66.372  1.00  0.00    -0.411 A  
ENDBRANCH   8  15
ENDBRANCH   5   8
TORSDOF 3
ENDMDL
MODEL       77
REMARK 921   NORMALIZED FREE ENERGY PREDICTED BY IDOCK:   -4.29 KCAL/MOL
REMARK 922        TOTAL FREE ENERGY PREDICTED BY IDOCK:   -5.30 KCAL/MOL
REMARK 923 INTER-LIGAND FREE ENERGY PREDICTED BY IDOCK:   -5.08 KCAL/MOL
REMARK 924 INTRA-LIGAND FREE ENERGY PREDICTED BY IDOCK:   -0.22 KCAL/MOL
REMARK 927      BINDING AFFINITY PREDICTED BY RF-SCORE:    0.00 PKD
ROOT
HETATM    1  C   UNL     1     -12.637  13.487  63.093  1.00  0.00     0.393 C  
HETATM    2  N   UNL     1     -12.782  13.639  64.541  1.00  0.00    -0.655 NA 
HETATM    3  C   UNL     1     -12.382  12.410  65.257  1.00  0.00    -0.287 C  
HETATM    4  C   UNL     1     -10.854  12.195  65.405  1.00  0.00    -0.294 C  
HETATM    5  N   UNL     1     -10.110  13.347  65.968  1.00  0.00    -0.299 NA 
HETATM    6  C   UNL     1     -10.479  14.534  65.150  1.00  0.00    -0.416 C  
HETATM    7  C   UNL     1     -11.999  14.791  65.030  1.00  0.00    -0.318 C  
ENDROOT
BRANCH   5   8
HETATM    8  C   UNL     1     -10.378  13.556  67.428  1.00  0.00    -0.237 C  
BRANCH   8   9
HETATM    9  C   UNL     1     -10.082  12.309  68.277  1.00  0.00    -0.218 A  
HETATM   10  C   UNL     1     -11.145  11.561  68.820  1.00  0.00    -0.288 A  
HETATM   11  C   UNL     1      -8.775  11.818  68.461  1.00  0.00    -0.118 A  
HETATM   12  C   UNL     1     -10.915  10.361  69.499  1.00  0.00    -0.307 A  
HETATM   13  C   UNL     1      -9.614   9.890  69.662  1.00  0.00    -0.249 A  
HETATM   14  C   UNL     1      -8.544  10.624  69.154  1.00  0.00    -0.136 A  
ENDBRANCH   8   9
BRANCH   8  15
HETATM   15  C   UNL     1      -9.665  14.820  67.945  1.00  0.00    -0.211 A  
HETATM   16  C   UNL     1      -8.333  17.244  68.447  1.00  0.00    -0.261 A  
HETATM   17 CL   UNL     1      -7.509  18.739  68.665  1.00  0.00    -0.331 Cl 
HETATM   18  C   UNL     1      -7.606  16.061  68.366  1.00  0.00    -0.145 A  
HETATM   19  C   UNL     1     -10.385  16.023  68.079  1.00  0.00    -0.266 A  
HETATM   20  C   UNL     1      -8.268  14.857  68.116  1.00  0.00    -0.139 A  
HETATM   21  C   UNL     1      -9.720  17.230  68.318  1.00  0.00    -0.294 A  
ENDBRANCH   8  15
ENDBRANCH   5   8
TORSDOF 3
ENDMDL
MODEL       78
REMARK 921   NORMALIZED FREE ENERGY PREDICTED BY IDOCK:   -4.25 KCAL/MOL
REMARK 922        TOTAL FREE ENERGY PREDICTED BY IDOCK:   -5.26 KCAL/MOL
REMARK 923 INTER-LIGAND FREE ENERGY PREDICTED BY IDOCK:   -4.79 KCAL/MOL
REMARK 924 INTRA-LIGAND FREE ENERGY PREDICTED BY IDOCK:   -0.47 KCAL/MOL
REMARK 927      BINDING AFFINITY PREDICTED BY RF-SCORE:    0.00 PKD
ROOT
HETATM    1  C   UNL     1      -6.619   7.337  65.454  1.00  0.00    -0.047 C  
HETATM    2  N   UNL     1      -6.707   8.384  66.473  1.00  0.00    -0.059 NA 
HETATM    3  C   UNL     1      -6.815   9.724  65.863  1.00  0.00    -0.096 C  
HETATM    4  C   UNL     1      -8.219  10.096  65.322  1.00  0.00    -0.157 C  
HETATM    5  N   UNL     1      -9.332   9.910  66.284  1.00  0.00    -0.166 NA 
HETATM    6  C   UNL     1      -9.227   8.516  66.793  1.00  0.00    -0.172 C  
HETATM    7  C   UNL     1      -7.846   8.142  67.379  1.00  0.00    -0.106 C  
ENDROOT
BRANCH   5   8
HETATM    8  C   UNL     1      -9.320  10.923  67.390  1.00  0.00    -0.155 C  
BRANCH   8   9
HETATM    9  C   UNL     1      -9.529  12.361  66.889  1.00  0.00    -0.219 A  
HETATM   10  C   UNL     1      -8.882  13.431  67.539  1.00  0.00    -0.210 A  
HETATM   11  C   UNL     1     -10.276  12.654  65.732  1.00  0.00    -0.288 A  
HETATM   12  C   UNL     1      -8.958  14.735  67.041  1.00  0.00    -0.258 A  
HETATM   13  C   UNL     1      -9.697  14.999  65.889  1.00  0.00    -0.376 A  
HETATM   14  C   UNL     1     -10.365  13.961  65.243  1.00  0.00    -0.396 A  
ENDBRANCH   8   9
BRANCH   8  15
HETATM   15  C   UNL     1     -10.300  10.526  68.511  1.00  0.00    -0.199 A  
HETATM   16  C   UNL     1     -12.035  10.232  70.703  1.00  0.00    -0.342 A  
HETATM   17 CL   UNL     1     -13.074  10.136  72.071  1.00  0.00    -0.549 Cl 
HETATM   18  C   UNL     1     -10.705   9.843  70.818  1.00  0.00    -0.350 A  
HETATM   19  C   UNL     1     -11.662  10.869  68.403  1.00  0.00    -0.290 A  
HETATM   20  C   UNL     1      -9.843   9.989  69.730  1.00  0.00    -0.270 A  
HETATM   21  C   UNL     1     -12.521  10.733  69.498  1.00  0.00    -0.090 A  
ENDBRANCH   8  15
ENDBRANCH   5   8
TORSDOF 3
ENDMDL
MODEL       79
REMARK 921   NORMALIZED FREE ENERGY PREDICTED BY IDOCK:   -4.16 KCAL/MOL
REMARK 922        TOTAL FREE ENERGY PREDICTED BY IDOCK:   -5.15 KCAL/MOL
REMARK 923 INTER-LIGAND FREE ENERGY PREDICTED BY IDOCK:   -5.19 KCAL/MOL
REMARK 924 INTRA-LIGAND FREE ENERGY PREDICTED BY IDOCK:    0.04 KCAL/MOL
REMARK 927      BINDING AFFINITY PREDICTED BY RF-SCORE:    0.00 PKD
ROOT
HETATM    1  C   UNL     1     -11.014  16.749  68.257  1.00  0.00    -0.327 C  
HETATM    2  N   UNL     1     -10.159  15.621  68.625  1.00  0.00    -0.205 NA 
HETATM    3  C   UNL     1     -10.852  14.693  69.541  1.00  0.00    -0.217 C  
HETATM    4  C   UNL     1     -11.871  13.737  68.872  1.00  0.00    -0.360 C  
HETATM    5  N   UNL     1     -11.348  12.973  67.714  1.00  0.00    -0.275 NA 
HETATM    6  C   UNL     1     -10.748  13.967  66.784  1.00  0.00    -0.285 C  
HETATM    7  C   UNL     1      -9.694  14.899  67.424  1.00  0.00    -0.217 C  
ENDROOT
BRANCH   5   8
HETATM    8  C   UNL     1     -10.375  11.905  68.112  1.00  0.00    -0.199 C  
BRANCH   8   9
HETATM    9  C   UNL     1     -10.995  10.840  69.032  1.00  0.00    -0.289 A  
HETATM   10  C   UNL     1     -10.295   9.647  69.295  1.00  0.00    -0.223 A  
HETATM   11  C   UNL     1     -12.211  11.049  69.711  1.00  0.00    -0.388 A  
HETATM   12  C   UNL     1     -10.777   8.710  70.214  1.00  0.00    -0.243 A  
HETATM   13  C   UNL     1     -11.979   8.943  70.881  1.00  0.00    -0.254 A  
HETATM   14  C   UNL     1     -12.700  10.105  70.620  1.00  0.00    -0.334 A  
ENDBRANCH   8   9
BRANCH   8  15
HETATM   15  C   UNL     1      -9.680  11.303  66.876  1.00  0.00    -0.215 A  
HETATM   16  C   UNL     1      -8.483   9.801  64.823  1.00  0.00    -0.164 A  
HETATM   17 CL   UNL     1      -7.762   8.808  63.617  1.00  0.00    -0.125 Cl 
HETATM   18  C   UNL     1      -7.692  10.359  65.821  1.00  0.00    -0.146 A  
HETATM   19  C   UNL     1     -10.456  10.769  65.829  1.00  0.00    -0.256 A  
HETATM   20  C   UNL     1      -8.287  11.105  66.841  1.00  0.00    -0.147 A  
HETATM   21  C   UNL     1      -9.860  10.012  64.815  1.00  0.00    -0.325 A  
ENDBRANCH   8  15
ENDBRANCH   5   8
TORSDOF 3
ENDMDL
MODEL       80
REMARK 921   NORMALIZED FREE ENERGY PREDICTED BY IDOCK:   -4.15 KCAL/MOL
REMARK 922        TOTAL FREE ENERGY PREDICTED BY IDOCK:   -5.14 KCAL/MOL
REMARK 923 INTER-LIGAND FREE ENERGY PREDICTED BY IDOCK:   -4.75 KCAL/MOL
REMARK 924 INTRA-LIGAND FREE ENERGY PREDICTED BY IDOCK:   -0.38 KCAL/MOL
REMARK 927      BINDING AFFINITY PREDICTED BY RF-SCORE:    0.00 PKD
ROOT
HETATM    1  C   UNL     1     -10.197  12.221  64.850  1.00  0.00    -0.281 C  
HETATM    2  N   UNL     1      -9.871  12.364  66.269  1.00  0.00    -0.243 NA 
HETATM    3  C   UNL     1     -11.084  12.309  67.110  1.00  0.00    -0.278 C  
HETATM    4  C   UNL     1     -11.659  10.891  67.356  1.00  0.00     0.063 C  
HETATM    5  N   UNL     1     -10.680   9.896  67.854  1.00  0.00    -0.255 NA 
HETATM    6  C   UNL     1      -9.526   9.927  66.916  1.00  0.00    -0.163 C  
HETATM    7  C   UNL     1      -8.909  11.328  66.695  1.00  0.00    -0.175 C  
ENDROOT
BRANCH   5   8
HETATM    8  C   UNL     1     -10.269  10.143  69.274  1.00  0.00    -0.223 C  
BRANCH   8   9
HETATM    9  C   UNL     1     -11.462  10.224  70.240  1.00  0.00    -0.395 A  
HETATM   10  C   UNL     1     -11.954   9.052  70.847  1.00  0.00    -0.274 A  
HETATM   11  C   UNL     1     -12.035  11.451  70.625  1.00  0.00    -0.413 A  
HETATM   12  C   UNL     1     -12.961   9.104  71.815  1.00  0.00    -0.448 A  
HETATM   13  C   UNL     1     -13.508  10.331  72.186  1.00  0.00    -0.332 A  
HETATM   14  C   UNL     1     -13.053  11.502  71.583  1.00  0.00    -0.478 A  
ENDBRANCH   8   9
BRANCH   8  15
HETATM   15  C   UNL     1      -9.198   9.130  69.723  1.00  0.00    -0.179 A  
HETATM   16  C   UNL     1      -7.537   7.175  70.873  1.00  0.00    -0.085 A  
HETATM   17 CL   UNL     1      -6.582   5.970  71.644  1.00  0.00    -0.053 Cl 
HETATM   18  C   UNL     1      -7.366   8.513  71.212  1.00  0.00    -0.095 A  
HETATM   19  C   UNL     1      -9.321   7.775  69.358  1.00  0.00    -0.152 A  
HETATM   20  C   UNL     1      -8.191   9.484  70.641  1.00  0.00    -0.155 A  
HETATM   21  C   UNL     1      -8.502   6.803  69.940  1.00  0.00    -0.140 A  
ENDBRANCH   8  15
ENDBRANCH   5   8
TORSDOF 3
ENDMDL
MODEL       81
REMARK 921   NORMALIZED FREE ENERGY PREDICTED BY IDOCK:   -4.12 KCAL/MOL
REMARK 922        TOTAL FREE ENERGY PREDICTED BY IDOCK:   -5.11 KCAL/MOL
REMARK 923 INTER-LIGAND FREE ENERGY PREDICTED BY IDOCK:   -4.69 KCAL/MOL
REMARK 924 INTRA-LIGAND FREE ENERGY PREDICTED BY IDOCK:   -0.42 KCAL/MOL
REMARK 927      BINDING AFFINITY PREDICTED BY RF-SCORE:    0.00 PKD
ROOT
HETATM    1  C   UNL     1     -12.188  12.627  63.483  1.00  0.00    -0.547 C  
HETATM    2  N   UNL     1     -11.514  13.522  64.424  1.00  0.00    -0.381 NA 
HETATM    3  C   UNL     1     -12.416  13.936  65.517  1.00  0.00    -0.511 C  
HETATM    4  C   UNL     1     -12.635  12.883  66.633  1.00  0.00     0.549 C  
HETATM    5  N   UNL     1     -11.393  12.321  67.217  1.00  0.00    -0.306 NA 
HETATM    6  C   UNL     1     -10.569  11.835  66.078  1.00  0.00    -0.260 C  
HETATM    7  C   UNL     1     -10.301  12.887  64.977  1.00  0.00    -0.315 C  
ENDROOT
BRANCH   5   8
HETATM    8  C   UNL     1     -10.657  13.304  68.076  1.00  0.00    -0.240 C  
BRANCH   8   9
HETATM    9  C   UNL     1     -11.512  13.853  69.230  1.00  0.00    -0.348 A  
HETATM   10  C   UNL     1     -11.650  15.244  69.400  1.00  0.00    -0.347 A  
HETATM   11  C   UNL     1     -12.253  13.012  70.082  1.00  0.00    -0.342 A  
HETATM   12  C   UNL     1     -12.509  15.775  70.367  1.00  0.00    -0.331 A  
HETATM   13  C   UNL     1     -13.239  14.924  71.193  1.00  0.00    -0.476 A  
HETATM   14  C   UNL     1     -13.102  13.544  71.059  1.00  0.00    -0.219 A  
ENDBRANCH   8   9
BRANCH   8  15
HETATM   15  C   UNL     1      -9.309  12.724  68.547  1.00  0.00    -0.078 A  
HETATM   16  C   UNL     1      -6.749  11.639  68.962  1.00  0.00    -0.100 A  
HETATM   17 CL   UNL     1      -5.175  10.966  69.126  1.00  0.00    -0.041 Cl 
HETATM   18  C   UNL     1      -7.860  10.801  68.941  1.00  0.00    -0.136 A  
HETATM   19  C   UNL     1      -8.177  13.559  68.620  1.00  0.00    -0.040 A  
HETATM   20  C   UNL     1      -9.131  11.341  68.735  1.00  0.00    -0.122 A  
HETATM   21  C   UNL     1      -6.903  13.015  68.816  1.00  0.00    -0.102 A  
ENDBRANCH   8  15
ENDBRANCH   5   8
TORSDOF 3
ENDMDL
MODEL       82
REMARK 921   NORMALIZED FREE ENERGY PREDICTED BY IDOCK:   -4.08 KCAL/MOL
REMARK 922        TOTAL FREE ENERGY PREDICTED BY IDOCK:   -5.06 KCAL/MOL
REMARK 923 INTER-LIGAND FREE ENERGY PREDICTED BY IDOCK:   -5.10 KCAL/MOL
REMARK 924 INTRA-LIGAND FREE ENERGY PREDICTED BY IDOCK:    0.04 KCAL/MOL
REMARK 927      BINDING AFFINITY PREDICTED BY RF-SCORE:    0.00 PKD
ROOT
HETATM    1  C   UNL     1      -8.841   9.617  64.185  1.00  0.00    -0.226 C  
HETATM    2  N   UNL     1      -8.501   9.932  65.572  1.00  0.00    -0.134 NA 
HETATM    3  C   UNL     1      -9.266  11.094  66.067  1.00  0.00    -0.205 C  
HETATM    4  C   UNL     1     -10.735  10.801  66.465  1.00  0.00    -0.181 C  
HETATM    5  N   UNL     1     -10.917   9.668  67.402  1.00  0.00    -0.177 NA 
HETATM    6  C   UNL     1     -10.207   8.504  66.807  1.00  0.00    -0.300 C  
HETATM    7  C   UNL     1      -8.726   8.764  66.447  1.00  0.00    -0.139 C  
ENDROOT
BRANCH   5   8
HETATM    8  C   UNL     1     -10.442   9.977  68.790  1.00  0.00    -0.208 C  
BRANCH   8   9
HETATM    9  C   UNL     1     -11.303  11.035  69.498  1.00  0.00    -0.356 A  
HETATM   10  C   UNL     1     -12.159  10.654  70.550  1.00  0.00    -0.448 A  
HETATM   11  C   UNL     1     -11.204  12.408  69.201  1.00  0.00    -0.295 A  
HETATM   12  C   UNL     1     -12.869  11.604  71.289  1.00  0.00    -0.430 A  
HETATM   13  C   UNL     1     -12.748  12.958  70.982  1.00  0.00    -0.338 A  
HETATM   14  C   UNL     1     -11.926  13.358  69.931  1.00  0.00    -0.408 A  
ENDBRANCH   8   9
BRANCH   8  15
HETATM   15  C   UNL     1     -10.271   8.688  69.615  1.00  0.00    -0.208 A  
HETATM   16  C   UNL     1      -9.743   6.172  70.753  1.00  0.00    -0.177 A  
HETATM   17 CL   UNL     1      -9.387   4.605  71.369  1.00  0.00    -0.192 Cl 
HETATM   18  C   UNL     1     -10.972   6.412  70.147  1.00  0.00    -0.395 A  
HETATM   19  C   UNL     1      -9.052   8.437  70.276  1.00  0.00    -0.149 A  
HETATM   20  C   UNL     1     -11.234   7.661  69.582  1.00  0.00     0.009 A  
HETATM   21  C   UNL     1      -8.788   7.181  70.832  1.00  0.00    -0.150 A  
ENDBRANCH   8  15
ENDBRANCH   5   8
TORSDOF 3
ENDMDL
MODEL       83
REMARK 921   NORMALIZED FREE ENERGY PREDICTED BY IDOCK:   -4.03 KCAL/MOL
REMARK 922        TOTAL FREE ENERGY PREDICTED BY IDOCK:   -4.99 KCAL/MOL
REMARK 923 INTER-LIGAND FREE ENERGY PREDICTED BY IDOCK:   -5.09 KCAL/MOL
REMARK 924 INTRA-LIGAND FREE ENERGY PREDICTED BY IDOCK:    0.10 KCAL/MOL
REMARK 927      BINDING AFFINITY PREDICTED BY RF-SCORE:    0.00 PKD
ROOT
HETATM    1  C   UNL     1      -7.834   7.170  66.540  1.00  0.00    -0.106 C  
HETATM    2  N   UNL     1      -7.823   7.764  67.877  1.00  0.00    -0.125 NA 
HETATM    3  C   UNL     1      -8.862   8.804  68.015  1.00  0.00    -0.141 C  
HETATM    4  C   UNL     1     -10.304   8.278  68.231  1.00  0.00    -0.198 C  
HETATM    5  N   UNL     1     -10.455   7.294  69.330  1.00  0.00    -0.212 NA 
HETATM    6  C   UNL     1      -9.450   6.225  69.085  1.00  0.00    -0.133 C  
HETATM    7  C   UNL     1      -7.997   6.728  68.914  1.00  0.00    -0.116 C  
ENDROOT
BRANCH   5   8
HETATM    8  C   UNL     1     -10.312   7.912  70.688  1.00  0.00    -0.202 C  
BRANCH   8   9
HETATM    9  C   UNL     1     -11.298   9.066  70.930  1.00  0.00    -0.351 A  
HETATM   10  C   UNL     1     -12.260   8.963  71.955  1.00  0.00    -0.445 A  
HETATM   11  C   UNL     1     -11.222  10.281  70.224  1.00  0.00    -0.395 A  
HETATM   12  C   UNL     1     -13.095  10.037  72.276  1.00  0.00    -0.385 A  
HETATM   13  C   UNL     1     -12.996  11.233  71.568  1.00  0.00    -0.520 A  
HETATM   14  C   UNL     1     -12.068  11.351  70.535  1.00  0.00    -0.487 A  
ENDBRANCH   8   9
BRANCH   8  15
HETATM   15  C   UNL     1     -10.359   6.837  71.791  1.00  0.00    -0.217 A  
HETATM   16  C   UNL     1     -10.184   4.628  73.521  1.00  0.00    -0.174 A  
HETATM   17 CL   UNL     1     -10.032   3.232  74.514  1.00  0.00    -0.171 Cl 
HETATM   18  C   UNL     1     -11.282   4.759  72.677  1.00  0.00    -0.146 A  
HETATM   19  C   UNL     1      -9.281   6.709  72.688  1.00  0.00    -0.148 A  
HETATM   20  C   UNL     1     -11.368   5.856  71.817  1.00  0.00    -0.289 A  
HETATM   21  C   UNL     1      -9.190   5.603  73.540  1.00  0.00    -0.134 A  
ENDBRANCH   8  15
ENDBRANCH   5   8
TORSDOF 3
ENDMDL
MODEL       84
REMARK 921   NORMALIZED FREE ENERGY PREDICTED BY IDOCK:   -4.01 KCAL/MOL
REMARK 922        TOTAL FREE ENERGY PREDICTED BY IDOCK:   -4.97 KCAL/MOL
REMARK 923 INTER-LIGAND FREE ENERGY PREDICTED BY IDOCK:   -5.21 KCAL/MOL
REMARK 924 INTRA-LIGAND FREE ENERGY PREDICTED BY IDOCK:    0.24 KCAL/MOL
REMARK 927      BINDING AFFINITY PREDICTED BY RF-SCORE:    0.00 PKD
ROOT
HETATM    1  C   UNL     1      -9.172   9.162  64.986  1.00  0.00    -0.114 C  
HETATM    2  N   UNL     1      -8.690  10.280  65.798  1.00  0.00    -0.150 NA 
HETATM    3  C   UNL     1      -9.156  11.576  65.264  1.00  0.00    -0.017 C  
HETATM    4  C   UNL     1     -10.627  11.939  65.589  1.00  0.00    -0.268 C  
HETATM    5  N   UNL     1     -10.994  11.846  67.022  1.00  0.00    -0.262 NA 
HETATM    6  C   UNL     1     -10.589  10.489  67.479  1.00  0.00    -0.259 C  
HETATM    7  C   UNL     1      -9.110  10.128  67.205  1.00  0.00    -0.135 C  
ENDROOT
BRANCH   5   8
HETATM    8  C   UNL     1     -10.381  12.934  67.852  1.00  0.00    -0.231 C  
BRANCH   8   9
HETATM    9  C   UNL     1      -9.992  14.172  67.028  1.00  0.00    -0.260 A  
HETATM   10  C   UNL     1     -10.976  14.863  66.294  1.00  0.00    -0.338 A  
HETATM   11  C   UNL     1      -8.691  14.711  67.049  1.00  0.00    -0.258 A  
HETATM   12  C   UNL     1     -10.679  16.056  65.627  1.00  0.00    -0.341 A  
HETATM   13  C   UNL     1      -9.387  16.574  65.669  1.00  0.00     0.057 A  
HETATM   14  C   UNL     1      -8.391  15.896  66.369  1.00  0.00    -0.310 A  
ENDBRANCH   8   9
BRANCH   8  15
HETATM   15  C   UNL     1     -11.270  13.271  69.064  1.00  0.00    -0.320 A  
HETATM   16  C   UNL     1     -12.526  13.787  71.525  1.00  0.00    -0.274 A  
HETATM   17 CL   UNL     1     -13.220  14.073  73.074  1.00  0.00    -0.516 Cl 
HETATM   18  C   UNL     1     -12.673  12.542  70.923  1.00  0.00    -0.270 A  
HETATM   19  C   UNL     1     -11.175  14.540  69.669  1.00  0.00    -0.292 A  
HETATM   20  C   UNL     1     -12.049  12.286  69.700  1.00  0.00    -0.277 A  
HETATM   21  C   UNL     1     -11.792  14.791  70.899  1.00  0.00    -0.379 A  
ENDBRANCH   8  15
ENDBRANCH   5   8
TORSDOF 3
ENDMDL
MODEL       85
REMARK 921   NORMALIZED FREE ENERGY PREDICTED BY IDOCK:   -4.00 KCAL/MOL
REMARK 922        TOTAL FREE ENERGY PREDICTED BY IDOCK:   -4.96 KCAL/MOL
REMARK 923 INTER-LIGAND FREE ENERGY PREDICTED BY IDOCK:   -5.14 KCAL/MOL
REMARK 924 INTRA-LIGAND FREE ENERGY PREDICTED BY IDOCK:    0.18 KCAL/MOL
REMARK 927      BINDING AFFINITY PREDICTED BY RF-SCORE:    0.00 PKD
ROOT
HETATM    1  C   UNL     1      -9.897  19.737  67.380  1.00  0.00    -0.391 C  
HETATM    2  N   UNL     1     -10.467  18.456  67.798  1.00  0.00    -0.406 NA 
HETATM    3  C   UNL     1     -10.780  17.599  66.637  1.00  0.00    -0.117 C  
HETATM    4  C   UNL     1      -9.567  16.880  65.995  1.00  0.00    -0.209 C  
HETATM    5  N   UNL     1      -8.715  16.121  66.942  1.00  0.00    -0.203 NA 
HETATM    6  C   UNL     1      -8.353  17.060  68.037  1.00  0.00    -0.211 C  
HETATM    7  C   UNL     1      -9.556  17.751  68.721  1.00  0.00    -0.290 C  
ENDROOT
BRANCH   5   8
HETATM    8  C   UNL     1      -9.377  14.877  67.452  1.00  0.00    -0.199 C  
BRANCH   8   9
HETATM    9  C   UNL     1     -10.366  14.267  66.445  1.00  0.00    -0.287 A  
HETATM   10  C   UNL     1     -11.740  14.222  66.751  1.00  0.00    -0.424 A  
HETATM   11  C   UNL     1      -9.966  13.829  65.168  1.00  0.00    -0.240 A  
HETATM   12  C   UNL     1     -12.679  13.780  65.814  1.00  0.00    -0.494 A  
HETATM   13  C   UNL     1     -12.259  13.359  64.554  1.00  0.00    -0.450 A  
HETATM   14  C   UNL     1     -10.903  13.372  64.236  1.00  0.00    -0.383 A  
ENDBRANCH   8   9
BRANCH   8  15
HETATM   15  C   UNL     1      -8.333  13.864  67.960  1.00  0.00    -0.166 A  
HETATM   16  C   UNL     1      -6.634  12.063  69.291  1.00  0.00    -0.109 A  
HETATM   17 CL   UNL     1      -5.636  10.983  70.184  1.00  0.00    -0.076 Cl 
HETATM   18  C   UNL     1      -6.249  13.391  69.137  1.00  0.00    -0.098 A  
HETATM   19  C   UNL     1      -8.681  12.505  68.086  1.00  0.00    -0.190 A  
HETATM   20  C   UNL     1      -7.093  14.285  68.476  1.00  0.00    -0.105 A  
HETATM   21  C   UNL     1      -7.839  11.613  68.758  1.00  0.00    -0.096 A  
ENDBRANCH   8  15
ENDBRANCH   5   8
TORSDOF 3
ENDMDL
MODEL       86
REMARK 921   NORMALIZED FREE ENERGY PREDICTED BY IDOCK:   -3.99 KCAL/MOL
REMARK 922        TOTAL FREE ENERGY PREDICTED BY IDOCK:   -4.95 KCAL/MOL
REMARK 923 INTER-LIGAND FREE ENERGY PREDICTED BY IDOCK:   -5.35 KCAL/MOL
REMARK 924 INTRA-LIGAND FREE ENERGY PREDICTED BY IDOCK:    0.41 KCAL/MOL
REMARK 927      BINDING AFFINITY PREDICTED BY RF-SCORE:    0.00 PKD
ROOT
HETATM    1  C   UNL     1     -12.210  14.135  72.168  1.00  0.00     0.014 C  
HETATM    2  N   UNL     1     -12.847  13.734  70.913  1.00  0.00    -0.300 NA 
HETATM    3  C   UNL     1     -12.484  14.643  69.808  1.00  0.00    -0.205 C  
HETATM    4  C   UNL     1     -11.078  14.418  69.197  1.00  0.00    -0.265 C  
HETATM    5  N   UNL     1     -10.786  13.022  68.792  1.00  0.00    -0.254 NA 
HETATM    6  C   UNL     1     -11.079  12.165  69.972  1.00  0.00     0.386 C  
HETATM    7  C   UNL     1     -12.496  12.343  70.566  1.00  0.00    -0.187 C  
ENDROOT
BRANCH   5   8
HETATM    8  C   UNL     1     -11.552  12.597  67.574  1.00  0.00    -0.359 C  
BRANCH   8   9
HETATM    9  C   UNL     1     -11.548  13.658  66.461  1.00  0.00    -0.392 A  
HETATM   10  C   UNL     1     -10.429  14.499  66.298  1.00  0.00    -0.303 A  
HETATM   11  C   UNL     1     -12.591  13.766  65.522  1.00  0.00    -0.551 A  
HETATM   12  C   UNL     1     -10.345  15.395  65.228  1.00  0.00    -0.420 A  
HETATM   13  C   UNL     1     -11.386  15.478  64.306  1.00  0.00    -0.165 A  
HETATM   14  C   UNL     1     -12.513  14.673  64.460  1.00  0.00    -0.312 A  
ENDBRANCH   8   9
BRANCH   8  15
HETATM   15  C   UNL     1     -11.089  11.211  67.087  1.00  0.00    -0.352 A  
HETATM   16  C   UNL     1      -9.865   8.765  66.438  1.00  0.00    -0.282 A  
HETATM   17 CL   UNL     1      -9.041   7.297  66.083  1.00  0.00    -0.185 Cl 
HETATM   18  C   UNL     1      -9.764   9.842  65.562  1.00  0.00    -0.382 A  
HETATM   19  C   UNL     1     -11.218  10.093  67.935  1.00  0.00    -0.234 A  
HETATM   20  C   UNL     1     -10.372  11.056  65.886  1.00  0.00    -0.315 A  
HETATM   21  C   UNL     1     -10.599   8.881  67.615  1.00  0.00    -0.292 A  
ENDBRANCH   8  15
ENDBRANCH   5   8
TORSDOF 3
ENDMDL
MODEL       87
REMARK 921   NORMALIZED FREE ENERGY PREDICTED BY IDOCK:   -3.98 KCAL/MOL
REMARK 922        TOTAL FREE ENERGY PREDICTED BY IDOCK:   -4.94 KCAL/MOL
REMARK 923 INTER-LIGAND FREE ENERGY PREDICTED BY IDOCK:   -4.32 KCAL/MOL
REMARK 924 INTRA-LIGAND FREE ENERGY PREDICTED BY IDOCK:   -0.61 KCAL/MOL
REMARK 927      BINDING AFFINITY PREDICTED BY RF-SCORE:    0.00 PKD
ROOT
HETATM    1  C   UNL     1      -8.590   7.993  65.726  1.00  0.00    -0.153 C  
HETATM    2  N   UNL     1      -8.511   8.599  67.055  1.00  0.00    -0.109 NA 
HETATM    3  C   UNL     1      -9.853   8.915  67.586  1.00  0.00    -0.182 C  
HETATM    4  C   UNL     1     -10.644   7.709  68.153  1.00  0.00    -0.130 C  
HETATM    5  N   UNL     1      -9.911   6.890  69.147  1.00  0.00    -0.154 NA 
HETATM    6  C   UNL     1      -8.612   6.523  68.523  1.00  0.00    -0.123 C  
HETATM    7  C   UNL     1      -7.787   7.719  67.993  1.00  0.00    -0.124 C  
ENDROOT
BRANCH   5   8
HETATM    8  C   UNL     1      -9.735   7.589  70.462  1.00  0.00    -0.179 C  
BRANCH   8   9
HETATM    9  C   UNL     1     -11.049   8.159  71.020  1.00  0.00    -0.281 A  
HETATM   10  C   UNL     1     -11.176   9.545  71.236  1.00  0.00    -0.452 A  
HETATM   11  C   UNL     1     -12.183   7.355  71.241  1.00  0.00    -0.374 A  
HETATM   12  C   UNL     1     -12.392  10.109  71.633  1.00  0.00    -0.471 A  
HETATM   13  C   UNL     1     -13.504   9.294  71.838  1.00  0.00    -0.497 A  
HETATM   14  C   UNL     1     -13.396   7.917  71.653  1.00  0.00    -0.374 A  
ENDBRANCH   8   9
BRANCH   8  15
HETATM   15  C   UNL     1      -8.991   6.691  71.469  1.00  0.00    -0.139 A  
HETATM   16  C   UNL     1      -7.406   4.897  72.943  1.00  0.00    -0.090 A  
HETATM   17 CL   UNL     1      -6.401   3.769  73.766  1.00  0.00    -0.027 Cl 
HETATM   18  C   UNL     1      -8.678   4.515  72.529  1.00  0.00    -0.119 A  
HETATM   19  C   UNL     1      -7.719   7.073  71.939  1.00  0.00    -0.093 A  
HETATM   20  C   UNL     1      -9.465   5.406  71.797  1.00  0.00    -0.177 A  
HETATM   21  C   UNL     1      -6.928   6.175  72.663  1.00  0.00    -0.075 A  
ENDBRANCH   8  15
ENDBRANCH   5   8
TORSDOF 3
ENDMDL
MODEL       88
REMARK 921   NORMALIZED FREE ENERGY PREDICTED BY IDOCK:   -3.97 KCAL/MOL
REMARK 922        TOTAL FREE ENERGY PREDICTED BY IDOCK:   -4.93 KCAL/MOL
REMARK 923 INTER-LIGAND FREE ENERGY PREDICTED BY IDOCK:   -4.50 KCAL/MOL
REMARK 924 INTRA-LIGAND FREE ENERGY PREDICTED BY IDOCK:   -0.42 KCAL/MOL
REMARK 927      BINDING AFFINITY PREDICTED BY RF-SCORE:    0.00 PKD
ROOT
HETATM    1  C   UNL     1      -5.484   6.703  72.701  1.00  0.00    -0.037 C  
HETATM    2  N   UNL     1      -5.959   7.524  71.587  1.00  0.00    -0.036 NA 
HETATM    3  C   UNL     1      -6.510   6.692  70.498  1.00  0.00    -0.047 C  
HETATM    4  C   UNL     1      -7.940   6.145  70.740  1.00  0.00    -0.115 C  
HETATM    5  N   UNL     1      -8.945   7.163  71.127  1.00  0.00    -0.144 NA 
HETATM    6  C   UNL     1      -8.376   7.905  72.284  1.00  0.00    -0.131 C  
HETATM    7  C   UNL     1      -6.969   8.499  72.045  1.00  0.00    -0.087 C  
ENDROOT
BRANCH   5   8
HETATM    8  C   UNL     1      -9.318   8.072  69.994  1.00  0.00    -0.156 C  
BRANCH   8   9
HETATM    9  C   UNL     1      -9.532   7.324  68.668  1.00  0.00    -0.137 A  
HETATM   10  C   UNL     1      -8.630   7.514  67.603  1.00  0.00    -0.119 A  
HETATM   11  C   UNL     1     -10.552   6.369  68.500  1.00  0.00    -0.302 A  
HETATM   12  C   UNL     1      -8.729   6.765  66.427  1.00  0.00    -0.142 A  
HETATM   13  C   UNL     1      -9.742   5.819  66.286  1.00  0.00    -0.148 A  
HETATM   14  C   UNL     1     -10.660   5.630  67.317  1.00  0.00    -0.328 A  
ENDBRANCH   8   9
BRANCH   8  15
HETATM   15  C   UNL     1     -10.510   8.971  70.378  1.00  0.00    -0.254 A  
HETATM   16  C   UNL     1     -12.390  10.814  71.363  1.00  0.00    -0.328 A  
HETATM   17 CL   UNL     1     -13.478  11.970  72.025  1.00  0.00    -0.493 Cl 
HETATM   18  C   UNL     1     -12.317   9.539  71.915  1.00  0.00    -0.450 A  
HETATM   19  C   UNL     1     -10.634  10.250  69.802  1.00  0.00    -0.312 A  
HETATM   20  C   UNL     1     -11.383   8.624  71.426  1.00  0.00    -0.350 A  
HETATM   21  C   UNL     1     -11.562  11.169  70.301  1.00  0.00    -0.388 A  
ENDBRANCH   8  15
ENDBRANCH   5   8
TORSDOF 3
ENDMDL
MODEL       89
REMARK 921   NORMALIZED FREE ENERGY PREDICTED BY IDOCK:   -3.96 KCAL/MOL
REMARK 922        TOTAL FREE ENERGY PREDICTED BY IDOCK:   -4.92 KCAL/MOL
REMARK 923 INTER-LIGAND FREE ENERGY PREDICTED BY IDOCK:   -4.35 KCAL/MOL
REMARK 924 INTRA-LIGAND FREE ENERGY PREDICTED BY IDOCK:   -0.57 KCAL/MOL
REMARK 927      BINDING AFFINITY PREDICTED BY RF-SCORE:    0.00 PKD
ROOT
HETATM    1  C   UNL     1     -13.355   8.986  72.237  1.00  0.00    -0.467 C  
HETATM    2  N   UNL     1     -12.070   8.313  72.425  1.00  0.00    -0.377 NA 
HETATM    3  C   UNL     1     -12.111   6.921  71.934  1.00  0.00    -0.333 C  
HETATM    4  C   UNL     1     -12.003   6.755  70.397  1.00  0.00    -0.285 C  
HETATM    5  N   UNL     1     -10.858   7.456  69.769  1.00  0.00    -0.247 NA 
HETATM    6  C   UNL     1     -10.923   8.871  70.223  1.00  0.00    -0.241 C  
HETATM    7  C   UNL     1     -10.984   9.057  71.758  1.00  0.00    -0.372 C  
ENDROOT
BRANCH   5   8
HETATM    8  C   UNL     1      -9.539   6.816  70.085  1.00  0.00    -0.161 C  
BRANCH   8   9
HETATM    9  C   UNL     1      -9.555   5.289  69.905  1.00  0.00    -0.241 A  
HETATM   10  C   UNL     1      -9.506   4.735  68.611  1.00  0.00    -0.208 A  
HETATM   11  C   UNL     1      -9.519   4.403  70.999  1.00  0.00    -0.232 A  
HETATM   12  C   UNL     1      -9.403   3.354  68.417  1.00  0.00    -0.238 A  
HETATM   13  C   UNL     1      -9.361   2.497  69.515  1.00  0.00    -0.172 A  
HETATM   14  C   UNL     1      -9.432   3.021  70.804  1.00  0.00    -0.228 A  
ENDBRANCH   8   9
BRANCH   8  15
HETATM   15  C   UNL     1      -8.394   7.502  69.315  1.00  0.00    -0.132 A  
HETATM   16  C   UNL     1      -6.489   9.145  68.061  1.00  0.00    -0.059 A  
HETATM   17 CL   UNL     1      -5.371  10.222  67.320  1.00  0.00    -0.041 Cl 
HETATM   18  C   UNL     1      -7.592   8.693  67.343  1.00  0.00    -0.093 A  
HETATM   19  C   UNL     1      -7.246   7.931  70.009  1.00  0.00    -0.062 A  
HETATM   20  C   UNL     1      -8.538   7.878  67.966  1.00  0.00    -0.126 A  
HETATM   21  C   UNL     1      -6.305   8.758  69.386  1.00  0.00    -0.041 A  
ENDBRANCH   8  15
ENDBRANCH   5   8
TORSDOF 3
ENDMDL
MODEL       90
REMARK 921   NORMALIZED FREE ENERGY PREDICTED BY IDOCK:   -3.96 KCAL/MOL
REMARK 922        TOTAL FREE ENERGY PREDICTED BY IDOCK:   -4.92 KCAL/MOL
REMARK 923 INTER-LIGAND FREE ENERGY PREDICTED BY IDOCK:   -4.64 KCAL/MOL
REMARK 924 INTRA-LIGAND FREE ENERGY PREDICTED BY IDOCK:   -0.28 KCAL/MOL
REMARK 927      BINDING AFFINITY PREDICTED BY RF-SCORE:    0.00 PKD
ROOT
HETATM    1  C   UNL     1      -9.911   4.129  67.928  1.00  0.00    -0.036 C  
HETATM    2  N   UNL     1     -10.377   4.881  69.093  1.00  0.00    -0.117 NA 
HETATM    3  C   UNL     1      -9.262   5.213  70.004  1.00  0.00    -0.134 C  
HETATM    4  C   UNL     1      -8.372   6.401  69.559  1.00  0.00    -0.126 C  
HETATM    5  N   UNL     1      -9.106   7.643  69.220  1.00  0.00    -0.146 NA 
HETATM    6  C   UNL     1     -10.151   7.265  68.231  1.00  0.00    -0.170 C  
HETATM    7  C   UNL     1     -11.079   6.111  68.679  1.00  0.00    -0.294 C  
ENDROOT
BRANCH   5   8
HETATM    8  C   UNL     1      -9.682   8.326  70.425  1.00  0.00    -0.168 C  
BRANCH   8   9
HETATM    9  C   UNL     1      -8.765   8.246  71.656  1.00  0.00    -0.213 A  
HETATM   10  C   UNL     1      -7.382   8.472  71.516  1.00  0.00    -0.112 A  
HETATM   11  C   UNL     1      -9.267   8.046  72.956  1.00  0.00    -0.337 A  
HETATM   12  C   UNL     1      -6.538   8.519  72.630  1.00  0.00    -0.084 A  
HETATM   13  C   UNL     1      -7.059   8.327  73.908  1.00  0.00    -0.180 A  
HETATM   14  C   UNL     1      -8.421   8.079  74.069  1.00  0.00    -0.312 A  
ENDBRANCH   8   9
BRANCH   8  15
HETATM   15  C   UNL     1     -10.115   9.765  70.089  1.00  0.00    -0.317 A  
HETATM   16  C   UNL     1     -11.182  12.198  69.168  1.00  0.00    -0.244 A  
HETATM   17 CL   UNL     1     -11.881  13.639  68.540  1.00  0.00    -0.391 Cl 
HETATM   18  C   UNL     1      -9.980  11.730  68.647  1.00  0.00    -0.181 A  
HETATM   19  C   UNL     1     -11.306  10.282  70.636  1.00  0.00    -0.431 A  
HETATM   20  C   UNL     1      -9.451  10.521  69.104  1.00  0.00    -0.205 A  
HETATM   21  C   UNL     1     -11.841  11.487  70.168  1.00  0.00    -0.440 A  
ENDBRANCH   8  15
ENDBRANCH   5   8
TORSDOF 3
ENDMDL
MODEL       91
REMARK 921   NORMALIZED FREE ENERGY PREDICTED BY IDOCK:   -3.96 KCAL/MOL
REMARK 922        TOTAL FREE ENERGY PREDICTED BY IDOCK:   -4.92 KCAL/MOL
REMARK 923 INTER-LIGAND FREE ENERGY PREDICTED BY IDOCK:   -4.40 KCAL/MOL
REMARK 924 INTRA-LIGAND FREE ENERGY PREDICTED BY IDOCK:   -0.52 KCAL/MOL
REMARK 927      BINDING AFFINITY PREDICTED BY RF-SCORE:    0.00 PKD
ROOT
HETATM    1  C   UNL     1      -8.146   2.301  70.440  1.00  0.00    -0.041 C  
HETATM    2  N   UNL     1      -9.274   3.062  69.903  1.00  0.00    -0.141 NA 
HETATM    3  C   UNL     1      -9.839   3.978  70.915  1.00  0.00    -0.159 C  
HETATM    4  C   UNL     1      -9.037   5.282  71.151  1.00  0.00    -0.144 C  
HETATM    5  N   UNL     1      -8.716   6.053  69.926  1.00  0.00    -0.130 NA 
HETATM    6  C   UNL     1      -8.065   5.103  68.984  1.00  0.00    -0.085 C  
HETATM    7  C   UNL     1      -8.874   3.816  68.699  1.00  0.00    -0.111 C  
ENDROOT
BRANCH   5   8
HETATM    8  C   UNL     1      -9.917   6.719  69.326  1.00  0.00    -0.160 C  
BRANCH   8   9
HETATM    9  C   UNL     1     -10.889   7.271  70.382  1.00  0.00    -0.265 A  
HETATM   10  C   UNL     1     -10.543   8.419  71.121  1.00  0.00    -0.266 A  
HETATM   11  C   UNL     1     -12.172   6.726  70.580  1.00  0.00    -0.312 A  
HETATM   12  C   UNL     1     -11.449   9.012  72.006  1.00  0.00    -0.408 A  
HETATM   13  C   UNL     1     -12.716   8.460  72.180  1.00  0.00    -0.399 A  
HETATM   14  C   UNL     1     -13.073   7.311  71.476  1.00  0.00    -0.434 A  
ENDBRANCH   8   9
BRANCH   8  15
HETATM   15  C   UNL     1      -9.500   7.772  68.281  1.00  0.00    -0.150 A  
HETATM   16  C   UNL     1      -8.577   9.339  66.138  1.00  0.00    -0.134 A  
HETATM   17 CL   UNL     1      -7.976  10.223  64.789  1.00  0.00    -0.153 Cl 
HETATM   18  C   UNL     1      -7.779   9.172  67.265  1.00  0.00    -0.095 A  
HETATM   19  C   UNL     1     -10.311   7.995  67.151  1.00  0.00    -0.395 A  
HETATM   20  C   UNL     1      -8.238   8.393  68.329  1.00  0.00    -0.124 A  
HETATM   21  C   UNL     1      -9.845   8.765  66.081  1.00  0.00    -0.297 A  
ENDBRANCH   8  15
ENDBRANCH   5   8
TORSDOF 3
ENDMDL
MODEL       92
REMARK 921   NORMALIZED FREE ENERGY PREDICTED BY IDOCK:   -3.93 KCAL/MOL
REMARK 922        TOTAL FREE ENERGY PREDICTED BY IDOCK:   -4.88 KCAL/MOL
REMARK 923 INTER-LIGAND FREE ENERGY PREDICTED BY IDOCK:   -4.42 KCAL/MOL
REMARK 924 INTRA-LIGAND FREE ENERGY PREDICTED BY IDOCK:   -0.46 KCAL/MOL
REMARK 927      BINDING AFFINITY PREDICTED BY RF-SCORE:    0.00 PKD
ROOT
HETATM    1  C   UNL     1      -5.862   4.086  68.785  1.00  0.00    -0.022 C  
HETATM    2  N   UNL     1      -6.089   5.490  69.130  1.00  0.00    -0.024 NA 
HETATM    3  C   UNL     1      -6.651   6.242  67.990  1.00  0.00    -0.062 C  
HETATM    4  C   UNL     1      -8.165   6.032  67.738  1.00  0.00    -0.112 C  
HETATM    5  N   UNL     1      -9.033   6.230  68.924  1.00  0.00    -0.126 NA 
HETATM    6  C   UNL     1      -8.474   5.377  70.007  1.00  0.00    -0.111 C  
HETATM    7  C   UNL     1      -6.974   5.607  70.305  1.00  0.00    -0.058 C  
ENDROOT
BRANCH   5   8
HETATM    8  C   UNL     1      -9.143   7.669  69.330  1.00  0.00    -0.142 C  
BRANCH   8   9
HETATM    9  C   UNL     1      -9.122   8.635  68.135  1.00  0.00    -0.142 A  
HETATM   10  C   UNL     1     -10.187   8.633  67.212  1.00  0.00    -0.337 A  
HETATM   11  C   UNL     1      -8.114   9.604  67.969  1.00  0.00    -0.105 A  
HETATM   12  C   UNL     1     -10.254   9.573  66.180  1.00  0.00    -0.272 A  
HETATM   13  C   UNL     1      -9.249  10.528  66.041  1.00  0.00    -0.205 A  
HETATM   14  C   UNL     1      -8.174  10.536  66.927  1.00  0.00    -0.123 A  
ENDBRANCH   8   9
BRANCH   8  15
HETATM   15  C   UNL     1     -10.352   7.888  70.261  1.00  0.00    -0.212 A  
HETATM   16  C   UNL     1     -12.776   8.422  71.581  1.00  0.00    -0.331 A  
HETATM   17 CL   UNL     1     -14.292   8.782  72.311  1.00  0.00    -0.515 Cl 
HETATM   18  C   UNL     1     -11.774   9.387  71.559  1.00  0.00    -0.465 A  
HETATM   19  C   UNL     1     -11.361   6.908  70.337  1.00  0.00    -0.376 A  
HETATM   20  C   UNL     1     -10.570   9.121  70.903  1.00  0.00    -0.341 A  
HETATM   21  C   UNL     1     -12.571   7.180  70.985  1.00  0.00    -0.335 A  
ENDBRANCH   8  15
ENDBRANCH   5   8
TORSDOF 3
ENDMDL
MODEL       93
REMARK 921   NORMALIZED FREE ENERGY PREDICTED BY IDOCK:   -3.89 KCAL/MOL
REMARK 922        TOTAL FREE ENERGY PREDICTED BY IDOCK:   -4.84 KCAL/MOL
REMARK 923 INTER-LIGAND FREE ENERGY PREDICTED BY IDOCK:   -4.18 KCAL/MOL
REMARK 924 INTRA-LIGAND FREE ENERGY PREDICTED BY IDOCK:   -0.66 KCAL/MOL
REMARK 927      BINDING AFFINITY PREDICTED BY RF-SCORE:    0.00 PKD
ROOT
HETATM    1  C   UNL     1      -9.326  11.315  65.756  1.00  0.00    -0.223 C  
HETATM    2  N   UNL     1      -8.706  10.652  66.904  1.00  0.00    -0.131 NA 
HETATM    3  C   UNL     1      -9.642  10.555  68.042  1.00  0.00    -0.148 C  
HETATM    4  C   UNL     1     -10.705   9.433  67.934  1.00  0.00    -0.210 C  
HETATM    5  N   UNL     1     -10.166   8.085  67.634  1.00  0.00    -0.211 NA 
HETATM    6  C   UNL     1      -9.310   8.227  66.426  1.00  0.00    -0.213 C  
HETATM    7  C   UNL     1      -8.212   9.311  66.534  1.00  0.00    -0.107 C  
ENDROOT
BRANCH   5   8
HETATM    8  C   UNL     1      -9.426   7.483  68.791  1.00  0.00    -0.148 C  
BRANCH   8   9
HETATM    9  C   UNL     1     -10.241   7.488  70.094  1.00  0.00    -0.206 A  
HETATM   10  C   UNL     1      -9.744   8.156  71.229  1.00  0.00    -0.207 A  
HETATM   11  C   UNL     1     -11.528   6.924  70.177  1.00  0.00    -0.354 A  
HETATM   12  C   UNL     1     -10.509   8.277  72.393  1.00  0.00    -0.404 A  
HETATM   13  C   UNL     1     -11.784   7.717  72.450  1.00  0.00    -0.394 A  
HETATM   14  C   UNL     1     -12.288   7.031  71.347  1.00  0.00    -0.419 A  
ENDBRANCH   8   9
BRANCH   8  15
HETATM   15  C   UNL     1      -8.875   6.090  68.429  1.00  0.00    -0.112 A  
HETATM   16  C   UNL     1      -7.982   3.435  68.195  1.00  0.00    -0.074 A  
HETATM   17 CL   UNL     1      -7.453   1.799  68.141  1.00  0.00    -0.049 Cl 
HETATM   18  C   UNL     1      -7.077   4.443  68.513  1.00  0.00    -0.052 A  
HETATM   19  C   UNL     1      -9.764   5.061  68.061  1.00  0.00    -0.197 A  
HETATM   20  C   UNL     1      -7.521   5.761  68.629  1.00  0.00    -0.085 A  
HETATM   21  C   UNL     1      -9.320   3.739  67.957  1.00  0.00    -0.232 A  
ENDBRANCH   8  15
ENDBRANCH   5   8
TORSDOF 3
ENDMDL
MODEL       94
REMARK 921   NORMALIZED FREE ENERGY PREDICTED BY IDOCK:   -3.89 KCAL/MOL
REMARK 922        TOTAL FREE ENERGY PREDICTED BY IDOCK:   -4.83 KCAL/MOL
REMARK 923 INTER-LIGAND FREE ENERGY PREDICTED BY IDOCK:   -4.43 KCAL/MOL
REMARK 924 INTRA-LIGAND FREE ENERGY PREDICTED BY IDOCK:   -0.40 KCAL/MOL
REMARK 927      BINDING AFFINITY PREDICTED BY RF-SCORE:    0.00 PKD
ROOT
HETATM    1  C   UNL     1     -13.112  10.069  71.071  1.00  0.00    -0.356 C  
HETATM    2  N   UNL     1     -11.900   9.570  71.722  1.00  0.00    -0.385 NA 
HETATM    3  C   UNL     1     -12.144   8.284  72.407  1.00  0.00    -0.369 C  
HETATM    4  C   UNL     1     -12.194   7.039  71.485  1.00  0.00    -0.368 C  
HETATM    5  N   UNL     1     -11.037   6.889  70.571  1.00  0.00    -0.271 NA 
HETATM    6  C   UNL     1     -10.899   8.178  69.842  1.00  0.00    -0.215 C  
HETATM    7  C   UNL     1     -10.800   9.427  70.748  1.00  0.00    -0.305 C  
ENDROOT
BRANCH   5   8
HETATM    8  C   UNL     1      -9.777   6.500  71.286  1.00  0.00    -0.173 C  
BRANCH   8   9
HETATM    9  C   UNL     1      -9.942   5.240  72.152  1.00  0.00    -0.232 A  
HETATM   10  C   UNL     1     -10.199   5.366  73.531  1.00  0.00    -0.229 A  
HETATM   11  C   UNL     1      -9.942   3.944  71.602  1.00  0.00    -0.223 A  
HETATM   12  C   UNL     1     -10.467   4.247  74.324  1.00  0.00    -0.307 A  
HETATM   13  C   UNL     1     -10.469   2.975  73.756  1.00  0.00    -0.246 A  
HETATM   14  C   UNL     1     -10.195   2.823  72.398  1.00  0.00    -0.209 A  
ENDBRANCH   8   9
BRANCH   8  15
HETATM   15  C   UNL     1      -8.593   6.406  70.304  1.00  0.00    -0.135 A  
HETATM   16  C   UNL     1      -6.586   6.631  68.349  1.00  0.00    -0.059 A  
HETATM   17 CL   UNL     1      -5.401   6.843  67.120  1.00  0.00    -0.016 Cl 
HETATM   18  C   UNL     1      -7.724   5.875  68.087  1.00  0.00    -0.100 A  
HETATM   19  C   UNL     1      -7.411   7.126  70.565  1.00  0.00    -0.087 A  
HETATM   20  C   UNL     1      -8.721   5.763  69.058  1.00  0.00    -0.112 A  
HETATM   21  C   UNL     1      -6.419   7.246  69.586  1.00  0.00    -0.036 A  
ENDBRANCH   8  15
ENDBRANCH   5   8
TORSDOF 3
ENDMDL
MODEL       95
REMARK 921   NORMALIZED FREE ENERGY PREDICTED BY IDOCK:   -3.89 KCAL/MOL
REMARK 922        TOTAL FREE ENERGY PREDICTED BY IDOCK:   -4.83 KCAL/MOL
REMARK 923 INTER-LIGAND FREE ENERGY PREDICTED BY IDOCK:   -4.18 KCAL/MOL
REMARK 924 INTRA-LIGAND FREE ENERGY PREDICTED BY IDOCK:   -0.65 KCAL/MOL
REMARK 927      BINDING AFFINITY PREDICTED BY RF-SCORE:    0.00 PKD
ROOT
HETATM    1  C   UNL     1     -11.749  14.666  68.009  1.00  0.00    -0.342 C  
HETATM    2  N   UNL     1     -11.500  13.517  67.138  1.00  0.00    -0.321 NA 
HETATM    3  C   UNL     1     -10.097  13.482  66.676  1.00  0.00    -0.277 C  
HETATM    4  C   UNL     1      -9.071  12.955  67.710  1.00  0.00    -0.197 C  
HETATM    5  N   UNL     1      -9.411  11.648  68.322  1.00  0.00    -0.187 NA 
HETATM    6  C   UNL     1     -10.795  11.774  68.853  1.00  0.00    -0.223 C  
HETATM    7  C   UNL     1     -11.843  12.255  67.821  1.00  0.00    -0.273 C  
ENDROOT
BRANCH   5   8
HETATM    8  C   UNL     1      -9.268  10.502  67.366  1.00  0.00    -0.142 C  
BRANCH   8   9
HETATM    9  C   UNL     1      -7.867  10.414  66.739  1.00  0.00    -0.117 A  
HETATM   10  C   UNL     1      -6.733  10.320  67.568  1.00  0.00    -0.071 A  
HETATM   11  C   UNL     1      -7.671  10.325  65.348  1.00  0.00    -0.146 A  
HETATM   12  C   UNL     1      -5.456  10.124  67.032  1.00  0.00    -0.041 A  
HETATM   13  C   UNL     1      -5.288  10.031  65.652  1.00  0.00    -0.055 A  
HETATM   14  C   UNL     1      -6.392  10.144  64.810  1.00  0.00    -0.131 A  
ENDBRANCH   8   9
BRANCH   8  15
HETATM   15  C   UNL     1      -9.722   9.181  68.017  1.00  0.00    -0.177 A  
HETATM   16  C   UNL     1     -10.160   6.600  69.040  1.00  0.00    -0.162 A  
HETATM   17 CL   UNL     1     -10.354   4.993  69.623  1.00  0.00    -0.316 Cl 
HETATM   18  C   UNL     1     -10.721   6.964  67.820  1.00  0.00    -0.321 A  
HETATM   19  C   UNL     1      -9.205   8.807  69.272  1.00  0.00    -0.149 A  
HETATM   20  C   UNL     1     -10.503   8.246  67.312  1.00  0.00    -0.373 A  
HETATM   21  C   UNL     1      -9.414   7.518  69.774  1.00  0.00    -0.156 A  
ENDBRANCH   8  15
ENDBRANCH   5   8
TORSDOF 3
ENDMDL
MODEL       96
REMARK 921   NORMALIZED FREE ENERGY PREDICTED BY IDOCK:   -3.88 KCAL/MOL
REMARK 922        TOTAL FREE ENERGY PREDICTED BY IDOCK:   -4.82 KCAL/MOL
REMARK 923 INTER-LIGAND FREE ENERGY PREDICTED BY IDOCK:   -4.24 KCAL/MOL
REMARK 924 INTRA-LIGAND FREE ENERGY PREDICTED BY IDOCK:   -0.58 KCAL/MOL
REMARK 927      BINDING AFFINITY PREDICTED BY RF-SCORE:    0.00 PKD
ROOT
HETATM    1  C   UNL     1      -9.638   5.339  68.741  1.00  0.00    -0.137 C  
HETATM    2  N   UNL     1      -8.843   6.558  68.595  1.00  0.00    -0.122 NA 
HETATM    3  C   UNL     1      -8.236   6.649  67.252  1.00  0.00    -0.121 C  
HETATM    4  C   UNL     1      -9.192   7.106  66.121  1.00  0.00    -0.082 C  
HETATM    5  N   UNL     1      -9.943   8.353  66.399  1.00  0.00    -0.254 NA 
HETATM    6  C   UNL     1     -10.608   8.165  67.716  1.00  0.00    -0.165 C  
HETATM    7  C   UNL     1      -9.661   7.756  68.868  1.00  0.00    -0.160 C  
ENDROOT
BRANCH   5   8
HETATM    8  C   UNL     1      -9.075   9.575  66.367  1.00  0.00    -0.159 C  
BRANCH   8   9
HETATM    9  C   UNL     1      -8.333   9.751  65.032  1.00  0.00    -0.149 A  
HETATM   10  C   UNL     1      -9.065   9.907  63.838  1.00  0.00    -0.298 A  
HETATM   11  C   UNL     1      -6.931   9.859  64.959  1.00  0.00    -0.130 A  
HETATM   12  C   UNL     1      -8.426  10.182  62.626  1.00  0.00    -0.183 A  
HETATM   13  C   UNL     1      -7.038  10.294  62.580  1.00  0.00    -0.151 A  
HETATM   14  C   UNL     1      -6.291  10.120  63.743  1.00  0.00    -0.131 A  
ENDBRANCH   8   9
BRANCH   8  15
HETATM   15  C   UNL     1      -9.869  10.827  66.785  1.00  0.00    -0.233 A  
HETATM   16  C   UNL     1     -11.043  13.336  67.262  1.00  0.00    -0.279 A  
HETATM   17 CL   UNL     1     -11.697  14.910  67.502  1.00  0.00    -0.367 Cl 
HETATM   18  C   UNL     1     -10.056  12.861  68.120  1.00  0.00    -0.240 A  
HETATM   19  C   UNL     1     -10.903  11.307  65.958  1.00  0.00    -0.273 A  
HETATM   20  C   UNL     1      -9.473  11.615  67.883  1.00  0.00    -0.181 A  
HETATM   21  C   UNL     1     -11.478  12.561  66.191  1.00  0.00    -0.426 A  
ENDBRANCH   8  15
ENDBRANCH   5   8
TORSDOF 3
ENDMDL
MODEL       97
REMARK 921   NORMALIZED FREE ENERGY PREDICTED BY IDOCK:   -3.85 KCAL/MOL
REMARK 922        TOTAL FREE ENERGY PREDICTED BY IDOCK:   -4.79 KCAL/MOL
REMARK 923 INTER-LIGAND FREE ENERGY PREDICTED BY IDOCK:   -4.16 KCAL/MOL
REMARK 924 INTRA-LIGAND FREE ENERGY PREDICTED BY IDOCK:   -0.63 KCAL/MOL
REMARK 927      BINDING AFFINITY PREDICTED BY RF-SCORE:    0.00 PKD
ROOT
HETATM    1  C   UNL     1     -11.312  11.013  68.982  1.00  0.00    -0.277 C  
HETATM    2  N   UNL     1     -10.230  10.300  69.662  1.00  0.00    -0.238 NA 
HETATM    3  C   UNL     1     -10.694   9.688  70.923  1.00  0.00    -0.332 C  
HETATM    4  C   UNL     1     -11.498   8.373  70.767  1.00  0.00    -0.255 C  
HETATM    5  N   UNL     1     -10.846   7.333  69.936  1.00  0.00    -0.246 NA 
HETATM    6  C   UNL     1     -10.487   7.981  68.646  1.00  0.00    -0.167 C  
HETATM    7  C   UNL     1      -9.644   9.270  68.781  1.00  0.00    -0.154 C  
ENDROOT
BRANCH   5   8
HETATM    8  C   UNL     1      -9.660   6.708  70.609  1.00  0.00    -0.169 C  
BRANCH   8   9
HETATM    9  C   UNL     1      -9.977   6.185  72.019  1.00  0.00    -0.194 A  
HETATM   10  C   UNL     1     -10.887   5.122  72.185  1.00  0.00    -0.218 A  
HETATM   11  C   UNL     1      -9.316   6.665  73.166  1.00  0.00    -0.147 A  
HETATM   12  C   UNL     1     -11.111   4.547  73.440  1.00  0.00    -0.408 A  
HETATM   13  C   UNL     1     -10.438   5.034  74.559  1.00  0.00    -0.274 A  
HETATM   14  C   UNL     1      -9.551   6.100  74.424  1.00  0.00    -0.235 A  
ENDBRANCH   8   9
BRANCH   8  15
HETATM   15  C   UNL     1      -9.008   5.646  69.704  1.00  0.00    -0.135 A  
HETATM   16  C   UNL     1      -7.824   4.032  67.730  1.00  0.00    -0.086 A  
HETATM   17 CL   UNL     1      -7.112   3.111  66.463  1.00  0.00    -0.054 Cl 
HETATM   18  C   UNL     1      -9.197   3.968  67.943  1.00  0.00    -0.200 A  
HETATM   19  C   UNL     1      -7.614   5.659  69.504  1.00  0.00    -0.072 A  
HETATM   20  C   UNL     1      -9.785   4.770  68.922  1.00  0.00    -0.244 A  
HETATM   21  C   UNL     1      -7.028   4.863  68.514  1.00  0.00    -0.056 A  
ENDBRANCH   8  15
ENDBRANCH   5   8
TORSDOF 3
ENDMDL
MODEL       98
REMARK 921   NORMALIZED FREE ENERGY PREDICTED BY IDOCK:   -3.85 KCAL/MOL
REMARK 922        TOTAL FREE ENERGY PREDICTED BY IDOCK:   -4.79 KCAL/MOL
REMARK 923 INTER-LIGAND FREE ENERGY PREDICTED BY IDOCK:   -4.94 KCAL/MOL
REMARK 924 INTRA-LIGAND FREE ENERGY PREDICTED BY IDOCK:    0.15 KCAL/MOL
REMARK 927      BINDING AFFINITY PREDICTED BY RF-SCORE:    0.00 PKD
ROOT
HETATM    1  C   UNL     1      -7.838   4.978  70.799  1.00  0.00    -0.083 C  
HETATM    2  N   UNL     1      -7.651   6.412  70.576  1.00  0.00    -0.094 NA 
HETATM    3  C   UNL     1      -7.742   6.753  69.142  1.00  0.00    -0.106 C  
HETATM    4  C   UNL     1      -9.178   6.823  68.565  1.00  0.00    -0.128 C  
HETATM    5  N   UNL     1     -10.119   7.679  69.327  1.00  0.00    -0.185 NA 
HETATM    6  C   UNL     1     -10.056   7.228  70.743  1.00  0.00    -0.190 C  
HETATM    7  C   UNL     1      -8.633   7.197  71.350  1.00  0.00    -0.116 C  
ENDROOT
BRANCH   5   8
HETATM    8  C   UNL     1      -9.823   9.142  69.180  1.00  0.00    -0.171 C  
BRANCH   8   9
HETATM    9  C   UNL     1      -9.461   9.541  67.741  1.00  0.00    -0.151 A  
HETATM   10  C   UNL     1      -8.241  10.195  67.481  1.00  0.00    -0.114 A  
HETATM   11  C   UNL     1     -10.264   9.191  66.639  1.00  0.00    -0.328 A  
HETATM   12  C   UNL     1      -7.829  10.470  66.173  1.00  0.00    -0.145 A  
HETATM   13  C   UNL     1      -8.637  10.106  65.097  1.00  0.00    -0.175 A  
HETATM   14  C   UNL     1      -9.859   9.479  65.331  1.00  0.00    -0.248 A  
ENDBRANCH   8   9
BRANCH   8  15
HETATM   15  C   UNL     1     -10.960   9.996  69.775  1.00  0.00    -0.317 A  
HETATM   16  C   UNL     1     -12.710  11.726  71.133  1.00  0.00    -0.305 A  
HETATM   17 CL   UNL     1     -13.713  12.806  72.020  1.00  0.00    -0.439 Cl 
HETATM   18  C   UNL     1     -12.600  10.399  71.536  1.00  0.00    -0.544 A  
HETATM   19  C   UNL     1     -11.123  11.331  69.355  1.00  0.00    -0.316 A  
HETATM   20  C   UNL     1     -11.730   9.541  70.861  1.00  0.00    -0.391 A  
HETATM   21  C   UNL     1     -11.986  12.193  70.039  1.00  0.00    -0.391 A  
ENDBRANCH   8  15
ENDBRANCH   5   8
TORSDOF 3
ENDMDL
MODEL       99
REMARK 921   NORMALIZED FREE ENERGY PREDICTED BY IDOCK:   -3.83 KCAL/MOL
REMARK 922        TOTAL FREE ENERGY PREDICTED BY IDOCK:   -4.77 KCAL/MOL
REMARK 923 INTER-LIGAND FREE ENERGY PREDICTED BY IDOCK:   -4.21 KCAL/MOL
REMARK 924 INTRA-LIGAND FREE ENERGY PREDICTED BY IDOCK:   -0.56 KCAL/MOL
REMARK 927      BINDING AFFINITY PREDICTED BY RF-SCORE:    0.00 PKD
ROOT
HETATM    1  C   UNL     1      -8.392  10.161  64.922  1.00  0.00    -0.164 C  
HETATM    2  N   UNL     1      -8.666   8.955  65.703  1.00  0.00    -0.171 NA 
HETATM    3  C   UNL     1      -7.619   8.718  66.718  1.00  0.00    -0.090 C  
HETATM    4  C   UNL     1      -7.717   9.597  67.990  1.00  0.00    -0.086 C  
HETATM    5  N   UNL     1      -9.042   9.597  68.654  1.00  0.00    -0.131 NA 
HETATM    6  C   UNL     1     -10.043   9.934  67.606  1.00  0.00    -0.197 C  
HETATM    7  C   UNL     1      -9.992   9.036  66.348  1.00  0.00    -0.300 C  
ENDROOT
BRANCH   5   8
HETATM    8  C   UNL     1      -9.349   8.299  69.340  1.00  0.00    -0.155 C  
BRANCH   8   9
HETATM    9  C   UNL     1      -8.217   7.827  70.266  1.00  0.00    -0.125 A  
HETATM   10  C   UNL     1      -7.986   8.490  71.487  1.00  0.00    -0.169 A  
HETATM   11  C   UNL     1      -7.447   6.681  69.987  1.00  0.00    -0.094 A  
HETATM   12  C   UNL     1      -7.042   8.016  72.403  1.00  0.00    -0.101 A  
HETATM   13  C   UNL     1      -6.297   6.876  72.109  1.00  0.00    -0.045 A  
HETATM   14  C   UNL     1      -6.492   6.216  70.897  1.00  0.00    -0.045 A  
ENDBRANCH   8   9
BRANCH   8  15
HETATM   15  C   UNL     1     -10.719   8.358  70.043  1.00  0.00    -0.236 A  
HETATM   16  C   UNL     1     -12.977   8.466  71.715  1.00  0.00    -0.344 A  
HETATM   17 CL   UNL     1     -14.303   8.523  72.809  1.00  0.00    -0.202 Cl 
HETATM   18  C   UNL     1     -12.532   7.239  71.232  1.00  0.00    -0.402 A  
HETATM   19  C   UNL     1     -11.215   9.593  70.504  1.00  0.00    -0.359 A  
HETATM   20  C   UNL     1     -11.411   7.186  70.403  1.00  0.00    -0.325 A  
HETATM   21  C   UNL     1     -12.332   9.643  71.345  1.00  0.00    -0.468 A  
ENDBRANCH   8  15
ENDBRANCH   5   8
TORSDOF 3
ENDMDL
MODEL      100
REMARK 921   NORMALIZED FREE ENERGY PREDICTED BY IDOCK:   -3.82 KCAL/MOL
REMARK 922        TOTAL FREE ENERGY PREDICTED BY IDOCK:   -4.76 KCAL/MOL
REMARK 923 INTER-LIGAND FREE ENERGY PREDICTED BY IDOCK:   -4.14 KCAL/MOL
REMARK 924 INTRA-LIGAND FREE ENERGY PREDICTED BY IDOCK:   -0.61 KCAL/MOL
REMARK 927      BINDING AFFINITY PREDICTED BY RF-SCORE:    0.00 PKD
ROOT
HETATM    1  C   UNL     1      -6.261   4.312  73.487  1.00  0.00    -0.032 C  
HETATM    2  N   UNL     1      -6.476   5.592  72.812  1.00  0.00    -0.062 NA 
HETATM    3  C   UNL     1      -6.348   5.458  71.346  1.00  0.00    -0.035 C  
HETATM    4  C   UNL     1      -7.575   4.843  70.626  1.00  0.00    -0.066 C  
HETATM    5  N   UNL     1      -8.874   5.481  70.943  1.00  0.00    -0.137 NA 
HETATM    6  C   UNL     1      -8.989   5.501  72.426  1.00  0.00    -0.135 C  
HETATM    7  C   UNL     1      -7.795   6.155  73.159  1.00  0.00    -0.104 C  
ENDROOT
BRANCH   5   8
HETATM    8  C   UNL     1      -9.014   6.847  70.341  1.00  0.00    -0.152 C  
BRANCH   8   9
HETATM    9  C   UNL     1      -8.744   6.868  68.828  1.00  0.00    -0.129 A  
HETATM   10  C   UNL     1      -9.592   6.160  67.954  1.00  0.00    -0.118 A  
HETATM   11  C   UNL     1      -7.724   7.653  68.257  1.00  0.00    -0.120 A  
HETATM   12  C   UNL     1      -9.443   6.250  66.567  1.00  0.00    -0.181 A  
HETATM   13  C   UNL     1      -8.431   7.040  66.025  1.00  0.00    -0.141 A  
HETATM   14  C   UNL     1      -7.565   7.732  66.870  1.00  0.00    -0.099 A  
ENDBRANCH   8   9
BRANCH   8  15
HETATM   15  C   UNL     1     -10.366   7.482  70.721  1.00  0.00    -0.205 A  
HETATM   16  C   UNL     1     -12.714   8.544  71.844  1.00  0.00    -0.360 A  
HETATM   17 CL   UNL     1     -14.123   9.163  72.612  1.00  0.00    -0.432 Cl 
HETATM   18  C   UNL     1     -12.707   7.238  71.365  1.00  0.00    -0.427 A  
HETATM   19  C   UNL     1     -10.410   8.816  71.169  1.00  0.00    -0.315 A  
HETATM   20  C   UNL     1     -11.541   6.711  70.807  1.00  0.00    -0.432 A  
HETATM   21  C   UNL     1     -11.576   9.339  71.737  1.00  0.00    -0.458 A  
ENDBRANCH   8  15
ENDBRANCH   5   8
TORSDOF 3
ENDMDL
MODEL      101
REMARK 921   NORMALIZED FREE ENERGY PREDICTED BY IDOCK:   -3.82 KCAL/MOL
REMARK 922        TOTAL FREE ENERGY PREDICTED BY IDOCK:   -4.75 KCAL/MOL
REMARK 923 INTER-LIGAND FREE ENERGY PREDICTED BY IDOCK:   -4.29 KCAL/MOL
REMARK 924 INTRA-LIGAND FREE ENERGY PREDICTED BY IDOCK:   -0.47 KCAL/MOL
REMARK 927      BINDING AFFINITY PREDICTED BY RF-SCORE:    0.00 PKD
ROOT
HETATM    1  C   UNL     1      -8.744   7.558  64.733  1.00  0.00     0.318 C  
HETATM    2  N   UNL     1      -8.155   8.373  65.797  1.00  0.00    -0.111 NA 
HETATM    3  C   UNL     1      -8.769   9.715  65.853  1.00  0.00    -0.144 C  
HETATM    4  C   UNL     1     -10.159   9.781  66.536  1.00  0.00    -0.239 C  
HETATM    5  N   UNL     1     -10.228   9.159  67.880  1.00  0.00    -0.204 NA 
HETATM    6  C   UNL     1      -9.686   7.781  67.741  1.00  0.00    -0.153 C  
HETATM    7  C   UNL     1      -8.279   7.700  67.105  1.00  0.00    -0.118 C  
ENDROOT
BRANCH   5   8
HETATM    8  C   UNL     1      -9.506   9.954  68.926  1.00  0.00    -0.170 C  
BRANCH   8   9
HETATM    9  C   UNL     1      -9.846  11.452  68.884  1.00  0.00    -0.127 A  
HETATM   10  C   UNL     1      -8.898  12.373  68.399  1.00  0.00    -0.129 A  
HETATM   11  C   UNL     1     -11.120  11.944  69.227  1.00  0.00    -0.264 A  
HETATM   12  C   UNL     1      -9.214  13.726  68.241  1.00  0.00    -0.204 A  
HETATM   13  C   UNL     1     -10.484  14.188  68.579  1.00  0.00    -0.252 A  
HETATM   14  C   UNL     1     -11.432  13.300  69.082  1.00  0.00    -0.357 A  
ENDBRANCH   8   9
BRANCH   8  15
HETATM   15  C   UNL     1      -9.699   9.331  70.322  1.00  0.00    -0.274 A  
HETATM   16  C   UNL     1     -10.059   7.794  72.649  1.00  0.00    -0.260 A  
HETATM   17 CL   UNL     1     -10.288   6.781  74.020  1.00  0.00    -0.399 Cl 
HETATM   18  C   UNL     1     -11.161   8.366  72.021  1.00  0.00    -0.404 A  
HETATM   19  C   UNL     1      -8.594   8.783  71.002  1.00  0.00    -0.236 A  
HETATM   20  C   UNL     1     -10.982   9.128  70.865  1.00  0.00    -0.349 A  
HETATM   21  C   UNL     1      -8.776   8.010  72.153  1.00  0.00    -0.212 A  
ENDBRANCH   8  15
ENDBRANCH   5   8
TORSDOF 3
ENDMDL
MODEL      102
REMARK 921   NORMALIZED FREE ENERGY PREDICTED BY IDOCK:   -3.82 KCAL/MOL
REMARK 922        TOTAL FREE ENERGY PREDICTED BY IDOCK:   -4.75 KCAL/MOL
REMARK 923 INTER-LIGAND FREE ENERGY PREDICTED BY IDOCK:   -4.14 KCAL/MOL
REMARK 924 INTRA-LIGAND FREE ENERGY PREDICTED BY IDOCK:   -0.61 KCAL/MOL
REMARK 927      BINDING AFFINITY PREDICTED BY RF-SCORE:    0.00 PKD
ROOT
HETATM    1  C   UNL     1     -12.010  13.156  69.377  1.00  0.00    -0.291 C  
HETATM    2  N   UNL     1     -12.066  11.875  68.674  1.00  0.00    -0.377 NA 
HETATM    3  C   UNL     1     -10.983  11.757  67.676  1.00  0.00    -0.233 C  
HETATM    4  C   UNL     1      -9.586  11.411  68.251  1.00  0.00    -0.192 C  
HETATM    5  N   UNL     1      -9.550  10.230  69.145  1.00  0.00    -0.207 NA 
HETATM    6  C   UNL     1     -10.595  10.448  70.182  1.00  0.00    -0.188 C  
HETATM    7  C   UNL     1     -12.006  10.748  69.626  1.00  0.00    -0.313 C  
ENDROOT
BRANCH   5   8
HETATM    8  C   UNL     1      -9.738   8.937  68.410  1.00  0.00    -0.161 C  
BRANCH   8   9
HETATM    9  C   UNL     1      -8.728   8.744  67.267  1.00  0.00    -0.133 A  
HETATM   10  C   UNL     1      -7.401   9.190  67.420  1.00  0.00    -0.084 A  
HETATM   11  C   UNL     1      -9.051   8.043  66.089  1.00  0.00    -0.224 A  
HETATM   12  C   UNL     1      -6.431   8.929  66.448  1.00  0.00    -0.066 A  
HETATM   13  C   UNL     1      -6.772   8.227  65.294  1.00  0.00    -0.052 A  
HETATM   14  C   UNL     1      -8.084   7.795  65.110  1.00  0.00    -0.137 A  
ENDBRANCH   8   9
BRANCH   8  15
HETATM   15  C   UNL     1      -9.777   7.747  69.388  1.00  0.00    -0.169 A  
HETATM   16  C   UNL     1      -9.668   5.335  70.828  1.00  0.00    -0.185 A  
HETATM   17 CL   UNL     1      -9.574   3.818  71.634  1.00  0.00    -0.217 Cl 
HETATM   18  C   UNL     1     -10.847   5.705  70.189  1.00  0.00    -0.356 A  
HETATM   19  C   UNL     1      -8.609   7.375  70.083  1.00  0.00    -0.139 A  
HETATM   20  C   UNL     1     -10.900   6.903  69.473  1.00  0.00    -0.287 A  
HETATM   21  C   UNL     1      -8.554   6.170  70.790  1.00  0.00    -0.135 A  
ENDBRANCH   8  15
ENDBRANCH   5   8
TORSDOF 3
ENDMDL
MODEL      103
REMARK 921   NORMALIZED FREE ENERGY PREDICTED BY IDOCK:   -3.77 KCAL/MOL
REMARK 922        TOTAL FREE ENERGY PREDICTED BY IDOCK:   -4.70 KCAL/MOL
REMARK 923 INTER-LIGAND FREE ENERGY PREDICTED BY IDOCK:   -4.30 KCAL/MOL
REMARK 924 INTRA-LIGAND FREE ENERGY PREDICTED BY IDOCK:   -0.39 KCAL/MOL
REMARK 927      BINDING AFFINITY PREDICTED BY RF-SCORE:    0.00 PKD
ROOT
HETATM    1  C   UNL     1      -7.212   8.294  67.552  1.00  0.00    -0.088 C  
HETATM    2  N   UNL     1      -7.263   9.475  66.691  1.00  0.00    -0.086 NA 
HETATM    3  C   UNL     1      -8.642   9.761  66.247  1.00  0.00    -0.127 C  
HETATM    4  C   UNL     1      -9.548  10.454  67.296  1.00  0.00    -0.156 C  
HETATM    5  N   UNL     1      -8.975  11.674  67.912  1.00  0.00    -0.163 NA 
HETATM    6  C   UNL     1      -7.629  11.302  68.425  1.00  0.00    -0.120 C  
HETATM    7  C   UNL     1      -6.694  10.652  67.378  1.00  0.00    -0.075 C  
ENDROOT
BRANCH   5   8
HETATM    8  C   UNL     1      -8.924  12.835  66.965  1.00  0.00    -0.221 C  
BRANCH   8   9
HETATM    9  C   UNL     1     -10.284  13.147  66.321  1.00  0.00    -0.294 A  
HETATM   10  C   UNL     1     -11.428  13.286  67.132  1.00  0.00    -0.380 A  
HETATM   11  C   UNL     1     -10.425  13.398  64.943  1.00  0.00    -0.404 A  
HETATM   12  C   UNL     1     -12.656  13.680  66.592  1.00  0.00    -0.156 A  
HETATM   13  C   UNL     1     -12.769  13.931  65.226  1.00  0.00    -0.485 A  
HETATM   14  C   UNL     1     -11.657  13.778  64.401  1.00  0.00    -0.418 A  
ENDBRANCH   8   9
BRANCH   8  15
HETATM   15  C   UNL     1      -8.277  14.064  67.632  1.00  0.00    -0.185 A  
HETATM   16  C   UNL     1      -6.937  16.008  69.158  1.00  0.00    -0.189 A  
HETATM   17 CL   UNL     1      -6.097  17.134  70.152  1.00  0.00    -0.129 Cl 
HETATM   18  C   UNL     1      -8.291  15.774  69.373  1.00  0.00    -0.215 A  
HETATM   19  C   UNL     1      -6.918  14.352  67.399  1.00  0.00    -0.091 A  
HETATM   20  C   UNL     1      -8.956  14.808  68.615  1.00  0.00    -0.185 A  
HETATM   21  C   UNL     1      -6.251  15.312  68.167  1.00  0.00    -0.138 A  
ENDBRANCH   8  15
ENDBRANCH   5   8
TORSDOF 3
ENDMDL
MODEL      104
REMARK 921   NORMALIZED FREE ENERGY PREDICTED BY IDOCK:   -3.72 KCAL/MOL
REMARK 922        TOTAL FREE ENERGY PREDICTED BY IDOCK:   -4.64 KCAL/MOL
REMARK 923 INTER-LIGAND FREE ENERGY PREDICTED BY IDOCK:   -5.29 KCAL/MOL
REMARK 924 INTRA-LIGAND FREE ENERGY PREDICTED BY IDOCK:    0.66 KCAL/MOL
REMARK 927      BINDING AFFINITY PREDICTED BY RF-SCORE:    0.00 PKD
ROOT
HETATM    1  C   UNL     1     -12.689  12.988  71.580  1.00  0.00    -0.207 C  
HETATM    2  N   UNL     1     -12.916  13.724  70.337  1.00  0.00    -0.093 NA 
HETATM    3  C   UNL     1     -13.079  15.171  70.587  1.00  0.00    -0.337 C  
HETATM    4  C   UNL     1     -11.765  15.953  70.842  1.00  0.00    -0.420 C  
HETATM    5  N   UNL     1     -10.709  15.754  69.821  1.00  0.00    -0.289 NA 
HETATM    6  C   UNL     1     -10.522  14.285  69.681  1.00  0.00     0.139 C  
HETATM    7  C   UNL     1     -11.816  13.493  69.380  1.00  0.00    -0.335 C  
ENDROOT
BRANCH   5   8
HETATM    8  C   UNL     1     -11.029  16.415  68.514  1.00  0.00    -0.350 C  
BRANCH   8   9
HETATM    9  C   UNL     1     -10.244  17.718  68.292  1.00  0.00    -0.382 A  
HETATM   10  C   UNL     1      -8.868  17.767  68.588  1.00  0.00    -0.263 A  
HETATM   11  C   UNL     1     -10.828  18.857  67.705  1.00  0.00    -0.407 A  
HETATM   12  C   UNL     1      -8.102  18.898  68.291  1.00  0.00    -0.353 A  
HETATM   13  C   UNL     1      -8.700  20.010  67.703  1.00  0.00    -0.395 A  
HETATM   14  C   UNL     1     -10.065  19.994  67.421  1.00  0.00    -0.568 A  
ENDBRANCH   8   9
BRANCH   8  15
HETATM   15  C   UNL     1     -10.893  15.421  67.345  1.00  0.00    -0.309 A  
HETATM   16  C   UNL     1     -10.605  13.980  64.949  1.00  0.00    -0.424 A  
HETATM   17 CL   UNL     1     -10.430  13.176  63.438  1.00  0.00     0.454 Cl 
HETATM   18  C   UNL     1     -11.877  14.249  65.444  1.00  0.00    -0.363 A  
HETATM   19  C   UNL     1      -9.616  15.095  66.850  1.00  0.00    -0.252 A  
HETATM   20  C   UNL     1     -12.019  14.966  66.634  1.00  0.00    -0.094 A  
HETATM   21  C   UNL     1      -9.474  14.388  65.652  1.00  0.00    -0.045 A  
ENDBRANCH   8  15
ENDBRANCH   5   8
TORSDOF 3
ENDMDL
MODEL      105
REMARK 921   NORMALIZED FREE ENERGY PREDICTED BY IDOCK:   -3.66 KCAL/MOL
REMARK 922        TOTAL FREE ENERGY PREDICTED BY IDOCK:   -4.57 KCAL/MOL
REMARK 923 INTER-LIGAND FREE ENERGY PREDICTED BY IDOCK:   -4.06 KCAL/MOL
REMARK 924 INTRA-LIGAND FREE ENERGY PREDICTED BY IDOCK:   -0.51 KCAL/MOL
REMARK 927      BINDING AFFINITY PREDICTED BY RF-SCORE:    0.00 PKD
ROOT
HETATM    1  C   UNL     1     -10.580  14.072  66.710  1.00  0.00    -0.277 C  
HETATM    2  N   UNL     1      -9.727  13.111  67.409  1.00  0.00    -0.215 NA 
HETATM    3  C   UNL     1     -10.528  12.120  68.156  1.00  0.00    -0.211 C  
HETATM    4  C   UNL     1     -11.149  10.987  67.300  1.00  0.00    -0.294 C  
HETATM    5  N   UNL     1     -10.195  10.273  66.418  1.00  0.00    -0.233 NA 
HETATM    6  C   UNL     1      -9.488  11.313  65.625  1.00  0.00    -0.229 C  
HETATM    7  C   UNL     1      -8.821  12.427  66.465  1.00  0.00    -0.106 C  
ENDROOT
BRANCH   5   8
HETATM    8  C   UNL     1      -9.249   9.391  67.176  1.00  0.00    -0.134 C  
BRANCH   8   9
HETATM    9  C   UNL     1      -9.966   8.391  68.097  1.00  0.00    -0.224 A  
HETATM   10  C   UNL     1     -10.541   7.225  67.554  1.00  0.00    -0.344 A  
HETATM   11  C   UNL     1      -9.993   8.543  69.497  1.00  0.00    -0.193 A  
HETATM   12  C   UNL     1     -11.100   6.241  68.376  1.00  0.00    -0.371 A  
HETATM   13  C   UNL     1     -11.107   6.411  69.759  1.00  0.00    -0.459 A  
HETATM   14  C   UNL     1     -10.565   7.566  70.317  1.00  0.00    -0.235 A  
ENDBRANCH   8   9
BRANCH   8  15
HETATM   15  C   UNL     1      -8.240   8.719  66.225  1.00  0.00    -0.115 A  
HETATM   16  C   UNL     1      -6.322   7.914  64.334  1.00  0.00    -0.056 A  
HETATM   17 CL   UNL     1      -5.146   7.507  63.146  1.00  0.00    -0.033 Cl 
HETATM   18  C   UNL     1      -7.675   7.852  64.015  1.00  0.00    -0.133 A  
HETATM   19  C   UNL     1      -6.868   8.727  66.543  1.00  0.00    -0.072 A  
HETATM   20  C   UNL     1      -8.627   8.252  64.955  1.00  0.00    -0.075 A  
HETATM   21  C   UNL     1      -5.915   8.337  65.597  1.00  0.00    -0.045 A  
ENDBRANCH   8  15
ENDBRANCH   5   8
TORSDOF 3
ENDMDL
MODEL      106
REMARK 921   NORMALIZED FREE ENERGY PREDICTED BY IDOCK:   -3.65 KCAL/MOL
REMARK 922        TOTAL FREE ENERGY PREDICTED BY IDOCK:   -4.55 KCAL/MOL
REMARK 923 INTER-LIGAND FREE ENERGY PREDICTED BY IDOCK:   -3.89 KCAL/MOL
REMARK 924 INTRA-LIGAND FREE ENERGY PREDICTED BY IDOCK:   -0.66 KCAL/MOL
REMARK 927      BINDING AFFINITY PREDICTED BY RF-SCORE:    0.00 PKD
ROOT
HETATM    1  C   UNL     1      -6.238  10.217  67.146  1.00  0.00    -0.062 C  
HETATM    2  N   UNL     1      -6.708   8.939  67.680  1.00  0.00    -0.065 NA 
HETATM    3  C   UNL     1      -6.015   8.591  68.937  1.00  0.00    -0.044 C  
HETATM    4  C   UNL     1      -6.518   9.333  70.200  1.00  0.00    -0.049 C  
HETATM    5  N   UNL     1      -7.982   9.274  70.422  1.00  0.00    -0.139 NA 
HETATM    6  C   UNL     1      -8.624   9.725  69.158  1.00  0.00    -0.153 C  
HETATM    7  C   UNL     1      -8.169   8.962  67.892  1.00  0.00    -0.110 C  
ENDROOT
BRANCH   5   8
HETATM    8  C   UNL     1      -8.452   7.915  70.847  1.00  0.00    -0.126 C  
BRANCH   8   9
HETATM    9  C   UNL     1      -7.773   7.419  72.134  1.00  0.00    -0.092 A  
HETATM   10  C   UNL     1      -7.154   6.154  72.158  1.00  0.00    -0.083 A  
HETATM   11  C   UNL     1      -7.657   8.227  73.282  1.00  0.00    -0.172 A  
HETATM   12  C   UNL     1      -6.430   5.722  73.274  1.00  0.00    -0.068 A  
HETATM   13  C   UNL     1      -6.323   6.542  74.395  1.00  0.00    -0.073 A  
HETATM   14  C   UNL     1      -6.945   7.788  74.403  1.00  0.00    -0.142 A  
ENDBRANCH   8   9
BRANCH   8  15
HETATM   15  C   UNL     1      -9.990   7.860  70.917  1.00  0.00    -0.196 A  
HETATM   16  C   UNL     1     -12.733   7.467  71.390  1.00  0.00    -0.369 A  
HETATM   17 CL   UNL     1     -14.390   7.163  71.741  1.00  0.00    -0.551 Cl 
HETATM   18  C   UNL     1     -12.089   6.724  70.407  1.00  0.00    -0.270 A  
HETATM   19  C   UNL     1     -10.674   8.634  71.874  1.00  0.00    -0.414 A  
HETATM   20  C   UNL     1     -10.726   6.919  70.173  1.00  0.00    -0.270 A  
HETATM   21  C   UNL     1     -12.036   8.429  72.116  1.00  0.00    -0.435 A  
ENDBRANCH   8  15
ENDBRANCH   5   8
TORSDOF 3
ENDMDL
MODEL      107
REMARK 921   NORMALIZED FREE ENERGY PREDICTED BY IDOCK:   -3.50 KCAL/MOL
REMARK 922        TOTAL FREE ENERGY PREDICTED BY IDOCK:   -4.38 KCAL/MOL
REMARK 923 INTER-LIGAND FREE ENERGY PREDICTED BY IDOCK:   -3.84 KCAL/MOL
REMARK 924 INTRA-LIGAND FREE ENERGY PREDICTED BY IDOCK:   -0.53 KCAL/MOL
REMARK 927      BINDING AFFINITY PREDICTED BY RF-SCORE:    0.00 PKD
ROOT
HETATM    1  C   UNL     1      -6.934   9.669  65.826  1.00  0.00    -0.098 C  
HETATM    2  N   UNL     1      -8.248   9.027  65.778  1.00  0.00    -0.115 NA 
HETATM    3  C   UNL     1      -8.211   7.781  64.985  1.00  0.00    -0.120 C  
HETATM    4  C   UNL     1      -7.607   6.551  65.707  1.00  0.00    -0.085 C  
HETATM    5  N   UNL     1      -8.185   6.259  67.040  1.00  0.00    -0.109 NA 
HETATM    6  C   UNL     1      -8.108   7.521  67.824  1.00  0.00    -0.119 C  
HETATM    7  C   UNL     1      -8.749   8.750  67.138  1.00  0.00    -0.120 C  
ENDROOT
BRANCH   5   8
HETATM    8  C   UNL     1      -9.582   5.720  66.963  1.00  0.00    -0.135 C  
BRANCH   8   9
HETATM    9  C   UNL     1      -9.694   4.462  66.086  1.00  0.00    -0.220 A  
HETATM   10  C   UNL     1     -10.439   4.504  64.892  1.00  0.00    -0.045 A  
HETATM   11  C   UNL     1      -8.994   3.277  66.380  1.00  0.00    -0.156 A  
HETATM   12  C   UNL     1     -10.467   3.415  64.015  1.00  0.00    -0.219 A  
HETATM   13  C   UNL     1      -9.759   2.255  64.323  1.00  0.00    -0.104 A  
HETATM   14  C   UNL     1      -9.033   2.182  65.510  1.00  0.00    -0.120 A  
ENDBRANCH   8   9
BRANCH   8  15
HETATM   15  C   UNL     1     -10.178   5.528  68.371  1.00  0.00    -0.242 A  
HETATM   16  C   UNL     1     -10.996   5.526  71.061  1.00  0.00    -0.123 A  
HETATM   17 CL   UNL     1     -11.434   5.588  72.724  1.00  0.00    -0.361 Cl 
HETATM   18  C   UNL     1      -9.987   4.662  70.645  1.00  0.00    -0.293 A  
HETATM   19  C   UNL     1     -11.229   6.359  68.805  1.00  0.00    -0.358 A  
HETATM   20  C   UNL     1      -9.581   4.664  69.309  1.00  0.00    -0.251 A  
HETATM   21  C   UNL     1     -11.627   6.364  70.146  1.00  0.00    -0.449 A  
ENDBRANCH   8  15
ENDBRANCH   5   8
TORSDOF 3
ENDMDL
MODEL      108
REMARK 921   NORMALIZED FREE ENERGY PREDICTED BY IDOCK:   -3.48 KCAL/MOL
REMARK 922        TOTAL FREE ENERGY PREDICTED BY IDOCK:   -4.35 KCAL/MOL
REMARK 923 INTER-LIGAND FREE ENERGY PREDICTED BY IDOCK:   -3.87 KCAL/MOL
REMARK 924 INTRA-LIGAND FREE ENERGY PREDICTED BY IDOCK:   -0.48 KCAL/MOL
REMARK 927      BINDING AFFINITY PREDICTED BY RF-SCORE:    0.00 PKD
ROOT
HETATM    1  C   UNL     1     -10.151   6.015  73.296  1.00  0.00    -0.193 C  
HETATM    2  N   UNL     1      -9.153   6.135  72.234  1.00  0.00    -0.138 NA 
HETATM    3  C   UNL     1      -9.396   5.161  71.151  1.00  0.00    -0.148 C  
HETATM    4  C   UNL     1     -10.530   5.535  70.163  1.00  0.00    -0.300 C  
HETATM    5  N   UNL     1     -10.431   6.894  69.579  1.00  0.00    -0.213 NA 
HETATM    6  C   UNL     1     -10.284   7.838  70.719  1.00  0.00    -0.197 C  
HETATM    7  C   UNL     1      -9.126   7.507  71.690  1.00  0.00    -0.134 C  
ENDROOT
BRANCH   5   8
HETATM    8  C   UNL     1      -9.316   7.021  68.586  1.00  0.00    -0.136 C  
BRANCH   8   9
HETATM    9  C   UNL     1      -9.201   5.805  67.652  1.00  0.00    -0.105 A  
HETATM   10  C   UNL     1     -10.191   5.574  66.676  1.00  0.00    -0.279 A  
HETATM   11  C   UNL     1      -8.084   4.948  67.666  1.00  0.00    -0.094 A  
HETATM   12  C   UNL     1     -10.059   4.545  65.738  1.00  0.00    -0.274 A  
HETATM   13  C   UNL     1      -8.940   3.716  65.767  1.00  0.00    -0.137 A  
HETATM   14  C   UNL     1      -7.959   3.910  66.737  1.00  0.00    -0.096 A  
ENDBRANCH   8   9
BRANCH   8  15
HETATM   15  C   UNL     1      -9.403   8.358  67.826  1.00  0.00    -0.150 A  
HETATM   16  C   UNL     1      -9.776  10.558  66.116  1.00  0.00    -0.209 A  
HETATM   17 CL   UNL     1     -10.038  11.847  65.007  1.00  0.00    -0.288 Cl 
HETATM   18  C   UNL     1      -8.573   9.859  66.090  1.00  0.00    -0.138 A  
HETATM   19  C   UNL     1     -10.594   9.109  67.868  1.00  0.00    -0.272 A  
HETATM   20  C   UNL     1      -8.389   8.767  66.939  1.00  0.00    -0.108 A  
HETATM   21  C   UNL     1     -10.781  10.197  67.009  1.00  0.00    -0.264 A  
ENDBRANCH   8  15
ENDBRANCH   5   8
TORSDOF 3
ENDMDL
MODEL      109
REMARK 921   NORMALIZED FREE ENERGY PREDICTED BY IDOCK:   -3.40 KCAL/MOL
REMARK 922        TOTAL FREE ENERGY PREDICTED BY IDOCK:   -4.25 KCAL/MOL
REMARK 923 INTER-LIGAND FREE ENERGY PREDICTED BY IDOCK:   -3.96 KCAL/MOL
REMARK 924 INTRA-LIGAND FREE ENERGY PREDICTED BY IDOCK:   -0.29 KCAL/MOL
REMARK 927      BINDING AFFINITY PREDICTED BY RF-SCORE:    0.00 PKD
ROOT
HETATM    1  C   UNL     1      -5.452   9.999  64.963  1.00  0.00    -0.077 C  
HETATM    2  N   UNL     1      -6.854   9.603  64.826  1.00  0.00    -0.104 NA 
HETATM    3  C   UNL     1      -7.086   8.242  65.350  1.00  0.00    -0.067 C  
HETATM    4  C   UNL     1      -7.178   8.131  66.893  1.00  0.00    -0.083 C  
HETATM    5  N   UNL     1      -8.135   9.066  67.533  1.00  0.00    -0.108 NA 
HETATM    6  C   UNL     1      -7.793  10.428  67.042  1.00  0.00    -0.112 C  
HETATM    7  C   UNL     1      -7.742  10.568  65.503  1.00  0.00    -0.127 C  
ENDROOT
BRANCH   5   8
HETATM    8  C   UNL     1      -9.566   8.706  67.268  1.00  0.00    -0.167 C  
BRANCH   8   9
HETATM    9  C   UNL     1      -9.855   7.209  67.460  1.00  0.00    -0.192 A  
HETATM   10  C   UNL     1     -10.339   6.444  66.381  1.00  0.00    -0.048 A  
HETATM   11  C   UNL     1      -9.562   6.535  68.661  1.00  0.00    -0.125 A  
HETATM   12  C   UNL     1     -10.504   5.059  66.489  1.00  0.00    -0.325 A  
HETATM   13  C   UNL     1     -10.200   4.413  67.686  1.00  0.00     0.057 A  
HETATM   14  C   UNL     1      -9.741   5.152  68.774  1.00  0.00    -0.215 A  
ENDBRANCH   8   9
BRANCH   8  15
HETATM   15  C   UNL     1     -10.520   9.612  68.070  1.00  0.00    -0.276 A  
HETATM   16  C   UNL     1     -11.896  11.532  69.594  1.00  0.00    -0.354 A  
HETATM   17 CL   UNL     1     -12.658  12.750  70.540  1.00  0.00    -0.250 Cl 
HETATM   18  C   UNL     1     -11.387  10.395  70.212  1.00  0.00    -0.406 A  
HETATM   19  C   UNL     1     -11.085  10.748  67.457  1.00  0.00    -0.374 A  
HETATM   20  C   UNL     1     -10.704   9.441  69.455  1.00  0.00    -0.234 A  
HETATM   21  C   UNL     1     -11.759  11.708  68.219  1.00  0.00    -0.374 A  
ENDBRANCH   8  15
ENDBRANCH   5   8
TORSDOF 3
ENDMDL
MODEL      110
REMARK 921   NORMALIZED FREE ENERGY PREDICTED BY IDOCK:   -3.30 KCAL/MOL
REMARK 922        TOTAL FREE ENERGY PREDICTED BY IDOCK:   -4.14 KCAL/MOL
REMARK 923 INTER-LIGAND FREE ENERGY PREDICTED BY IDOCK:   -4.12 KCAL/MOL
REMARK 924 INTRA-LIGAND FREE ENERGY PREDICTED BY IDOCK:   -0.02 KCAL/MOL
REMARK 927      BINDING AFFINITY PREDICTED BY RF-SCORE:    0.00 PKD
ROOT
HETATM    1  C   UNL     1      -8.238   6.657  65.035  1.00  0.00    -0.105 C  
HETATM    2  N   UNL     1      -7.952   7.397  66.264  1.00  0.00    -0.105 NA 
HETATM    3  C   UNL     1      -8.863   8.549  66.427  1.00  0.00    -0.150 C  
HETATM    4  C   UNL     1     -10.286   8.204  66.934  1.00  0.00    -0.316 C  
HETATM    5  N   UNL     1     -10.331   7.374  68.161  1.00  0.00    -0.187 NA 
HETATM    6  C   UNL     1      -9.474   6.186  67.904  1.00  0.00    -0.115 C  
HETATM    7  C   UNL     1      -8.035   6.512  67.443  1.00  0.00    -0.113 C  
ENDROOT
BRANCH   5   8
HETATM    8  C   UNL     1      -9.910   8.127  69.388  1.00  0.00    -0.182 C  
BRANCH   8   9
HETATM    9  C   UNL     1     -10.642   9.468  69.551  1.00  0.00    -0.238 A  
HETATM   10  C   UNL     1     -10.112  10.633  68.963  1.00  0.00    -0.226 A  
HETATM   11  C   UNL     1     -11.891   9.570  70.194  1.00  0.00    -0.036 A  
HETATM   12  C   UNL     1     -10.810  11.844  68.995  1.00  0.00    -0.235 A  
HETATM   13  C   UNL     1     -12.048  11.918  69.630  1.00  0.00    -0.304 A  
HETATM   14  C   UNL     1     -12.582  10.785  70.239  1.00  0.00    -0.350 A  
ENDBRANCH   8   9
BRANCH   8  15
HETATM   15  C   UNL     1     -10.000   7.234  70.641  1.00  0.00    -0.187 A  
HETATM   16  C   UNL     1     -10.092   5.259  72.638  1.00  0.00    -0.174 A  
HETATM   17 CL   UNL     1     -10.141   3.987  73.796  1.00  0.00    -0.169 Cl 
HETATM   18  C   UNL     1     -11.273   5.718  72.067  1.00  0.00    -0.307 A  
HETATM   19  C   UNL     1      -8.820   6.788  71.267  1.00  0.00    -0.136 A  
HETATM   20  C   UNL     1     -11.227   6.699  71.075  1.00  0.00    -0.349 A  
HETATM   21  C   UNL     1      -8.867   5.797  72.253  1.00  0.00    -0.135 A  
ENDBRANCH   8  15
ENDBRANCH   5   8
TORSDOF 3
ENDMDL
MODEL      111
REMARK 921   NORMALIZED FREE ENERGY PREDICTED BY IDOCK:   -3.29 KCAL/MOL
REMARK 922        TOTAL FREE ENERGY PREDICTED BY IDOCK:   -4.13 KCAL/MOL
REMARK 923 INTER-LIGAND FREE ENERGY PREDICTED BY IDOCK:   -7.34 KCAL/MOL
REMARK 924 INTRA-LIGAND FREE ENERGY PREDICTED BY IDOCK:    3.21 KCAL/MOL
REMARK 927      BINDING AFFINITY PREDICTED BY RF-SCORE:    0.00 PKD
ROOT
HETATM    1  C   UNL     1      -7.435  15.773  67.136  1.00  0.00    -0.224 C  
HETATM    2  N   UNL     1      -8.367  14.672  66.890  1.00  0.00    -0.180 NA 
HETATM    3  C   UNL     1      -8.926  14.145  68.151  1.00  0.00    -0.188 C  
HETATM    4  C   UNL     1     -10.057  14.996  68.783  1.00  0.00    -0.231 C  
HETATM    5  N   UNL     1     -11.170  15.341  67.866  1.00  0.00    -0.321 NA 
HETATM    6  C   UNL     1     -10.553  15.952  66.658  1.00  0.00    -0.305 C  
HETATM    7  C   UNL     1      -9.455  15.095  65.987  1.00  0.00    -0.323 C  
ENDROOT
BRANCH   5   8
HETATM    8  C   UNL     1     -12.034  14.162  67.531  1.00  0.00    -0.384 C  
BRANCH   8   9
HETATM    9  C   UNL     1     -11.742  13.579  66.139  1.00  0.00    -0.397 A  
HETATM   10  C   UNL     1     -10.900  12.458  66.010  1.00  0.00    -0.308 A  
HETATM   11  C   UNL     1     -12.365  14.067  64.974  1.00  0.00    -0.458 A  
HETATM   12  C   UNL     1     -10.705  11.834  64.774  1.00  0.00    -0.355 A  
HETATM   13  C   UNL     1     -11.339  12.330  63.636  1.00  0.00    -0.547 A  
HETATM   14  C   UNL     1     -12.158  13.452  63.734  1.00  0.00    -0.516 A  
ENDBRANCH   8   9
BRANCH   8  15
HETATM   15  C   UNL     1     -11.983  13.105  68.650  1.00  0.00    -0.319 A  
HETATM   16  C   UNL     1     -12.329  11.101  70.592  1.00  0.00    -0.388 A  
HETATM   17 CL   UNL     1     -12.629   9.873  71.759  1.00  0.00    -0.492 Cl 
HETATM   18  C   UNL     1     -12.452  12.440  70.950  1.00  0.00    -0.367 A  
HETATM   19  C   UNL     1     -11.816  11.746  68.320  1.00  0.00    -0.340 A  
HETATM   20  C   UNL     1     -12.281  13.434  69.986  1.00  0.00    -0.367 A  
HETATM   21  C   UNL     1     -11.999  10.750  69.285  1.00  0.00    -0.334 A  
ENDBRANCH   8  15
ENDBRANCH   5   8
TORSDOF 3
ENDMDL
MODEL      112
REMARK 921   NORMALIZED FREE ENERGY PREDICTED BY IDOCK:   -2.92 KCAL/MOL
REMARK 922        TOTAL FREE ENERGY PREDICTED BY IDOCK:   -3.70 KCAL/MOL
REMARK 923 INTER-LIGAND FREE ENERGY PREDICTED BY IDOCK:   -3.11 KCAL/MOL
REMARK 924 INTRA-LIGAND FREE ENERGY PREDICTED BY IDOCK:   -0.58 KCAL/MOL
REMARK 927      BINDING AFFINITY PREDICTED BY RF-SCORE:    0.00 PKD
ROOT
HETATM    1  C   UNL     1     -10.572   7.020  73.333  1.00  0.00    -0.364 C  
HETATM    2  N   UNL     1      -9.391   7.023  72.469  1.00  0.00    -0.138 NA 
HETATM    3  C   UNL     1      -9.468   5.960  71.447  1.00  0.00    -0.150 C  
HETATM    4  C   UNL     1     -10.387   6.266  70.237  1.00  0.00    -0.205 C  
HETATM    5  N   UNL     1     -10.132   7.564  69.568  1.00  0.00    -0.185 NA 
HETATM    6  C   UNL     1     -10.161   8.605  70.631  1.00  0.00    -0.198 C  
HETATM    7  C   UNL     1      -9.214   8.338  71.824  1.00  0.00    -0.198 C  
ENDROOT
BRANCH   5   8
HETATM    8  C   UNL     1      -8.849   7.577  68.792  1.00  0.00    -0.131 C  
BRANCH   8   9
HETATM    9  C   UNL     1      -8.816   6.528  67.668  1.00  0.00    -0.112 A  
HETATM   10  C   UNL     1      -7.791   5.563  67.640  1.00  0.00    -0.097 A  
HETATM   11  C   UNL     1      -9.835   6.429  66.702  1.00  0.00    -0.203 A  
HETATM   12  C   UNL     1      -7.795   4.528  66.700  1.00  0.00    -0.099 A  
HETATM   13  C   UNL     1      -8.819   4.446  65.759  1.00  0.00    -0.122 A  
HETATM   14  C   UNL     1      -9.832   5.403  65.753  1.00  0.00    -0.009 A  
ENDBRANCH   8   9
BRANCH   8  15
HETATM   15  C   UNL     1      -8.515   8.998  68.301  1.00  0.00    -0.129 A  
HETATM   16  C   UNL     1      -8.067  11.730  67.809  1.00  0.00    -0.143 A  
HETATM   17 CL   UNL     1      -7.834  13.420  67.586  1.00  0.00    -0.159 Cl 
HETATM   18  C   UNL     1      -9.235  11.128  67.351  1.00  0.00    -0.157 A  
HETATM   19  C   UNL     1      -7.319   9.618  68.713  1.00  0.00    -0.074 A  
HETATM   20  C   UNL     1      -9.457   9.771  67.596  1.00  0.00    -0.164 A  
HETATM   21  C   UNL     1      -7.103  10.979  68.477  1.00  0.00    -0.078 A  
ENDBRANCH   8  15
ENDBRANCH   5   8
TORSDOF 3
ENDMDL
MODEL      113
REMARK 921   NORMALIZED FREE ENERGY PREDICTED BY IDOCK:   -2.89 KCAL/MOL
REMARK 922        TOTAL FREE ENERGY PREDICTED BY IDOCK:   -3.66 KCAL/MOL
REMARK 923 INTER-LIGAND FREE ENERGY PREDICTED BY IDOCK:   -3.90 KCAL/MOL
REMARK 924 INTRA-LIGAND FREE ENERGY PREDICTED BY IDOCK:    0.24 KCAL/MOL
REMARK 927      BINDING AFFINITY PREDICTED BY RF-SCORE:    0.00 PKD
ROOT
HETATM    1  C   UNL     1     -12.321  14.606  66.837  1.00  0.00     0.066 C  
HETATM    2  N   UNL     1     -11.240  13.791  67.391  1.00  0.00    -0.299 NA 
HETATM    3  C   UNL     1     -11.610  12.362  67.436  1.00  0.00    -0.365 C  
HETATM    4  C   UNL     1     -11.520  11.609  66.084  1.00  0.00    -0.127 C  
HETATM    5  N   UNL     1     -10.228  11.753  65.371  1.00  0.00    -0.251 NA 
HETATM    6  C   UNL     1      -9.956  13.212  65.272  1.00  0.00    -0.168 C  
HETATM    7  C   UNL     1      -9.995  13.971  66.619  1.00  0.00    -0.278 C  
ENDROOT
BRANCH   5   8
HETATM    8  C   UNL     1      -9.110  11.008  66.035  1.00  0.00    -0.195 C  
BRANCH   8   9
HETATM    9  C   UNL     1      -9.598  10.027  67.114  1.00  0.00    -0.202 A  
HETATM   10  C   UNL     1     -10.257   8.841  66.736  1.00  0.00    -0.354 A  
HETATM   11  C   UNL     1      -9.329  10.219  68.482  1.00  0.00    -0.155 A  
HETATM   12  C   UNL     1     -10.612   7.875  67.683  1.00  0.00    -0.276 A  
HETATM   13  C   UNL     1     -10.327   8.083  69.031  1.00  0.00    -0.228 A  
HETATM   14  C   UNL     1      -9.697   9.260  69.431  1.00  0.00    -0.175 A  
ENDBRANCH   8   9
BRANCH   8  15
HETATM   15  C   UNL     1      -8.190  10.347  64.991  1.00  0.00    -0.152 A  
HETATM   16  C   UNL     1      -6.579   8.757  63.324  1.00  0.00    -0.090 A  
HETATM   17 CL   UNL     1      -5.604   7.715  62.362  1.00  0.00    -0.054 Cl 
HETATM   18  C   UNL     1      -5.994   9.503  64.342  1.00  0.00    -0.081 A  
HETATM   19  C   UNL     1      -8.754   9.621  63.923  1.00  0.00    -0.241 A  
HETATM   20  C   UNL     1      -6.795  10.292  65.170  1.00  0.00    -0.120 A  
HETATM   21  C   UNL     1      -7.952   8.822  63.102  1.00  0.00    -0.159 A  
ENDBRANCH   8  15
ENDBRANCH   5   8
TORSDOF 3
ENDMDL
MODEL      114
REMARK 921   NORMALIZED FREE ENERGY PREDICTED BY IDOCK:   -2.82 KCAL/MOL
REMARK 922        TOTAL FREE ENERGY PREDICTED BY IDOCK:   -3.58 KCAL/MOL
REMARK 923 INTER-LIGAND FREE ENERGY PREDICTED BY IDOCK:   -3.11 KCAL/MOL
REMARK 924 INTRA-LIGAND FREE ENERGY PREDICTED BY IDOCK:   -0.47 KCAL/MOL
REMARK 927      BINDING AFFINITY PREDICTED BY RF-SCORE:    0.00 PKD
ROOT
HETATM    1  C   UNL     1     -10.568  11.147  66.584  1.00  0.00    -0.264 C  
HETATM    2  N   UNL     1      -9.502  10.407  67.259  1.00  0.00    -0.153 NA 
HETATM    3  C   UNL     1      -9.918   9.969  68.607  1.00  0.00    -0.165 C  
HETATM    4  C   UNL     1     -10.843   8.726  68.646  1.00  0.00     0.028 C  
HETATM    5  N   UNL     1     -10.349   7.552  67.886  1.00  0.00    -0.200 NA 
HETATM    6  C   UNL     1     -10.037   8.033  66.514  1.00  0.00    -0.200 C  
HETATM    7  C   UNL     1      -9.077   9.245  66.454  1.00  0.00    -0.160 C  
ENDROOT
BRANCH   5   8
HETATM    8  C   UNL     1      -9.174   6.889  68.540  1.00  0.00    -0.129 C  
BRANCH   8   9
HETATM    9  C   UNL     1      -9.301   6.811  70.069  1.00  0.00    -0.158 A  
HETATM   10  C   UNL     1     -10.103   5.812  70.656  1.00  0.00    -0.263 A  
HETATM   11  C   UNL     1      -8.565   7.649  70.929  1.00  0.00    -0.129 A  
HETATM   12  C   UNL     1     -10.151   5.642  72.043  1.00  0.00    -0.230 A  
HETATM   13  C   UNL     1      -9.407   6.478  72.874  1.00  0.00    -0.144 A  
HETATM   14  C   UNL     1      -8.624   7.488  72.317  1.00  0.00    -0.141 A  
ENDBRANCH   8   9
BRANCH   8  15
HETATM   15  C   UNL     1      -8.879   5.524  67.889  1.00  0.00    -0.105 A  
HETATM   16  C   UNL     1      -8.256   3.274  66.322  1.00  0.00    -0.097 A  
HETATM   17 CL   UNL     1      -7.869   1.952  65.292  1.00  0.00    -0.072 Cl 
HETATM   18  C   UNL     1      -9.584   3.657  66.485  1.00  0.00    -0.159 A  
HETATM   19  C   UNL     1      -7.546   5.090  67.750  1.00  0.00    -0.083 A  
HETATM   20  C   UNL     1      -9.892   4.774  67.262  1.00  0.00    -0.218 A  
HETATM   21  C   UNL     1      -7.238   3.977  66.961  1.00  0.00    -0.068 A  
ENDBRANCH   8  15
ENDBRANCH   5   8
TORSDOF 3
ENDMDL
MODEL      115
REMARK 921   NORMALIZED FREE ENERGY PREDICTED BY IDOCK:   -2.77 KCAL/MOL
REMARK 922        TOTAL FREE ENERGY PREDICTED BY IDOCK:   -3.52 KCAL/MOL
REMARK 923 INTER-LIGAND FREE ENERGY PREDICTED BY IDOCK:   -7.03 KCAL/MOL
REMARK 924 INTRA-LIGAND FREE ENERGY PREDICTED BY IDOCK:    3.51 KCAL/MOL
REMARK 927      BINDING AFFINITY PREDICTED BY RF-SCORE:    0.00 PKD
ROOT
HETATM    1  C   UNL     1     -12.173  14.105  70.146  1.00  0.00    -0.351 C  
HETATM    2  N   UNL     1     -12.018  14.624  68.787  1.00  0.00    -0.293 NA 
HETATM    3  C   UNL     1     -10.965  15.657  68.719  1.00  0.00    -0.281 C  
HETATM    4  C   UNL     1      -9.510  15.124  68.710  1.00  0.00    -0.209 C  
HETATM    5  N   UNL     1      -9.230  14.081  67.695  1.00  0.00    -0.187 NA 
HETATM    6  C   UNL     1     -10.262  13.024  67.873  1.00  0.00    -0.234 C  
HETATM    7  C   UNL     1     -11.722  13.533  67.838  1.00  0.00    -0.357 C  
ENDROOT
BRANCH   5   8
HETATM    8  C   UNL     1      -9.203  14.622  66.297  1.00  0.00    -0.222 C  
BRANCH   8   9
HETATM    9  C   UNL     1     -10.273  13.994  65.388  1.00  0.00    -0.368 A  
HETATM   10  C   UNL     1     -11.426  14.728  65.051  1.00  0.00    -0.389 A  
HETATM   11  C   UNL     1     -10.104  12.729  64.792  1.00  0.00    -0.240 A  
HETATM   12  C   UNL     1     -12.361  14.232  64.138  1.00  0.00    -0.361 A  
HETATM   13  C   UNL     1     -12.169  12.981  63.554  1.00  0.00    -0.580 A  
HETATM   14  C   UNL     1     -11.047  12.226  63.890  1.00  0.00    -0.475 A  
ENDBRANCH   8   9
BRANCH   8  15
HETATM   15  C   UNL     1      -9.244  16.162  66.300  1.00  0.00    -0.366 A  
HETATM   16  C   UNL     1      -9.413  18.932  66.751  1.00  0.00    -0.326 A  
HETATM   17 CL   UNL     1      -9.543  20.609  67.112  1.00  0.00    -0.570 Cl 
HETATM   18  C   UNL     1     -10.521  18.241  66.272  1.00  0.00    -0.397 A  
HETATM   19  C   UNL     1      -8.121  16.890  66.739  1.00  0.00    -0.276 A  
HETATM   20  C   UNL     1     -10.437  16.866  66.049  1.00  0.00    -0.297 A  
HETATM   21  C   UNL     1      -8.210  18.266  66.973  1.00  0.00    -0.248 A  
ENDBRANCH   8  15
ENDBRANCH   5   8
TORSDOF 3
ENDMDL
MODEL      116
REMARK 921   NORMALIZED FREE ENERGY PREDICTED BY IDOCK:   -2.69 KCAL/MOL
REMARK 922        TOTAL FREE ENERGY PREDICTED BY IDOCK:   -3.42 KCAL/MOL
REMARK 923 INTER-LIGAND FREE ENERGY PREDICTED BY IDOCK:   -2.80 KCAL/MOL
REMARK 924 INTRA-LIGAND FREE ENERGY PREDICTED BY IDOCK:   -0.62 KCAL/MOL
REMARK 927      BINDING AFFINITY PREDICTED BY RF-SCORE:    0.00 PKD
ROOT
HETATM    1  C   UNL     1      -6.298  11.656  69.902  1.00  0.00    -0.124 C  
HETATM    2  N   UNL     1      -7.481  11.004  69.340  1.00  0.00    -0.108 NA 
HETATM    3  C   UNL     1      -7.808  11.536  68.002  1.00  0.00    -0.126 C  
HETATM    4  C   UNL     1      -6.931  11.002  66.842  1.00  0.00    -0.125 C  
HETATM    5  N   UNL     1      -6.825   9.526  66.763  1.00  0.00    -0.079 NA 
HETATM    6  C   UNL     1      -6.401   9.056  68.110  1.00  0.00    -0.055 C  
HETATM    7  C   UNL     1      -7.294   9.541  69.275  1.00  0.00    -0.072 C  
ENDROOT
BRANCH   5   8
HETATM    8  C   UNL     1      -8.096   8.875  66.305  1.00  0.00    -0.110 C  
BRANCH   8   9
HETATM    9  C   UNL     1      -8.699   9.544  65.060  1.00  0.00    -0.205 A  
HETATM   10  C   UNL     1      -8.083   9.376  63.805  1.00  0.00    -0.155 A  
HETATM   11  C   UNL     1      -9.915  10.253  65.102  1.00  0.00    -0.395 A  
HETATM   12  C   UNL     1      -8.667   9.875  62.637  1.00  0.00    -0.219 A  
HETATM   13  C   UNL     1      -9.875  10.566  62.702  1.00  0.00    -0.115 A  
HETATM   14  C   UNL     1     -10.492  10.766  63.936  1.00  0.00    -0.251 A  
ENDBRANCH   8   9
BRANCH   8  15
HETATM   15  C   UNL     1      -7.909   7.354  66.142  1.00  0.00    -0.107 A  
HETATM   16  C   UNL     1      -7.710   4.646  65.415  1.00  0.00    -0.089 A  
HETATM   17 CL   UNL     1      -7.625   3.010  64.889  1.00  0.00    -0.075 Cl 
HETATM   18  C   UNL     1      -8.856   5.107  66.054  1.00  0.00    -0.137 A  
HETATM   19  C   UNL     1      -6.739   6.855  65.537  1.00  0.00    -0.051 A  
HETATM   20  C   UNL     1      -8.955   6.452  66.415  1.00  0.00    -0.162 A  
HETATM   21  C   UNL     1      -6.647   5.510  65.166  1.00  0.00    -0.040 A  
ENDBRANCH   8  15
ENDBRANCH   5   8
TORSDOF 3
ENDMDL
MODEL      117
REMARK 921   NORMALIZED FREE ENERGY PREDICTED BY IDOCK:   -2.65 KCAL/MOL
REMARK 922        TOTAL FREE ENERGY PREDICTED BY IDOCK:   -3.37 KCAL/MOL
REMARK 923 INTER-LIGAND FREE ENERGY PREDICTED BY IDOCK:   -3.18 KCAL/MOL
REMARK 924 INTRA-LIGAND FREE ENERGY PREDICTED BY IDOCK:   -0.19 KCAL/MOL
REMARK 927      BINDING AFFINITY PREDICTED BY RF-SCORE:    0.00 PKD
ROOT
HETATM    1  C   UNL     1      -9.126   4.789  74.215  1.00  0.00    -0.111 C  
HETATM    2  N   UNL     1      -9.967   5.019  73.040  1.00  0.00    -0.157 NA 
HETATM    3  C   UNL     1     -10.262   6.454  72.858  1.00  0.00    -0.191 C  
HETATM    4  C   UNL     1      -9.118   7.295  72.237  1.00  0.00    -0.131 C  
HETATM    5  N   UNL     1      -8.555   6.754  70.977  1.00  0.00    -0.136 NA 
HETATM    6  C   UNL     1      -8.189   5.337  71.247  1.00  0.00    -0.119 C  
HETATM    7  C   UNL     1      -9.333   4.471  71.824  1.00  0.00    -0.142 C  
ENDROOT
BRANCH   5   8
HETATM    8  C   UNL     1      -9.492   6.889  69.815  1.00  0.00    -0.145 C  
BRANCH   8   9
HETATM    9  C   UNL     1      -9.685   8.346  69.364  1.00  0.00    -0.177 A  
HETATM   10  C   UNL     1     -10.877   9.026  69.681  1.00  0.00    -0.196 A  
HETATM   11  C   UNL     1      -8.667   9.075  68.720  1.00  0.00    -0.136 A  
HETATM   12  C   UNL     1     -11.038  10.384  69.387  1.00  0.00    -0.304 A  
HETATM   13  C   UNL     1     -10.013  11.086  68.756  1.00  0.00    -0.215 A  
HETATM   14  C   UNL     1      -8.833  10.429  68.412  1.00  0.00    -0.136 A  
ENDBRANCH   8   9
BRANCH   8  15
HETATM   15  C   UNL     1      -9.082   5.951  68.663  1.00  0.00    -0.115 A  
HETATM   16  C   UNL     1      -8.195   3.957  66.892  1.00  0.00    -0.100 A  
HETATM   17 CL   UNL     1      -7.619   2.690  65.880  1.00  0.00    -0.072 Cl 
HETATM   18  C   UNL     1      -7.358   5.022  67.208  1.00  0.00    -0.082 A  
HETATM   19  C   UNL     1      -9.930   4.889  68.292  1.00  0.00    -0.177 A  
HETATM   20  C   UNL     1      -7.799   6.012  68.088  1.00  0.00    -0.106 A  
HETATM   21  C   UNL     1      -9.482   3.892  67.419  1.00  0.00    -0.236 A  
ENDBRANCH   8  15
ENDBRANCH   5   8
TORSDOF 3
ENDMDL
MODEL      118
REMARK 921   NORMALIZED FREE ENERGY PREDICTED BY IDOCK:   -2.61 KCAL/MOL
REMARK 922        TOTAL FREE ENERGY PREDICTED BY IDOCK:   -3.33 KCAL/MOL
REMARK 923 INTER-LIGAND FREE ENERGY PREDICTED BY IDOCK:   -3.13 KCAL/MOL
REMARK 924 INTRA-LIGAND FREE ENERGY PREDICTED BY IDOCK:   -0.20 KCAL/MOL
REMARK 927      BINDING AFFINITY PREDICTED BY RF-SCORE:    0.00 PKD
ROOT
HETATM    1  C   UNL     1      -7.625   7.920  74.042  1.00  0.00    -0.168 C  
HETATM    2  N   UNL     1      -8.512   8.427  72.996  1.00  0.00    -0.353 NA 
HETATM    3  C   UNL     1      -7.748   8.964  71.852  1.00  0.00     0.085 C  
HETATM    4  C   UNL     1      -7.169   7.902  70.883  1.00  0.00    -0.053 C  
HETATM    5  N   UNL     1      -8.148   6.905  70.387  1.00  0.00    -0.114 NA 
HETATM    6  C   UNL     1      -8.817   6.331  71.585  1.00  0.00    -0.138 C  
HETATM    7  C   UNL     1      -9.442   7.375  72.539  1.00  0.00    -0.152 C  
ENDROOT
BRANCH   5   8
HETATM    8  C   UNL     1      -9.126   7.486  69.410  1.00  0.00    -0.142 C  
BRANCH   8   9
HETATM    9  C   UNL     1      -8.635   8.797  68.775  1.00  0.00    -0.137 A  
HETATM   10  C   UNL     1      -7.529   8.782  67.902  1.00  0.00    -0.093 A  
HETATM   11  C   UNL     1      -9.310  10.019  68.955  1.00  0.00    -0.183 A  
HETATM   12  C   UNL     1      -7.128   9.935  67.220  1.00  0.00    -0.085 A  
HETATM   13  C   UNL     1      -7.817  11.131  67.409  1.00  0.00    -0.121 A  
HETATM   14  C   UNL     1      -8.900  11.176  68.285  1.00  0.00    -0.155 A  
ENDBRANCH   8   9
BRANCH   8  15
HETATM   15  C   UNL     1      -9.555   6.435  68.368  1.00  0.00    -0.125 A  
HETATM   16  C   UNL     1     -10.070   4.748  66.179  1.00  0.00    -0.262 A  
HETATM   17 CL   UNL     1     -10.337   3.773  64.787  1.00  0.00    -0.167 Cl 
HETATM   18  C   UNL     1     -10.948   5.786  66.473  1.00  0.00    -0.152 A  
HETATM   19  C   UNL     1      -8.705   5.349  68.080  1.00  0.00    -0.105 A  
HETATM   20  C   UNL     1     -10.692   6.624  67.560  1.00  0.00    -0.387 A  
HETATM   21  C   UNL     1      -8.957   4.518  66.984  1.00  0.00    -0.120 A  
ENDBRANCH   8  15
ENDBRANCH   5   8
TORSDOF 3
ENDMDL
MODEL      119
REMARK 921   NORMALIZED FREE ENERGY PREDICTED BY IDOCK:   -2.58 KCAL/MOL
REMARK 922        TOTAL FREE ENERGY PREDICTED BY IDOCK:   -3.30 KCAL/MOL
REMARK 923 INTER-LIGAND FREE ENERGY PREDICTED BY IDOCK:   -3.13 KCAL/MOL
REMARK 924 INTRA-LIGAND FREE ENERGY PREDICTED BY IDOCK:   -0.16 KCAL/MOL
REMARK 927      BINDING AFFINITY PREDICTED BY RF-SCORE:    0.00 PKD
ROOT
HETATM    1  C   UNL     1      -8.275   6.874  72.773  1.00  0.00    -0.108 C  
HETATM    2  N   UNL     1      -9.295   6.932  71.726  1.00  0.00    -0.146 NA 
HETATM    3  C   UNL     1      -9.002   7.996  70.744  1.00  0.00    -0.144 C  
HETATM    4  C   UNL     1      -7.910   7.654  69.699  1.00  0.00    -0.108 C  
HETATM    5  N   UNL     1      -8.110   6.373  68.980  1.00  0.00    -0.110 NA 
HETATM    6  C   UNL     1      -8.305   5.326  70.018  1.00  0.00    -0.098 C  
HETATM    7  C   UNL     1      -9.423   5.630  71.043  1.00  0.00    -0.166 C  
ENDROOT
BRANCH   5   8
HETATM    8  C   UNL     1      -9.246   6.426  68.002  1.00  0.00    -0.110 C  
BRANCH   8   9
HETATM    9  C   UNL     1      -9.416   7.808  67.352  1.00  0.00    -0.177 A  
HETATM   10  C   UNL     1      -8.435   8.291  66.464  1.00  0.00    -0.121 A  
HETATM   11  C   UNL     1     -10.575   8.587  67.533  1.00  0.00    -0.284 A  
HETATM   12  C   UNL     1      -8.613   9.491  65.769  1.00  0.00    -0.152 A  
HETATM   13  C   UNL     1      -9.772  10.241  65.959  1.00  0.00    -0.274 A  
HETATM   14  C   UNL     1     -10.746   9.795  66.849  1.00  0.00    -0.192 A  
ENDBRANCH   8   9
BRANCH   8  15
HETATM   15  C   UNL     1      -9.142   5.284  66.973  1.00  0.00    -0.112 A  
HETATM   16  C   UNL     1      -9.255   2.985  65.360  1.00  0.00    -0.141 A  
HETATM   17 CL   UNL     1      -9.377   1.539  64.435  1.00  0.00    -0.130 Cl 
HETATM   18  C   UNL     1      -8.249   3.111  66.312  1.00  0.00    -0.090 A  
HETATM   19  C   UNL     1     -10.122   5.155  65.970  1.00  0.00    -0.197 A  
HETATM   20  C   UNL     1      -8.193   4.253  67.114  1.00  0.00    -0.100 A  
HETATM   21  C   UNL     1     -10.183   4.006  65.176  1.00  0.00    -0.172 A  
ENDBRANCH   8  15
ENDBRANCH   5   8
TORSDOF 3
ENDMDL
MODEL      120
REMARK 921   NORMALIZED FREE ENERGY PREDICTED BY IDOCK:   -2.34 KCAL/MOL
REMARK 922        TOTAL FREE ENERGY PREDICTED BY IDOCK:   -3.01 KCAL/MOL
REMARK 923 INTER-LIGAND FREE ENERGY PREDICTED BY IDOCK:   -6.54 KCAL/MOL
REMARK 924 INTRA-LIGAND FREE ENERGY PREDICTED BY IDOCK:    3.53 KCAL/MOL
REMARK 927      BINDING AFFINITY PREDICTED BY RF-SCORE:    0.00 PKD
ROOT
HETATM    1  C   UNL     1     -13.125  12.158  63.782  1.00  0.00    -0.069 C  
HETATM    2  N   UNL     1     -12.425  12.352  65.052  1.00  0.00    -0.584 NA 
HETATM    3  C   UNL     1     -11.023  11.894  64.972  1.00  0.00    -0.312 C  
HETATM    4  C   UNL     1     -10.048  12.863  64.256  1.00  0.00    -0.226 C  
HETATM    5  N   UNL     1     -10.073  14.259  64.752  1.00  0.00    -0.281 NA 
HETATM    6  C   UNL     1     -11.495  14.697  64.720  1.00  0.00    -0.410 C  
HETATM    7  C   UNL     1     -12.476  13.767  65.471  1.00  0.00    -0.512 C  
ENDROOT
BRANCH   5   8
HETATM    8  C   UNL     1      -9.462  14.405  66.113  1.00  0.00    -0.242 C  
BRANCH   8   9
HETATM    9  C   UNL     1      -9.145  15.865  66.477  1.00  0.00    -0.320 A  
HETATM   10  C   UNL     1      -7.880  16.199  66.999  1.00  0.00    -0.258 A  
HETATM   11  C   UNL     1     -10.044  16.916  66.217  1.00  0.00    -0.335 A  
HETATM   12  C   UNL     1      -7.520  17.529  67.233  1.00  0.00    -0.214 A  
HETATM   13  C   UNL     1      -8.424  18.554  66.961  1.00  0.00    -0.266 A  
HETATM   14  C   UNL     1      -9.689  18.247  66.465  1.00  0.00    -0.343 A  
ENDBRANCH   8   9
BRANCH   8  15
HETATM   15  C   UNL     1     -10.313  13.689  67.180  1.00  0.00    -0.250 A  
HETATM   16  C   UNL     1     -11.594  12.592  69.429  1.00  0.00    -0.305 A  
HETATM   17 CL   UNL     1     -12.314  11.959  70.857  1.00  0.00    -0.452 Cl 
HETATM   18  C   UNL     1     -10.605  11.865  68.774  1.00  0.00    -0.234 A  
HETATM   19  C   UNL     1     -11.350  14.387  67.830  1.00  0.00    -0.331 A  
HETATM   20  C   UNL     1      -9.968  12.411  67.658  1.00  0.00    -0.200 A  
HETATM   21  C   UNL     1     -11.978  13.844  68.955  1.00  0.00    -0.393 A  
ENDBRANCH   8  15
ENDBRANCH   5   8
TORSDOF 3
ENDMDL
MODEL      121
REMARK 921   NORMALIZED FREE ENERGY PREDICTED BY IDOCK:   -2.19 KCAL/MOL
REMARK 922        TOTAL FREE ENERGY PREDICTED BY IDOCK:   -2.84 KCAL/MOL
REMARK 923 INTER-LIGAND FREE ENERGY PREDICTED BY IDOCK:   -4.11 KCAL/MOL
REMARK 924 INTRA-LIGAND FREE ENERGY PREDICTED BY IDOCK:    1.27 KCAL/MOL
REMARK 927      BINDING AFFINITY PREDICTED BY RF-SCORE:    0.00 PKD
ROOT
HETATM    1  C   UNL     1      -7.517   9.219  64.232  1.00  0.00    -0.107 C  
HETATM    2  N   UNL     1      -8.067   8.776  65.513  1.00  0.00    -0.109 NA 
HETATM    3  C   UNL     1      -7.467   9.514  66.644  1.00  0.00    -0.093 C  
HETATM    4  C   UNL     1      -8.020  10.944  66.871  1.00  0.00    -0.138 C  
HETATM    5  N   UNL     1      -9.497  11.039  66.959  1.00  0.00    -0.171 NA 
HETATM    6  C   UNL     1     -10.041  10.364  65.750  1.00  0.00    -0.262 C  
HETATM    7  C   UNL     1      -9.536   8.918  65.533  1.00  0.00    -0.092 C  
ENDROOT
BRANCH   5   8
HETATM    8  C   UNL     1     -10.043  10.460  68.230  1.00  0.00    -0.153 C  
BRANCH   8   9
HETATM    9  C   UNL     1      -9.004   9.640  69.012  1.00  0.00    -0.148 A  
HETATM   10  C   UNL     1      -9.085   8.234  69.023  1.00  0.00    -0.147 A  
HETATM   11  C   UNL     1      -7.900  10.238  69.650  1.00  0.00    -0.168 A  
HETATM   12  C   UNL     1      -8.093   7.455  69.628  1.00  0.00    -0.128 A  
HETATM   13  C   UNL     1      -7.006   8.069  70.247  1.00  0.00    -0.044 A  
HETATM   14  C   UNL     1      -6.916   9.459  70.268  1.00  0.00    -0.087 A  
ENDBRANCH   8   9
BRANCH   8  15
HETATM   15  C   UNL     1     -10.720  11.548  69.085  1.00  0.00    -0.210 A  
HETATM   16  C   UNL     1     -12.311  13.482  70.364  1.00  0.00    -0.327 A  
HETATM   17 CL   UNL     1     -13.346  14.654  71.080  1.00  0.00    -0.422 Cl 
HETATM   18  C   UNL     1     -11.380  13.875  69.407  1.00  0.00    -0.311 A  
HETATM   19  C   UNL     1     -11.634  11.178  70.091  1.00  0.00    -0.410 A  
HETATM   20  C   UNL     1     -10.591  12.915  68.772  1.00  0.00    -0.217 A  
HETATM   21  C   UNL     1     -12.432  12.141  70.718  1.00  0.00    -0.362 A  
ENDBRANCH   8  15
ENDBRANCH   5   8
TORSDOF 3
ENDMDL
MODEL      122
REMARK 921   NORMALIZED FREE ENERGY PREDICTED BY IDOCK:   -2.11 KCAL/MOL
REMARK 922        TOTAL FREE ENERGY PREDICTED BY IDOCK:   -2.74 KCAL/MOL
REMARK 923 INTER-LIGAND FREE ENERGY PREDICTED BY IDOCK:   -3.09 KCAL/MOL
REMARK 924 INTRA-LIGAND FREE ENERGY PREDICTED BY IDOCK:    0.35 KCAL/MOL
REMARK 927      BINDING AFFINITY PREDICTED BY RF-SCORE:    0.00 PKD
ROOT
HETATM    1  C   UNL     1      -5.958  11.663  66.895  1.00  0.00    -0.145 C  
HETATM    2  N   UNL     1      -6.870  10.629  66.407  1.00  0.00    -0.121 NA 
HETATM    3  C   UNL     1      -6.288   9.279  66.555  1.00  0.00    -0.066 C  
HETATM    4  C   UNL     1      -6.341   8.687  67.986  1.00  0.00    -0.056 C  
HETATM    5  N   UNL     1      -7.677   8.711  68.627  1.00  0.00    -0.097 NA 
HETATM    6  C   UNL     1      -8.171  10.111  68.532  1.00  0.00    -0.111 C  
HETATM    7  C   UNL     1      -8.170  10.703  67.102  1.00  0.00    -0.121 C  
ENDROOT
BRANCH   5   8
HETATM    8  C   UNL     1      -8.632   7.727  68.019  1.00  0.00    -0.123 C  
BRANCH   8   9
HETATM    9  C   UNL     1      -7.960   6.786  67.006  1.00  0.00    -0.109 A  
HETATM   10  C   UNL     1      -7.047   5.811  67.452  1.00  0.00    -0.074 A  
HETATM   11  C   UNL     1      -8.295   6.792  65.638  1.00  0.00    -0.147 A  
HETATM   12  C   UNL     1      -6.506   4.867  66.574  1.00  0.00    -0.041 A  
HETATM   13  C   UNL     1      -6.859   4.888  65.226  1.00  0.00    -0.060 A  
HETATM   14  C   UNL     1      -7.743   5.857  64.756  1.00  0.00    -0.099 A  
ENDBRANCH   8   9
BRANCH   8  15
HETATM   15  C   UNL     1      -9.418   6.976  69.111  1.00  0.00    -0.143 A  
HETATM   16  C   UNL     1     -10.943   6.020  71.270  1.00  0.00    -0.278 A  
HETATM   17 CL   UNL     1     -11.882   5.520  72.623  1.00  0.00    -0.270 Cl 
HETATM   18  C   UNL     1      -9.557   6.081  71.376  1.00  0.00    -0.180 A  
HETATM   19  C   UNL     1     -10.818   6.860  69.008  1.00  0.00    -0.247 A  
HETATM   20  C   UNL     1      -8.801   6.556  70.304  1.00  0.00    -0.151 A  
HETATM   21  C   UNL     1     -11.576   6.395  70.088  1.00  0.00    -0.449 A  
ENDBRANCH   8  15
ENDBRANCH   5   8
TORSDOF 3
ENDMDL
MODEL      123
REMARK 921   NORMALIZED FREE ENERGY PREDICTED BY IDOCK:   -2.02 KCAL/MOL
REMARK 922        TOTAL FREE ENERGY PREDICTED BY IDOCK:   -2.63 KCAL/MOL
REMARK 923 INTER-LIGAND FREE ENERGY PREDICTED BY IDOCK:   -3.78 KCAL/MOL
REMARK 924 INTRA-LIGAND FREE ENERGY PREDICTED BY IDOCK:    1.15 KCAL/MOL
REMARK 927      BINDING AFFINITY PREDICTED BY RF-SCORE:    0.00 PKD
ROOT
HETATM    1  C   UNL     1     -12.384  14.509  70.031  1.00  0.00    -0.323 C  
HETATM    2  N   UNL     1     -11.502  14.729  68.885  1.00  0.00    -0.282 NA 
HETATM    3  C   UNL     1     -10.207  14.040  69.059  1.00  0.00    -0.089 C  
HETATM    4  C   UNL     1     -10.224  12.515  68.786  1.00  0.00    -0.085 C  
HETATM    5  N   UNL     1     -10.814  12.116  67.486  1.00  0.00    -0.234 NA 
HETATM    6  C   UNL     1     -12.153  12.760  67.410  1.00  0.00    -0.158 C  
HETATM    7  C   UNL     1     -12.148  14.291  67.632  1.00  0.00    -0.297 C  
ENDROOT
BRANCH   5   8
HETATM    8  C   UNL     1      -9.943  12.470  66.319  1.00  0.00    -0.252 C  
BRANCH   8   9
HETATM    9  C   UNL     1      -8.752  13.361  66.705  1.00  0.00    -0.093 A  
HETATM   10  C   UNL     1      -8.840  14.758  66.545  1.00  0.00    -0.223 A  
HETATM   11  C   UNL     1      -7.592  12.844  67.312  1.00  0.00    -0.104 A  
HETATM   12  C   UNL     1      -7.822  15.605  66.992  1.00  0.00    -0.266 A  
HETATM   13  C   UNL     1      -6.686  15.071  67.597  1.00  0.00    -0.201 A  
HETATM   14  C   UNL     1      -6.566  13.691  67.746  1.00  0.00    -0.178 A  
ENDBRANCH   8   9
BRANCH   8  15
HETATM   15  C   UNL     1      -9.524  11.207  65.541  1.00  0.00    -0.251 A  
HETATM   16  C   UNL     1      -8.369   8.934  64.358  1.00  0.00    -0.168 A  
HETATM   17 CL   UNL     1      -7.585   7.561  63.678  1.00  0.00    -0.112 Cl 
HETATM   18  C   UNL     1      -8.283  10.165  63.716  1.00  0.00    -0.163 A  
HETATM   19  C   UNL     1      -9.640   9.942  66.148  1.00  0.00    -0.275 A  
HETATM   20  C   UNL     1      -8.856  11.294  64.305  1.00  0.00     0.199 A  
HETATM   21  C   UNL     1      -9.055   8.814  65.563  1.00  0.00    -0.221 A  
ENDBRANCH   8  15
ENDBRANCH   5   8
TORSDOF 3
ENDMDL
MODEL      124
REMARK 921   NORMALIZED FREE ENERGY PREDICTED BY IDOCK:   -1.89 KCAL/MOL
REMARK 922        TOTAL FREE ENERGY PREDICTED BY IDOCK:   -2.48 KCAL/MOL
REMARK 923 INTER-LIGAND FREE ENERGY PREDICTED BY IDOCK:   -5.79 KCAL/MOL
REMARK 924 INTRA-LIGAND FREE ENERGY PREDICTED BY IDOCK:    3.31 KCAL/MOL
REMARK 927      BINDING AFFINITY PREDICTED BY RF-SCORE:    0.00 PKD
ROOT
HETATM    1  C   UNL     1     -12.497  13.996  70.197  1.00  0.00    -0.319 C  
HETATM    2  N   UNL     1     -11.338  13.649  69.375  1.00  0.00    -0.261 NA 
HETATM    3  C   UNL     1     -11.740  12.920  68.155  1.00  0.00    -0.352 C  
HETATM    4  C   UNL     1     -12.319  13.797  67.016  1.00  0.00    -0.247 C  
HETATM    5  N   UNL     1     -11.483  14.959  66.632  1.00  0.00    -0.332 NA 
HETATM    6  C   UNL     1     -11.190  15.707  67.885  1.00  0.00    -0.328 C  
HETATM    7  C   UNL     1     -10.567  14.856  69.016  1.00  0.00    -0.245 C  
ENDROOT
BRANCH   5   8
HETATM    8  C   UNL     1     -10.236  14.562  65.900  1.00  0.00    -0.322 C  
BRANCH   8   9
HETATM    9  C   UNL     1      -8.978  15.271  66.428  1.00  0.00    -0.339 A  
HETATM   10  C   UNL     1      -8.765  16.632  66.137  1.00  0.00    -0.322 A  
HETATM   11  C   UNL     1      -8.059  14.633  67.283  1.00  0.00    -0.230 A  
HETATM   12  C   UNL     1      -7.693  17.335  66.695  1.00  0.00    -0.298 A  
HETATM   13  C   UNL     1      -6.801  16.684  67.545  1.00  0.00    -0.177 A  
HETATM   14  C   UNL     1      -6.978  15.332  67.829  1.00  0.00    -0.185 A  
ENDBRANCH   8   9
BRANCH   8  15
HETATM   15  C   UNL     1     -10.090  13.029  65.851  1.00  0.00    -0.291 A  
HETATM   16  C   UNL     1      -9.456  10.313  65.500  1.00  0.00    -0.223 A  
HETATM   17 CL   UNL     1      -9.003   8.676  65.228  1.00  0.00    -0.194 Cl 
HETATM   18  C   UNL     1     -10.400  10.915  64.674  1.00  0.00    -0.407 A  
HETATM   19  C   UNL     1      -9.173  12.387  66.706  1.00  0.00    -0.212 A  
HETATM   20  C   UNL     1     -10.714  12.264  64.848  1.00  0.00    -0.335 A  
HETATM   21  C   UNL     1      -8.851  11.039  66.523  1.00  0.00    -0.173 A  
ENDBRANCH   8  15
ENDBRANCH   5   8
TORSDOF 3
ENDMDL
MODEL      125
REMARK 921   NORMALIZED FREE ENERGY PREDICTED BY IDOCK:   -1.78 KCAL/MOL
REMARK 922        TOTAL FREE ENERGY PREDICTED BY IDOCK:   -2.35 KCAL/MOL
REMARK 923 INTER-LIGAND FREE ENERGY PREDICTED BY IDOCK:   -5.97 KCAL/MOL
REMARK 924 INTRA-LIGAND FREE ENERGY PREDICTED BY IDOCK:    3.62 KCAL/MOL
REMARK 927      BINDING AFFINITY PREDICTED BY RF-SCORE:    0.00 PKD
ROOT
HETATM    1  C   UNL     1      -9.853   4.058  69.841  1.00  0.00    -0.115 C  
HETATM    2  N   UNL     1      -9.466   5.350  70.408  1.00  0.00    -0.158 NA 
HETATM    3  C   UNL     1     -10.296   6.447  69.871  1.00  0.00    -0.196 C  
HETATM    4  C   UNL     1     -11.713   6.571  70.487  1.00  0.00    -0.375 C  
HETATM    5  N   UNL     1     -11.752   6.615  71.968  1.00  0.00    -0.300 NA 
HETATM    6  C   UNL     1     -10.982   5.437  72.450  1.00  0.00    -0.240 C  
HETATM    7  C   UNL     1      -9.548   5.324  71.882  1.00  0.00    -0.152 C  
ENDROOT
BRANCH   5   8
HETATM    8  C   UNL     1     -11.230   7.905  72.525  1.00  0.00    -0.376 C  
BRANCH   8   9
HETATM    9  C   UNL     1      -9.741   7.838  72.904  1.00  0.00    -0.310 A  
HETATM   10  C   UNL     1      -8.769   8.342  72.018  1.00  0.00    -0.267 A  
HETATM   11  C   UNL     1      -9.305   7.373  74.159  1.00  0.00    -0.227 A  
HETATM   12  C   UNL     1      -7.419   8.400  72.378  1.00  0.00    -0.129 A  
HETATM   13  C   UNL     1      -7.012   7.942  73.629  1.00  0.00    -0.130 A  
HETATM   14  C   UNL     1      -7.952   7.417  74.514  1.00  0.00    -0.205 A  
ENDBRANCH   8   9
BRANCH   8  15
HETATM   15  C   UNL     1     -11.562   9.085  71.591  1.00  0.00    -0.426 A  
HETATM   16  C   UNL     1     -11.912  11.485  70.171  1.00  0.00    -0.369 A  
HETATM   17 CL   UNL     1     -12.080  12.997  69.367  1.00  0.00    -0.307 Cl 
HETATM   18  C   UNL     1     -12.868  11.086  71.099  1.00  0.00    -0.491 A  
HETATM   19  C   UNL     1     -10.631   9.484  70.612  1.00  0.00    -0.374 A  
HETATM   20  C   UNL     1     -12.694   9.894  71.804  1.00  0.00    -0.523 A  
HETATM   21  C   UNL     1     -10.801  10.685  69.915  1.00  0.00    -0.301 A  
ENDBRANCH   8  15
ENDBRANCH   5   8
TORSDOF 3
ENDMDL
MODEL      126
REMARK 921   NORMALIZED FREE ENERGY PREDICTED BY IDOCK:   -1.75 KCAL/MOL
REMARK 922        TOTAL FREE ENERGY PREDICTED BY IDOCK:   -2.32 KCAL/MOL
REMARK 923 INTER-LIGAND FREE ENERGY PREDICTED BY IDOCK:   -5.55 KCAL/MOL
REMARK 924 INTRA-LIGAND FREE ENERGY PREDICTED BY IDOCK:    3.22 KCAL/MOL
REMARK 927      BINDING AFFINITY PREDICTED BY RF-SCORE:    0.00 PKD
ROOT
HETATM    1  C   UNL     1      -6.762  13.471  67.778  1.00  0.00    -0.168 C  
HETATM    2  N   UNL     1      -7.695  12.589  67.075  1.00  0.00    -0.096 NA 
HETATM    3  C   UNL     1      -7.852  11.299  67.776  1.00  0.00    -0.115 C  
HETATM    4  C   UNL     1      -8.775  11.327  69.020  1.00  0.00     0.037 C  
HETATM    5  N   UNL     1     -10.114  11.922  68.795  1.00  0.00    -0.168 NA 
HETATM    6  C   UNL     1      -9.889  13.256  68.176  1.00  0.00    -0.231 C  
HETATM    7  C   UNL     1      -9.008  13.241  66.905  1.00  0.00    -0.207 C  
ENDROOT
BRANCH   5   8
HETATM    8  C   UNL     1     -11.006  11.050  67.963  1.00  0.00    -0.258 C  
BRANCH   8   9
HETATM    9  C   UNL     1     -11.114  11.520  66.503  1.00  0.00    -0.341 A  
HETATM   10  C   UNL     1     -10.352  10.885  65.503  1.00  0.00    -0.316 A  
HETATM   11  C   UNL     1     -12.026  12.513  66.098  1.00  0.00    -0.432 A  
HETATM   12  C   UNL     1     -10.510  11.210  64.153  1.00  0.00    -0.442 A  
HETATM   13  C   UNL     1     -11.426  12.190  63.775  1.00  0.00    -0.548 A  
HETATM   14  C   UNL     1     -12.174  12.849  64.748  1.00  0.00    -0.499 A  
ENDBRANCH   8   9
BRANCH   8  15
HETATM   15  C   UNL     1     -10.604   9.568  68.091  1.00  0.00    -0.265 A  
HETATM   16  C   UNL     1     -10.315   6.777  68.259  1.00  0.00    -0.187 A  
HETATM   17 CL   UNL     1     -10.228   5.062  68.356  1.00  0.00    -0.184 Cl 
HETATM   18  C   UNL     1     -10.455   7.528  69.421  1.00  0.00    -0.222 A  
HETATM   19  C   UNL     1     -10.413   8.793  66.930  1.00  0.00    -0.319 A  
HETATM   20  C   UNL     1     -10.599   8.914  69.337  1.00  0.00    -0.226 A  
HETATM   21  C   UNL     1     -10.281   7.404  67.015  1.00  0.00    -0.357 A  
ENDBRANCH   8  15
ENDBRANCH   5   8
TORSDOF 3
ENDMDL
MODEL      127
REMARK 921   NORMALIZED FREE ENERGY PREDICTED BY IDOCK:   -1.59 KCAL/MOL
REMARK 922        TOTAL FREE ENERGY PREDICTED BY IDOCK:   -2.13 KCAL/MOL
REMARK 923 INTER-LIGAND FREE ENERGY PREDICTED BY IDOCK:   -5.55 KCAL/MOL
REMARK 924 INTRA-LIGAND FREE ENERGY PREDICTED BY IDOCK:    3.43 KCAL/MOL
REMARK 927      BINDING AFFINITY PREDICTED BY RF-SCORE:    0.00 PKD
ROOT
HETATM    1  C   UNL     1     -10.529  18.482  65.863  1.00  0.00    -0.347 C  
HETATM    2  N   UNL     1     -10.038  17.772  67.044  1.00  0.00    -0.323 NA 
HETATM    3  C   UNL     1     -11.122  17.030  67.718  1.00  0.00    -0.090 C  
HETATM    4  C   UNL     1     -11.528  15.692  67.050  1.00  0.00     0.041 C  
HETATM    5  N   UNL     1     -10.406  14.764  66.772  1.00  0.00    -0.265 NA 
HETATM    6  C   UNL     1      -9.390  15.539  66.011  1.00  0.00    -0.344 C  
HETATM    7  C   UNL     1      -8.938  16.855  66.687  1.00  0.00    -0.252 C  
ENDROOT
BRANCH   5   8
HETATM    8  C   UNL     1      -9.839  14.148  68.016  1.00  0.00    -0.223 C  
BRANCH   8   9
HETATM    9  C   UNL     1      -8.398  14.597  68.307  1.00  0.00    -0.148 A  
HETATM   10  C   UNL     1      -8.153  15.571  69.293  1.00  0.00    -0.248 A  
HETATM   11  C   UNL     1      -7.285  13.999  67.686  1.00  0.00    -0.190 A  
HETATM   12  C   UNL     1      -6.850  15.919  69.662  1.00  0.00    -0.160 A  
HETATM   13  C   UNL     1      -5.763  15.308  69.039  1.00  0.00    -0.098 A  
HETATM   14  C   UNL     1      -5.981  14.357  68.044  1.00  0.00    -0.154 A  
ENDBRANCH   8   9
BRANCH   8  15
HETATM   15  C   UNL     1     -10.787  14.351  69.214  1.00  0.00    -0.261 A  
HETATM   16  C   UNL     1     -12.185  14.528  71.646  1.00  0.00    -0.331 A  
HETATM   17 CL   UNL     1     -12.974  14.591  73.174  1.00  0.00    -0.603 Cl 
HETATM   18  C   UNL     1     -12.416  13.454  70.793  1.00  0.00    -0.418 A  
HETATM   19  C   UNL     1     -10.605  15.454  70.070  1.00  0.00    -0.319 A  
HETATM   20  C   UNL     1     -11.721  13.366  69.586  1.00  0.00    -0.375 A  
HETATM   21  C   UNL     1     -11.293  15.535  71.284  1.00  0.00    -0.449 A  
ENDBRANCH   8  15
ENDBRANCH   5   8
TORSDOF 3
ENDMDL
MODEL      128
REMARK 921   NORMALIZED FREE ENERGY PREDICTED BY IDOCK:   -1.50 KCAL/MOL
REMARK 922        TOTAL FREE ENERGY PREDICTED BY IDOCK:   -2.03 KCAL/MOL
REMARK 923 INTER-LIGAND FREE ENERGY PREDICTED BY IDOCK:   -2.83 KCAL/MOL
REMARK 924 INTRA-LIGAND FREE ENERGY PREDICTED BY IDOCK:    0.81 KCAL/MOL
REMARK 927      BINDING AFFINITY PREDICTED BY RF-SCORE:    0.00 PKD
ROOT
HETATM    1  C   UNL     1      -9.483   8.909  66.897  1.00  0.00    -0.177 C  
HETATM    2  N   UNL     1      -8.631  10.047  66.555  1.00  0.00    -0.125 NA 
HETATM    3  C   UNL     1      -9.175  10.805  65.410  1.00  0.00    -0.205 C  
HETATM    4  C   UNL     1     -10.354  11.754  65.741  1.00  0.00    -0.253 C  
HETATM    5  N   UNL     1     -10.113  12.686  66.868  1.00  0.00    -0.227 NA 
HETATM    6  C   UNL     1      -9.660  11.857  68.017  1.00  0.00    -0.193 C  
HETATM    7  C   UNL     1      -8.452  10.939  67.718  1.00  0.00    -0.124 C  
ENDROOT
BRANCH   5   8
HETATM    8  C   UNL     1      -9.136  13.771  66.527  1.00  0.00    -0.129 C  
BRANCH   8   9
HETATM    9  C   UNL     1      -9.817  15.069  66.064  1.00  0.00    -0.347 A  
HETATM   10  C   UNL     1      -9.346  16.313  66.528  1.00  0.00    -0.298 A  
HETATM   11  C   UNL     1     -10.848  15.076  65.105  1.00  0.00    -0.422 A  
HETATM   12  C   UNL     1      -9.867  17.514  66.040  1.00  0.00    -0.195 A  
HETATM   13  C   UNL     1     -10.882  17.497  65.085  1.00  0.00     0.229 A  
HETATM   14  C   UNL     1     -11.380  16.279  64.627  1.00  0.00    -0.237 A  
ENDBRANCH   8   9
BRANCH   8  15
HETATM   15  C   UNL     1      -8.134  13.993  67.676  1.00  0.00    -0.180 A  
HETATM   16  C   UNL     1      -6.389  14.841  69.710  1.00  0.00    -0.152 A  
HETATM   17 CL   UNL     1      -5.337  15.446  70.930  1.00  0.00    -0.133 Cl 
HETATM   18  C   UNL     1      -5.890  14.573  68.440  1.00  0.00    -0.105 A  
HETATM   19  C   UNL     1      -8.609  14.223  68.982  1.00  0.00     0.060 A  
HETATM   20  C   UNL     1      -6.757  14.152  67.430  1.00  0.00     0.012 A  
HETATM   21  C   UNL     1      -7.741  14.656  69.990  1.00  0.00     0.370 A  
ENDBRANCH   8  15
ENDBRANCH   5   8
TORSDOF 3
ENDMDL
MODEL      129
REMARK 921   NORMALIZED FREE ENERGY PREDICTED BY IDOCK:   -1.36 KCAL/MOL
REMARK 922        TOTAL FREE ENERGY PREDICTED BY IDOCK:   -1.86 KCAL/MOL
REMARK 923 INTER-LIGAND FREE ENERGY PREDICTED BY IDOCK:   -3.46 KCAL/MOL
REMARK 924 INTRA-LIGAND FREE ENERGY PREDICTED BY IDOCK:    1.60 KCAL/MOL
REMARK 927      BINDING AFFINITY PREDICTED BY RF-SCORE:    0.00 PKD
ROOT
HETATM    1  C   UNL     1     -12.228  14.934  66.182  1.00  0.00     0.108 C  
HETATM    2  N   UNL     1     -11.557  14.246  67.285  1.00  0.00    -0.358 NA 
HETATM    3  C   UNL     1     -11.969  12.831  67.372  1.00  0.00    -0.272 C  
HETATM    4  C   UNL     1     -11.306  11.882  66.342  1.00  0.00    -0.339 C  
HETATM    5  N   UNL     1      -9.826  11.952  66.285  1.00  0.00    -0.219 NA 
HETATM    6  C   UNL     1      -9.474  13.386  66.103  1.00  0.00    -0.140 C  
HETATM    7  C   UNL     1     -10.090  14.343  67.151  1.00  0.00    -0.253 C  
ENDROOT
BRANCH   5   8
HETATM    8  C   UNL     1      -9.169  11.352  67.492  1.00  0.00    -0.160 C  
BRANCH   8   9
HETATM    9  C   UNL     1     -10.175  10.764  68.495  1.00  0.00    -0.192 A  
HETATM   10  C   UNL     1     -10.328   9.368  68.597  1.00  0.00    -0.227 A  
HETATM   11  C   UNL     1     -10.894  11.570  69.398  1.00  0.00    -0.180 A  
HETATM   12  C   UNL     1     -11.149   8.797  69.575  1.00  0.00     0.006 A  
HETATM   13  C   UNL     1     -11.844   9.615  70.463  1.00  0.00    -0.284 A  
HETATM   14  C   UNL     1     -11.726  11.000  70.367  1.00  0.00    -0.437 A  
ENDBRANCH   8   9
BRANCH   8  15
HETATM   15  C   UNL     1      -8.071  10.352  67.082  1.00  0.00    -0.115 A  
HETATM   16  C   UNL     1      -6.268   8.243  66.630  1.00  0.00    -0.054 A  
HETATM   17 CL   UNL     1      -5.205   6.906  66.421  1.00  0.00    -0.021 Cl 
HETATM   18  C   UNL     1      -5.942   9.248  67.535  1.00  0.00    -0.049 A  
HETATM   19  C   UNL     1      -8.358   9.349  66.135  1.00  0.00    -0.118 A  
HETATM   20  C   UNL     1      -6.839  10.295  67.759  1.00  0.00    -0.075 A  
HETATM   21  C   UNL     1      -7.465   8.295  65.920  1.00  0.00    -0.081 A  
ENDBRANCH   8  15
ENDBRANCH   5   8
TORSDOF 3
ENDMDL
MODEL      130
REMARK 921   NORMALIZED FREE ENERGY PREDICTED BY IDOCK:   -1.21 KCAL/MOL
REMARK 922        TOTAL FREE ENERGY PREDICTED BY IDOCK:   -1.68 KCAL/MOL
REMARK 923 INTER-LIGAND FREE ENERGY PREDICTED BY IDOCK:   -3.25 KCAL/MOL
REMARK 924 INTRA-LIGAND FREE ENERGY PREDICTED BY IDOCK:    1.57 KCAL/MOL
REMARK 927      BINDING AFFINITY PREDICTED BY RF-SCORE:    0.00 PKD
ROOT
HETATM    1  C   UNL     1      -6.346   6.417  72.386  1.00  0.00    -0.054 C  
HETATM    2  N   UNL     1      -7.665   6.511  71.760  1.00  0.00    -0.094 NA 
HETATM    3  C   UNL     1      -8.510   7.522  72.427  1.00  0.00    -0.108 C  
HETATM    4  C   UNL     1      -8.200   8.995  72.058  1.00  0.00     0.293 C  
HETATM    5  N   UNL     1      -8.158   9.282  70.604  1.00  0.00    -0.168 NA 
HETATM    6  C   UNL     1      -7.221   8.296  70.002  1.00  0.00    -0.059 C  
HETATM    7  C   UNL     1      -7.543   6.818  70.321  1.00  0.00    -0.096 C  
ENDROOT
BRANCH   5   8
HETATM    8  C   UNL     1      -9.513   9.246  69.965  1.00  0.00    -0.211 C  
BRANCH   8   9
HETATM    9  C   UNL     1      -9.923  10.594  69.348  1.00  0.00    -0.183 A  
HETATM   10  C   UNL     1      -9.128  11.175  68.341  1.00  0.00    -0.168 A  
HETATM   11  C   UNL     1     -11.129  11.239  69.684  1.00  0.00    -0.273 A  
HETATM   12  C   UNL     1      -9.531  12.339  67.681  1.00  0.00    -0.188 A  
HETATM   13  C   UNL     1     -10.732  12.956  68.025  1.00  0.00    -0.244 A  
HETATM   14  C   UNL     1     -11.524  12.412  69.034  1.00  0.00    -0.352 A  
ENDBRANCH   8   9
BRANCH   8  15
HETATM   15  C   UNL     1      -9.625   8.071  68.974  1.00  0.00    -0.156 A  
HETATM   16  C   UNL     1     -10.129   6.191  66.946  1.00  0.00    -0.183 A  
HETATM   17 CL   UNL     1     -10.501   5.096  65.672  1.00  0.00    -0.062 Cl 
HETATM   18  C   UNL     1     -10.820   6.110  68.150  1.00  0.00    -0.389 A  
HETATM   19  C   UNL     1      -8.903   8.105  67.766  1.00  0.00    -0.130 A  
HETATM   20  C   UNL     1     -10.570   7.044  69.157  1.00  0.00    -0.235 A  
HETATM   21  C   UNL     1      -9.163   7.176  66.754  1.00  0.00    -0.188 A  
ENDBRANCH   8  15
ENDBRANCH   5   8
TORSDOF 3
ENDMDL
MODEL      131
REMARK 921   NORMALIZED FREE ENERGY PREDICTED BY IDOCK:   -1.20 KCAL/MOL
REMARK 922        TOTAL FREE ENERGY PREDICTED BY IDOCK:   -1.68 KCAL/MOL
REMARK 923 INTER-LIGAND FREE ENERGY PREDICTED BY IDOCK:   -5.69 KCAL/MOL
REMARK 924 INTRA-LIGAND FREE ENERGY PREDICTED BY IDOCK:    4.01 KCAL/MOL
REMARK 927      BINDING AFFINITY PREDICTED BY RF-SCORE:    0.00 PKD
ROOT
HETATM    1  C   UNL     1      -9.963  13.155  64.734  1.00  0.00    -0.125 C  
HETATM    2  N   UNL     1     -10.335  14.234  65.650  1.00  0.00    -0.319 NA 
HETATM    3  C   UNL     1     -10.946  13.706  66.887  1.00  0.00    -0.289 C  
HETATM    4  C   UNL     1      -9.951  13.130  67.926  1.00  0.00    -0.233 C  
HETATM    5  N   UNL     1      -8.829  14.029  68.286  1.00  0.00    -0.180 NA 
HETATM    6  C   UNL     1      -8.194  14.451  67.009  1.00  0.00    -0.109 C  
HETATM    7  C   UNL     1      -9.165  15.073  65.977  1.00  0.00    -0.210 C  
ENDROOT
BRANCH   5   8
HETATM    8  C   UNL     1      -9.263  15.197  69.121  1.00  0.00    -0.215 C  
BRANCH   8   9
HETATM    9  C   UNL     1      -9.143  16.540  68.383  1.00  0.00    -0.222 A  
HETATM   10  C   UNL     1     -10.249  17.054  67.678  1.00  0.00    -0.317 A  
HETATM   11  C   UNL     1      -7.987  17.341  68.462  1.00  0.00    -0.261 A  
HETATM   12  C   UNL     1     -10.210  18.323  67.093  1.00  0.00    -0.387 A  
HETATM   13  C   UNL     1      -9.058  19.100  67.190  1.00  0.00    -0.324 A  
HETATM   14  C   UNL     1      -7.944  18.605  67.864  1.00  0.00    -0.278 A  
ENDBRANCH   8   9
BRANCH   8  15
HETATM   15  C   UNL     1     -10.663  14.959  69.717  1.00  0.00    -0.223 A  
HETATM   16  C   UNL     1     -13.009  14.545  71.210  1.00  0.00    -0.333 A  
HETATM   17 CL   UNL     1     -14.394  14.289  72.198  1.00  0.00    -0.618 Cl 
HETATM   18  C   UNL     1     -12.310  13.453  70.706  1.00  0.00    -0.433 A  
HETATM   19  C   UNL     1     -11.414  16.050  70.196  1.00  0.00    -0.350 A  
HETATM   20  C   UNL     1     -11.144  13.659  69.965  1.00  0.00     0.179 A  
HETATM   21  C   UNL     1     -12.575  15.842  70.948  1.00  0.00    -0.437 A  
ENDBRANCH   8  15
ENDBRANCH   5   8
TORSDOF 3
ENDMDL
MODEL      132
REMARK 921   NORMALIZED FREE ENERGY PREDICTED BY IDOCK:   -1.17 KCAL/MOL
REMARK 922        TOTAL FREE ENERGY PREDICTED BY IDOCK:   -1.64 KCAL/MOL
REMARK 923 INTER-LIGAND FREE ENERGY PREDICTED BY IDOCK:   -4.55 KCAL/MOL
REMARK 924 INTRA-LIGAND FREE ENERGY PREDICTED BY IDOCK:    2.91 KCAL/MOL
REMARK 927      BINDING AFFINITY PREDICTED BY RF-SCORE:    0.00 PKD
ROOT
HETATM    1  C   UNL     1     -10.085   8.298  66.789  1.00  0.00    -0.303 C  
HETATM    2  N   UNL     1     -10.602   8.390  68.154  1.00  0.00    -0.165 NA 
HETATM    3  C   UNL     1     -11.078   7.079  68.640  1.00  0.00    -0.014 C  
HETATM    4  C   UNL     1      -9.970   6.097  69.097  1.00  0.00    -0.154 C  
HETATM    5  N   UNL     1      -9.003   6.653  70.073  1.00  0.00    -0.144 NA 
HETATM    6  C   UNL     1      -8.487   7.920  69.488  1.00  0.00    -0.133 C  
HETATM    7  C   UNL     1      -9.579   8.932  69.069  1.00  0.00    -0.158 C  
ENDROOT
BRANCH   5   8
HETATM    8  C   UNL     1      -9.599   6.855  71.434  1.00  0.00    -0.166 C  
BRANCH   8   9
HETATM    9  C   UNL     1     -10.976   7.536  71.392  1.00  0.00    -0.254 A  
HETATM   10  C   UNL     1     -12.144   6.753  71.313  1.00  0.00    -0.421 A  
HETATM   11  C   UNL     1     -11.130   8.929  71.526  1.00  0.00    -0.397 A  
HETATM   12  C   UNL     1     -13.414   7.334  71.388  1.00  0.00    -0.400 A  
HETATM   13  C   UNL     1     -13.541   8.714  71.529  1.00  0.00    -0.356 A  
HETATM   14  C   UNL     1     -12.400   9.512  71.586  1.00  0.00    -0.480 A  
ENDBRANCH   8   9
BRANCH   8  15
HETATM   15  C   UNL     1      -9.602   5.539  72.236  1.00  0.00    -0.173 A  
HETATM   16  C   UNL     1      -9.174   3.095  73.558  1.00  0.00    -0.084 A  
HETATM   17 CL   UNL     1      -8.830   1.596  74.328  1.00  0.00    -0.054 Cl 
HETATM   18  C   UNL     1      -9.766   3.105  72.300  1.00  0.00    -0.224 A  
HETATM   19  C   UNL     1      -9.048   5.508  73.530  1.00  0.00    -0.128 A  
HETATM   20  C   UNL     1      -9.978   4.319  71.643  1.00  0.00    -0.250 A  
HETATM   21  C   UNL     1      -8.825   4.291  74.182  1.00  0.00    -0.095 A  
ENDBRANCH   8  15
ENDBRANCH   5   8
TORSDOF 3
ENDMDL
MODEL      133
REMARK 921   NORMALIZED FREE ENERGY PREDICTED BY IDOCK:   -1.17 KCAL/MOL
REMARK 922        TOTAL FREE ENERGY PREDICTED BY IDOCK:   -1.63 KCAL/MOL
REMARK 923 INTER-LIGAND FREE ENERGY PREDICTED BY IDOCK:   -5.29 KCAL/MOL
REMARK 924 INTRA-LIGAND FREE ENERGY PREDICTED BY IDOCK:    3.66 KCAL/MOL
REMARK 927      BINDING AFFINITY PREDICTED BY RF-SCORE:    0.00 PKD
ROOT
HETATM    1  C   UNL     1     -12.349  12.681  64.069  1.00  0.00    -0.443 C  
HETATM    2  N   UNL     1     -11.256  12.564  65.035  1.00  0.00    -0.297 NA 
HETATM    3  C   UNL     1     -10.425  13.784  65.062  1.00  0.00    -0.402 C  
HETATM    4  C   UNL     1     -11.024  14.979  65.845  1.00  0.00    -0.343 C  
HETATM    5  N   UNL     1     -11.469  14.666  67.224  1.00  0.00    -0.360 NA 
HETATM    6  C   UNL     1     -12.376  13.491  67.123  1.00  0.00    -0.173 C  
HETATM    7  C   UNL     1     -11.776  12.271  66.385  1.00  0.00    -0.365 C  
ENDROOT
BRANCH   5   8
HETATM    8  C   UNL     1     -10.326  14.425  68.164  1.00  0.00    -0.231 C  
BRANCH   8   9
HETATM    9  C   UNL     1      -9.745  13.006  68.052  1.00  0.00    -0.224 A  
HETATM   10  C   UNL     1      -8.579  12.784  67.294  1.00  0.00    -0.197 A  
HETATM   11  C   UNL     1     -10.281  11.916  68.763  1.00  0.00    -0.158 A  
HETATM   12  C   UNL     1      -7.960  11.530  67.265  1.00  0.00    -0.153 A  
HETATM   13  C   UNL     1      -8.505  10.468  67.984  1.00  0.00    -0.120 A  
HETATM   14  C   UNL     1      -9.671  10.658  68.722  1.00  0.00    -0.193 A  
ENDBRANCH   8   9
BRANCH   8  15
HETATM   15  C   UNL     1      -9.258  15.527  68.027  1.00  0.00    -0.187 A  
HETATM   16  C   UNL     1      -7.569  17.695  67.437  1.00  0.00    -0.198 A  
HETATM   17 CL   UNL     1      -6.588  19.041  67.004  1.00  0.00    -0.196 Cl 
HETATM   18  C   UNL     1      -7.302  16.443  66.892  1.00  0.00    -0.269 A  
HETATM   19  C   UNL     1      -9.481  16.792  68.605  1.00  0.00    -0.255 A  
HETATM   20  C   UNL     1      -8.141  15.367  67.185  1.00  0.00    -0.249 A  
HETATM   21  C   UNL     1      -8.646  17.872  68.301  1.00  0.00    -0.277 A  
ENDBRANCH   8  15
ENDBRANCH   5   8
TORSDOF 3
ENDMDL
MODEL      134
REMARK 921   NORMALIZED FREE ENERGY PREDICTED BY IDOCK:   -1.13 KCAL/MOL
REMARK 922        TOTAL FREE ENERGY PREDICTED BY IDOCK:   -1.59 KCAL/MOL
REMARK 923 INTER-LIGAND FREE ENERGY PREDICTED BY IDOCK:   -3.55 KCAL/MOL
REMARK 924 INTRA-LIGAND FREE ENERGY PREDICTED BY IDOCK:    1.95 KCAL/MOL
REMARK 927      BINDING AFFINITY PREDICTED BY RF-SCORE:    0.00 PKD
ROOT
HETATM    1  C   UNL     1     -10.017  19.163  67.365  1.00  0.00    -0.351 C  
HETATM    2  N   UNL     1     -10.177  17.861  68.013  1.00  0.00    -0.357 NA 
HETATM    3  C   UNL     1     -11.184  17.033  67.320  1.00  0.00     0.260 C  
HETATM    4  C   UNL     1     -10.700  16.352  66.015  1.00  0.00    -0.191 C  
HETATM    5  N   UNL     1      -9.441  15.581  66.139  1.00  0.00    -0.314 NA 
HETATM    6  C   UNL     1      -8.440  16.494  66.753  1.00  0.00    -0.238 C  
HETATM    7  C   UNL     1      -8.888  17.146  68.083  1.00  0.00    -0.237 C  
ENDROOT
BRANCH   5   8
HETATM    8  C   UNL     1      -9.610  14.312  66.919  1.00  0.00    -0.262 C  
BRANCH   8   9
HETATM    9  C   UNL     1      -9.709  13.065  66.024  1.00  0.00    -0.223 A  
HETATM   10  C   UNL     1      -9.044  11.881  66.395  1.00  0.00    -0.208 A  
HETATM   11  C   UNL     1     -10.526  13.026  64.878  1.00  0.00    -0.358 A  
HETATM   12  C   UNL     1      -9.206  10.699  65.666  1.00  0.00    -0.227 A  
HETATM   13  C   UNL     1     -10.027  10.682  64.540  1.00  0.00    -0.410 A  
HETATM   14  C   UNL     1     -10.677  11.847  64.140  1.00  0.00    -0.402 A  
ENDBRANCH   8   9
BRANCH   8  15
HETATM   15  C   UNL     1      -8.529  14.186  68.009  1.00  0.00    -0.171 A  
HETATM   16  C   UNL     1      -6.456  14.391  69.898  1.00  0.00    -0.152 A  
HETATM   17 CL   UNL     1      -5.169  14.599  71.021  1.00  0.00    -0.127 Cl 
HETATM   18  C   UNL     1      -6.197  13.849  68.643  1.00  0.00    -0.089 A  
HETATM   19  C   UNL     1      -8.779  14.687  69.302  1.00  0.00     0.035 A  
HETATM   20  C   UNL     1      -7.226  13.748  67.706  1.00  0.00    -0.169 A  
HETATM   21  C   UNL     1      -7.744  14.799  70.236  1.00  0.00     0.642 A  
ENDBRANCH   8  15
ENDBRANCH   5   8
TORSDOF 3
ENDMDL
MODEL      135
REMARK 921   NORMALIZED FREE ENERGY PREDICTED BY IDOCK:   -1.08 KCAL/MOL
REMARK 922        TOTAL FREE ENERGY PREDICTED BY IDOCK:   -1.54 KCAL/MOL
REMARK 923 INTER-LIGAND FREE ENERGY PREDICTED BY IDOCK:   -5.10 KCAL/MOL
REMARK 924 INTRA-LIGAND FREE ENERGY PREDICTED BY IDOCK:    3.56 KCAL/MOL
REMARK 927      BINDING AFFINITY PREDICTED BY RF-SCORE:    0.00 PKD
ROOT
HETATM    1  C   UNL     1      -6.556   8.285  73.150  1.00  0.00    -0.104 C  
HETATM    2  N   UNL     1      -7.396   7.295  72.476  1.00  0.00    -0.075 NA 
HETATM    3  C   UNL     1      -8.507   6.850  73.341  1.00  0.00    -0.120 C  
HETATM    4  C   UNL     1      -9.702   7.832  73.446  1.00  0.00    -0.290 C  
HETATM    5  N   UNL     1     -10.253   8.291  72.149  1.00  0.00    -0.258 NA 
HETATM    6  C   UNL     1      -9.106   8.815  71.360  1.00  0.00    -0.243 C  
HETATM    7  C   UNL     1      -7.923   7.830  71.205  1.00  0.00    -0.090 C  
ENDROOT
BRANCH   5   8
HETATM    8  C   UNL     1     -11.002   7.216  71.421  1.00  0.00    -0.234 C  
BRANCH   8   9
HETATM    9  C   UNL     1     -10.803   7.270  69.898  1.00  0.00    -0.264 A  
HETATM   10  C   UNL     1     -10.892   6.089  69.136  1.00  0.00    -0.422 A  
HETATM   11  C   UNL     1     -10.627   8.484  69.206  1.00  0.00    -0.193 A  
HETATM   12  C   UNL     1     -10.830   6.119  67.740  1.00  0.00    -0.413 A  
HETATM   13  C   UNL     1     -10.663   7.333  67.076  1.00  0.00    -0.406 A  
HETATM   14  C   UNL     1     -10.550   8.512  67.809  1.00  0.00    -0.242 A  
ENDBRANCH   8   9
BRANCH   8  15
HETATM   15  C   UNL     1     -10.698   5.829  72.020  1.00  0.00    -0.285 A  
HETATM   16  C   UNL     1     -10.459   3.145  72.821  1.00  0.00    -0.128 A  
HETATM   17 CL   UNL     1     -10.382   1.483  73.257  1.00  0.00    -0.161 Cl 
HETATM   18  C   UNL     1     -11.284   4.008  73.535  1.00  0.00    -0.325 A  
HETATM   19  C   UNL     1      -9.832   4.950  71.342  1.00  0.00    -0.252 A  
HETATM   20  C   UNL     1     -11.402   5.341  73.137  1.00  0.00    -0.358 A  
HETATM   21  C   UNL     1      -9.723   3.612  71.735  1.00  0.00    -0.233 A  
ENDBRANCH   8  15
ENDBRANCH   5   8
TORSDOF 3
ENDMDL
MODEL      136
REMARK 921   NORMALIZED FREE ENERGY PREDICTED BY IDOCK:   -0.93 KCAL/MOL
REMARK 922        TOTAL FREE ENERGY PREDICTED BY IDOCK:   -1.36 KCAL/MOL
REMARK 923 INTER-LIGAND FREE ENERGY PREDICTED BY IDOCK:   -5.19 KCAL/MOL
REMARK 924 INTRA-LIGAND FREE ENERGY PREDICTED BY IDOCK:    3.83 KCAL/MOL
REMARK 927      BINDING AFFINITY PREDICTED BY RF-SCORE:    0.00 PKD
ROOT
HETATM    1  C   UNL     1      -5.776   9.822  65.807  1.00  0.00    -0.052 C  
HETATM    2  N   UNL     1      -6.945  10.629  66.155  1.00  0.00    -0.130 NA 
HETATM    3  C   UNL     1      -7.980  10.564  65.103  1.00  0.00    -0.094 C  
HETATM    4  C   UNL     1      -8.839   9.275  65.095  1.00  0.00    -0.198 C  
HETATM    5  N   UNL     1      -9.451   8.920  66.398  1.00  0.00    -0.200 NA 
HETATM    6  C   UNL     1      -8.349   8.908  67.397  1.00  0.00    -0.108 C  
HETATM    7  C   UNL     1      -7.510  10.206  67.452  1.00  0.00    -0.094 C  
ENDROOT
BRANCH   5   8
HETATM    8  C   UNL     1     -10.565   9.844  66.789  1.00  0.00    -0.144 C  
BRANCH   8   9
HETATM    9  C   UNL     1     -10.906   9.775  68.286  1.00  0.00    -0.256 A  
HETATM   10  C   UNL     1     -10.346   8.761  69.087  1.00  0.00    -0.227 A  
HETATM   11  C   UNL     1     -11.693  10.753  68.924  1.00  0.00    -0.338 A  
HETATM   12  C   UNL     1     -10.543   8.736  70.471  1.00  0.00    -0.252 A  
HETATM   13  C   UNL     1     -11.320   9.720  71.081  1.00  0.00    -0.459 A  
HETATM   14  C   UNL     1     -11.903  10.720  70.306  1.00  0.00    -0.438 A  
ENDBRANCH   8   9
BRANCH   8  15
HETATM   15  C   UNL     1     -10.290  11.279  66.298  1.00  0.00    -0.294 A  
HETATM   16  C   UNL     1     -10.190  13.998  65.594  1.00  0.00    -0.334 A  
HETATM   17 CL   UNL     1     -10.214  15.672  65.195  1.00  0.00    -0.357 Cl 
HETATM   18  C   UNL     1     -10.659  13.064  64.676  1.00  0.00    -0.397 A  
HETATM   19  C   UNL     1      -9.774  12.236  67.194  1.00  0.00    -0.203 A  
HETATM   20  C   UNL     1     -10.709  11.713  65.027  1.00  0.00    -0.351 A  
HETATM   21  C   UNL     1      -9.736  13.590  66.845  1.00  0.00    -0.261 A  
ENDBRANCH   8  15
ENDBRANCH   5   8
TORSDOF 3
ENDMDL
MODEL      137
REMARK 921   NORMALIZED FREE ENERGY PREDICTED BY IDOCK:   -0.81 KCAL/MOL
REMARK 922        TOTAL FREE ENERGY PREDICTED BY IDOCK:   -1.21 KCAL/MOL
REMARK 923 INTER-LIGAND FREE ENERGY PREDICTED BY IDOCK:   -4.54 KCAL/MOL
REMARK 924 INTRA-LIGAND FREE ENERGY PREDICTED BY IDOCK:    3.33 KCAL/MOL
REMARK 927      BINDING AFFINITY PREDICTED BY RF-SCORE:    0.00 PKD
ROOT
HETATM    1  C   UNL     1      -6.559  10.002  70.084  1.00  0.00    -0.117 C  
HETATM    2  N   UNL     1      -7.205   9.620  68.828  1.00  0.00    -0.071 NA 
HETATM    3  C   UNL     1      -8.024   8.402  68.989  1.00  0.00    -0.111 C  
HETATM    4  C   UNL     1      -9.402   8.613  69.665  1.00  0.00    -0.161 C  
HETATM    5  N   UNL     1     -10.237   9.682  69.067  1.00  0.00    -0.190 NA 
HETATM    6  C   UNL     1      -9.392  10.905  69.018  1.00  0.00    -0.131 C  
HETATM    7  C   UNL     1      -8.032  10.725  68.305  1.00  0.00    -0.118 C  
ENDROOT
BRANCH   5   8
HETATM    8  C   UNL     1     -10.782   9.310  67.720  1.00  0.00    -0.207 C  
BRANCH   8   9
HETATM    9  C   UNL     1     -10.656  10.442  66.688  1.00  0.00    -0.245 A  
HETATM   10  C   UNL     1     -11.371  11.641  66.870  1.00  0.00    -0.364 A  
HETATM   11  C   UNL     1      -9.768  10.369  65.597  1.00  0.00    -0.294 A  
HETATM   12  C   UNL     1     -11.192  12.731  66.013  1.00  0.00    -0.335 A  
HETATM   13  C   UNL     1     -10.302  12.638  64.945  1.00  0.00    -0.330 A  
HETATM   14  C   UNL     1      -9.599  11.454  64.731  1.00  0.00    -0.239 A  
ENDBRANCH   8   9
BRANCH   8  15
HETATM   15  C   UNL     1     -10.183   7.978  67.231  1.00  0.00    -0.345 A  
HETATM   16  C   UNL     1      -9.352   5.606  65.971  1.00  0.00    -0.134 A  
HETATM   17 CL   UNL     1      -8.905   4.171  65.134  1.00  0.00    -0.125 Cl 
HETATM   18  C   UNL     1     -10.374   5.566  66.913  1.00  0.00    -0.315 A  
HETATM   19  C   UNL     1      -9.117   7.987  66.310  1.00  0.00    -0.232 A  
HETATM   20  C   UNL     1     -10.787   6.744  67.538  1.00  0.00    -0.388 A  
HETATM   21  C   UNL     1      -8.713   6.808  65.675  1.00  0.00    -0.086 A  
ENDBRANCH   8  15
ENDBRANCH   5   8
TORSDOF 3
ENDMDL
MODEL      138
REMARK 921   NORMALIZED FREE ENERGY PREDICTED BY IDOCK:   -0.73 KCAL/MOL
REMARK 922        TOTAL FREE ENERGY PREDICTED BY IDOCK:   -1.12 KCAL/MOL
REMARK 923 INTER-LIGAND FREE ENERGY PREDICTED BY IDOCK:   -4.47 KCAL/MOL
REMARK 924 INTRA-LIGAND FREE ENERGY PREDICTED BY IDOCK:    3.36 KCAL/MOL
REMARK 927      BINDING AFFINITY PREDICTED BY RF-SCORE:    0.00 PKD
ROOT
HETATM    1  C   UNL     1     -10.312   2.749  74.506  1.00  0.00    -0.152 C  
HETATM    2  N   UNL     1     -10.671   3.633  73.396  1.00  0.00    -0.193 NA 
HETATM    3  C   UNL     1     -10.672   5.050  73.811  1.00  0.00    -0.301 C  
HETATM    4  C   UNL     1      -9.274   5.711  73.920  1.00  0.00    -0.126 C  
HETATM    5  N   UNL     1      -8.413   5.557  72.723  1.00  0.00    -0.120 NA 
HETATM    6  C   UNL     1      -8.373   4.103  72.410  1.00  0.00    -0.100 C  
HETATM    7  C   UNL     1      -9.760   3.437  72.251  1.00  0.00    -0.152 C  
ENDROOT
BRANCH   5   8
HETATM    8  C   UNL     1      -8.881   6.379  71.559  1.00  0.00    -0.137 C  
BRANCH   8   9
HETATM    9  C   UNL     1      -8.727   5.655  70.212  1.00  0.00    -0.134 A  
HETATM   10  C   UNL     1      -7.445   5.302  69.748  1.00  0.00    -0.065 A  
HETATM   11  C   UNL     1      -9.836   5.238  69.452  1.00  0.00    -0.265 A  
HETATM   12  C   UNL     1      -7.278   4.544  68.585  1.00  0.00    -0.056 A  
HETATM   13  C   UNL     1      -8.391   4.135  67.853  1.00  0.00    -0.097 A  
HETATM   14  C   UNL     1      -9.669   4.492  68.280  1.00  0.00    -0.186 A  
ENDBRANCH   8   9
BRANCH   8  15
HETATM   15  C   UNL     1     -10.306   6.912  71.798  1.00  0.00    -0.217 A  
HETATM   16  C   UNL     1     -12.863   8.081  71.825  1.00  0.00    -0.332 A  
HETATM   17 CL   UNL     1     -14.407   8.838  71.763  1.00  0.00    -0.440 Cl 
HETATM   18  C   UNL     1     -11.801   8.729  72.447  1.00  0.00    -0.356 A  
HETATM   19  C   UNL     1     -11.406   6.251  71.217  1.00  0.00    -0.356 A  
HETATM   20  C   UNL     1     -10.531   8.148  72.433  1.00  0.00    -0.389 A  
HETATM   21  C   UNL     1     -12.675   6.840  71.221  1.00  0.00    -0.299 A  
ENDBRANCH   8  15
ENDBRANCH   5   8
TORSDOF 3
ENDMDL
MODEL      139
REMARK 921   NORMALIZED FREE ENERGY PREDICTED BY IDOCK:   -0.59 KCAL/MOL
REMARK 922        TOTAL FREE ENERGY PREDICTED BY IDOCK:   -0.95 KCAL/MOL
REMARK 923 INTER-LIGAND FREE ENERGY PREDICTED BY IDOCK:   -4.48 KCAL/MOL
REMARK 924 INTRA-LIGAND FREE ENERGY PREDICTED BY IDOCK:    3.53 KCAL/MOL
REMARK 927      BINDING AFFINITY PREDICTED BY RF-SCORE:    0.00 PKD
ROOT
HETATM    1  C   UNL     1     -11.267  11.447  67.352  1.00  0.00    -0.305 C  
HETATM    2  N   UNL     1     -11.345  10.102  67.921  1.00  0.00    -0.254 NA 
HETATM    3  C   UNL     1     -10.631   9.118  67.083  1.00  0.00    -0.216 C  
HETATM    4  C   UNL     1      -9.088   9.118  67.226  1.00  0.00    -0.126 C  
HETATM    5  N   UNL     1      -8.588   9.021  68.618  1.00  0.00    -0.128 NA 
HETATM    6  C   UNL     1      -9.268  10.095  69.392  1.00  0.00    -0.214 C  
HETATM    7  C   UNL     1     -10.812  10.081  69.297  1.00  0.00    -0.230 C  
ENDROOT
BRANCH   5   8
HETATM    8  C   UNL     1      -8.797   7.664  69.220  1.00  0.00    -0.136 C  
BRANCH   8   9
HETATM    9  C   UNL     1      -9.963   7.624  70.221  1.00  0.00    -0.189 A  
HETATM   10  C   UNL     1     -11.195   7.056  69.840  1.00  0.00    -0.286 A  
HETATM   11  C   UNL     1      -9.824   8.051  71.555  1.00  0.00    -0.217 A  
HETATM   12  C   UNL     1     -12.237   6.900  70.759  1.00  0.00    -0.364 A  
HETATM   13  C   UNL     1     -12.073   7.323  72.076  1.00  0.00    -0.327 A  
HETATM   14  C   UNL     1     -10.872   7.908  72.471  1.00  0.00    -0.403 A  
ENDBRANCH   8   9
BRANCH   8  15
HETATM   15  C   UNL     1      -8.905   6.586  68.125  1.00  0.00    -0.115 A  
HETATM   16  C   UNL     1      -9.200   4.334  66.468  1.00  0.00    -0.149 A  
HETATM   17 CL   UNL     1      -9.392   2.905  65.529  1.00  0.00    -0.125 Cl 
HETATM   18  C   UNL     1      -7.934   4.706  66.909  1.00  0.00    -0.102 A  
HETATM   19  C   UNL     1     -10.170   6.219  67.627  1.00  0.00    -0.206 A  
HETATM   20  C   UNL     1      -7.788   5.824  67.732  1.00  0.00    -0.098 A  
HETATM   21  C   UNL     1     -10.317   5.092  66.813  1.00  0.00    -0.290 A  
ENDBRANCH   8  15
ENDBRANCH   5   8
TORSDOF 3
ENDMDL
MODEL      140
REMARK 921   NORMALIZED FREE ENERGY PREDICTED BY IDOCK:   -0.34 KCAL/MOL
REMARK 922        TOTAL FREE ENERGY PREDICTED BY IDOCK:   -0.66 KCAL/MOL
REMARK 923 INTER-LIGAND FREE ENERGY PREDICTED BY IDOCK:   -4.59 KCAL/MOL
REMARK 924 INTRA-LIGAND FREE ENERGY PREDICTED BY IDOCK:    3.93 KCAL/MOL
REMARK 927      BINDING AFFINITY PREDICTED BY RF-SCORE:    0.00 PKD
ROOT
HETATM    1  C   UNL     1     -10.074   8.168  67.728  1.00  0.00    -0.204 C  
HETATM    2  N   UNL     1     -10.631   7.703  68.999  1.00  0.00    -0.204 NA 
HETATM    3  C   UNL     1      -9.573   7.211  69.905  1.00  0.00    -0.163 C  
HETATM    4  C   UNL     1      -8.759   8.310  70.633  1.00  0.00    -0.138 C  
HETATM    5  N   UNL     1      -9.571   9.326  71.344  1.00  0.00    -0.257 NA 
HETATM    6  C   UNL     1     -10.553   9.852  70.359  1.00  0.00    -0.302 C  
HETATM    7  C   UNL     1     -11.408   8.771  69.656  1.00  0.00     0.179 C  
ENDROOT
BRANCH   5   8
HETATM    8  C   UNL     1     -10.233   8.784  72.576  1.00  0.00    -0.038 C  
BRANCH   8   9
HETATM    9  C   UNL     1     -11.684   8.339  72.332  1.00  0.00    -0.463 A  
HETATM   10  C   UNL     1     -12.707   9.303  72.240  1.00  0.00    -0.435 A  
HETATM   11  C   UNL     1     -12.029   6.994  72.098  1.00  0.00    -0.299 A  
HETATM   12  C   UNL     1     -14.016   8.942  71.906  1.00  0.00    -0.476 A  
HETATM   13  C   UNL     1     -14.332   7.605  71.672  1.00  0.00    -0.613 A  
HETATM   14  C   UNL     1     -13.341   6.631  71.779  1.00  0.00    -0.077 A  
ENDBRANCH   8   9
BRANCH   8  15
HETATM   15  C   UNL     1      -9.369   7.690  73.231  1.00  0.00    -0.299 A  
HETATM   16  C   UNL     1      -7.570   5.682  74.027  1.00  0.00    -0.093 A  
HETATM   17 CL   UNL     1      -6.436   4.451  74.429  1.00  0.00    -0.055 Cl 
HETATM   18  C   UNL     1      -8.826   5.331  73.542  1.00  0.00    -0.116 A  
HETATM   19  C   UNL     1      -8.110   8.022  73.770  1.00  0.00    -0.279 A  
HETATM   20  C   UNL     1      -9.718   6.329  73.146  1.00  0.00    -0.164 A  
HETATM   21  C   UNL     1      -7.213   7.021  74.154  1.00  0.00    -0.094 A  
ENDBRANCH   8  15
ENDBRANCH   5   8
TORSDOF 3
ENDMDL
MODEL      141
REMARK 921   NORMALIZED FREE ENERGY PREDICTED BY IDOCK:   -0.33 KCAL/MOL
REMARK 922        TOTAL FREE ENERGY PREDICTED BY IDOCK:   -0.65 KCAL/MOL
REMARK 923 INTER-LIGAND FREE ENERGY PREDICTED BY IDOCK:   -4.54 KCAL/MOL
REMARK 924 INTRA-LIGAND FREE ENERGY PREDICTED BY IDOCK:    3.89 KCAL/MOL
REMARK 927      BINDING AFFINITY PREDICTED BY RF-SCORE:    0.00 PKD
ROOT
HETATM    1  C   UNL     1      -8.117   5.333  67.407  1.00  0.00    -0.100 C  
HETATM    2  N   UNL     1      -8.235   6.399  68.403  1.00  0.00    -0.113 NA 
HETATM    3  C   UNL     1      -8.951   7.570  67.859  1.00  0.00    -0.131 C  
HETATM    4  C   UNL     1     -10.493   7.431  67.787  1.00  0.00    -0.232 C  
HETATM    5  N   UNL     1     -11.145   7.007  69.049  1.00  0.00    -0.128 NA 
HETATM    6  C   UNL     1     -10.445   5.774  69.498  1.00  0.00    -0.293 C  
HETATM    7  C   UNL     1      -8.909   5.909  69.621  1.00  0.00    -0.131 C  
ENDROOT
BRANCH   5   8
HETATM    8  C   UNL     1     -11.137   8.080  70.097  1.00  0.00    -0.191 C  
BRANCH   8   9
HETATM    9  C   UNL     1     -10.603   7.593  71.453  1.00  0.00    -0.236 A  
HETATM   10  C   UNL     1      -9.616   8.338  72.127  1.00  0.00    -0.338 A  
HETATM   11  C   UNL     1     -11.132   6.464  72.108  1.00  0.00    -0.302 A  
HETATM   12  C   UNL     1      -9.191   7.986  73.411  1.00  0.00    -0.332 A  
HETATM   13  C   UNL     1      -9.735   6.869  74.043  1.00  0.00    -0.326 A  
HETATM   14  C   UNL     1     -10.696   6.103  73.387  1.00  0.00    -0.280 A  
ENDBRANCH   8   9
BRANCH   8  15
HETATM   15  C   UNL     1     -10.421   9.345  69.585  1.00  0.00    -0.236 A  
HETATM   16  C   UNL     1      -8.996  11.396  68.295  1.00  0.00    -0.175 A  
HETATM   17 CL   UNL     1      -8.097  12.590  67.443  1.00  0.00    -0.171 Cl 
HETATM   18  C   UNL     1      -8.372  10.634  69.278  1.00  0.00    -0.112 A  
HETATM   19  C   UNL     1     -11.046  10.161  68.622  1.00  0.00    -0.254 A  
HETATM   20  C   UNL     1      -9.081   9.615  69.918  1.00  0.00    -0.250 A  
HETATM   21  C   UNL     1     -10.332  11.173  67.973  1.00  0.00    -0.208 A  
ENDBRANCH   8  15
ENDBRANCH   5   8
TORSDOF 3
ENDMDL
MODEL      142
REMARK 921   NORMALIZED FREE ENERGY PREDICTED BY IDOCK:   -0.12 KCAL/MOL
REMARK 922        TOTAL FREE ENERGY PREDICTED BY IDOCK:   -0.40 KCAL/MOL
REMARK 923 INTER-LIGAND FREE ENERGY PREDICTED BY IDOCK:   -4.30 KCAL/MOL
REMARK 924 INTRA-LIGAND FREE ENERGY PREDICTED BY IDOCK:    3.90 KCAL/MOL
REMARK 927      BINDING AFFINITY PREDICTED BY RF-SCORE:    0.00 PKD
ROOT
HETATM    1  C   UNL     1     -11.268  13.968  64.644  1.00  0.00    -0.374 C  
HETATM    2  N   UNL     1     -10.504  12.985  65.412  1.00  0.00    -0.290 NA 
HETATM    3  C   UNL     1      -9.538  13.639  66.317  1.00  0.00    -0.239 C  
HETATM    4  C   UNL     1     -10.140  14.227  67.618  1.00  0.00    -0.229 C  
HETATM    5  N   UNL     1     -10.979  13.289  68.402  1.00  0.00    -0.254 NA 
HETATM    6  C   UNL     1     -11.991  12.736  67.462  1.00  0.00    -0.281 C  
HETATM    7  C   UNL     1     -11.404  12.102  66.179  1.00  0.00    -0.361 C  
ENDROOT
BRANCH   5   8
HETATM    8  C   UNL     1     -10.179  12.216  69.076  1.00  0.00     0.064 C  
BRANCH   8   9
HETATM    9  C   UNL     1     -11.047  11.066  69.612  1.00  0.00    -0.320 A  
HETATM   10  C   UNL     1     -10.562   9.744  69.573  1.00  0.00    -0.253 A  
HETATM   11  C   UNL     1     -12.288  11.290  70.239  1.00  0.00    -0.389 A  
HETATM   12  C   UNL     1     -11.276   8.692  70.155  1.00  0.00    -0.152 A  
HETATM   13  C   UNL     1     -12.498   8.939  70.777  1.00  0.00     0.031 A  
HETATM   14  C   UNL     1     -13.009  10.235  70.808  1.00  0.00    -0.408 A  
ENDBRANCH   8   9
BRANCH   8  15
HETATM   15  C   UNL     1      -9.031  11.732  68.169  1.00  0.00    -0.181 A  
HETATM   16  C   UNL     1      -6.799  10.611  66.878  1.00  0.00    -0.099 A  
HETATM   17 CL   UNL     1      -5.409   9.888  66.168  1.00  0.00    -0.042 Cl 
HETATM   18  C   UNL     1      -6.703  11.876  67.449  1.00  0.00    -0.126 A  
HETATM   19  C   UNL     1      -9.118  10.474  67.542  1.00  0.00    -0.144 A  
HETATM   20  C   UNL     1      -7.812  12.432  68.091  1.00  0.00    -0.146 A  
HETATM   21  C   UNL     1      -8.004   9.913  66.910  1.00  0.00    -0.109 A  
ENDBRANCH   8  15
ENDBRANCH   5   8
TORSDOF 3
ENDMDL
MODEL      143
REMARK 921   NORMALIZED FREE ENERGY PREDICTED BY IDOCK:    0.06 KCAL/MOL
REMARK 922        TOTAL FREE ENERGY PREDICTED BY IDOCK:   -0.19 KCAL/MOL
REMARK 923 INTER-LIGAND FREE ENERGY PREDICTED BY IDOCK:   -4.26 KCAL/MOL
REMARK 924 INTRA-LIGAND FREE ENERGY PREDICTED BY IDOCK:    4.07 KCAL/MOL
REMARK 927      BINDING AFFINITY PREDICTED BY RF-SCORE:    0.00 PKD
ROOT
HETATM    1  C   UNL     1      -7.559  14.364  67.352  1.00  0.00    -0.172 C  
HETATM    2  N   UNL     1      -8.025  13.015  67.034  1.00  0.00    -0.072 NA 
HETATM    3  C   UNL     1      -8.129  12.178  68.246  1.00  0.00    -0.166 C  
HETATM    4  C   UNL     1      -9.381  12.432  69.123  1.00  0.00     0.621 C  
HETATM    5  N   UNL     1     -10.673  12.395  68.398  1.00  0.00    -0.228 NA 
HETATM    6  C   UNL     1     -10.542  13.327  67.245  1.00  0.00    -0.247 C  
HETATM    7  C   UNL     1      -9.323  13.058  66.332  1.00  0.00    -0.182 C  
ENDROOT
BRANCH   5   8
HETATM    8  C   UNL     1     -11.063  11.012  67.972  1.00  0.00    -0.286 C  
BRANCH   8   9
HETATM    9  C   UNL     1     -10.228  10.488  66.792  1.00  0.00    -0.288 A  
HETATM   10  C   UNL     1     -10.611  10.795  65.472  1.00  0.00    -0.205 A  
HETATM   11  C   UNL     1      -9.024   9.783  66.978  1.00  0.00    -0.152 A  
HETATM   12  C   UNL     1      -9.813  10.432  64.382  1.00  0.00    -0.395 A  
HETATM   13  C   UNL     1      -8.621   9.741  64.591  1.00  0.00    -0.199 A  
HETATM   14  C   UNL     1      -8.233   9.407  65.887  1.00  0.00    -0.115 A  
ENDBRANCH   8   9
BRANCH   8  15
HETATM   15  C   UNL     1     -11.079  10.048  69.174  1.00  0.00    -0.232 A  
HETATM   16  C   UNL     1     -10.857   8.609  71.579  1.00  0.00    -0.282 A  
HETATM   17 CL   UNL     1     -10.665   7.793  73.081  1.00  0.00    -0.444 Cl 
HETATM   18  C   UNL     1      -9.972   8.353  70.536  1.00  0.00    -0.205 A  
HETATM   19  C   UNL     1     -11.993  10.257  70.225  1.00  0.00    -0.348 A  
HETATM   20  C   UNL     1     -10.083   9.068  69.342  1.00  0.00    -0.198 A  
HETATM   21  C   UNL     1     -11.874   9.548  71.425  1.00  0.00    -0.464 A  
ENDBRANCH   8  15
ENDBRANCH   5   8
TORSDOF 3
ENDMDL
MODEL      144
REMARK 921   NORMALIZED FREE ENERGY PREDICTED BY IDOCK:    0.08 KCAL/MOL
REMARK 922        TOTAL FREE ENERGY PREDICTED BY IDOCK:   -0.17 KCAL/MOL
REMARK 923 INTER-LIGAND FREE ENERGY PREDICTED BY IDOCK:   -4.39 KCAL/MOL
REMARK 924 INTRA-LIGAND FREE ENERGY PREDICTED BY IDOCK:    4.22 KCAL/MOL
REMARK 927      BINDING AFFINITY PREDICTED BY RF-SCORE:    0.00 PKD
ROOT
HETATM    1  C   UNL     1      -8.324   5.896  67.249  1.00  0.00    -0.105 C  
HETATM    2  N   UNL     1      -8.214   6.981  68.225  1.00  0.00    -0.123 NA 
HETATM    3  C   UNL     1      -8.333   8.304  67.579  1.00  0.00    -0.130 C  
HETATM    4  C   UNL     1      -9.775   8.739  67.218  1.00  0.00    -0.183 C  
HETATM    5  N   UNL     1     -10.754   8.653  68.329  1.00  0.00    -0.115 NA 
HETATM    6  C   UNL     1     -10.656   7.273  68.876  1.00  0.00    -0.191 C  
HETATM    7  C   UNL     1      -9.230   6.838  69.286  1.00  0.00    -0.141 C  
ENDROOT
BRANCH   5   8
HETATM    8  C   UNL     1     -10.536   9.700  69.379  1.00  0.00    -0.225 C  
BRANCH   8   9
HETATM    9  C   UNL     1      -9.286   9.441  70.236  1.00  0.00    -0.294 A  
HETATM   10  C   UNL     1      -9.381   8.638  71.389  1.00  0.00    -0.305 A  
HETATM   11  C   UNL     1      -8.010   9.902  69.862  1.00  0.00    -0.193 A  
HETATM   12  C   UNL     1      -8.245   8.289  72.126  1.00  0.00    -0.211 A  
HETATM   13  C   UNL     1      -6.990   8.751  71.732  1.00  0.00    -0.073 A  
HETATM   14  C   UNL     1      -6.875   9.566  70.608  1.00  0.00    -0.115 A  
ENDBRANCH   8   9
BRANCH   8  15
HETATM   15  C   UNL     1     -10.563  11.113  68.764  1.00  0.00    -0.233 A  
HETATM   16  C   UNL     1     -10.753  13.481  67.261  1.00  0.00    -0.267 A  
HETATM   17 CL   UNL     1     -10.889  14.879  66.268  1.00  0.00    -0.325 Cl 
HETATM   18  C   UNL     1      -9.528  12.833  67.378  1.00  0.00    -0.190 A  
HETATM   19  C   UNL     1     -11.783  11.811  68.672  1.00  0.00    -0.389 A  
HETATM   20  C   UNL     1      -9.434  11.657  68.124  1.00  0.00    -0.191 A  
HETATM   21  C   UNL     1     -11.878  12.983  67.915  1.00  0.00    -0.389 A  
ENDBRANCH   8  15
ENDBRANCH   5   8
TORSDOF 3
ENDMDL
MODEL      145
REMARK 921   NORMALIZED FREE ENERGY PREDICTED BY IDOCK:    0.70 KCAL/MOL
REMARK 922        TOTAL FREE ENERGY PREDICTED BY IDOCK:    0.56 KCAL/MOL
REMARK 923 INTER-LIGAND FREE ENERGY PREDICTED BY IDOCK:   -4.77 KCAL/MOL
REMARK 924 INTRA-LIGAND FREE ENERGY PREDICTED BY IDOCK:    5.33 KCAL/MOL
REMARK 927      BINDING AFFINITY PREDICTED BY RF-SCORE:    0.00 PKD
ROOT
HETATM    1  C   UNL     1     -10.766  17.676  65.682  1.00  0.00    -0.084 C  
HETATM    2  N   UNL     1      -9.946  16.633  66.298  1.00  0.00    -0.303 NA 
HETATM    3  C   UNL     1     -10.506  16.200  67.595  1.00  0.00    -0.292 C  
HETATM    4  C   UNL     1     -11.715  15.235  67.507  1.00  0.00    -0.140 C  
HETATM    5  N   UNL     1     -11.507  14.045  66.648  1.00  0.00    -0.348 NA 
HETATM    6  C   UNL     1     -11.036  14.548  65.329  1.00  0.00    -0.353 C  
HETATM    7  C   UNL     1      -9.800  15.475  65.394  1.00  0.00    -0.256 C  
ENDROOT
BRANCH   5   8
HETATM    8  C   UNL     1     -10.561  13.050  67.250  1.00  0.00    -0.242 C  
BRANCH   8   9
HETATM    9  C   UNL     1     -10.202  11.904  66.291  1.00  0.00    -0.247 A  
HETATM   10  C   UNL     1     -10.692  11.916  64.970  1.00  0.00    -0.341 A  
HETATM   11  C   UNL     1      -9.313  10.873  66.650  1.00  0.00    -0.191 A  
HETATM   12  C   UNL     1     -10.293  10.952  64.039  1.00  0.00    -0.417 A  
HETATM   13  C   UNL     1      -9.406   9.946  64.416  1.00  0.00    -0.326 A  
HETATM   14  C   UNL     1      -8.926   9.900  65.723  1.00  0.00    -0.189 A  
ENDBRANCH   8   9
BRANCH   8  15
HETATM   15  C   UNL     1      -9.324  13.753  67.840  1.00  0.00    -0.211 A  
HETATM   16  C   UNL     1      -7.247  15.417  68.746  1.00  0.00    -0.128 A  
HETATM   17 CL   UNL     1      -6.015  16.505  69.256  1.00  0.00    -0.154 Cl 
HETATM   18  C   UNL     1      -7.109  14.733  67.542  1.00  0.00    -0.209 A  
HETATM   19  C   UNL     1      -9.421  14.417  69.079  1.00  0.00    -0.042 A  
HETATM   20  C   UNL     1      -8.141  13.907  67.093  1.00  0.00    -0.103 A  
HETATM   21  C   UNL     1      -8.392  15.253  69.522  1.00  0.00    -0.190 A  
ENDBRANCH   8  15
ENDBRANCH   5   8
TORSDOF 3
ENDMDL
MODEL      146
REMARK 921   NORMALIZED FREE ENERGY PREDICTED BY IDOCK:    0.78 KCAL/MOL
REMARK 922        TOTAL FREE ENERGY PREDICTED BY IDOCK:    0.66 KCAL/MOL
REMARK 923 INTER-LIGAND FREE ENERGY PREDICTED BY IDOCK:   -2.73 KCAL/MOL
REMARK 924 INTRA-LIGAND FREE ENERGY PREDICTED BY IDOCK:    3.38 KCAL/MOL
REMARK 927      BINDING AFFINITY PREDICTED BY RF-SCORE:    0.00 PKD
ROOT
HETATM    1  C   UNL     1     -11.461  11.291  64.551  1.00  0.00     0.075 C  
HETATM    2  N   UNL     1     -10.119  10.838  64.919  1.00  0.00    -0.301 NA 
HETATM    3  C   UNL     1      -9.290  11.952  65.420  1.00  0.00    -0.036 C  
HETATM    4  C   UNL     1      -9.572  12.386  66.880  1.00  0.00    -0.219 C  
HETATM    5  N   UNL     1      -9.559  11.287  67.875  1.00  0.00    -0.173 NA 
HETATM    6  C   UNL     1     -10.482  10.238  67.365  1.00  0.00    -0.251 C  
HETATM    7  C   UNL     1     -10.186   9.759  65.924  1.00  0.00    -0.174 C  
ENDROOT
BRANCH   5   8
HETATM    8  C   UNL     1      -8.181  10.755  68.137  1.00  0.00    -0.119 C  
BRANCH   8   9
HETATM    9  C   UNL     1      -7.547  10.095  66.902  1.00  0.00    -0.100 A  
HETATM   10  C   UNL     1      -6.673  10.834  66.082  1.00  0.00    -0.126 A  
HETATM   11  C   UNL     1      -7.730   8.731  66.602  1.00  0.00    -0.093 A  
HETATM   12  C   UNL     1      -5.991  10.233  65.020  1.00  0.00    -0.133 A  
HETATM   13  C   UNL     1      -6.182   8.880  64.747  1.00  0.00    -0.065 A  
HETATM   14  C   UNL     1      -7.060   8.133  65.530  1.00  0.00    -0.067 A  
ENDBRANCH   8   9
BRANCH   8  15
HETATM   15  C   UNL     1      -7.284  11.836  68.770  1.00  0.00    -0.113 A  
HETATM   16  C   UNL     1      -5.955  13.814  70.262  1.00  0.00    -0.152 A  
HETATM   17 CL   UNL     1      -5.212  15.024  71.234  1.00  0.00    -0.138 Cl 
HETATM   18  C   UNL     1      -6.815  14.186  69.234  1.00  0.00    -0.118 A  
HETATM   19  C   UNL     1      -6.372  11.482  69.783  1.00  0.00    -0.140 A  
HETATM   20  C   UNL     1      -7.475  13.203  68.494  1.00  0.00    -0.117 A  
HETATM   21  C   UNL     1      -5.721  12.468  70.532  1.00  0.00    -0.170 A  
ENDBRANCH   8  15
ENDBRANCH   5   8
TORSDOF 3
ENDMDL
MODEL      147
REMARK 921   NORMALIZED FREE ENERGY PREDICTED BY IDOCK:    0.88 KCAL/MOL
REMARK 922        TOTAL FREE ENERGY PREDICTED BY IDOCK:    0.78 KCAL/MOL
REMARK 923 INTER-LIGAND FREE ENERGY PREDICTED BY IDOCK:   -2.50 KCAL/MOL
REMARK 924 INTRA-LIGAND FREE ENERGY PREDICTED BY IDOCK:    3.27 KCAL/MOL
REMARK 927      BINDING AFFINITY PREDICTED BY RF-SCORE:    0.00 PKD
ROOT
HETATM    1  C   UNL     1     -12.649  12.075  64.199  1.00  0.00    -0.308 C  
HETATM    2  N   UNL     1     -11.380  11.670  64.803  1.00  0.00    -0.249 NA 
HETATM    3  C   UNL     1     -10.395  12.770  64.781  1.00  0.00    -0.322 C  
HETATM    4  C   UNL     1     -10.594  13.861  65.864  1.00  0.00    -0.293 C  
HETATM    5  N   UNL     1     -10.721  13.353  67.251  1.00  0.00    -0.258 NA 
HETATM    6  C   UNL     1     -11.790  12.319  67.229  1.00  0.00    -0.260 C  
HETATM    7  C   UNL     1     -11.584  11.196  66.186  1.00  0.00     0.528 C  
ENDROOT
BRANCH   5   8
HETATM    8  C   UNL     1      -9.429  12.827  67.799  1.00  0.00    -0.205 C  
BRANCH   8   9
HETATM    9  C   UNL     1      -8.905  11.602  67.033  1.00  0.00    -0.177 A  
HETATM   10  C   UNL     1      -8.033  11.777  65.941  1.00  0.00     0.489 A  
HETATM   11  C   UNL     1      -9.188  10.283  67.439  1.00  0.00    -0.155 A  
HETATM   12  C   UNL     1      -7.449  10.684  65.295  1.00  0.00     0.006 A  
HETATM   13  C   UNL     1      -7.738   9.388  65.720  1.00  0.00    -0.099 A  
HETATM   14  C   UNL     1      -8.616   9.188  66.783  1.00  0.00    -0.133 A  
ENDBRANCH   8   9
BRANCH   8  15
HETATM   15  C   UNL     1      -8.384  13.952  67.924  1.00  0.00    -0.167 A  
HETATM   16  C   UNL     1      -6.735  16.156  68.496  1.00  0.00    -0.126 A  
HETATM   17 CL   UNL     1      -5.788  17.532  68.907  1.00  0.00    -0.175 Cl 
HETATM   18  C   UNL     1      -7.698  16.254  67.496  1.00  0.00    -0.169 A  
HETATM   19  C   UNL     1      -7.371  13.860  68.899  1.00  0.00    -0.088 A  
HETATM   20  C   UNL     1      -8.516  15.160  67.213  1.00  0.00    -0.220 A  
HETATM   21  C   UNL     1      -6.559  14.962  69.189  1.00  0.00    -0.117 A  
ENDBRANCH   8  15
ENDBRANCH   5   8
TORSDOF 3
ENDMDL
MODEL      148
REMARK 921   NORMALIZED FREE ENERGY PREDICTED BY IDOCK:    1.15 KCAL/MOL
REMARK 922        TOTAL FREE ENERGY PREDICTED BY IDOCK:    1.08 KCAL/MOL
REMARK 923 INTER-LIGAND FREE ENERGY PREDICTED BY IDOCK:   -2.58 KCAL/MOL
REMARK 924 INTRA-LIGAND FREE ENERGY PREDICTED BY IDOCK:    3.67 KCAL/MOL
REMARK 927      BINDING AFFINITY PREDICTED BY RF-SCORE:    0.00 PKD
ROOT
HETATM    1  C   UNL     1      -8.202   4.537  66.474  1.00  0.00    -0.103 C  
HETATM    2  N   UNL     1      -7.786   5.380  67.595  1.00  0.00    -0.091 NA 
HETATM    3  C   UNL     1      -8.484   6.681  67.581  1.00  0.00    -0.121 C  
HETATM    4  C   UNL     1      -9.942   6.658  68.105  1.00  0.00    -0.147 C  
HETATM    5  N   UNL     1     -10.121   6.026  69.434  1.00  0.00    -0.178 NA 
HETATM    6  C   UNL     1      -9.483   4.685  69.358  1.00  0.00    -0.169 C  
HETATM    7  C   UNL     1      -8.012   4.693  68.882  1.00  0.00    -0.075 C  
ENDROOT
BRANCH   5   8
HETATM    8  C   UNL     1      -9.570   6.858  70.553  1.00  0.00    -0.169 C  
BRANCH   8   9
HETATM    9  C   UNL     1      -8.414   6.171  71.299  1.00  0.00    -0.125 A  
HETATM   10  C   UNL     1      -8.683   5.103  72.177  1.00  0.00    -0.132 A  
HETATM   11  C   UNL     1      -7.066   6.506  71.069  1.00  0.00    -0.069 A  
HETATM   12  C   UNL     1      -7.648   4.384  72.783  1.00  0.00    -0.081 A  
HETATM   13  C   UNL     1      -6.321   4.728  72.533  1.00  0.00    -0.030 A  
HETATM   14  C   UNL     1      -6.031   5.796  71.686  1.00  0.00    -0.026 A  
ENDBRANCH   8   9
BRANCH   8  15
HETATM   15  C   UNL     1      -9.214   8.275  70.064  1.00  0.00    -0.151 A  
HETATM   16  C   UNL     1      -8.615  10.688  68.752  1.00  0.00    -0.150 A  
HETATM   17 CL   UNL     1      -8.252  12.120  67.870  1.00  0.00    -0.145 Cl 
HETATM   18  C   UNL     1      -7.583   9.852  69.166  1.00  0.00    -0.090 A  
HETATM   19  C   UNL     1     -10.241   9.160  69.679  1.00  0.00    -0.211 A  
HETATM   20  C   UNL     1      -7.881   8.654  69.817  1.00  0.00    -0.093 A  
HETATM   21  C   UNL     1      -9.941  10.354  69.017  1.00  0.00    -0.224 A  
ENDBRANCH   8  15
ENDBRANCH   5   8
TORSDOF 3
ENDMDL
MODEL      149
REMARK 921   NORMALIZED FREE ENERGY PREDICTED BY IDOCK:    1.40 KCAL/MOL
REMARK 922        TOTAL FREE ENERGY PREDICTED BY IDOCK:    1.39 KCAL/MOL
REMARK 923 INTER-LIGAND FREE ENERGY PREDICTED BY IDOCK:   -2.46 KCAL/MOL
REMARK 924 INTRA-LIGAND FREE ENERGY PREDICTED BY IDOCK:    3.84 KCAL/MOL
REMARK 927      BINDING AFFINITY PREDICTED BY RF-SCORE:    0.00 PKD
ROOT
HETATM    1  C   UNL     1      -5.470   7.422  72.846  1.00  0.00    -0.037 C  
HETATM    2  N   UNL     1      -6.233   6.567  71.937  1.00  0.00    -0.042 NA 
HETATM    3  C   UNL     1      -7.540   6.193  72.514  1.00  0.00    -0.099 C  
HETATM    4  C   UNL     1      -8.634   7.288  72.445  1.00  0.00    -0.115 C  
HETATM    5  N   UNL     1      -8.849   7.876  71.102  1.00  0.00    -0.135 NA 
HETATM    6  C   UNL     1      -7.516   8.320  70.612  1.00  0.00    -0.062 C  
HETATM    7  C   UNL     1      -6.423   7.226  70.630  1.00  0.00    -0.043 C  
ENDROOT
BRANCH   5   8
HETATM    8  C   UNL     1      -9.520   6.929  70.152  1.00  0.00    -0.162 C  
BRANCH   8   9
HETATM    9  C   UNL     1      -8.846   6.886  68.771  1.00  0.00    -0.132 A  
HETATM   10  C   UNL     1      -8.194   5.712  68.345  1.00  0.00    -0.103 A  
HETATM   11  C   UNL     1      -8.933   7.954  67.858  1.00  0.00    -0.129 A  
HETATM   12  C   UNL     1      -7.671   5.599  67.054  1.00  0.00    -0.101 A  
HETATM   13  C   UNL     1      -7.777   6.667  66.164  1.00  0.00    -0.095 A  
HETATM   14  C   UNL     1      -8.397   7.847  66.570  1.00  0.00    -0.127 A  
ENDBRANCH   8   9
BRANCH   8  15
HETATM   15  C   UNL     1      -9.684   5.535  70.787  1.00  0.00    -0.232 A  
HETATM   16  C   UNL     1      -9.748   3.164  72.296  1.00  0.00    -0.154 A  
HETATM   17 CL   UNL     1      -9.733   1.753  73.280  1.00  0.00    -0.101 Cl 
HETATM   18  C   UNL     1      -8.772   3.336  71.320  1.00  0.00    -0.123 A  
HETATM   19  C   UNL     1     -10.693   5.319  71.747  1.00  0.00    -0.240 A  
HETATM   20  C   UNL     1      -8.740   4.514  70.571  1.00  0.00    -0.127 A  
HETATM   21  C   UNL     1     -10.716   4.144  72.504  1.00  0.00    -0.101 A  
ENDBRANCH   8  15
ENDBRANCH   5   8
TORSDOF 3
ENDMDL
MODEL      150
REMARK 921   NORMALIZED FREE ENERGY PREDICTED BY IDOCK:    2.60 KCAL/MOL
REMARK 922        TOTAL FREE ENERGY PREDICTED BY IDOCK:    2.80 KCAL/MOL
REMARK 923 INTER-LIGAND FREE ENERGY PREDICTED BY IDOCK:   -2.90 KCAL/MOL
REMARK 924 INTRA-LIGAND FREE ENERGY PREDICTED BY IDOCK:    5.70 KCAL/MOL
REMARK 927      BINDING AFFINITY PREDICTED BY RF-SCORE:    0.00 PKD
ROOT
HETATM    1  C   UNL     1      -9.607  15.820  66.820  1.00  0.00    -0.236 C  
HETATM    2  N   UNL     1     -10.331  14.758  67.519  1.00  0.00    -0.238 NA 
HETATM    3  C   UNL     1     -11.483  14.278  66.729  1.00  0.00    -0.367 C  
HETATM    4  C   UNL     1     -11.136  13.313  65.567  1.00  0.00    -0.281 C  
HETATM    5  N   UNL     1     -10.292  12.154  65.945  1.00  0.00    -0.247 NA 
HETATM    6  C   UNL     1      -9.104  12.705  66.651  1.00  0.00    -0.193 C  
HETATM    7  C   UNL     1      -9.432  13.633  67.844  1.00  0.00    -0.213 C  
ENDROOT
BRANCH   5   8
HETATM    8  C   UNL     1     -11.028  11.142  66.770  1.00  0.00    -0.249 C  
BRANCH   8   9
HETATM    9  C   UNL     1     -10.257   9.821  66.929  1.00  0.00    -0.310 A  
HETATM   10  C   UNL     1      -8.975   9.823  67.511  1.00  0.00    -0.138 A  
HETATM   11  C   UNL     1     -10.824   8.575  66.598  1.00  0.00     0.294 A  
HETATM   12  C   UNL     1      -8.295   8.630  67.774  1.00  0.00    -0.118 A  
HETATM   13  C   UNL     1      -8.880   7.408  67.446  1.00  0.00    -0.123 A  
HETATM   14  C   UNL     1     -10.139   7.382  66.848  1.00  0.00    -0.327 A  
ENDBRANCH   8   9
BRANCH   8  15
HETATM   15  C   UNL     1     -11.473  11.745  68.116  1.00  0.00    -0.382 A  
HETATM   16  C   UNL     1     -12.625  12.541  70.553  1.00  0.00    -0.098 A  
HETATM   17 CL   UNL     1     -13.398  12.970  72.029  1.00  0.00    -0.587 Cl 
HETATM   18  C   UNL     1     -12.942  13.225  69.384  1.00  0.00     1.204 A  
HETATM   19  C   UNL     1     -11.130  11.099  69.319  1.00  0.00    -0.318 A  
HETATM   20  C   UNL     1     -12.370  12.829  68.174  1.00  0.00     0.277 A  
HETATM   21  C   UNL     1     -11.713  11.489  70.529  1.00  0.00    -0.248 A  
ENDBRANCH   8  15
ENDBRANCH   5   8
TORSDOF 3
ENDMDL
MODEL      151
REMARK 921   NORMALIZED FREE ENERGY PREDICTED BY IDOCK:    3.95 KCAL/MOL
REMARK 922        TOTAL FREE ENERGY PREDICTED BY IDOCK:    4.38 KCAL/MOL
REMARK 923 INTER-LIGAND FREE ENERGY PREDICTED BY IDOCK:   -2.18 KCAL/MOL
REMARK 924 INTRA-LIGAND FREE ENERGY PREDICTED BY IDOCK:    6.56 KCAL/MOL
REMARK 927      BINDING AFFINITY PREDICTED BY RF-SCORE:    0.00 PKD
ROOT
HETATM    1  C   UNL     1     -11.038   3.004  73.290  1.00  0.00    -0.127 C  
HETATM    2  N   UNL     1     -10.110   3.347  72.212  1.00  0.00    -0.165 NA 
HETATM    3  C   UNL     1     -10.452   4.646  71.597  1.00  0.00    -0.053 C  
HETATM    4  C   UNL     1     -10.020   5.897  72.402  1.00  0.00    -0.171 C  
HETATM    5  N   UNL     1      -8.596   5.917  72.815  1.00  0.00    -0.122 NA 
HETATM    6  C   UNL     1      -8.336   4.628  73.510  1.00  0.00    -0.102 C  
HETATM    7  C   UNL     1      -8.718   3.366  72.701  1.00  0.00    -0.085 C  
ENDROOT
BRANCH   5   8
HETATM    8  C   UNL     1      -7.660   6.144  71.665  1.00  0.00    -0.096 C  
BRANCH   8   9
HETATM    9  C   UNL     1      -6.776   4.925  71.361  1.00  0.00    -0.039 A  
HETATM   10  C   UNL     1      -6.582   3.935  72.344  1.00  0.00    -0.021 A  
HETATM   11  C   UNL     1      -6.216   4.701  70.088  1.00  0.00    -0.026 A  
HETATM   12  C   UNL     1      -5.878   2.760  72.063  1.00  0.00    -0.009 A  
HETATM   13  C   UNL     1      -5.341   2.557  70.793  1.00  0.00    -0.004 A  
HETATM   14  C   UNL     1      -5.500   3.532  69.810  1.00  0.00    -0.016 A  
ENDBRANCH   8   9
BRANCH   8  15
HETATM   15  C   UNL     1      -8.420   6.662  70.429  1.00  0.00    -0.135 A  
HETATM   16  C   UNL     1      -9.399   7.749  68.029  1.00  0.00    -0.141 A  
HETATM   17 CL   UNL     1      -9.914   8.447  66.542  1.00  0.00    -0.343 Cl 
HETATM   18  C   UNL     1      -9.443   8.503  69.197  1.00  0.00    -0.154 A  
HETATM   19  C   UNL     1      -8.429   5.900  69.245  1.00  0.00    -0.113 A  
HETATM   20  C   UNL     1      -8.957   7.963  70.389  1.00  0.00    -0.147 A  
HETATM   21  C   UNL     1      -8.906   6.447  68.049  1.00  0.00    -0.113 A  
ENDBRANCH   8  15
ENDBRANCH   5   8
TORSDOF 3
ENDMDL
MODEL      152
REMARK 921   NORMALIZED FREE ENERGY PREDICTED BY IDOCK:    8.27 KCAL/MOL
REMARK 922        TOTAL FREE ENERGY PREDICTED BY IDOCK:    9.46 KCAL/MOL
REMARK 923 INTER-LIGAND FREE ENERGY PREDICTED BY IDOCK:    5.14 KCAL/MOL
REMARK 924 INTRA-LIGAND FREE ENERGY PREDICTED BY IDOCK:    4.32 KCAL/MOL
REMARK 927      BINDING AFFINITY PREDICTED BY RF-SCORE:    0.00 PKD
ROOT
HETATM    1  C   UNL     1      -7.684  13.678  65.379  1.00  0.00     6.363 C  
HETATM    2  N   UNL     1      -9.049  13.159  65.456  1.00  0.00     0.518 NA 
HETATM    3  C   UNL     1      -9.135  11.995  66.361  1.00  0.00    -0.193 C  
HETATM    4  C   UNL     1      -9.147  12.329  67.874  1.00  0.00    -0.190 C  
HETATM    5  N   UNL     1     -10.153  13.337  68.286  1.00  0.00    -0.247 NA 
HETATM    6  C   UNL     1      -9.956  14.520  67.406  1.00  0.00    -0.227 C  
HETATM    7  C   UNL     1      -9.988  14.212  65.891  1.00  0.00    -0.311 C  
ENDROOT
BRANCH   5   8
HETATM    8  C   UNL     1     -11.557  12.814  68.234  1.00  0.00    -0.334 C  
BRANCH   8   9
HETATM    9  C   UNL     1     -12.049  12.555  66.800  1.00  0.00    -0.180 A  
HETATM   10  C   UNL     1     -12.652  13.595  66.067  1.00  0.00    -0.441 A  
HETATM   11  C   UNL     1     -11.834  11.329  66.142  1.00  0.00     0.780 A  
HETATM   12  C   UNL     1     -13.006  13.426  64.725  1.00  0.00    -0.100 A  
HETATM   13  C   UNL     1     -12.776  12.206  64.092  1.00  0.00    -0.416 A  
HETATM   14  C   UNL     1     -12.202  11.155  64.804  1.00  0.00     1.422 A  
ENDBRANCH   8   9
BRANCH   8  15
HETATM   15  C   UNL     1     -11.726  11.594  69.159  1.00  0.00    -0.390 A  
HETATM   16  C   UNL     1     -12.345   9.227  70.544  1.00  0.00     0.121 A  
HETATM   17 CL   UNL     1     -12.790   7.763  71.331  1.00  0.00    -0.344 Cl 
HETATM   18  C   UNL     1     -12.969  10.419  70.899  1.00  0.00    -0.475 A  
HETATM   19  C   UNL     1     -11.071  10.386  68.849  1.00  0.00    -0.296 A  
HETATM   20  C   UNL     1     -12.662  11.593  70.211  1.00  0.00    -0.043 A  
HETATM   21  C   UNL     1     -11.389   9.207  69.532  1.00  0.00     0.126 A  
ENDBRANCH   8  15
ENDBRANCH   5   8
TORSDOF 3
ENDMDL
MODEL      153
REMARK 921   NORMALIZED FREE ENERGY PREDICTED BY IDOCK:    9.40 KCAL/MOL
REMARK 922        TOTAL FREE ENERGY PREDICTED BY IDOCK:   10.79 KCAL/MOL
REMARK 923 INTER-LIGAND FREE ENERGY PREDICTED BY IDOCK:    0.82 KCAL/MOL
REMARK 924 INTRA-LIGAND FREE ENERGY PREDICTED BY IDOCK:    9.97 KCAL/MOL
REMARK 927      BINDING AFFINITY PREDICTED BY RF-SCORE:    0.00 PKD
ROOT
HETATM    1  C   UNL     1     -13.303  12.099  72.007  1.00  0.00    -0.365 C  
HETATM    2  N   UNL     1     -12.787  12.276  70.649  1.00  0.00    -0.023 NA 
HETATM    3  C   UNL     1     -13.574  13.274  69.897  1.00  0.00     2.473 C  
HETATM    4  C   UNL     1     -13.268  14.755  70.236  1.00  0.00     0.079 C  
HETATM    5  N   UNL     1     -11.834  15.127  70.179  1.00  0.00    -0.290 NA 
HETATM    6  C   UNL     1     -11.105  14.148  71.029  1.00  0.00     0.924 C  
HETATM    7  C   UNL     1     -11.363  12.665  70.674  1.00  0.00     1.152 C  
ENDROOT
BRANCH   5   8
HETATM    8  C   UNL     1     -11.300  15.177  68.779  1.00  0.00    -0.300 C  
BRANCH   8   9
HETATM    9  C   UNL     1      -9.981  15.958  68.666  1.00  0.00    -0.214 A  
HETATM   10  C   UNL     1      -9.900  17.274  69.162  1.00  0.00    -0.174 A  
HETATM   11  C   UNL     1      -8.802  15.373  68.166  1.00  0.00    -0.170 A  
HETATM   12  C   UNL     1      -8.688  17.970  69.178  1.00  0.00     0.124 A  
HETATM   13  C   UNL     1      -7.532  17.368  68.686  1.00  0.00    -0.263 A  
HETATM   14  C   UNL     1      -7.592  16.075  68.169  1.00  0.00    -0.139 A  
ENDBRANCH   8   9
BRANCH   8  15
HETATM   15  C   UNL     1     -11.219  13.764  68.169  1.00  0.00    -0.298 A  
HETATM   16  C   UNL     1     -10.618  11.234  67.103  1.00  0.00    -0.235 A  
HETATM   17 CL   UNL     1     -10.163   9.706  66.455  1.00  0.00    -0.308 Cl 
HETATM   18  C   UNL     1     -10.821  12.312  66.249  1.00  0.00    -0.313 A  
HETATM   19  C   UNL     1     -11.057  12.648  69.012  1.00  0.00    -0.291 A  
HETATM   20  C   UNL     1     -11.119  13.569  66.779  1.00  0.00    -0.311 A  
HETATM   21  C   UNL     1     -10.747  11.392  68.480  1.00  0.00    -0.235 A  
ENDBRANCH   8  15
ENDBRANCH   5   8
TORSDOF 3
ENDMDL
MODEL      154
REMARK 921   NORMALIZED FREE ENERGY PREDICTED BY IDOCK:   13.45 KCAL/MOL
REMARK 922        TOTAL FREE ENERGY PREDICTED BY IDOCK:   15.55 KCAL/MOL
REMARK 923 INTER-LIGAND FREE ENERGY PREDICTED BY IDOCK:   11.98 KCAL/MOL
REMARK 924 INTRA-LIGAND FREE ENERGY PREDICTED BY IDOCK:    3.57 KCAL/MOL
REMARK 927      BINDING AFFINITY PREDICTED BY RF-SCORE:    0.00 PKD
ROOT
HETATM    1  C   UNL     1      -5.199  13.031  69.932  1.00  0.00    -0.089 C  
HETATM    2  N   UNL     1      -6.518  13.006  70.567  1.00  0.00     0.152 NA 
HETATM    3  C   UNL     1      -7.339  14.160  70.150  1.00  0.00     0.573 C  
HETATM    4  C   UNL     1      -7.984  14.045  68.746  1.00  0.00    -0.081 C  
HETATM    5  N   UNL     1      -8.746  12.797  68.505  1.00  0.00    -0.103 NA 
HETATM    6  C   UNL     1      -7.838  11.670  68.850  1.00  0.00    -0.040 C  
HETATM    7  C   UNL     1      -7.222  11.744  70.267  1.00  0.00     1.510 C  
ENDROOT
BRANCH   5   8
HETATM    8  C   UNL     1     -10.035  12.745  69.269  1.00  0.00     0.594 C  
BRANCH   8   9
HETATM    9  C   UNL     1     -11.221  13.332  68.487  1.00  0.00    -0.304 A  
HETATM   10  C   UNL     1     -12.478  13.456  69.109  1.00  0.00     0.158 A  
HETATM   11  C   UNL     1     -11.081  13.847  67.184  1.00  0.00    -0.312 A  
HETATM   12  C   UNL     1     -13.547  14.089  68.466  1.00  0.00     5.562 A  
HETATM   13  C   UNL     1     -13.382  14.598  67.179  1.00  0.00     3.702 A  
HETATM   14  C   UNL     1     -12.154  14.467  66.535  1.00  0.00    -0.395 A  
ENDBRANCH   8   9
BRANCH   8  15
HETATM   15  C   UNL     1     -10.306  11.324  69.799  1.00  0.00     0.324 A  
HETATM   16  C   UNL     1     -10.591   8.589  70.385  1.00  0.00    -0.223 A  
HETATM   17 CL   UNL     1     -10.731   6.897  70.661  1.00  0.00    -0.253 Cl 
HETATM   18  C   UNL     1     -11.633   9.276  69.770  1.00  0.00     0.156 A  
HETATM   19  C   UNL     1      -9.283  10.619  70.464  1.00  0.00     1.750 A  
HETATM   20  C   UNL     1     -11.490  10.634  69.479  1.00  0.00    -0.360 A  
HETATM   21  C   UNL     1      -9.423   9.256  70.744  1.00  0.00    -0.336 A  
ENDBRANCH   8  15
ENDBRANCH   5   8
TORSDOF 3
ENDMDL
MODEL      155
REMARK 921   NORMALIZED FREE ENERGY PREDICTED BY IDOCK:   25.46 KCAL/MOL
REMARK 922        TOTAL FREE ENERGY PREDICTED BY IDOCK:   29.66 KCAL/MOL
REMARK 923 INTER-LIGAND FREE ENERGY PREDICTED BY IDOCK:   28.08 KCAL/MOL
REMARK 924 INTRA-LIGAND FREE ENERGY PREDICTED BY IDOCK:    1.57 KCAL/MOL
REMARK 927      BINDING AFFINITY PREDICTED BY RF-SCORE:    0.00 PKD
ROOT
HETATM    1  C   UNL     1     -11.279  18.428  66.329  1.00  0.00     0.819 C  
HETATM    2  N   UNL     1     -10.267  18.104  67.334  1.00  0.00    -0.355 NA 
HETATM    3  C   UNL     1     -10.826  17.266  68.414  1.00  0.00    -0.273 C  
HETATM    4  C   UNL     1     -11.001  15.765  68.068  1.00  0.00    -0.330 C  
HETATM    5  N   UNL     1      -9.794  15.104  67.518  1.00  0.00    -0.219 NA 
HETATM    6  C   UNL     1      -9.332  15.939  66.377  1.00  0.00    -0.297 C  
HETATM    7  C   UNL     1      -9.107  17.431  66.716  1.00  0.00    -0.260 C  
ENDROOT
BRANCH   5   8
HETATM    8  C   UNL     1      -8.722  14.899  68.546  1.00  0.00    -0.172 C  
BRANCH   8   9
HETATM    9  C   UNL     1      -8.959  15.711  69.830  1.00  0.00    -0.006 A  
HETATM   10  C   UNL     1      -9.773  15.185  70.852  1.00  0.00     1.337 A  
HETATM   11  C   UNL     1      -8.310  16.937  70.074  1.00  0.00     1.774 A  
HETATM   12  C   UNL     1      -9.916  15.845  72.077  1.00  0.00     3.917 A  
HETATM   13  C   UNL     1      -9.258  17.053  72.299  1.00  0.00    12.240 A  
HETATM   14  C   UNL     1      -8.466  17.604  71.294  1.00  0.00     8.861 A  
ENDBRANCH   8   9
BRANCH   8  15
HETATM   15  C   UNL     1      -8.494  13.399  68.814  1.00  0.00     0.103 A  
HETATM   16  C   UNL     1      -8.251  10.599  68.886  1.00  0.00    -0.145 A  
HETATM   17 CL   UNL     1      -8.144   8.883  68.849  1.00  0.00    -0.111 Cl 
HETATM   18  C   UNL     1      -9.367  11.210  69.447  1.00  0.00     0.264 A  
HETATM   19  C   UNL     1      -7.350  12.762  68.295  1.00  0.00    -0.117 A  
HETATM   20  C   UNL     1      -9.488  12.600  69.411  1.00  0.00     1.137 A  
HETATM   21  C   UNL     1      -7.236  11.369  68.321  1.00  0.00    -0.082 A  
ENDBRANCH   8  15
ENDBRANCH   5   8
TORSDOF 3
ENDMDL
MODEL      156
REMARK 921   NORMALIZED FREE ENERGY PREDICTED BY IDOCK:   27.07 KCAL/MOL
REMARK 922        TOTAL FREE ENERGY PREDICTED BY IDOCK:   31.56 KCAL/MOL
REMARK 923 INTER-LIGAND FREE ENERGY PREDICTED BY IDOCK:   30.81 KCAL/MOL
REMARK 924 INTRA-LIGAND FREE ENERGY PREDICTED BY IDOCK:    0.75 KCAL/MOL
REMARK 927      BINDING AFFINITY PREDICTED BY RF-SCORE:    0.00 PKD
ROOT
HETATM    1  C   UNL     1     -10.465  15.951  70.270  1.00  0.00    -0.176 C  
HETATM    2  N   UNL     1     -11.046  14.769  70.907  1.00  0.00    -0.096 NA 
HETATM    3  C   UNL     1     -11.495  13.781  69.905  1.00  0.00    -0.160 C  
HETATM    4  C   UNL     1     -10.372  12.920  69.273  1.00  0.00     0.326 C  
HETATM    5  N   UNL     1      -9.471  12.253  70.243  1.00  0.00     3.790 NA 
HETATM    6  C   UNL     1      -8.977  13.311  71.165  1.00  0.00    10.623 C  
HETATM    7  C   UNL     1     -10.087  14.150  71.841  1.00  0.00     5.726 C  
ENDROOT
BRANCH   5   8
HETATM    8  C   UNL     1     -10.135  11.124  70.974  1.00  0.00     4.230 C  
BRANCH   8   9
HETATM    9  C   UNL     1     -11.611  10.941  70.582  1.00  0.00    -0.341 A  
HETATM   10  C   UNL     1     -11.948  10.607  69.257  1.00  0.00    -0.269 A  
HETATM   11  C   UNL     1     -12.652  11.000  71.528  1.00  0.00    -0.461 A  
HETATM   12  C   UNL     1     -13.268  10.322  68.894  1.00  0.00     3.759 A  
HETATM   13  C   UNL     1     -14.281  10.379  69.849  1.00  0.00     3.329 A  
HETATM   14  C   UNL     1     -13.975  10.730  71.162  1.00  0.00     1.197 A  
ENDBRANCH   8   9
BRANCH   8  15
HETATM   15  C   UNL     1      -9.313   9.827  70.850  1.00  0.00     0.211 A  
HETATM   16  C   UNL     1      -7.552   7.639  70.954  1.00  0.00    -0.080 A  
HETATM   17 CL   UNL     1      -6.423   6.346  71.076  1.00  0.00    -0.048 Cl 
HETATM   18  C   UNL     1      -7.354   8.640  70.009  1.00  0.00    -0.052 A  
HETATM   19  C   UNL     1      -9.522   8.778  71.766  1.00  0.00    -0.363 A  
HETATM   20  C   UNL     1      -8.228   9.727  69.958  1.00  0.00    -0.207 A  
HETATM   21  C   UNL     1      -8.638   7.695  71.823  1.00  0.00    -0.130 A  
ENDBRANCH   8  15
ENDBRANCH   5   8
TORSDOF 3
ENDMDL
MODEL      157
REMARK 921   NORMALIZED FREE ENERGY PREDICTED BY IDOCK:   37.37 KCAL/MOL
REMARK 922        TOTAL FREE ENERGY PREDICTED BY IDOCK:   43.67 KCAL/MOL
REMARK 923 INTER-LIGAND FREE ENERGY PREDICTED BY IDOCK:   40.14 KCAL/MOL
REMARK 924 INTRA-LIGAND FREE ENERGY PREDICTED BY IDOCK:    3.53 KCAL/MOL
REMARK 927      BINDING AFFINITY PREDICTED BY RF-SCORE:    0.00 PKD
ROOT
HETATM    1  C   UNL     1      -8.967   5.158  72.279  1.00  0.00    -0.128 C  
HETATM    2  N   UNL     1      -8.560   6.173  71.307  1.00  0.00    -0.128 NA 
HETATM    3  C   UNL     1      -9.705   6.638  70.499  1.00  0.00    -0.176 C  
HETATM    4  C   UNL     1     -10.646   7.650  71.202  1.00  0.00    -0.221 C  
HETATM    5  N   UNL     1      -9.969   8.823  71.804  1.00  0.00    -0.301 NA 
HETATM    6  C   UNL     1      -8.889   8.291  72.678  1.00  0.00    -0.234 C  
HETATM    7  C   UNL     1      -7.912   7.316  71.980  1.00  0.00    -0.091 C  
ENDROOT
BRANCH   5   8
HETATM    8  C   UNL     1      -9.449   9.785  70.778  1.00  0.00     0.108 C  
BRANCH   8   9
HETATM    9  C   UNL     1      -9.823   9.390  69.340  1.00  0.00    -0.183 A  
HETATM   10  C   UNL     1     -10.736   8.341  69.116  1.00  0.00    -0.117 A  
HETATM   11  C   UNL     1      -9.358  10.104  68.219  1.00  0.00    -0.136 A  
HETATM   12  C   UNL     1     -11.184   8.032  67.828  1.00  0.00     0.538 A  
HETATM   13  C   UNL     1     -10.716   8.758  66.734  1.00  0.00    -0.088 A  
HETATM   14  C   UNL     1      -9.795   9.785  66.929  1.00  0.00    -0.256 A  
ENDBRANCH   8   9
BRANCH   8  15
HETATM   15  C   UNL     1      -9.846  11.232  71.128  1.00  0.00     6.122 A  
HETATM   16  C   UNL     1     -10.472  13.965  71.330  1.00  0.00     4.232 A  
HETATM   17 CL   UNL     1     -10.826  15.649  71.369  1.00  0.00    -0.138 Cl 
HETATM   18  C   UNL     1      -9.208  13.517  71.700  1.00  0.00    12.008 A  
HETATM   19  C   UNL     1     -11.134  11.702  70.804  1.00  0.00     1.511 A  
HETATM   20  C   UNL     1      -8.898  12.160  71.599  1.00  0.00    16.692 A  
HETATM   21  C   UNL     1     -11.440  13.064  70.895  1.00  0.00     1.126 A  
ENDBRANCH   8  15
ENDBRANCH   5   8
TORSDOF 3
ENDMDL
MODEL      158
REMARK 921   NORMALIZED FREE ENERGY PREDICTED BY IDOCK:   61.76 KCAL/MOL
REMARK 922        TOTAL FREE ENERGY PREDICTED BY IDOCK:   72.33 KCAL/MOL
REMARK 923 INTER-LIGAND FREE ENERGY PREDICTED BY IDOCK:   72.37 KCAL/MOL
REMARK 924 INTRA-LIGAND FREE ENERGY PREDICTED BY IDOCK:   -0.04 KCAL/MOL
REMARK 927      BINDING AFFINITY PREDICTED BY RF-SCORE:    0.00 PKD
ROOT
HETATM    1  C   UNL     1      -6.613   6.848  64.781  1.00  0.00    -0.043 C  
HETATM    2  N   UNL     1      -6.542   8.061  65.596  1.00  0.00    -0.042 NA 
HETATM    3  C   UNL     1      -6.268   9.253  64.768  1.00  0.00    -0.071 C  
HETATM    4  C   UNL     1      -7.484   9.815  63.989  1.00  0.00    -0.130 C  
HETATM    5  N   UNL     1      -8.694  10.063  64.809  1.00  0.00    -0.171 NA 
HETATM    6  C   UNL     1      -8.976   8.801  65.545  1.00  0.00    -0.181 C  
HETATM    7  C   UNL     1      -7.787   8.251  66.366  1.00  0.00    -0.095 C  
ENDROOT
BRANCH   5   8
HETATM    8  C   UNL     1      -8.545  11.238  65.727  1.00  0.00    -0.067 C  
BRANCH   8   9
HETATM    9  C   UNL     1      -7.648  12.344  65.148  1.00  0.00     3.943 A  
HETATM   10  C   UNL     1      -6.686  12.968  65.966  1.00  0.00     4.063 A  
HETATM   11  C   UNL     1      -7.680  12.702  63.786  1.00  0.00     7.286 A  
HETATM   12  C   UNL     1      -5.779  13.895  65.442  1.00  0.00    11.862 A  
HETATM   13  C   UNL     1      -5.825  14.227  64.090  1.00  0.00    23.695 A  
HETATM   14  C   UNL     1      -6.783  13.639  63.265  1.00  0.00    18.916 A  
ENDBRANCH   8   9
BRANCH   8  15
HETATM   15  C   UNL     1      -9.921  11.757  66.187  1.00  0.00    -0.254 A  
HETATM   16  C   UNL     1     -12.209  13.089  67.131  1.00  0.00    -0.138 A  
HETATM   17 CL   UNL     1     -13.557  13.974  67.734  1.00  0.00     5.140 Cl 
HETATM   18  C   UNL     1     -11.503  12.244  67.980  1.00  0.00    -0.378 A  
HETATM   19  C   UNL     1     -10.679  12.580  65.332  1.00  0.00    -0.312 A  
HETATM   20  C   UNL     1     -10.366  11.583  67.511  1.00  0.00    -0.220 A  
HETATM   21  C   UNL     1     -11.811  13.251  65.807  1.00  0.00    -0.428 A  
ENDBRANCH   8  15
ENDBRANCH   5   8
TORSDOF 3
ENDMDL
