MODEL        1
REMARK 921   NORMALIZED FREE ENERGY PREDICTED BY IDOCK:   -7.82 KCAL/MOL
REMARK 922        TOTAL FREE ENERGY PREDICTED BY IDOCK:   -9.21 KCAL/MOL
REMARK 923 INTER-LIGAND FREE ENERGY PREDICTED BY IDOCK:   -8.74 KCAL/MOL
REMARK 924 INTRA-LIGAND FREE ENERGY PREDICTED BY IDOCK:   -0.48 KCAL/MOL
REMARK 927      BINDING AFFINITY PREDICTED BY RF-SCORE:    0.00 PKD
ROOT
HETATM    1  N   UNL     1     -12.296  14.491  63.460  1.00  0.00    -1.090 N  
HETATM    2  H2  UNL     1     -13.243  14.702  63.147  1.00  0.00     0.000 HD 
HETATM    3  S   UNL     1     -11.813  13.306  64.544  1.00  0.00    -0.409 S  
HETATM    4  H1  UNL     1     -11.431  14.955  63.184  1.00  0.00     0.000 HD 
HETATM    5  O   UNL     1     -10.729  12.584  63.924  1.00  0.00    -0.377 OA 
HETATM    6  O   UNL     1     -13.040  12.649  64.935  1.00  0.00    -0.850 OA 
ENDROOT
BRANCH   3   7
HETATM    7  C   UNL     1     -11.185  14.209  65.922  1.00  0.00    -0.313 A  
HETATM    8  C   UNL     1     -11.216  13.681  67.212  1.00  0.00    -0.309 A  
HETATM    9 CL   UNL     1     -11.769  12.094  67.602  1.00  0.00    -0.406 Cl 
HETATM   10  C   UNL     1     -10.809  14.481  68.285  1.00  0.00    -0.247 A  
HETATM   11  C   UNL     1     -10.413  15.803  68.078  1.00  0.00    -0.270 A  
HETATM   12  C   UNL     1     -10.400  16.358  66.788  1.00  0.00    -0.293 A  
HETATM   13  C   UNL     1     -10.759  15.531  65.706  1.00  0.00    -0.362 A  
BRANCH  12  14
HETATM   14  C   UNL     1     -10.199  17.858  66.603  1.00  0.00    -0.371 C  
HETATM   15  O   UNL     1     -10.633  18.279  65.332  1.00  0.00    -0.612 OA 
HETATM   16  N   UNL     1     -10.899  18.665  67.554  1.00  0.00    -0.396 N  
HETATM   17  H   UNL     1     -10.508  19.214  65.217  1.00  0.00     0.000 HD 
HETATM   18  H   UNL     1     -11.916  18.726  67.606  1.00  0.00     0.000 HD 
HETATM   19  C   UNL     1     -10.049  19.349  68.390  1.00  0.00    -0.444 C  
HETATM   20  O   UNL     1     -10.360  20.015  69.359  1.00  0.00    -0.266 OA 
HETATM   21  C   UNL     1      -8.678  19.091  67.928  1.00  0.00    -0.333 A  
HETATM   22  C   UNL     1      -7.470  19.510  68.459  1.00  0.00    -0.368 A  
HETATM   23  C   UNL     1      -6.306  19.048  67.842  1.00  0.00    -0.223 A  
HETATM   24  C   UNL     1      -6.373  18.208  66.714  1.00  0.00    -0.211 A  
HETATM   25  C   UNL     1      -7.608  17.802  66.198  1.00  0.00    -0.302 A  
HETATM   26  C   UNL     1      -8.761  18.240  66.829  1.00  0.00    -0.281 A  
ENDBRANCH  12  14
ENDBRANCH   3   7
TORSDOF 2
ENDMDL
MODEL        2
REMARK 921   NORMALIZED FREE ENERGY PREDICTED BY IDOCK:   -7.67 KCAL/MOL
REMARK 922        TOTAL FREE ENERGY PREDICTED BY IDOCK:   -9.05 KCAL/MOL
REMARK 923 INTER-LIGAND FREE ENERGY PREDICTED BY IDOCK:   -8.64 KCAL/MOL
REMARK 924 INTRA-LIGAND FREE ENERGY PREDICTED BY IDOCK:   -0.41 KCAL/MOL
REMARK 927      BINDING AFFINITY PREDICTED BY RF-SCORE:    0.00 PKD
ROOT
HETATM    1  N   UNL     1     -12.172  13.791  63.167  1.00  0.00    -1.066 N  
HETATM    2  H2  UNL     1     -12.056  14.030  62.182  1.00  0.00     0.000 HD 
HETATM    3  S   UNL     1     -12.244  14.837  64.475  1.00  0.00    -0.329 S  
HETATM    4  H1  UNL     1     -12.270  12.862  63.575  1.00  0.00     0.000 HD 
HETATM    5  O   UNL     1     -13.404  14.467  65.248  1.00  0.00    -0.574 OA 
HETATM    6  O   UNL     1     -12.105  16.155  63.896  1.00  0.00    -0.956 OA 
ENDROOT
BRANCH   3   7
HETATM    7  C   UNL     1     -10.793  14.467  65.407  1.00  0.00    -0.354 A  
HETATM    8  C   UNL     1     -10.579  13.200  65.947  1.00  0.00    -0.280 A  
HETATM    9 CL   UNL     1     -11.627  11.850  65.707  1.00  0.00    -0.347 Cl 
HETATM   10  C   UNL     1      -9.469  12.990  66.771  1.00  0.00    -0.250 A  
HETATM   11  C   UNL     1      -8.604  14.039  67.083  1.00  0.00    -0.220 A  
HETATM   12  C   UNL     1      -8.819  15.328  66.566  1.00  0.00    -0.335 A  
HETATM   13  C   UNL     1      -9.907  15.521  65.694  1.00  0.00    -0.377 A  
BRANCH  12  14
HETATM   14  C   UNL     1      -8.015  16.508  67.099  1.00  0.00    -0.180 C  
HETATM   15  O   UNL     1      -7.386  16.189  68.319  1.00  0.00    -0.133 OA 
HETATM   16  N   UNL     1      -6.979  16.958  66.220  1.00  0.00    -0.181 N  
HETATM   17  H   UNL     1      -6.885  16.925  68.651  1.00  0.00     0.000 HD 
HETATM   18  H   UNL     1      -6.158  16.402  65.981  1.00  0.00     0.000 HD 
HETATM   19  C   UNL     1      -7.215  18.221  65.734  1.00  0.00    -0.183 C  
HETATM   20  O   UNL     1      -6.570  18.808  64.886  1.00  0.00    -0.516 OA 
HETATM   21  C   UNL     1      -8.427  18.727  66.395  1.00  0.00    -0.296 A  
HETATM   22  C   UNL     1      -9.100  19.922  66.216  1.00  0.00    -0.436 A  
HETATM   23  C   UNL     1     -10.280  20.107  66.941  1.00  0.00    -0.566 A  
HETATM   24  C   UNL     1     -10.741  19.117  67.829  1.00  0.00    -0.463 A  
HETATM   25  C   UNL     1     -10.039  17.919  67.991  1.00  0.00    -0.360 A  
HETATM   26  C   UNL     1      -8.883  17.727  67.250  1.00  0.00    -0.240 A  
ENDBRANCH  12  14
ENDBRANCH   3   7
TORSDOF 2
ENDMDL
MODEL        3
REMARK 921   NORMALIZED FREE ENERGY PREDICTED BY IDOCK:   -7.48 KCAL/MOL
REMARK 922        TOTAL FREE ENERGY PREDICTED BY IDOCK:   -8.83 KCAL/MOL
REMARK 923 INTER-LIGAND FREE ENERGY PREDICTED BY IDOCK:   -8.23 KCAL/MOL
REMARK 924 INTRA-LIGAND FREE ENERGY PREDICTED BY IDOCK:   -0.60 KCAL/MOL
REMARK 927      BINDING AFFINITY PREDICTED BY RF-SCORE:    0.00 PKD
ROOT
HETATM    1  N   UNL     1     -11.386  16.624  70.266  1.00  0.00    -0.421 N  
HETATM    2  H2  UNL     1     -10.554  17.049  70.675  1.00  0.00     0.000 HD 
HETATM    3  S   UNL     1     -12.246  15.300  70.833  1.00  0.00    -0.395 S  
HETATM    4  H1  UNL     1     -11.880  16.908  69.421  1.00  0.00     0.000 HD 
HETATM    5  O   UNL     1     -13.636  15.680  70.860  1.00  0.00    -0.568 OA 
HETATM    6  O   UNL     1     -11.544  14.897  72.032  1.00  0.00    -0.363 OA 
ENDROOT
BRANCH   3   7
HETATM    7  C   UNL     1     -12.012  14.068  69.593  1.00  0.00    -0.339 A  
HETATM    8  C   UNL     1     -12.159  12.712  69.879  1.00  0.00    -0.252 A  
HETATM    9 CL   UNL     1     -12.661  12.088  71.408  1.00  0.00    -0.437 Cl 
HETATM   10  C   UNL     1     -11.854  11.771  68.891  1.00  0.00    -0.381 A  
HETATM   11  C   UNL     1     -11.371  12.175  67.646  1.00  0.00    -0.379 A  
HETATM   12  C   UNL     1     -11.193  13.538  67.350  1.00  0.00    -0.317 A  
HETATM   13  C   UNL     1     -11.554  14.482  68.330  1.00  0.00    -0.356 A  
BRANCH  12  14
HETATM   14  C   UNL     1     -10.447  13.954  66.088  1.00  0.00    -0.297 C  
HETATM   15  O   UNL     1     -10.050  12.831  65.336  1.00  0.00    -0.286 OA 
HETATM   16  N   UNL     1     -11.208  14.781  65.202  1.00  0.00    -0.364 N  
HETATM   17  H   UNL     1      -9.584  13.091  64.549  1.00  0.00     0.000 HD 
HETATM   18  H   UNL     1     -12.039  14.463  64.703  1.00  0.00     0.000 HD 
HETATM   19  C   UNL     1     -10.694  16.051  65.099  1.00  0.00    -0.409 C  
HETATM   20  O   UNL     1     -11.192  16.994  64.514  1.00  0.00    -1.091 OA 
HETATM   21  C   UNL     1      -9.442  16.083  65.869  1.00  0.00    -0.351 A  
HETATM   22  C   UNL     1      -8.579  17.136  66.115  1.00  0.00    -0.222 A  
HETATM   23  C   UNL     1      -7.487  16.887  66.950  1.00  0.00    -0.254 A  
HETATM   24  C   UNL     1      -7.277  15.607  67.497  1.00  0.00    -0.219 A  
HETATM   25  C   UNL     1      -8.165  14.561  67.231  1.00  0.00    -0.230 A  
HETATM   26  C   UNL     1      -9.262  14.817  66.423  1.00  0.00    -0.301 A  
ENDBRANCH  12  14
ENDBRANCH   3   7
TORSDOF 2
ENDMDL
MODEL        4
REMARK 921   NORMALIZED FREE ENERGY PREDICTED BY IDOCK:   -7.44 KCAL/MOL
REMARK 922        TOTAL FREE ENERGY PREDICTED BY IDOCK:   -8.79 KCAL/MOL
REMARK 923 INTER-LIGAND FREE ENERGY PREDICTED BY IDOCK:   -8.20 KCAL/MOL
REMARK 924 INTRA-LIGAND FREE ENERGY PREDICTED BY IDOCK:   -0.60 KCAL/MOL
REMARK 927      BINDING AFFINITY PREDICTED BY RF-SCORE:    0.00 PKD
ROOT
HETATM    1  N   UNL     1     -11.397  16.455  70.082  1.00  0.00    -0.444 N  
HETATM    2  H2  UNL     1     -10.541  16.959  70.313  1.00  0.00     0.000 HD 
HETATM    3  S   UNL     1     -12.226  15.350  71.032  1.00  0.00    -0.417 S  
HETATM    4  H1  UNL     1     -11.939  16.510  69.220  1.00  0.00     0.000 HD 
HETATM    5  O   UNL     1     -13.612  15.750  71.032  1.00  0.00    -0.568 OA 
HETATM    6  O   UNL     1     -11.457  15.272  72.254  1.00  0.00    -0.447 OA 
ENDROOT
BRANCH   3   7
HETATM    7  C   UNL     1     -12.070  13.825  70.160  1.00  0.00    -0.359 A  
HETATM    8  C   UNL     1     -12.512  12.624  70.712  1.00  0.00    -0.270 A  
HETATM    9 CL   UNL     1     -13.325  12.489  72.229  1.00  0.00    -0.587 Cl 
HETATM   10  C   UNL     1     -12.263  11.429  70.029  1.00  0.00    -0.377 A  
HETATM   11  C   UNL     1     -11.549  11.428  68.831  1.00  0.00    -0.388 A  
HETATM   12  C   UNL     1     -11.075  12.628  68.274  1.00  0.00    -0.295 A  
HETATM   13  C   UNL     1     -11.375  13.832  68.938  1.00  0.00    -0.328 A  
BRANCH  12  14
HETATM   14  C   UNL     1     -10.100  12.593  67.102  1.00  0.00    -0.223 C  
HETATM   15  O   UNL     1      -8.997  13.439  67.330  1.00  0.00    -0.194 OA 
HETATM   16  N   UNL     1      -9.560  11.297  66.826  1.00  0.00    -0.190 N  
HETATM   17  H   UNL     1      -8.389  13.417  66.600  1.00  0.00     0.000 HD 
HETATM   18  H   UNL     1      -8.941  10.794  67.462  1.00  0.00     0.000 HD 
HETATM   19  C   UNL     1      -9.970  10.806  65.610  1.00  0.00    -0.260 C  
HETATM   20  O   UNL     1      -9.764   9.692  65.167  1.00  0.00    -0.300 OA 
HETATM   21  C   UNL     1     -10.751  11.862  64.950  1.00  0.00    -0.350 A  
HETATM   22  C   UNL     1     -11.416  11.846  63.737  1.00  0.00    -0.542 A  
HETATM   23  C   UNL     1     -12.143  12.987  63.391  1.00  0.00    -0.591 A  
HETATM   24  C   UNL     1     -12.173  14.107  64.243  1.00  0.00    -0.449 A  
HETATM   25  C   UNL     1     -11.490  14.096  65.463  1.00  0.00    -0.324 A  
HETATM   26  C   UNL     1     -10.791  12.953  65.816  1.00  0.00    -0.292 A  
ENDBRANCH  12  14
ENDBRANCH   3   7
TORSDOF 2
ENDMDL
MODEL        5
REMARK 921   NORMALIZED FREE ENERGY PREDICTED BY IDOCK:   -7.15 KCAL/MOL
REMARK 922        TOTAL FREE ENERGY PREDICTED BY IDOCK:   -8.47 KCAL/MOL
REMARK 923 INTER-LIGAND FREE ENERGY PREDICTED BY IDOCK:   -8.50 KCAL/MOL
REMARK 924 INTRA-LIGAND FREE ENERGY PREDICTED BY IDOCK:    0.04 KCAL/MOL
REMARK 927      BINDING AFFINITY PREDICTED BY RF-SCORE:    0.00 PKD
ROOT
HETATM    1  N   UNL     1     -10.100  10.988  69.334  1.00  0.00    -0.427 N  
HETATM    2  H2  UNL     1      -9.742  10.451  68.544  1.00  0.00     0.000 HD 
HETATM    3  S   UNL     1     -11.649  11.592  69.547  1.00  0.00    -0.357 S  
HETATM    4  H1  UNL     1      -9.594  11.278  70.171  1.00  0.00     0.000 HD 
HETATM    5  O   UNL     1     -12.078  11.198  70.866  1.00  0.00    -0.346 OA 
HETATM    6  O   UNL     1     -12.366  11.181  68.360  1.00  0.00    -0.556 OA 
ENDROOT
BRANCH   3   7
HETATM    7  C   UNL     1     -11.441  13.343  69.510  1.00  0.00    -0.244 A  
HETATM    8  C   UNL     1     -12.230  14.185  70.293  1.00  0.00    -0.349 A  
HETATM    9 CL   UNL     1     -13.410  13.638  71.427  1.00  0.00    -0.360 Cl 
HETATM   10  C   UNL     1     -12.102  15.570  70.144  1.00  0.00    -0.404 A  
HETATM   11  C   UNL     1     -11.227  16.107  69.200  1.00  0.00    -0.336 A  
HETATM   12  C   UNL     1     -10.443  15.272  68.387  1.00  0.00    -0.236 A  
HETATM   13  C   UNL     1     -10.536  13.880  68.578  1.00  0.00    -0.253 A  
BRANCH  12  14
HETATM   14  C   UNL     1      -9.675  15.857  67.206  1.00  0.00    -0.224 C  
HETATM   15  O   UNL     1      -8.377  15.317  67.123  1.00  0.00    -0.183 OA 
HETATM   16  N   UNL     1     -10.289  15.624  65.934  1.00  0.00    -0.326 N  
HETATM   17  H   UNL     1      -7.899  15.682  66.387  1.00  0.00     0.000 HD 
HETATM   18  H   UNL     1     -10.390  14.701  65.514  1.00  0.00     0.000 HD 
HETATM   19  C   UNL     1     -10.726  16.785  65.343  1.00  0.00    -0.189 C  
HETATM   20  O   UNL     1     -11.380  16.881  64.322  1.00  0.00    -1.202 OA 
HETATM   21  C   UNL     1     -10.297  17.902  66.196  1.00  0.00    -0.352 A  
HETATM   22  C   UNL     1     -10.529  19.260  66.063  1.00  0.00    -0.573 A  
HETATM   23  C   UNL     1     -10.053  20.093  67.077  1.00  0.00    -0.599 A  
HETATM   24  C   UNL     1      -9.349  19.562  68.174  1.00  0.00    -0.422 A  
HETATM   25  C   UNL     1      -9.127  18.186  68.282  1.00  0.00    -0.309 A  
HETATM   26  C   UNL     1      -9.624  17.358  67.288  1.00  0.00    -0.258 A  
ENDBRANCH  12  14
ENDBRANCH   3   7
TORSDOF 2
ENDMDL
MODEL        6
REMARK 921   NORMALIZED FREE ENERGY PREDICTED BY IDOCK:   -7.07 KCAL/MOL
REMARK 922        TOTAL FREE ENERGY PREDICTED BY IDOCK:   -8.37 KCAL/MOL
REMARK 923 INTER-LIGAND FREE ENERGY PREDICTED BY IDOCK:   -7.91 KCAL/MOL
REMARK 924 INTRA-LIGAND FREE ENERGY PREDICTED BY IDOCK:   -0.46 KCAL/MOL
REMARK 927      BINDING AFFINITY PREDICTED BY RF-SCORE:    0.00 PKD
ROOT
HETATM    1  N   UNL     1     -10.785  18.730  66.885  1.00  0.00    -0.390 N  
HETATM    2  H2  UNL     1     -11.651  19.246  66.730  1.00  0.00     0.000 HD 
HETATM    3  S   UNL     1     -10.119  17.531  65.922  1.00  0.00    -0.116 S  
HETATM    4  H1  UNL     1     -10.131  18.830  67.661  1.00  0.00     0.000 HD 
HETATM    5  O   UNL     1      -8.736  17.880  65.709  1.00  0.00    -0.493 OA 
HETATM    6  O   UNL     1     -11.046  17.390  64.822  1.00  0.00    -0.973 OA 
ENDROOT
BRANCH   3   7
HETATM    7  C   UNL     1     -10.195  16.080  66.922  1.00  0.00    -0.280 A  
HETATM    8  C   UNL     1      -9.408  15.942  68.064  1.00  0.00    -0.201 A  
HETATM    9 CL   UNL     1      -8.359  17.167  68.678  1.00  0.00    -0.258 Cl 
HETATM   10  C   UNL     1      -9.423  14.728  68.758  1.00  0.00    -0.206 A  
HETATM   11  C   UNL     1     -10.184  13.653  68.298  1.00  0.00    -0.243 A  
HETATM   12  C   UNL     1     -10.964  13.768  67.134  1.00  0.00    -0.299 A  
HETATM   13  C   UNL     1     -10.987  15.009  66.470  1.00  0.00    -0.327 A  
BRANCH  12  14
HETATM   14  C   UNL     1     -11.596  12.527  66.513  1.00  0.00    -0.388 C  
HETATM   15  O   UNL     1     -12.209  11.722  67.492  1.00  0.00    -0.526 OA 
HETATM   16  N   UNL     1     -12.603  12.809  65.537  1.00  0.00    -0.364 N  
HETATM   17  H   UNL     1     -12.603  10.948  67.105  1.00  0.00     0.000 HD 
HETATM   18  H   UNL     1     -13.495  13.253  65.754  1.00  0.00     0.000 HD 
HETATM   19  C   UNL     1     -12.234  12.413  64.273  1.00  0.00    -0.452 C  
HETATM   20  O   UNL     1     -12.836  12.626  63.238  1.00  0.00    -0.643 OA 
HETATM   21  C   UNL     1     -10.944  11.718  64.389  1.00  0.00    -0.397 A  
HETATM   22  C   UNL     1     -10.137  11.176  63.404  1.00  0.00    -0.439 A  
HETATM   23  C   UNL     1      -8.916  10.630  63.806  1.00  0.00    -0.208 A  
HETATM   24  C   UNL     1      -8.545  10.620  65.164  1.00  0.00    -0.173 A  
HETATM   25  C   UNL     1      -9.381  11.173  66.138  1.00  0.00    -0.227 A  
HETATM   26  C   UNL     1     -10.580  11.738  65.734  1.00  0.00    -0.312 A  
ENDBRANCH  12  14
ENDBRANCH   3   7
TORSDOF 2
ENDMDL
MODEL        7
REMARK 921   NORMALIZED FREE ENERGY PREDICTED BY IDOCK:   -7.05 KCAL/MOL
REMARK 922        TOTAL FREE ENERGY PREDICTED BY IDOCK:   -8.35 KCAL/MOL
REMARK 923 INTER-LIGAND FREE ENERGY PREDICTED BY IDOCK:   -7.65 KCAL/MOL
REMARK 924 INTRA-LIGAND FREE ENERGY PREDICTED BY IDOCK:   -0.70 KCAL/MOL
REMARK 927      BINDING AFFINITY PREDICTED BY RF-SCORE:    0.00 PKD
ROOT
HETATM    1  N   UNL     1      -9.883  11.814  68.774  1.00  0.00    -0.374 N  
HETATM    2  H2  UNL     1      -9.016  11.302  68.935  1.00  0.00     0.000 HD 
HETATM    3  S   UNL     1     -10.874  11.754  67.423  1.00  0.00    -0.267 S  
HETATM    4  H1  UNL     1     -10.342  12.476  69.400  1.00  0.00     0.000 HD 
HETATM    5  O   UNL     1     -12.220  11.544  67.895  1.00  0.00    -0.586 OA 
HETATM    6  O   UNL     1     -10.223  10.816  66.536  1.00  0.00    -0.220 OA 
ENDROOT
BRANCH   3   7
HETATM    7  C   UNL     1     -10.757  13.372  66.728  1.00  0.00    -0.277 A  
HETATM    8  C   UNL     1     -11.361  13.686  65.512  1.00  0.00    -0.298 A  
HETATM    9 CL   UNL     1     -12.344  12.597  64.603  1.00  0.00    -0.522 Cl 
HETATM   10  C   UNL     1     -11.145  14.948  64.951  1.00  0.00    -0.424 A  
HETATM   11  C   UNL     1     -10.306  15.872  65.575  1.00  0.00    -0.425 A  
HETATM   12  C   UNL     1      -9.670  15.562  66.789  1.00  0.00    -0.252 A  
HETATM   13  C   UNL     1      -9.935  14.310  67.377  1.00  0.00    -0.242 A  
BRANCH  12  14
HETATM   14  C   UNL     1      -8.579  16.476  67.335  1.00  0.00    -0.178 C  
HETATM   15  O   UNL     1      -8.054  15.979  68.544  1.00  0.00    -0.153 OA 
HETATM   16  N   UNL     1      -7.465  16.650  66.455  1.00  0.00    -0.275 N  
HETATM   17  H   UNL     1      -7.374  16.549  68.884  1.00  0.00     0.000 HD 
HETATM   18  H   UNL     1      -6.822  15.901  66.200  1.00  0.00     0.000 HD 
HETATM   19  C   UNL     1      -7.358  17.940  65.992  1.00  0.00    -0.271 C  
HETATM   20  O   UNL     1      -6.584  18.349  65.149  1.00  0.00    -0.471 OA 
HETATM   21  C   UNL     1      -8.389  18.737  66.671  1.00  0.00    -0.296 A  
HETATM   22  C   UNL     1      -8.722  20.071  66.518  1.00  0.00    -0.384 A  
HETATM   23  C   UNL     1      -9.807  20.549  67.256  1.00  0.00    -0.581 A  
HETATM   24  C   UNL     1     -10.512  19.701  68.131  1.00  0.00    -0.503 A  
HETATM   25  C   UNL     1     -10.152  18.357  68.268  1.00  0.00    -0.410 A  
HETATM   26  C   UNL     1      -9.092  17.879  67.514  1.00  0.00    -0.245 A  
ENDBRANCH  12  14
ENDBRANCH   3   7
TORSDOF 2
ENDMDL
MODEL        8
REMARK 921   NORMALIZED FREE ENERGY PREDICTED BY IDOCK:   -6.96 KCAL/MOL
REMARK 922        TOTAL FREE ENERGY PREDICTED BY IDOCK:   -8.25 KCAL/MOL
REMARK 923 INTER-LIGAND FREE ENERGY PREDICTED BY IDOCK:   -7.70 KCAL/MOL
REMARK 924 INTRA-LIGAND FREE ENERGY PREDICTED BY IDOCK:   -0.56 KCAL/MOL
REMARK 927      BINDING AFFINITY PREDICTED BY RF-SCORE:    0.00 PKD
ROOT
HETATM    1  N   UNL     1     -10.995  19.220  67.477  1.00  0.00    -0.423 N  
HETATM    2  H2  UNL     1     -11.634  19.312  66.688  1.00  0.00     0.000 HD 
HETATM    3  S   UNL     1      -9.371  18.803  67.440  1.00  0.00    -0.289 S  
HETATM    4  H1  UNL     1     -11.201  19.360  68.466  1.00  0.00     0.000 HD 
HETATM    5  O   UNL     1      -8.666  19.782  68.230  1.00  0.00    -0.325 OA 
HETATM    6  O   UNL     1      -9.079  18.603  66.038  1.00  0.00    -0.487 OA 
ENDROOT
BRANCH   3   7
HETATM    7  C   UNL     1      -9.304  17.245  68.264  1.00  0.00    -0.272 A  
HETATM    8  C   UNL     1      -8.092  16.693  68.677  1.00  0.00    -0.237 A  
HETATM    9 CL   UNL     1      -6.562  17.475  68.522  1.00  0.00    -0.190 Cl 
HETATM   10  C   UNL     1      -8.083  15.406  69.224  1.00  0.00    -0.246 A  
HETATM   11  C   UNL     1      -9.260  14.665  69.323  1.00  0.00     0.030 A  
HETATM   12  C   UNL     1     -10.486  15.198  68.890  1.00  0.00    -0.241 A  
HETATM   13  C   UNL     1     -10.498  16.514  68.389  1.00  0.00    -0.307 A  
BRANCH  12  14
HETATM   14  C   UNL     1     -11.714  14.300  68.782  1.00  0.00    -0.343 C  
HETATM   15  O   UNL     1     -12.509  14.654  67.674  1.00  0.00    -0.568 OA 
HETATM   16  N   UNL     1     -11.412  12.910  68.631  1.00  0.00    -0.285 N  
HETATM   17  H   UNL     1     -13.275  14.094  67.607  1.00  0.00     0.000 HD 
HETATM   18  H   UNL     1     -10.952  12.515  67.811  1.00  0.00     0.000 HD 
HETATM   19  C   UNL     1     -11.813  12.165  69.714  1.00  0.00    -0.327 C  
HETATM   20  O   UNL     1     -11.587  10.987  69.912  1.00  0.00    -0.279 OA 
HETATM   21  C   UNL     1     -12.532  13.067  70.625  1.00  0.00    -0.347 A  
HETATM   22  C   UNL     1     -13.087  12.815  71.868  1.00  0.00    -0.474 A  
HETATM   23  C   UNL     1     -13.656  13.895  72.546  1.00  0.00    -0.680 A  
HETATM   24  C   UNL     1     -13.675  15.178  71.968  1.00  0.00    -0.576 A  
HETATM   25  C   UNL     1     -13.108  15.404  70.710  1.00  0.00    -0.479 A  
HETATM   26  C   UNL     1     -12.520  14.336  70.051  1.00  0.00    -0.355 A  
ENDBRANCH  12  14
ENDBRANCH   3   7
TORSDOF 2
ENDMDL
MODEL        9
REMARK 921   NORMALIZED FREE ENERGY PREDICTED BY IDOCK:   -6.85 KCAL/MOL
REMARK 922        TOTAL FREE ENERGY PREDICTED BY IDOCK:   -8.13 KCAL/MOL
REMARK 923 INTER-LIGAND FREE ENERGY PREDICTED BY IDOCK:   -7.89 KCAL/MOL
REMARK 924 INTRA-LIGAND FREE ENERGY PREDICTED BY IDOCK:   -0.24 KCAL/MOL
REMARK 927      BINDING AFFINITY PREDICTED BY RF-SCORE:    0.00 PKD
ROOT
HETATM    1  N   UNL     1     -11.750  13.591  70.148  1.00  0.00    -0.492 N  
HETATM    2  H2  UNL     1     -12.608  13.114  70.423  1.00  0.00     0.000 HD 
HETATM    3  S   UNL     1     -11.554  15.213  69.768  1.00  0.00    -0.336 S  
HETATM    4  H1  UNL     1     -10.819  13.188  70.042  1.00  0.00     0.000 HD 
HETATM    5  O   UNL     1     -10.429  15.692  70.532  1.00  0.00    -0.290 OA 
HETATM    6  O   UNL     1     -12.875  15.783  69.918  1.00  0.00    -0.157 OA 
ENDROOT
BRANCH   3   7
HETATM    7  C   UNL     1     -11.125  15.209  68.058  1.00  0.00    -0.308 A  
HETATM    8  C   UNL     1     -10.728  16.375  67.405  1.00  0.00    -0.278 A  
HETATM    9 CL   UNL     1     -10.524  17.903  68.180  1.00  0.00    -0.388 Cl 
HETATM   10  C   UNL     1     -10.507  16.341  66.025  1.00  0.00    -0.342 A  
HETATM   11  C   UNL     1     -10.716  15.168  65.298  1.00  0.00    -0.422 A  
HETATM   12  C   UNL     1     -11.140  13.991  65.937  1.00  0.00    -0.301 A  
HETATM   13  C   UNL     1     -11.309  14.017  67.335  1.00  0.00    -0.350 A  
BRANCH  12  14
HETATM   14  C   UNL     1     -11.592  12.793  65.109  1.00  0.00    -0.338 C  
HETATM   15  O   UNL     1     -12.994  12.764  64.976  1.00  0.00    -0.811 OA 
HETATM   16  N   UNL     1     -11.063  12.765  63.780  1.00  0.00    -0.460 N  
HETATM   17  H   UNL     1     -13.276  12.017  64.460  1.00  0.00     0.000 HD 
HETATM   18  H   UNL     1     -11.296  13.452  63.063  1.00  0.00     0.000 HD 
HETATM   19  C   UNL     1     -10.206  11.710  63.578  1.00  0.00    -0.436 C  
HETATM   20  O   UNL     1      -9.526  11.502  62.592  1.00  0.00    -0.327 OA 
HETATM   21  C   UNL     1     -10.220  10.892  64.799  1.00  0.00    -0.398 A  
HETATM   22  C   UNL     1      -9.497   9.756  65.114  1.00  0.00    -0.338 A  
HETATM   23  C   UNL     1      -9.667   9.222  66.394  1.00  0.00    -0.325 A  
HETATM   24  C   UNL     1     -10.557   9.817  67.308  1.00  0.00    -0.320 A  
HETATM   25  C   UNL     1     -11.277  10.964  66.963  1.00  0.00    -0.211 A  
HETATM   26  C   UNL     1     -11.086  11.507  65.702  1.00  0.00    -0.261 A  
ENDBRANCH  12  14
ENDBRANCH   3   7
TORSDOF 2
ENDMDL
MODEL       10
REMARK 921   NORMALIZED FREE ENERGY PREDICTED BY IDOCK:   -6.83 KCAL/MOL
REMARK 922        TOTAL FREE ENERGY PREDICTED BY IDOCK:   -8.11 KCAL/MOL
REMARK 923 INTER-LIGAND FREE ENERGY PREDICTED BY IDOCK:   -7.55 KCAL/MOL
REMARK 924 INTRA-LIGAND FREE ENERGY PREDICTED BY IDOCK:   -0.55 KCAL/MOL
REMARK 927      BINDING AFFINITY PREDICTED BY RF-SCORE:    0.00 PKD
ROOT
HETATM    1  N   UNL     1     -11.385   9.646  68.496  1.00  0.00    -0.491 N  
HETATM    2  H2  UNL     1     -11.423  10.457  69.114  1.00  0.00     0.000 HD 
HETATM    3  S   UNL     1     -10.130   8.548  68.321  1.00  0.00    -0.197 S  
HETATM    4  H1  UNL     1     -12.101   9.323  67.846  1.00  0.00     0.000 HD 
HETATM    5  O   UNL     1     -10.706   7.230  68.421  1.00  0.00    -0.189 OA 
HETATM    6  O   UNL     1      -9.114   9.007  69.243  1.00  0.00    -0.141 OA 
ENDROOT
BRANCH   3   7
HETATM    7  C   UNL     1      -9.559   8.800  66.672  1.00  0.00    -0.220 A  
HETATM    8  C   UNL     1      -8.475   8.089  66.161  1.00  0.00    -0.135 A  
HETATM    9 CL   UNL     1      -7.636   6.846  67.015  1.00  0.00    -0.100 Cl 
HETATM   10  C   UNL     1      -7.992   8.406  64.887  1.00  0.00    -0.136 A  
HETATM   11  C   UNL     1      -8.559   9.444  64.148  1.00  0.00    -0.216 A  
HETATM   12  C   UNL     1      -9.637  10.187  64.659  1.00  0.00    -0.379 A  
HETATM   13  C   UNL     1     -10.153   9.828  65.919  1.00  0.00    -0.314 A  
BRANCH  12  14
HETATM   14  C   UNL     1     -10.089  11.462  63.954  1.00  0.00    -0.345 C  
HETATM   15  O   UNL     1      -9.067  11.982  63.136  1.00  0.00    -0.654 OA 
HETATM   16  N   UNL     1     -11.231  11.292  63.110  1.00  0.00    -0.845 N  
HETATM   17  H   UNL     1      -9.348  12.776  62.696  1.00  0.00     0.000 HD 
HETATM   18  H   UNL     1     -11.229  10.727  62.261  1.00  0.00     0.000 HD 
HETATM   19  C   UNL     1     -12.330  11.975  63.570  1.00  0.00    -0.551 C  
HETATM   20  O   UNL     1     -13.460  11.923  63.124  1.00  0.00    -0.370 OA 
HETATM   21  C   UNL     1     -11.905  12.755  64.741  1.00  0.00    -0.423 A  
HETATM   22  C   UNL     1     -12.645  13.565  65.584  1.00  0.00    -0.512 A  
HETATM   23  C   UNL     1     -11.980  14.134  66.673  1.00  0.00    -0.470 A  
HETATM   24  C   UNL     1     -10.608  13.898  66.880  1.00  0.00    -0.280 A  
HETATM   25  C   UNL     1      -9.883  13.075  66.012  1.00  0.00    -0.259 A  
HETATM   26  C   UNL     1     -10.552  12.491  64.948  1.00  0.00    -0.330 A  
ENDBRANCH  12  14
ENDBRANCH   3   7
TORSDOF 2
ENDMDL
MODEL       11
REMARK 921   NORMALIZED FREE ENERGY PREDICTED BY IDOCK:   -6.81 KCAL/MOL
REMARK 922        TOTAL FREE ENERGY PREDICTED BY IDOCK:   -8.08 KCAL/MOL
REMARK 923 INTER-LIGAND FREE ENERGY PREDICTED BY IDOCK:   -7.95 KCAL/MOL
REMARK 924 INTRA-LIGAND FREE ENERGY PREDICTED BY IDOCK:   -0.13 KCAL/MOL
REMARK 927      BINDING AFFINITY PREDICTED BY RF-SCORE:    0.00 PKD
ROOT
HETATM    1  N   UNL     1     -10.572  14.270  69.821  1.00  0.00    -0.446 N  
HETATM    2  H2  UNL     1     -11.386  14.049  70.394  1.00  0.00     0.000 HD 
HETATM    3  S   UNL     1      -9.998  15.787  69.394  1.00  0.00    -0.286 S  
HETATM    4  H1  UNL     1      -9.925  13.617  69.380  1.00  0.00     0.000 HD 
HETATM    5  O   UNL     1      -8.587  15.802  69.688  1.00  0.00    -0.212 OA 
HETATM    6  O   UNL     1     -10.916  16.712  70.021  1.00  0.00    -0.333 OA 
ENDROOT
BRANCH   3   7
HETATM    7  C   UNL     1     -10.220  15.858  67.646  1.00  0.00    -0.263 A  
HETATM    8  C   UNL     1     -10.181  17.069  66.957  1.00  0.00    -0.303 A  
HETATM    9 CL   UNL     1      -9.830  18.593  67.686  1.00  0.00    -0.331 Cl 
HETATM   10  C   UNL     1     -10.474  17.084  65.590  1.00  0.00    -0.229 A  
HETATM   11  C   UNL     1     -10.839  15.912  64.926  1.00  0.00    -0.420 A  
HETATM   12  C   UNL     1     -10.908  14.688  65.612  1.00  0.00    -0.335 A  
HETATM   13  C   UNL     1     -10.559  14.669  66.976  1.00  0.00    -0.280 A  
BRANCH  12  14
HETATM   14  C   UNL     1     -11.534  13.470  64.940  1.00  0.00    -0.334 C  
HETATM   15  O   UNL     1     -12.914  13.658  64.727  1.00  0.00    -0.685 OA 
HETATM   16  N   UNL     1     -10.972  13.151  63.664  1.00  0.00    -0.540 N  
HETATM   17  H   UNL     1     -13.304  12.899  64.309  1.00  0.00     0.000 HD 
HETATM   18  H   UNL     1     -11.056  13.749  62.842  1.00  0.00     0.000 HD 
HETATM   19  C   UNL     1     -10.307  11.949  63.670  1.00  0.00    -0.441 C  
HETATM   20  O   UNL     1      -9.640  11.481  62.767  1.00  0.00    -0.358 OA 
HETATM   21  C   UNL     1     -10.507  11.342  64.993  1.00  0.00    -0.359 A  
HETATM   22  C   UNL     1     -10.006  10.161  65.512  1.00  0.00    -0.363 A  
HETATM   23  C   UNL     1     -10.312   9.866  66.843  1.00  0.00    -0.300 A  
HETATM   24  C   UNL     1     -11.115  10.735  67.606  1.00  0.00    -0.384 A  
HETATM   25  C   UNL     1     -11.610  11.921  67.055  1.00  0.00    -0.365 A  
HETATM   26  C   UNL     1     -11.283  12.224  65.742  1.00  0.00    -0.378 A  
ENDBRANCH  12  14
ENDBRANCH   3   7
TORSDOF 2
ENDMDL
MODEL       12
REMARK 921   NORMALIZED FREE ENERGY PREDICTED BY IDOCK:   -6.79 KCAL/MOL
REMARK 922        TOTAL FREE ENERGY PREDICTED BY IDOCK:   -8.06 KCAL/MOL
REMARK 923 INTER-LIGAND FREE ENERGY PREDICTED BY IDOCK:   -7.83 KCAL/MOL
REMARK 924 INTRA-LIGAND FREE ENERGY PREDICTED BY IDOCK:   -0.23 KCAL/MOL
REMARK 927      BINDING AFFINITY PREDICTED BY RF-SCORE:    0.00 PKD
ROOT
HETATM    1  N   UNL     1      -8.231  11.329  65.448  1.00  0.00    -0.359 N  
HETATM    2  H2  UNL     1      -7.398  11.769  65.058  1.00  0.00     0.000 HD 
HETATM    3  S   UNL     1      -9.686  11.019  64.673  1.00  0.00    -0.287 S  
HETATM    4  H1  UNL     1      -8.366  10.981  66.396  1.00  0.00     0.000 HD 
HETATM    5  O   UNL     1     -10.018   9.641  64.935  1.00  0.00    -0.173 OA 
HETATM    6  O   UNL     1      -9.494  11.514  63.328  1.00  0.00    -0.312 OA 
ENDROOT
BRANCH   3   7
HETATM    7  C   UNL     1     -10.848  12.055  65.502  1.00  0.00    -0.292 A  
HETATM    8  C   UNL     1     -11.850  12.727  64.803  1.00  0.00    -0.374 A  
HETATM    9 CL   UNL     1     -12.132  12.566  63.108  1.00  0.00    -0.476 Cl 
HETATM   10  C   UNL     1     -12.675  13.623  65.491  1.00  0.00    -0.514 A  
HETATM   11  C   UNL     1     -12.478  13.875  66.849  1.00  0.00    -0.201 A  
HETATM   12  C   UNL     1     -11.457  13.225  67.561  1.00  0.00    -0.361 A  
HETATM   13  C   UNL     1     -10.664  12.284  66.877  1.00  0.00    -0.264 A  
BRANCH  12  14
HETATM   14  C   UNL     1     -11.100  13.681  68.972  1.00  0.00    -0.255 C  
HETATM   15  O   UNL     1      -9.705  13.778  69.140  1.00  0.00    -0.410 OA 
HETATM   16  N   UNL     1     -11.636  14.959  69.328  1.00  0.00    -0.288 N  
HETATM   17  H   UNL     1      -9.482  14.062  70.019  1.00  0.00     0.000 HD 
HETATM   18  H   UNL     1     -11.355  15.835  68.887  1.00  0.00     0.000 HD 
HETATM   19  C   UNL     1     -12.571  14.875  70.331  1.00  0.00    -0.343 C  
HETATM   20  O   UNL     1     -13.269  15.776  70.754  1.00  0.00    -0.542 OA 
HETATM   21  C   UNL     1     -12.612  13.475  70.777  1.00  0.00    -0.382 A  
HETATM   22  C   UNL     1     -13.418  12.870  71.725  1.00  0.00    -0.369 A  
HETATM   23  C   UNL     1     -13.283  11.490  71.894  1.00  0.00    -0.479 A  
HETATM   24  C   UNL     1     -12.346  10.761  71.136  1.00  0.00    -0.498 A  
HETATM   25  C   UNL     1     -11.543  11.399  70.186  1.00  0.00    -0.368 A  
HETATM   26  C   UNL     1     -11.699  12.764  70.002  1.00  0.00    -0.282 A  
ENDBRANCH  12  14
ENDBRANCH   3   7
TORSDOF 2
ENDMDL
MODEL       13
REMARK 921   NORMALIZED FREE ENERGY PREDICTED BY IDOCK:   -6.69 KCAL/MOL
REMARK 922        TOTAL FREE ENERGY PREDICTED BY IDOCK:   -7.95 KCAL/MOL
REMARK 923 INTER-LIGAND FREE ENERGY PREDICTED BY IDOCK:   -7.55 KCAL/MOL
REMARK 924 INTRA-LIGAND FREE ENERGY PREDICTED BY IDOCK:   -0.41 KCAL/MOL
REMARK 927      BINDING AFFINITY PREDICTED BY RF-SCORE:    0.00 PKD
ROOT
HETATM    1  N   UNL     1     -13.625   8.495  71.056  1.00  0.00    -0.535 N  
HETATM    2  H2  UNL     1     -14.639   8.487  71.169  1.00  0.00     0.000 HD 
HETATM    3  S   UNL     1     -12.537   9.633  71.632  1.00  0.00    -0.428 S  
HETATM    4  H1  UNL     1     -13.047   7.811  70.567  1.00  0.00     0.000 HD 
HETATM    5  O   UNL     1     -11.486   8.909  72.304  1.00  0.00    -0.348 OA 
HETATM    6  O   UNL     1     -13.357  10.602  72.325  1.00  0.00    -0.386 OA 
ENDROOT
BRANCH   3   7
HETATM    7  C   UNL     1     -11.879  10.379  70.176  1.00  0.00    -0.297 A  
HETATM    8  C   UNL     1     -11.021   9.682  69.327  1.00  0.00    -0.168 A  
HETATM    9 CL   UNL     1     -10.579   8.027  69.532  1.00  0.00    -0.227 Cl 
HETATM   10  C   UNL     1     -10.438  10.354  68.248  1.00  0.00    -0.221 A  
HETATM   11  C   UNL     1     -10.677  11.713  68.041  1.00  0.00    -0.246 A  
HETATM   12  C   UNL     1     -11.519  12.436  68.903  1.00  0.00    -0.355 A  
HETATM   13  C   UNL     1     -12.146  11.742  69.955  1.00  0.00    -0.387 A  
BRANCH  12  14
HETATM   14  C   UNL     1     -11.583  13.956  68.811  1.00  0.00    -0.335 C  
HETATM   15  O   UNL     1     -12.722  14.461  69.469  1.00  0.00    -0.537 OA 
HETATM   16  N   UNL     1     -10.457  14.627  69.386  1.00  0.00    -0.368 N  
HETATM   17  H   UNL     1     -12.761  15.408  69.412  1.00  0.00     0.000 HD 
HETATM   18  H   UNL     1     -10.239  14.615  70.382  1.00  0.00     0.000 HD 
HETATM   19  C   UNL     1      -9.703  15.287  68.446  1.00  0.00    -0.213 C  
HETATM   20  O   UNL     1      -8.636  15.841  68.627  1.00  0.00    -0.173 OA 
HETATM   21  C   UNL     1     -10.399  15.163  67.158  1.00  0.00    -0.263 A  
HETATM   22  C   UNL     1     -10.027  15.612  65.903  1.00  0.00    -0.379 A  
HETATM   23  C   UNL     1     -10.864  15.286  64.833  1.00  0.00    -0.444 A  
HETATM   24  C   UNL     1     -12.044  14.548  65.042  1.00  0.00    -0.390 A  
HETATM   25  C   UNL     1     -12.397  14.109  66.322  1.00  0.00    -0.451 A  
HETATM   26  C   UNL     1     -11.551  14.411  67.377  1.00  0.00    -0.398 A  
ENDBRANCH  12  14
ENDBRANCH   3   7
TORSDOF 2
ENDMDL
MODEL       14
REMARK 921   NORMALIZED FREE ENERGY PREDICTED BY IDOCK:   -6.68 KCAL/MOL
REMARK 922        TOTAL FREE ENERGY PREDICTED BY IDOCK:   -7.94 KCAL/MOL
REMARK 923 INTER-LIGAND FREE ENERGY PREDICTED BY IDOCK:   -7.34 KCAL/MOL
REMARK 924 INTRA-LIGAND FREE ENERGY PREDICTED BY IDOCK:   -0.60 KCAL/MOL
REMARK 927      BINDING AFFINITY PREDICTED BY RF-SCORE:    0.00 PKD
ROOT
HETATM    1  N   UNL     1     -11.762   8.351  69.889  1.00  0.00    -0.297 N  
HETATM    2  H2  UNL     1     -12.352   7.695  69.377  1.00  0.00     0.000 HD 
HETATM    3  S   UNL     1     -12.226   9.430  71.085  1.00  0.00    -0.316 S  
HETATM    4  H1  UNL     1     -10.758   8.496  69.787  1.00  0.00     0.000 HD 
HETATM    5  O   UNL     1     -11.318   9.251  72.190  1.00  0.00    -0.285 OA 
HETATM    6  O   UNL     1     -13.650   9.224  71.228  1.00  0.00    -0.341 OA 
ENDROOT
BRANCH   3   7
HETATM    7  C   UNL     1     -11.948  11.017  70.367  1.00  0.00    -0.368 A  
HETATM    8  C   UNL     1     -12.453  12.178  70.952  1.00  0.00    -0.279 A  
HETATM    9 CL   UNL     1     -13.308  12.221  72.450  1.00  0.00    -0.426 Cl 
HETATM   10  C   UNL     1     -12.301  13.398  70.285  1.00  0.00    -0.354 A  
HETATM   11  C   UNL     1     -11.688  13.454  69.033  1.00  0.00    -0.368 A  
HETATM   12  C   UNL     1     -11.195  12.290  68.419  1.00  0.00    -0.311 A  
HETATM   13  C   UNL     1     -11.303  11.073  69.119  1.00  0.00    -0.348 A  
BRANCH  12  14
HETATM   14  C   UNL     1     -10.747  12.326  66.962  1.00  0.00    -0.231 C  
HETATM   15  O   UNL     1     -10.032  11.162  66.618  1.00  0.00    -0.197 OA 
HETATM   16  N   UNL     1     -11.820  12.430  66.021  1.00  0.00    -0.417 N  
HETATM   17  H   UNL     1      -9.753  11.184  65.710  1.00  0.00     0.000 HD 
HETATM   18  H   UNL     1     -12.517  11.701  65.873  1.00  0.00     0.000 HD 
HETATM   19  C   UNL     1     -11.805  13.623  65.339  1.00  0.00    -0.353 C  
HETATM   20  O   UNL     1     -12.652  14.032  64.568  1.00  0.00    -0.635 OA 
HETATM   21  C   UNL     1     -10.593  14.348  65.747  1.00  0.00    -0.326 A  
HETATM   22  C   UNL     1     -10.149  15.607  65.384  1.00  0.00    -0.370 A  
HETATM   23  C   UNL     1      -8.980  16.073  65.991  1.00  0.00    -0.345 A  
HETATM   24  C   UNL     1      -8.284  15.275  66.917  1.00  0.00    -0.263 A  
HETATM   25  C   UNL     1      -8.755  14.005  67.265  1.00  0.00    -0.227 A  
HETATM   26  C   UNL     1      -9.929  13.556  66.681  1.00  0.00    -0.282 A  
ENDBRANCH  12  14
ENDBRANCH   3   7
TORSDOF 2
ENDMDL
MODEL       15
REMARK 921   NORMALIZED FREE ENERGY PREDICTED BY IDOCK:   -6.62 KCAL/MOL
REMARK 922        TOTAL FREE ENERGY PREDICTED BY IDOCK:   -7.88 KCAL/MOL
REMARK 923 INTER-LIGAND FREE ENERGY PREDICTED BY IDOCK:   -7.54 KCAL/MOL
REMARK 924 INTRA-LIGAND FREE ENERGY PREDICTED BY IDOCK:   -0.34 KCAL/MOL
REMARK 927      BINDING AFFINITY PREDICTED BY RF-SCORE:    0.00 PKD
ROOT
HETATM    1  N   UNL     1      -7.997  10.305  69.957  1.00  0.00    -0.340 N  
HETATM    2  H2  UNL     1      -7.991  10.462  68.950  1.00  0.00     0.000 HD 
HETATM    3  S   UNL     1      -7.852   8.845  70.769  1.00  0.00    -0.132 S  
HETATM    4  H1  UNL     1      -8.094  11.001  70.696  1.00  0.00     0.000 HD 
HETATM    5  O   UNL     1      -6.839   9.023  71.780  1.00  0.00    -0.227 OA 
HETATM    6  O   UNL     1      -7.716   7.858  69.721  1.00  0.00    -0.094 OA 
ENDROOT
BRANCH   3   7
HETATM    7  C   UNL     1      -9.415   8.629  71.557  1.00  0.00    -0.250 A  
HETATM    8  C   UNL     1      -9.699   7.490  72.308  1.00  0.00    -0.160 A  
HETATM    9 CL   UNL     1      -8.566   6.229  72.632  1.00  0.00    -0.124 Cl 
HETATM   10  C   UNL     1     -10.990   7.315  72.818  1.00  0.00    -0.366 A  
HETATM   11  C   UNL     1     -11.994   8.246  72.549  1.00  0.00    -0.420 A  
HETATM   12  C   UNL     1     -11.730   9.386  71.772  1.00  0.00    -0.444 A  
HETATM   13  C   UNL     1     -10.416   9.584  71.307  1.00  0.00    -0.320 A  
BRANCH  12  14
HETATM   14  C   UNL     1     -12.880  10.264  71.289  1.00  0.00    -0.422 C  
HETATM   15  O   UNL     1     -13.934   9.485  70.773  1.00  0.00    -0.495 OA 
HETATM   16  N   UNL     1     -13.453  11.092  72.304  1.00  0.00    -0.527 N  
HETATM   17  H   UNL     1     -14.651  10.031  70.472  1.00  0.00     0.000 HD 
HETATM   18  H   UNL     1     -13.962  10.731  73.111  1.00  0.00     0.000 HD 
HETATM   19  C   UNL     1     -13.242  12.430  72.072  1.00  0.00    -0.409 C  
HETATM   20  O   UNL     1     -13.513  13.351  72.818  1.00  0.00    -0.607 OA 
HETATM   21  C   UNL     1     -12.579  12.549  70.765  1.00  0.00    -0.299 A  
HETATM   22  C   UNL     1     -12.117  13.674  70.105  1.00  0.00    -0.431 A  
HETATM   23  C   UNL     1     -11.457  13.477  68.890  1.00  0.00    -0.348 A  
HETATM   24  C   UNL     1     -11.294  12.183  68.361  1.00  0.00    -0.336 A  
HETATM   25  C   UNL     1     -11.774  11.063  69.049  1.00  0.00    -0.402 A  
HETATM   26  C   UNL     1     -12.404  11.260  70.268  1.00  0.00    -0.389 A  
ENDBRANCH  12  14
ENDBRANCH   3   7
TORSDOF 2
ENDMDL
MODEL       16
REMARK 921   NORMALIZED FREE ENERGY PREDICTED BY IDOCK:   -6.58 KCAL/MOL
REMARK 922        TOTAL FREE ENERGY PREDICTED BY IDOCK:   -7.82 KCAL/MOL
REMARK 923 INTER-LIGAND FREE ENERGY PREDICTED BY IDOCK:   -7.73 KCAL/MOL
REMARK 924 INTRA-LIGAND FREE ENERGY PREDICTED BY IDOCK:   -0.09 KCAL/MOL
REMARK 927      BINDING AFFINITY PREDICTED BY RF-SCORE:    0.00 PKD
ROOT
HETATM    1  N   UNL     1     -10.831  19.521  67.207  1.00  0.00    -0.491 N  
HETATM    2  H2  UNL     1     -11.702  20.048  67.150  1.00  0.00     0.000 HD 
HETATM    3  S   UNL     1     -10.127  18.571  66.017  1.00  0.00    -0.200 S  
HETATM    4  H1  UNL     1     -10.193  19.454  67.999  1.00  0.00     0.000 HD 
HETATM    5  O   UNL     1      -8.747  18.975  65.916  1.00  0.00    -0.451 OA 
HETATM    6  O   UNL     1     -11.033  18.666  64.894  1.00  0.00    -0.494 OA 
ENDROOT
BRANCH   3   7
HETATM    7  C   UNL     1     -10.199  16.935  66.671  1.00  0.00    -0.312 A  
HETATM    8  C   UNL     1      -9.422  16.554  67.764  1.00  0.00    -0.222 A  
HETATM    9 CL   UNL     1      -8.394  17.622  68.648  1.00  0.00    -0.286 Cl 
HETATM   10  C   UNL     1      -9.431  15.217  68.174  1.00  0.00    -0.201 A  
HETATM   11  C   UNL     1     -10.175  14.264  67.477  1.00  0.00    -0.240 A  
HETATM   12  C   UNL     1     -10.944  14.626  66.358  1.00  0.00    -0.325 A  
HETATM   13  C   UNL     1     -10.973  15.983  65.984  1.00  0.00    -0.097 A  
BRANCH  12  14
HETATM   14  C   UNL     1     -11.555  13.548  65.470  1.00  0.00    -0.320 C  
HETATM   15  O   UNL     1     -12.941  13.745  65.308  1.00  0.00    -0.731 OA 
HETATM   16  N   UNL     1     -11.002  13.491  64.152  1.00  0.00    -0.556 N  
HETATM   17  H   UNL     1     -13.322  13.074  64.754  1.00  0.00     0.000 HD 
HETATM   18  H   UNL     1     -11.105  14.233  63.460  1.00  0.00     0.000 HD 
HETATM   19  C   UNL     1     -10.315  12.323  63.922  1.00  0.00    -0.429 C  
HETATM   20  O   UNL     1      -9.650  12.050  62.941  1.00  0.00    -0.332 OA 
HETATM   21  C   UNL     1     -10.489  11.470  65.106  1.00  0.00    -0.340 A  
HETATM   22  C   UNL     1      -9.961  10.222  65.385  1.00  0.00    -0.371 A  
HETATM   23  C   UNL     1     -10.246   9.671  66.637  1.00  0.00    -0.302 A  
HETATM   24  C   UNL     1     -11.057  10.361  67.558  1.00  0.00    -0.336 A  
HETATM   25  C   UNL     1     -11.579  11.621  67.249  1.00  0.00    -0.316 A  
HETATM   26  C   UNL     1     -11.272  12.176  66.016  1.00  0.00    -0.382 A  
ENDBRANCH  12  14
ENDBRANCH   3   7
TORSDOF 2
ENDMDL
MODEL       17
REMARK 921   NORMALIZED FREE ENERGY PREDICTED BY IDOCK:   -6.55 KCAL/MOL
REMARK 922        TOTAL FREE ENERGY PREDICTED BY IDOCK:   -7.79 KCAL/MOL
REMARK 923 INTER-LIGAND FREE ENERGY PREDICTED BY IDOCK:   -7.00 KCAL/MOL
REMARK 924 INTRA-LIGAND FREE ENERGY PREDICTED BY IDOCK:   -0.79 KCAL/MOL
REMARK 927      BINDING AFFINITY PREDICTED BY RF-SCORE:    0.00 PKD
ROOT
HETATM    1  N   UNL     1     -10.593  10.813  67.280  1.00  0.00    -0.241 N  
HETATM    2  H2  UNL     1      -9.645  10.495  67.079  1.00  0.00     0.000 HD 
HETATM    3  S   UNL     1     -11.058  12.179  68.134  1.00  0.00    -0.270 S  
HETATM    4  H1  UNL     1     -11.470  10.371  67.005  1.00  0.00     0.000 HD 
HETATM    5  O   UNL     1     -12.035  12.868  67.328  1.00  0.00    -0.372 OA 
HETATM    6  O   UNL     1      -9.814  12.805  68.524  1.00  0.00    -0.213 OA 
ENDROOT
BRANCH   3   7
HETATM    7  C   UNL     1     -11.851  11.541  69.574  1.00  0.00    -0.351 A  
HETATM    8  C   UNL     1     -12.409  12.386  70.532  1.00  0.00    -0.262 A  
HETATM    9 CL   UNL     1     -12.474  14.105  70.394  1.00  0.00    -0.412 Cl 
HETATM   10  C   UNL     1     -12.926  11.834  71.708  1.00  0.00    -0.466 A  
HETATM   11  C   UNL     1     -12.853  10.461  71.943  1.00  0.00    -0.519 A  
HETATM   12  C   UNL     1     -12.272   9.598  70.999  1.00  0.00    -0.409 A  
HETATM   13  C   UNL     1     -11.802  10.153  69.793  1.00  0.00    -0.158 A  
BRANCH  12  14
HETATM   14  C   UNL     1     -11.984   8.146  71.366  1.00  0.00    -0.298 C  
HETATM   15  O   UNL     1     -12.741   7.742  72.483  1.00  0.00    -0.531 OA 
HETATM   16  N   UNL     1     -12.275   7.209  70.325  1.00  0.00    -0.592 N  
HETATM   17  H   UNL     1     -12.562   6.838  72.712  1.00  0.00     0.000 HD 
HETATM   18  H   UNL     1     -13.215   7.019  69.979  1.00  0.00     0.000 HD 
HETATM   19  C   UNL     1     -11.145   6.593  69.843  1.00  0.00    -0.348 C  
HETATM   20  O   UNL     1     -11.075   5.843  68.889  1.00  0.00    -0.315 OA 
HETATM   21  C   UNL     1     -10.014   7.043  70.667  1.00  0.00    -0.194 A  
HETATM   22  C   UNL     1      -8.666   6.750  70.558  1.00  0.00    -0.147 A  
HETATM   23  C   UNL     1      -7.799   7.385  71.450  1.00  0.00    -0.095 A  
HETATM   24  C   UNL     1      -8.293   8.269  72.428  1.00  0.00    -0.231 A  
HETATM   25  C   UNL     1      -9.661   8.545  72.516  1.00  0.00    -0.324 A  
HETATM   26  C   UNL     1     -10.516   7.935  71.612  1.00  0.00    -0.255 A  
ENDBRANCH  12  14
ENDBRANCH   3   7
TORSDOF 2
ENDMDL
MODEL       18
REMARK 921   NORMALIZED FREE ENERGY PREDICTED BY IDOCK:   -6.53 KCAL/MOL
REMARK 922        TOTAL FREE ENERGY PREDICTED BY IDOCK:   -7.77 KCAL/MOL
REMARK 923 INTER-LIGAND FREE ENERGY PREDICTED BY IDOCK:   -7.24 KCAL/MOL
REMARK 924 INTRA-LIGAND FREE ENERGY PREDICTED BY IDOCK:   -0.53 KCAL/MOL
REMARK 927      BINDING AFFINITY PREDICTED BY RF-SCORE:    0.00 PKD
ROOT
HETATM    1  N   UNL     1     -13.409  14.066  72.773  1.00  0.00    -0.543 N  
HETATM    2  H2  UNL     1     -14.356  13.724  72.937  1.00  0.00     0.000 HD 
HETATM    3  S   UNL     1     -12.914  15.229  71.671  1.00  0.00    -0.447 S  
HETATM    4  H1  UNL     1     -12.552  13.777  73.244  1.00  0.00     0.000 HD 
HETATM    5  O   UNL     1     -12.089  16.168  72.390  1.00  0.00    -0.481 OA 
HETATM    6  O   UNL     1     -14.129  15.638  71.003  1.00  0.00    -0.499 OA 
ENDROOT
BRANCH   3   7
HETATM    7  C   UNL     1     -11.906  14.341  70.528  1.00  0.00    -0.294 A  
HETATM    8  C   UNL     1     -11.060  15.001  69.639  1.00  0.00    -0.273 A  
HETATM    9 CL   UNL     1     -10.826  16.711  69.605  1.00  0.00    -0.334 Cl 
HETATM   10  C   UNL     1     -10.367  14.258  68.678  1.00  0.00    -0.246 A  
HETATM   11  C   UNL     1     -10.546  12.878  68.580  1.00  0.00    -0.270 A  
HETATM   12  C   UNL     1     -11.415  12.200  69.452  1.00  0.00    -0.355 A  
HETATM   13  C   UNL     1     -12.068  12.946  70.451  1.00  0.00    -0.385 A  
BRANCH  12  14
HETATM   14  C   UNL     1     -11.783  10.745  69.184  1.00  0.00    -0.296 C  
HETATM   15  O   UNL     1     -13.126  10.487  69.522  1.00  0.00    -0.545 OA 
HETATM   16  N   UNL     1     -11.629  10.342  67.820  1.00  0.00    -0.297 N  
HETATM   17  H   UNL     1     -13.356   9.580  69.356  1.00  0.00     0.000 HD 
HETATM   18  H   UNL     1     -12.192  10.709  67.053  1.00  0.00     0.000 HD 
HETATM   19  C   UNL     1     -10.638   9.404  67.659  1.00  0.00    -0.271 C  
HETATM   20  O   UNL     1     -10.211   8.968  66.607  1.00  0.00    -0.269 OA 
HETATM   21  C   UNL     1     -10.145   9.050  68.998  1.00  0.00    -0.204 A  
HETATM   22  C   UNL     1      -9.125   8.192  69.369  1.00  0.00    -0.148 A  
HETATM   23  C   UNL     1      -8.828   8.103  70.731  1.00  0.00    -0.149 A  
HETATM   24  C   UNL     1      -9.559   8.847  71.677  1.00  0.00    -0.363 A  
HETATM   25  C   UNL     1     -10.586   9.705  71.274  1.00  0.00    -0.269 A  
HETATM   26  C   UNL     1     -10.861   9.812  69.919  1.00  0.00    -0.306 A  
ENDBRANCH  12  14
ENDBRANCH   3   7
TORSDOF 2
ENDMDL
MODEL       19
REMARK 921   NORMALIZED FREE ENERGY PREDICTED BY IDOCK:   -6.52 KCAL/MOL
REMARK 922        TOTAL FREE ENERGY PREDICTED BY IDOCK:   -7.76 KCAL/MOL
REMARK 923 INTER-LIGAND FREE ENERGY PREDICTED BY IDOCK:   -6.95 KCAL/MOL
REMARK 924 INTRA-LIGAND FREE ENERGY PREDICTED BY IDOCK:   -0.81 KCAL/MOL
REMARK 927      BINDING AFFINITY PREDICTED BY RF-SCORE:    0.00 PKD
ROOT
HETATM    1  N   UNL     1     -10.323  14.480  69.828  1.00  0.00    -0.438 N  
HETATM    2  H2  UNL     1      -9.435  14.521  70.326  1.00  0.00     0.000 HD 
HETATM    3  S   UNL     1     -10.743  13.468  68.558  1.00  0.00    -0.258 S  
HETATM    4  H1  UNL     1     -11.155  15.048  69.990  1.00  0.00     0.000 HD 
HETATM    5  O   UNL     1     -12.013  12.874  68.895  1.00  0.00    -0.300 OA 
HETATM    6  O   UNL     1      -9.563  12.664  68.329  1.00  0.00    -0.214 OA 
ENDROOT
BRANCH   3   7
HETATM    7  C   UNL     1     -10.966  14.558  67.190  1.00  0.00    -0.304 A  
HETATM    8  C   UNL     1     -11.232  14.074  65.910  1.00  0.00    -0.308 A  
HETATM    9 CL   UNL     1     -11.460  12.406  65.528  1.00  0.00    -0.386 Cl 
HETATM   10  C   UNL     1     -11.289  14.972  64.840  1.00  0.00    -0.419 A  
HETATM   11  C   UNL     1     -11.046  16.332  65.038  1.00  0.00    -0.262 A  
HETATM   12  C   UNL     1     -10.752  16.833  66.317  1.00  0.00    -0.106 A  
HETATM   13  C   UNL     1     -10.750  15.932  67.399  1.00  0.00    -0.313 A  
BRANCH  12  14
HETATM   14  C   UNL     1     -10.257  18.266  66.481  1.00  0.00    -0.394 C  
HETATM   15  O   UNL     1     -10.525  19.033  65.331  1.00  0.00    -0.475 OA 
HETATM   16  N   UNL     1     -10.848  18.968  67.579  1.00  0.00    -0.446 N  
HETATM   17  H   UNL     1     -10.216  19.926  65.433  1.00  0.00     0.000 HD 
HETATM   18  H   UNL     1     -11.835  19.219  67.626  1.00  0.00     0.000 HD 
HETATM   19  C   UNL     1      -9.935  19.268  68.562  1.00  0.00    -0.433 C  
HETATM   20  O   UNL     1     -10.172  19.755  69.651  1.00  0.00    -0.239 OA 
HETATM   21  C   UNL     1      -8.613  18.850  68.077  1.00  0.00    -0.330 A  
HETATM   22  C   UNL     1      -7.382  18.892  68.708  1.00  0.00    -0.356 A  
HETATM   23  C   UNL     1      -6.291  18.354  68.022  1.00  0.00    -0.193 A  
HETATM   24  C   UNL     1      -6.449  17.812  66.733  1.00  0.00    -0.216 A  
HETATM   25  C   UNL     1      -7.705  17.783  66.117  1.00  0.00    -0.280 A  
HETATM   26  C   UNL     1      -8.790  18.294  66.811  1.00  0.00    -0.283 A  
ENDBRANCH  12  14
ENDBRANCH   3   7
TORSDOF 2
ENDMDL
MODEL       20
REMARK 921   NORMALIZED FREE ENERGY PREDICTED BY IDOCK:   -6.51 KCAL/MOL
REMARK 922        TOTAL FREE ENERGY PREDICTED BY IDOCK:   -7.75 KCAL/MOL
REMARK 923 INTER-LIGAND FREE ENERGY PREDICTED BY IDOCK:   -7.18 KCAL/MOL
REMARK 924 INTRA-LIGAND FREE ENERGY PREDICTED BY IDOCK:   -0.58 KCAL/MOL
REMARK 927      BINDING AFFINITY PREDICTED BY RF-SCORE:    0.00 PKD
ROOT
HETATM    1  N   UNL     1     -12.360  13.718  67.744  1.00  0.00    -0.403 N  
HETATM    2  H2  UNL     1     -13.340  13.997  67.704  1.00  0.00     0.000 HD 
HETATM    3  S   UNL     1     -11.515  12.779  66.641  1.00  0.00    -0.369 S  
HETATM    4  H1  UNL     1     -11.676  13.948  68.464  1.00  0.00     0.000 HD 
HETATM    5  O   UNL     1     -10.297  13.486  66.332  1.00  0.00    -0.278 OA 
HETATM    6  O   UNL     1     -12.486  12.453  65.621  1.00  0.00    -0.640 OA 
ENDROOT
BRANCH   3   7
HETATM    7  C   UNL     1     -11.115  11.314  67.537  1.00  0.00    -0.286 A  
HETATM    8  C   UNL     1     -10.528  10.216  66.909  1.00  0.00    -0.222 A  
HETATM    9 CL   UNL     1     -10.050  10.182  65.252  1.00  0.00    -0.384 Cl 
HETATM   10  C   UNL     1     -10.334   9.038  67.639  1.00  0.00    -0.317 A  
HETATM   11  C   UNL     1     -10.754   8.945  68.966  1.00  0.00    -0.148 A  
HETATM   12  C   UNL     1     -11.370  10.034  69.605  1.00  0.00    -0.253 A  
HETATM   13  C   UNL     1     -11.513  11.234  68.883  1.00  0.00    -0.363 A  
BRANCH  12  14
HETATM   14  C   UNL     1     -12.035   9.846  70.964  1.00  0.00    -0.365 C  
HETATM   15  O   UNL     1     -12.176  11.074  71.639  1.00  0.00    -0.186 OA 
HETATM   16  N   UNL     1     -13.343   9.270  70.902  1.00  0.00    -0.564 N  
HETATM   17  H   UNL     1     -12.591  10.957  72.486  1.00  0.00     0.000 HD 
HETATM   18  H   UNL     1     -14.148   9.735  70.482  1.00  0.00     0.000 HD 
HETATM   19  C   UNL     1     -13.394   8.020  71.471  1.00  0.00    -0.290 C  
HETATM   20  O   UNL     1     -14.338   7.253  71.461  1.00  0.00    -0.437 OA 
HETATM   21  C   UNL     1     -12.075   7.752  72.062  1.00  0.00    -0.351 A  
HETATM   22  C   UNL     1     -11.605   6.620  72.704  1.00  0.00    -0.173 A  
HETATM   23  C   UNL     1     -10.268   6.622  73.106  1.00  0.00    -0.238 A  
HETATM   24  C   UNL     1      -9.449   7.744  72.878  1.00  0.00    -0.294 A  
HETATM   25  C   UNL     1      -9.951   8.875  72.228  1.00  0.00    -0.182 A  
HETATM   26  C   UNL     1     -11.271   8.860  71.806  1.00  0.00    -0.432 A  
ENDBRANCH  12  14
ENDBRANCH   3   7
TORSDOF 2
ENDMDL
MODEL       21
REMARK 921   NORMALIZED FREE ENERGY PREDICTED BY IDOCK:   -6.50 KCAL/MOL
REMARK 922        TOTAL FREE ENERGY PREDICTED BY IDOCK:   -7.73 KCAL/MOL
REMARK 923 INTER-LIGAND FREE ENERGY PREDICTED BY IDOCK:   -7.16 KCAL/MOL
REMARK 924 INTRA-LIGAND FREE ENERGY PREDICTED BY IDOCK:   -0.58 KCAL/MOL
REMARK 927      BINDING AFFINITY PREDICTED BY RF-SCORE:    0.00 PKD
ROOT
HETATM    1  N   UNL     1     -10.509  10.670  63.397  1.00  0.00    -0.473 N  
HETATM    2  H2  UNL     1      -9.604  10.620  62.929  1.00  0.00     0.000 HD 
HETATM    3  S   UNL     1     -11.330  12.044  63.899  1.00  0.00    -0.460 S  
HETATM    4  H1  UNL     1     -11.116   9.896  63.665  1.00  0.00     0.000 HD 
HETATM    5  O   UNL     1     -12.680  11.932  63.404  1.00  0.00    -0.662 OA 
HETATM    6  O   UNL     1     -10.468  13.141  63.519  1.00  0.00    -0.123 OA 
ENDROOT
BRANCH   3   7
HETATM    7  C   UNL     1     -11.352  11.918  65.658  1.00  0.00    -0.284 A  
HETATM    8  C   UNL     1     -11.992  12.872  66.447  1.00  0.00    -0.395 A  
HETATM    9 CL   UNL     1     -12.894  14.205  65.824  1.00  0.00    -0.474 Cl 
HETATM   10  C   UNL     1     -11.885  12.787  67.839  1.00  0.00    -0.392 A  
HETATM   11  C   UNL     1     -11.117  11.787  68.435  1.00  0.00    -0.286 A  
HETATM   12  C   UNL     1     -10.445  10.832  67.653  1.00  0.00    -0.252 A  
HETATM   13  C   UNL     1     -10.601  10.890  66.255  1.00  0.00    -0.276 A  
BRANCH  12  14
HETATM   14  C   UNL     1      -9.426   9.898  68.296  1.00  0.00    -0.139 C  
HETATM   15  O   UNL     1      -8.205   9.912  67.593  1.00  0.00    -0.113 OA 
HETATM   16  N   UNL     1      -9.110  10.221  69.654  1.00  0.00    -0.371 N  
HETATM   17  H   UNL     1      -7.570   9.330  67.994  1.00  0.00     0.000 HD 
HETATM   18  H   UNL     1      -8.627  11.074  69.936  1.00  0.00     0.000 HD 
HETATM   19  C   UNL     1      -9.530   9.253  70.534  1.00  0.00    -0.264 C  
HETATM   20  O   UNL     1      -9.499   9.310  71.749  1.00  0.00    -0.302 OA 
HETATM   21  C   UNL     1     -10.071   8.141  69.740  1.00  0.00    -0.197 A  
HETATM   22  C   UNL     1     -10.657   6.958  70.155  1.00  0.00    -0.249 A  
HETATM   23  C   UNL     1     -11.150   6.106  69.164  1.00  0.00    -0.448 A  
HETATM   24  C   UNL     1     -11.029   6.441  67.802  1.00  0.00    -0.425 A  
HETATM   25  C   UNL     1     -10.430   7.642  67.411  1.00  0.00    -0.367 A  
HETATM   26  C   UNL     1      -9.967   8.499  68.398  1.00  0.00    -0.208 A  
ENDBRANCH  12  14
ENDBRANCH   3   7
TORSDOF 2
ENDMDL
MODEL       22
REMARK 921   NORMALIZED FREE ENERGY PREDICTED BY IDOCK:   -6.47 KCAL/MOL
REMARK 922        TOTAL FREE ENERGY PREDICTED BY IDOCK:   -7.70 KCAL/MOL
REMARK 923 INTER-LIGAND FREE ENERGY PREDICTED BY IDOCK:   -7.25 KCAL/MOL
REMARK 924 INTRA-LIGAND FREE ENERGY PREDICTED BY IDOCK:   -0.45 KCAL/MOL
REMARK 927      BINDING AFFINITY PREDICTED BY RF-SCORE:    0.00 PKD
ROOT
HETATM    1  N   UNL     1      -9.441  20.614  67.200  1.00  0.00    -0.609 N  
HETATM    2  H2  UNL     1      -8.845  21.335  66.793  1.00  0.00     0.000 HD 
HETATM    3  S   UNL     1      -9.068  19.557  68.447  1.00  0.00    -0.341 S  
HETATM    4  H1  UNL     1     -10.397  20.375  66.938  1.00  0.00     0.000 HD 
HETATM    5  O   UNL     1     -10.153  19.624  69.395  1.00  0.00    -0.390 OA 
HETATM    6  O   UNL     1      -7.712  19.896  68.818  1.00  0.00    -0.277 OA 
ENDROOT
BRANCH   3   7
HETATM    7  C   UNL     1      -9.071  17.967  67.684  1.00  0.00    -0.255 A  
HETATM    8  C   UNL     1      -8.196  17.659  66.643  1.00  0.00    -0.260 A  
HETATM    9 CL   UNL     1      -6.977  18.725  66.047  1.00  0.00    -0.282 Cl 
HETATM   10  C   UNL     1      -8.315  16.424  65.998  1.00  0.00    -0.139 A  
HETATM   11  C   UNL     1      -9.317  15.524  66.361  1.00  0.00    -0.330 A  
HETATM   12  C   UNL     1     -10.222  15.830  67.391  1.00  0.00    -0.270 A  
HETATM   13  C   UNL     1     -10.064  17.051  68.073  1.00  0.00    -0.305 A  
BRANCH  12  14
HETATM   14  C   UNL     1     -11.449  14.952  67.616  1.00  0.00    -0.352 C  
HETATM   15  O   UNL     1     -12.174  15.369  68.749  1.00  0.00    -0.581 OA 
HETATM   16  N   UNL     1     -12.376  14.950  66.526  1.00  0.00    -0.123 N  
HETATM   17  H   UNL     1     -12.939  14.822  68.889  1.00  0.00     0.000 HD 
HETATM   18  H   UNL     1     -12.913  15.767  66.236  1.00  0.00     0.000 HD 
HETATM   19  C   UNL     1     -12.460  13.723  65.913  1.00  0.00    -0.468 C  
HETATM   20  O   UNL     1     -13.075  13.457  64.897  1.00  0.00    -0.723 OA 
HETATM   21  C   UNL     1     -11.630  12.787  66.684  1.00  0.00    -0.430 A  
HETATM   22  C   UNL     1     -11.349  11.452  66.452  1.00  0.00    -0.168 A  
HETATM   23  C   UNL     1     -10.459  10.824  67.326  1.00  0.00    -0.282 A  
HETATM   24  C   UNL     1      -9.895  11.528  68.407  1.00  0.00    -0.204 A  
HETATM   25  C   UNL     1     -10.199  12.876  68.619  1.00  0.00    -0.170 A  
HETATM   26  C   UNL     1     -11.061  13.504  67.734  1.00  0.00    -0.291 A  
ENDBRANCH  12  14
ENDBRANCH   3   7
TORSDOF 2
ENDMDL
MODEL       23
REMARK 921   NORMALIZED FREE ENERGY PREDICTED BY IDOCK:   -6.47 KCAL/MOL
REMARK 922        TOTAL FREE ENERGY PREDICTED BY IDOCK:   -7.70 KCAL/MOL
REMARK 923 INTER-LIGAND FREE ENERGY PREDICTED BY IDOCK:   -7.29 KCAL/MOL
REMARK 924 INTRA-LIGAND FREE ENERGY PREDICTED BY IDOCK:   -0.41 KCAL/MOL
REMARK 927      BINDING AFFINITY PREDICTED BY RF-SCORE:    0.00 PKD
ROOT
HETATM    1  N   UNL     1     -13.046   8.518  70.844  1.00  0.00    -0.466 N  
HETATM    2  H2  UNL     1     -13.604   8.345  71.680  1.00  0.00     0.000 HD 
HETATM    3  S   UNL     1     -11.438   8.985  70.763  1.00  0.00    -0.270 S  
HETATM    4  H1  UNL     1     -13.342   8.444  69.871  1.00  0.00     0.000 HD 
HETATM    5  O   UNL     1     -10.786   8.092  69.837  1.00  0.00    -0.244 OA 
HETATM    6  O   UNL     1     -11.018   9.089  72.143  1.00  0.00    -0.348 OA 
ENDROOT
BRANCH   3   7
HETATM    7  C   UNL     1     -11.491  10.601  70.059  1.00  0.00    -0.325 A  
HETATM    8  C   UNL     1     -12.270  11.612  70.618  1.00  0.00    -0.366 A  
HETATM    9 CL   UNL     1     -13.180  11.447  72.075  1.00  0.00    -0.560 Cl 
HETATM   10  C   UNL     1     -12.365  12.842  69.959  1.00  0.00    -0.199 A  
HETATM   11  C   UNL     1     -11.723  13.047  68.738  1.00  0.00    -0.363 A  
HETATM   12  C   UNL     1     -10.954  12.030  68.148  1.00  0.00    -0.273 A  
HETATM   13  C   UNL     1     -10.818  10.813  68.843  1.00  0.00    -0.269 A  
BRANCH  12  14
HETATM   14  C   UNL     1     -10.459  12.181  66.713  1.00  0.00    -0.218 C  
HETATM   15  O   UNL     1      -9.546  11.161  66.378  1.00  0.00    -0.190 OA 
HETATM   16  N   UNL     1     -11.495  12.131  65.727  1.00  0.00    -0.361 N  
HETATM   17  H   UNL     1      -9.238  11.255  65.484  1.00  0.00     0.000 HD 
HETATM   18  H   UNL     1     -12.053  11.301  65.533  1.00  0.00     0.000 HD 
HETATM   19  C   UNL     1     -11.652  13.329  65.072  1.00  0.00    -0.316 C  
HETATM   20  O   UNL     1     -12.524  13.613  64.272  1.00  0.00    -0.613 OA 
HETATM   21  C   UNL     1     -10.596  14.233  65.549  1.00  0.00    -0.351 A  
HETATM   22  C   UNL     1     -10.354  15.558  65.232  1.00  0.00    -0.416 A  
HETATM   23  C   UNL     1      -9.306  16.195  65.900  1.00  0.00    -0.316 A  
HETATM   24  C   UNL     1      -8.524  15.498  66.840  1.00  0.00    -0.289 A  
HETATM   25  C   UNL     1      -8.790  14.158  67.140  1.00  0.00    -0.241 A  
HETATM   26  C   UNL     1      -9.848  13.537  66.495  1.00  0.00    -0.292 A  
ENDBRANCH  12  14
ENDBRANCH   3   7
TORSDOF 2
ENDMDL
MODEL       24
REMARK 921   NORMALIZED FREE ENERGY PREDICTED BY IDOCK:   -6.46 KCAL/MOL
REMARK 922        TOTAL FREE ENERGY PREDICTED BY IDOCK:   -7.70 KCAL/MOL
REMARK 923 INTER-LIGAND FREE ENERGY PREDICTED BY IDOCK:   -7.21 KCAL/MOL
REMARK 924 INTRA-LIGAND FREE ENERGY PREDICTED BY IDOCK:   -0.48 KCAL/MOL
REMARK 927      BINDING AFFINITY PREDICTED BY RF-SCORE:    0.00 PKD
ROOT
HETATM    1  N   UNL     1     -11.708   6.881  69.479  1.00  0.00    -0.600 N  
HETATM    2  H2  UNL     1     -12.120   6.359  70.252  1.00  0.00     0.000 HD 
HETATM    3  S   UNL     1     -10.254   7.716  69.463  1.00  0.00    -0.213 S  
HETATM    4  H1  UNL     1     -12.090   7.012  68.542  1.00  0.00     0.000 HD 
HETATM    5  O   UNL     1      -9.537   7.292  68.285  1.00  0.00    -0.146 OA 
HETATM    6  O   UNL     1      -9.713   7.529  70.791  1.00  0.00    -0.174 OA 
ENDROOT
BRANCH   3   7
HETATM    7  C   UNL     1     -10.725   9.404  69.270  1.00  0.00    -0.211 A  
HETATM    8  C   UNL     1     -11.500  10.057  70.227  1.00  0.00    -0.300 A  
HETATM    9 CL   UNL     1     -12.006   9.349  71.718  1.00  0.00    -0.449 Cl 
HETATM   10  C   UNL     1     -11.940  11.360  69.974  1.00  0.00    -0.442 A  
HETATM   11  C   UNL     1     -11.643  11.990  68.765  1.00  0.00    -0.366 A  
HETATM   12  C   UNL     1     -10.884  11.337  67.779  1.00  0.00    -0.284 A  
HETATM   13  C   UNL     1     -10.398  10.046  68.062  1.00  0.00    -0.238 A  
BRANCH  12  14
HETATM   14  C   UNL     1     -10.770  11.935  66.381  1.00  0.00    -0.266 C  
HETATM   15  O   UNL     1     -10.121  11.050  65.498  1.00  0.00    -0.237 OA 
HETATM   16  N   UNL     1     -12.026  12.256  65.776  1.00  0.00    -0.372 N  
HETATM   17  H   UNL     1     -10.050  11.423  64.627  1.00  0.00     0.000 HD 
HETATM   18  H   UNL     1     -12.721  11.559  65.509  1.00  0.00     0.000 HD 
HETATM   19  C   UNL     1     -12.191  13.608  65.596  1.00  0.00    -0.454 C  
HETATM   20  O   UNL     1     -13.197  14.175  65.214  1.00  0.00    -0.760 OA 
HETATM   21  C   UNL     1     -10.937  14.262  65.996  1.00  0.00    -0.312 A  
HETATM   22  C   UNL     1     -10.614  15.606  66.045  1.00  0.00    -0.336 A  
HETATM   23  C   UNL     1      -9.352  15.944  66.539  1.00  0.00    -0.306 A  
HETATM   24  C   UNL     1      -8.449  14.945  66.948  1.00  0.00    -0.255 A  
HETATM   25  C   UNL     1      -8.801  13.593  66.886  1.00  0.00    -0.201 A  
HETATM   26  C   UNL     1     -10.064  13.263  66.421  1.00  0.00    -0.290 A  
ENDBRANCH  12  14
ENDBRANCH   3   7
TORSDOF 2
ENDMDL
MODEL       25
REMARK 921   NORMALIZED FREE ENERGY PREDICTED BY IDOCK:   -6.46 KCAL/MOL
REMARK 922        TOTAL FREE ENERGY PREDICTED BY IDOCK:   -7.69 KCAL/MOL
REMARK 923 INTER-LIGAND FREE ENERGY PREDICTED BY IDOCK:   -7.30 KCAL/MOL
REMARK 924 INTRA-LIGAND FREE ENERGY PREDICTED BY IDOCK:   -0.39 KCAL/MOL
REMARK 927      BINDING AFFINITY PREDICTED BY RF-SCORE:    0.00 PKD
ROOT
HETATM    1  N   UNL     1     -12.394  14.078  63.211  1.00  0.00    -1.145 N  
HETATM    2  H2  UNL     1     -12.709  15.021  62.986  1.00  0.00     0.000 HD 
HETATM    3  S   UNL     1     -12.712  13.194  64.600  1.00  0.00    -0.189 S  
HETATM    4  H1  UNL     1     -11.816  13.461  62.641  1.00  0.00     0.000 HD 
HETATM    5  O   UNL     1     -13.176  11.896  64.177  1.00  0.00    -0.645 OA 
HETATM    6  O   UNL     1     -13.532  14.069  65.408  1.00  0.00    -0.679 OA 
ENDROOT
BRANCH   3   7
HETATM    7  C   UNL     1     -11.136  13.016  65.371  1.00  0.00    -0.275 A  
HETATM    8  C   UNL     1     -10.256  12.000  65.001  1.00  0.00    -0.276 A  
HETATM    9 CL   UNL     1     -10.547  10.878  63.723  1.00  0.00    -0.355 Cl 
HETATM   10  C   UNL     1      -9.068  11.834  65.719  1.00  0.00    -0.088 A  
HETATM   11  C   UNL     1      -8.778  12.646  66.816  1.00  0.00    -0.135 A  
HETATM   12  C   UNL     1      -9.666  13.659  67.217  1.00  0.00    -0.243 A  
HETATM   13  C   UNL     1     -10.834  13.857  66.457  1.00  0.00    -0.295 A  
BRANCH  12  14
HETATM   14  C   UNL     1      -9.456  14.376  68.546  1.00  0.00    -0.212 C  
HETATM   15  O   UNL     1      -8.302  13.908  69.203  1.00  0.00    -0.338 OA 
HETATM   16  N   UNL     1      -9.305  15.794  68.431  1.00  0.00    -0.192 N  
HETATM   17  H   UNL     1      -8.171  14.354  70.031  1.00  0.00     0.000 HD 
HETATM   18  H   UNL     1      -8.514  16.244  67.972  1.00  0.00     0.000 HD 
HETATM   19  C   UNL     1     -10.345  16.482  69.008  1.00  0.00    -0.296 C  
HETATM   20  O   UNL     1     -10.540  17.681  68.963  1.00  0.00    -0.281 OA 
HETATM   21  C   UNL     1     -11.218  15.494  69.659  1.00  0.00    -0.301 A  
HETATM   22  C   UNL     1     -12.413  15.674  70.332  1.00  0.00    -0.409 A  
HETATM   23  C   UNL     1     -13.067  14.529  70.793  1.00  0.00    -0.363 A  
HETATM   24  C   UNL     1     -12.509  13.252  70.592  1.00  0.00    -0.373 A  
HETATM   25  C   UNL     1     -11.298  13.099  69.910  1.00  0.00    -0.055 A  
HETATM   26  C   UNL     1     -10.666  14.235  69.429  1.00  0.00    -0.155 A  
ENDBRANCH  12  14
ENDBRANCH   3   7
TORSDOF 2
ENDMDL
MODEL       26
REMARK 921   NORMALIZED FREE ENERGY PREDICTED BY IDOCK:   -6.40 KCAL/MOL
REMARK 922        TOTAL FREE ENERGY PREDICTED BY IDOCK:   -7.62 KCAL/MOL
REMARK 923 INTER-LIGAND FREE ENERGY PREDICTED BY IDOCK:   -7.10 KCAL/MOL
REMARK 924 INTRA-LIGAND FREE ENERGY PREDICTED BY IDOCK:   -0.52 KCAL/MOL
REMARK 927      BINDING AFFINITY PREDICTED BY RF-SCORE:    0.00 PKD
ROOT
HETATM    1  N   UNL     1      -9.676   7.916  66.184  1.00  0.00    -0.444 N  
HETATM    2  H2  UNL     1     -10.235   7.232  66.694  1.00  0.00     0.000 HD 
HETATM    3  S   UNL     1      -9.180   9.431  66.705  1.00  0.00    -0.149 S  
HETATM    4  H1  UNL     1      -9.292   7.830  65.243  1.00  0.00     0.000 HD 
HETATM    5  O   UNL     1      -7.764   9.522  66.452  1.00  0.00    -0.097 OA 
HETATM    6  O   UNL     1      -9.724   9.552  68.040  1.00  0.00    -0.143 OA 
ENDROOT
BRANCH   3   7
HETATM    7  C   UNL     1     -10.026  10.553  65.640  1.00  0.00    -0.270 A  
HETATM    8  C   UNL     1      -9.808  10.553  64.263  1.00  0.00    -0.338 A  
HETATM    9 CL   UNL     1      -8.787   9.432  63.439  1.00  0.00    -0.228 Cl 
HETATM   10  C   UNL     1     -10.418  11.536  63.477  1.00  0.00    -0.486 A  
HETATM   11  C   UNL     1     -11.204  12.530  64.062  1.00  0.00    -0.461 A  
HETATM   12  C   UNL     1     -11.413  12.559  65.451  1.00  0.00    -0.383 A  
HETATM   13  C   UNL     1     -10.841  11.535  66.230  1.00  0.00    -0.333 A  
BRANCH  12  14
HETATM   14  C   UNL     1     -12.068  13.773  66.099  1.00  0.00    -0.441 C  
HETATM   15  O   UNL     1     -13.106  14.284  65.295  1.00  0.00    -0.707 OA 
HETATM   16  N   UNL     1     -12.645  13.514  67.382  1.00  0.00    -0.119 N  
HETATM   17  H   UNL     1     -13.514  15.041  65.700  1.00  0.00     0.000 HD 
HETATM   18  H   UNL     1     -13.447  12.901  67.530  1.00  0.00     0.000 HD 
HETATM   19  C   UNL     1     -11.998  14.181  68.394  1.00  0.00    -0.331 C  
HETATM   20  O   UNL     1     -12.195  14.062  69.588  1.00  0.00    -0.334 OA 
HETATM   21  C   UNL     1     -10.981  15.041  67.773  1.00  0.00    -0.298 A  
HETATM   22  C   UNL     1     -10.042  15.870  68.360  1.00  0.00    -0.223 A  
HETATM   23  C   UNL     1      -9.145  16.524  67.512  1.00  0.00    -0.200 A  
HETATM   24  C   UNL     1      -9.218  16.351  66.117  1.00  0.00    -0.365 A  
HETATM   25  C   UNL     1     -10.179  15.508  65.550  1.00  0.00    -0.415 A  
HETATM   26  C   UNL     1     -11.050  14.840  66.396  1.00  0.00    -0.340 A  
ENDBRANCH  12  14
ENDBRANCH   3   7
TORSDOF 2
ENDMDL
MODEL       27
REMARK 921   NORMALIZED FREE ENERGY PREDICTED BY IDOCK:   -6.39 KCAL/MOL
REMARK 922        TOTAL FREE ENERGY PREDICTED BY IDOCK:   -7.62 KCAL/MOL
REMARK 923 INTER-LIGAND FREE ENERGY PREDICTED BY IDOCK:   -7.55 KCAL/MOL
REMARK 924 INTRA-LIGAND FREE ENERGY PREDICTED BY IDOCK:   -0.07 KCAL/MOL
REMARK 927      BINDING AFFINITY PREDICTED BY RF-SCORE:    0.00 PKD
ROOT
HETATM    1  N   UNL     1     -11.524  14.803  72.056  1.00  0.00    -0.409 N  
HETATM    2  H2  UNL     1     -11.634  14.679  73.063  1.00  0.00     0.000 HD 
HETATM    3  S   UNL     1     -12.725  14.811  70.886  1.00  0.00    -0.366 S  
HETATM    4  H1  UNL     1     -10.658  14.949  71.537  1.00  0.00     0.000 HD 
HETATM    5  O   UNL     1     -12.516  15.985  70.075  1.00  0.00    -0.223 OA 
HETATM    6  O   UNL     1     -13.952  14.603  71.623  1.00  0.00    -0.396 OA 
ENDROOT
BRANCH   3   7
HETATM    7  C   UNL     1     -12.392  13.377  69.914  1.00  0.00    -0.195 A  
HETATM    8  C   UNL     1     -12.506  12.094  70.449  1.00  0.00    -0.144 A  
HETATM    9 CL   UNL     1     -13.056  11.750  72.048  1.00  0.00    -0.537 Cl 
HETATM   10  C   UNL     1     -12.123  10.997  69.671  1.00  0.00    -0.411 A  
HETATM   11  C   UNL     1     -11.598  11.179  68.391  1.00  0.00    -0.376 A  
HETATM   12  C   UNL     1     -11.454  12.466  67.848  1.00  0.00    -0.385 A  
HETATM   13  C   UNL     1     -11.891  13.563  68.614  1.00  0.00    -0.404 A  
BRANCH  12  14
HETATM   14  C   UNL     1     -10.665  12.667  66.558  1.00  0.00    -0.250 C  
HETATM   15  O   UNL     1      -9.462  11.935  66.576  1.00  0.00    -0.206 OA 
HETATM   16  N   UNL     1     -11.362  12.265  65.375  1.00  0.00    -0.332 N  
HETATM   17  H   UNL     1      -8.970  12.060  65.773  1.00  0.00     0.000 HD 
HETATM   18  H   UNL     1     -11.613  11.299  65.166  1.00  0.00     0.000 HD 
HETATM   19  C   UNL     1     -11.655  13.326  64.553  1.00  0.00    -0.369 C  
HETATM   20  O   UNL     1     -12.334  13.300  63.544  1.00  0.00    -0.698 OA 
HETATM   21  C   UNL     1     -11.033  14.522  65.139  1.00  0.00    -0.387 A  
HETATM   22  C   UNL     1     -11.075  15.839  64.718  1.00  0.00    -0.413 A  
HETATM   23  C   UNL     1     -10.439  16.788  65.522  1.00  0.00    -0.254 A  
HETATM   24  C   UNL     1      -9.770  16.402  66.699  1.00  0.00    -0.272 A  
HETATM   25  C   UNL     1      -9.742  15.063  67.099  1.00  0.00    -0.228 A  
HETATM   26  C   UNL     1     -10.397  14.127  66.314  1.00  0.00    -0.294 A  
ENDBRANCH  12  14
ENDBRANCH   3   7
TORSDOF 2
ENDMDL
MODEL       28
REMARK 921   NORMALIZED FREE ENERGY PREDICTED BY IDOCK:   -6.39 KCAL/MOL
REMARK 922        TOTAL FREE ENERGY PREDICTED BY IDOCK:   -7.62 KCAL/MOL
REMARK 923 INTER-LIGAND FREE ENERGY PREDICTED BY IDOCK:   -7.70 KCAL/MOL
REMARK 924 INTRA-LIGAND FREE ENERGY PREDICTED BY IDOCK:    0.08 KCAL/MOL
REMARK 927      BINDING AFFINITY PREDICTED BY RF-SCORE:    0.00 PKD
ROOT
HETATM    1  N   UNL     1     -12.264  14.142  63.336  1.00  0.00    -1.099 N  
HETATM    2  H2  UNL     1     -12.591  15.078  63.097  1.00  0.00     0.000 HD 
HETATM    3  S   UNL     1     -12.645  13.238  64.696  1.00  0.00    -0.242 S  
HETATM    4  H1  UNL     1     -11.630  13.548  62.802  1.00  0.00     0.000 HD 
HETATM    5  O   UNL     1     -13.040  11.930  64.235  1.00  0.00    -0.578 OA 
HETATM    6  O   UNL     1     -13.542  14.081  65.454  1.00  0.00    -0.593 OA 
ENDROOT
BRANCH   3   7
HETATM    7  C   UNL     1     -11.118  13.101  65.568  1.00  0.00    -0.278 A  
HETATM    8  C   UNL     1     -10.231  12.054  65.321  1.00  0.00    -0.271 A  
HETATM    9 CL   UNL     1     -10.461  10.848  64.108  1.00  0.00    -0.438 Cl 
HETATM   10  C   UNL     1      -9.088  11.928  66.117  1.00  0.00    -0.162 A  
HETATM   11  C   UNL     1      -8.852  12.813  67.169  1.00  0.00    -0.202 A  
HETATM   12  C   UNL     1      -9.748  13.859  67.447  1.00  0.00    -0.234 A  
HETATM   13  C   UNL     1     -10.869  14.013  66.609  1.00  0.00    -0.297 A  
BRANCH  12  14
HETATM   14  C   UNL     1      -9.607  14.664  68.734  1.00  0.00    -0.210 C  
HETATM   15  O   UNL     1     -10.580  14.289  69.681  1.00  0.00    -0.440 OA 
HETATM   16  N   UNL     1      -8.340  14.518  69.381  1.00  0.00    -0.375 N  
HETATM   17  H   UNL     1     -10.492  14.791  70.483  1.00  0.00     0.000 HD 
HETATM   18  H   UNL     1      -8.012  13.646  69.796  1.00  0.00     0.000 HD 
HETATM   19  C   UNL     1      -7.613  15.685  69.381  1.00  0.00    -0.221 C  
HETATM   20  O   UNL     1      -6.465  15.828  69.756  1.00  0.00    -0.177 OA 
HETATM   21  C   UNL     1      -8.464  16.733  68.799  1.00  0.00    -0.253 A  
HETATM   22  C   UNL     1      -8.180  18.061  68.537  1.00  0.00    -0.311 A  
HETATM   23  C   UNL     1      -9.172  18.816  67.907  1.00  0.00    -0.324 A  
HETATM   24  C   UNL     1     -10.412  18.239  67.575  1.00  0.00    -0.431 A  
HETATM   25  C   UNL     1     -10.673  16.894  67.853  1.00  0.00    -0.344 A  
HETATM   26  C   UNL     1      -9.677  16.140  68.455  1.00  0.00    -0.219 A  
ENDBRANCH  12  14
ENDBRANCH   3   7
TORSDOF 2
ENDMDL
MODEL       29
REMARK 921   NORMALIZED FREE ENERGY PREDICTED BY IDOCK:   -6.38 KCAL/MOL
REMARK 922        TOTAL FREE ENERGY PREDICTED BY IDOCK:   -7.60 KCAL/MOL
REMARK 923 INTER-LIGAND FREE ENERGY PREDICTED BY IDOCK:   -7.29 KCAL/MOL
REMARK 924 INTRA-LIGAND FREE ENERGY PREDICTED BY IDOCK:   -0.31 KCAL/MOL
REMARK 927      BINDING AFFINITY PREDICTED BY RF-SCORE:    0.00 PKD
ROOT
HETATM    1  N   UNL     1     -12.309   8.359  70.597  1.00  0.00    -0.479 N  
HETATM    2  H2  UNL     1     -13.238   8.131  70.951  1.00  0.00     0.000 HD 
HETATM    3  S   UNL     1     -11.440   9.774  70.832  1.00  0.00    -0.398 S  
HETATM    4  H1  UNL     1     -11.702   7.778  70.020  1.00  0.00     0.000 HD 
HETATM    5  O   UNL     1     -10.120   9.391  71.268  1.00  0.00    -0.302 OA 
HETATM    6  O   UNL     1     -12.302  10.598  71.650  1.00  0.00    -0.342 OA 
ENDROOT
BRANCH   3   7
HETATM    7  C   UNL     1     -11.328  10.486  69.223  1.00  0.00    -0.262 A  
HETATM    8  C   UNL     1     -10.693   9.820  68.175  1.00  0.00    -0.233 A  
HETATM    9 CL   UNL     1     -10.039   8.227  68.289  1.00  0.00    -0.218 Cl 
HETATM   10  C   UNL     1     -10.533  10.474  66.950  1.00  0.00    -0.303 A  
HETATM   11  C   UNL     1     -10.964  11.791  66.783  1.00  0.00    -0.336 A  
HETATM   12  C   UNL     1     -11.583  12.485  67.837  1.00  0.00    -0.403 A  
HETATM   13  C   UNL     1     -11.791  11.803  69.051  1.00  0.00    -0.379 A  
BRANCH  12  14
HETATM   14  C   UNL     1     -11.831  13.985  67.721  1.00  0.00    -0.384 C  
HETATM   15  O   UNL     1     -12.664  14.282  66.625  1.00  0.00    -0.518 OA 
HETATM   16  N   UNL     1     -12.456  14.567  68.869  1.00  0.00    -0.569 N  
HETATM   17  H   UNL     1     -12.819  15.217  66.553  1.00  0.00     0.000 HD 
HETATM   18  H   UNL     1     -13.407  14.351  69.167  1.00  0.00     0.000 HD 
HETATM   19  C   UNL     1     -11.632  15.449  69.525  1.00  0.00    -0.332 C  
HETATM   20  O   UNL     1     -11.852  16.000  70.587  1.00  0.00    -0.370 OA 
HETATM   21  C   UNL     1     -10.401  15.574  68.731  1.00  0.00    -0.217 A  
HETATM   22  C   UNL     1      -9.251  16.300  68.987  1.00  0.00    -0.253 A  
HETATM   23  C   UNL     1      -8.200  16.175  68.076  1.00  0.00    -0.152 A  
HETATM   24  C   UNL     1      -8.327  15.355  66.939  1.00  0.00    -0.290 A  
HETATM   25  C   UNL     1      -9.502  14.634  66.704  1.00  0.00    -0.297 A  
HETATM   26  C   UNL     1     -10.533  14.739  67.624  1.00  0.00    -0.254 A  
ENDBRANCH  12  14
ENDBRANCH   3   7
TORSDOF 2
ENDMDL
MODEL       30
REMARK 921   NORMALIZED FREE ENERGY PREDICTED BY IDOCK:   -6.36 KCAL/MOL
REMARK 922        TOTAL FREE ENERGY PREDICTED BY IDOCK:   -7.58 KCAL/MOL
REMARK 923 INTER-LIGAND FREE ENERGY PREDICTED BY IDOCK:   -7.10 KCAL/MOL
REMARK 924 INTRA-LIGAND FREE ENERGY PREDICTED BY IDOCK:   -0.49 KCAL/MOL
REMARK 927      BINDING AFFINITY PREDICTED BY RF-SCORE:    0.00 PKD
ROOT
HETATM    1  N   UNL     1      -7.316  16.253  68.870  1.00  0.00    -0.185 N  
HETATM    2  H2  UNL     1      -6.841  17.008  69.364  1.00  0.00     0.000 HD 
HETATM    3  S   UNL     1      -7.075  15.751  67.288  1.00  0.00    -0.194 S  
HETATM    4  H1  UNL     1      -8.043  15.634  69.228  1.00  0.00     0.000 HD 
HETATM    5  O   UNL     1      -6.905  14.320  67.320  1.00  0.00    -0.234 OA 
HETATM    6  O   UNL     1      -6.044  16.629  66.781  1.00  0.00    -0.247 OA 
ENDROOT
BRANCH   3   7
HETATM    7  C   UNL     1      -8.596  16.129  66.478  1.00  0.00    -0.306 A  
HETATM    8  C   UNL     1      -9.162  17.401  66.552  1.00  0.00    -0.266 A  
HETATM    9 CL   UNL     1      -8.430  18.749  67.343  1.00  0.00    -0.282 Cl 
HETATM   10  C   UNL     1     -10.423  17.618  65.987  1.00  0.00    -0.278 A  
HETATM   11  C   UNL     1     -11.126  16.572  65.389  1.00  0.00    -0.021 A  
HETATM   12  C   UNL     1     -10.579  15.279  65.328  1.00  0.00    -0.438 A  
HETATM   13  C   UNL     1      -9.287  15.078  65.850  1.00  0.00    -0.249 A  
BRANCH  12  14
HETATM   14  C   UNL     1     -11.446  14.103  64.892  1.00  0.00    -0.366 C  
HETATM   15  O   UNL     1     -12.758  14.519  64.590  1.00  0.00    -0.630 OA 
HETATM   16  N   UNL     1     -10.966  13.418  63.730  1.00  0.00    -0.520 N  
HETATM   17  H   UNL     1     -13.298  13.786  64.318  1.00  0.00     0.000 HD 
HETATM   18  H   UNL     1     -10.926  13.838  62.802  1.00  0.00     0.000 HD 
HETATM   19  C   UNL     1     -10.565  12.134  64.007  1.00  0.00    -0.389 C  
HETATM   20  O   UNL     1     -10.012  11.363  63.245  1.00  0.00    -0.342 OA 
HETATM   21  C   UNL     1     -10.884  11.867  65.417  1.00  0.00    -0.343 A  
HETATM   22  C   UNL     1     -10.637  10.743  66.184  1.00  0.00    -0.241 A  
HETATM   23  C   UNL     1     -10.994  10.798  67.533  1.00  0.00    -0.372 A  
HETATM   24  C   UNL     1     -11.597  11.950  68.071  1.00  0.00    -0.401 A  
HETATM   25  C   UNL     1     -11.837  13.072  67.272  1.00  0.00    -0.419 A  
HETATM   26  C   UNL     1     -11.457  13.024  65.940  1.00  0.00    -0.374 A  
ENDBRANCH  12  14
ENDBRANCH   3   7
TORSDOF 2
ENDMDL
MODEL       31
REMARK 921   NORMALIZED FREE ENERGY PREDICTED BY IDOCK:   -6.35 KCAL/MOL
REMARK 922        TOTAL FREE ENERGY PREDICTED BY IDOCK:   -7.57 KCAL/MOL
REMARK 923 INTER-LIGAND FREE ENERGY PREDICTED BY IDOCK:   -7.39 KCAL/MOL
REMARK 924 INTRA-LIGAND FREE ENERGY PREDICTED BY IDOCK:   -0.19 KCAL/MOL
REMARK 927      BINDING AFFINITY PREDICTED BY RF-SCORE:    0.00 PKD
ROOT
HETATM    1  N   UNL     1      -9.822   6.990  71.170  1.00  0.00    -0.177 N  
HETATM    2  H2  UNL     1      -9.733   6.241  70.483  1.00  0.00     0.000 HD 
HETATM    3  S   UNL     1     -11.206   7.478  71.981  1.00  0.00    -0.270 S  
HETATM    4  H1  UNL     1      -9.089   7.608  71.517  1.00  0.00     0.000 HD 
HETATM    5  O   UNL     1     -10.872   7.547  73.382  1.00  0.00    -0.394 OA 
HETATM    6  O   UNL     1     -12.245   6.602  71.488  1.00  0.00    -0.344 OA 
ENDROOT
BRANCH   3   7
HETATM    7  C   UNL     1     -11.505   9.110  71.383  1.00  0.00    -0.350 A  
HETATM    8  C   UNL     1     -12.669   9.803  71.712  1.00  0.00    -0.426 A  
HETATM    9 CL   UNL     1     -13.885   9.210  72.784  1.00  0.00    -0.406 Cl 
HETATM   10  C   UNL     1     -12.910  11.048  71.123  1.00  0.00    -0.491 A  
HETATM   11  C   UNL     1     -12.021  11.578  70.188  1.00  0.00    -0.452 A  
HETATM   12  C   UNL     1     -10.855  10.881  69.827  1.00  0.00    -0.247 A  
HETATM   13  C   UNL     1     -10.591   9.654  70.464  1.00  0.00    -0.369 A  
BRANCH  12  14
HETATM   14  C   UNL     1     -10.021  11.352  68.640  1.00  0.00    -0.202 C  
HETATM   15  O   UNL     1      -8.798  11.908  69.064  1.00  0.00    -0.375 OA 
HETATM   16  N   UNL     1      -9.689  10.317  67.710  1.00  0.00    -0.155 N  
HETATM   17  H   UNL     1      -8.278  12.201  68.325  1.00  0.00     0.000 HD 
HETATM   18  H   UNL     1      -9.079   9.530  67.930  1.00  0.00     0.000 HD 
HETATM   19  C   UNL     1     -10.285  10.502  66.485  1.00  0.00    -0.231 C  
HETATM   20  O   UNL     1     -10.275   9.729  65.546  1.00  0.00    -0.256 OA 
HETATM   21  C   UNL     1     -10.984  11.794  66.527  1.00  0.00    -0.342 A  
HETATM   22  C   UNL     1     -11.768  12.409  65.567  1.00  0.00    -0.459 A  
HETATM   23  C   UNL     1     -12.371  13.620  65.913  1.00  0.00    -0.516 A  
HETATM   24  C   UNL     1     -12.163  14.190  67.184  1.00  0.00    -0.348 A  
HETATM   25  C   UNL     1     -11.364  13.547  68.134  1.00  0.00    -0.319 A  
HETATM   26  C   UNL     1     -10.789  12.332  67.797  1.00  0.00    -0.256 A  
ENDBRANCH  12  14
ENDBRANCH   3   7
TORSDOF 2
ENDMDL
MODEL       32
REMARK 921   NORMALIZED FREE ENERGY PREDICTED BY IDOCK:   -6.29 KCAL/MOL
REMARK 922        TOTAL FREE ENERGY PREDICTED BY IDOCK:   -7.50 KCAL/MOL
REMARK 923 INTER-LIGAND FREE ENERGY PREDICTED BY IDOCK:   -6.90 KCAL/MOL
REMARK 924 INTRA-LIGAND FREE ENERGY PREDICTED BY IDOCK:   -0.60 KCAL/MOL
REMARK 927      BINDING AFFINITY PREDICTED BY RF-SCORE:    0.00 PKD
ROOT
HETATM    1  N   UNL     1     -11.308  11.147  70.386  1.00  0.00    -0.473 N  
HETATM    2  H2  UNL     1     -10.849  11.905  70.892  1.00  0.00     0.000 HD 
HETATM    3  S   UNL     1     -10.720   9.605  70.094  1.00  0.00    -0.296 S  
HETATM    4  H1  UNL     1     -12.227  11.160  69.945  1.00  0.00     0.000 HD 
HETATM    5  O   UNL     1     -11.758   8.679  70.476  1.00  0.00    -0.212 OA 
HETATM    6  O   UNL     1      -9.417   9.587  70.720  1.00  0.00    -0.251 OA 
ENDROOT
BRANCH   3   7
HETATM    7  C   UNL     1     -10.514   9.544  68.344  1.00  0.00    -0.224 A  
HETATM    8  C   UNL     1      -9.964   8.428  67.715  1.00  0.00    -0.186 A  
HETATM    9 CL   UNL     1      -9.514   6.974  68.529  1.00  0.00    -0.135 Cl 
HETATM   10  C   UNL     1      -9.718   8.474  66.339  1.00  0.00    -0.328 A  
HETATM   11  C   UNL     1      -9.981   9.631  65.606  1.00  0.00    -0.321 A  
HETATM   12  C   UNL     1     -10.512  10.773  66.230  1.00  0.00    -0.287 A  
HETATM   13  C   UNL     1     -10.808  10.703  67.604  1.00  0.00    -0.346 A  
BRANCH  12  14
HETATM   14  C   UNL     1     -10.571  12.097  65.476  1.00  0.00    -0.277 C  
HETATM   15  O   UNL     1      -9.737  12.076  64.341  1.00  0.00    -0.430 OA 
HETATM   16  N   UNL     1     -11.877  12.449  65.008  1.00  0.00    -0.382 N  
HETATM   17  H   UNL     1      -9.774  12.901  63.871  1.00  0.00     0.000 HD 
HETATM   18  H   UNL     1     -12.382  11.926  64.292  1.00  0.00     0.000 HD 
HETATM   19  C   UNL     1     -12.373  13.569  65.630  1.00  0.00    -0.476 C  
HETATM   20  O   UNL     1     -13.494  14.028  65.517  1.00  0.00    -0.677 OA 
HETATM   21  C   UNL     1     -11.314  14.094  66.502  1.00  0.00    -0.348 A  
HETATM   22  C   UNL     1     -11.332  15.171  67.370  1.00  0.00    -0.309 A  
HETATM   23  C   UNL     1     -10.185  15.397  68.134  1.00  0.00    -0.230 A  
HETATM   24  C   UNL     1      -9.057  14.566  68.001  1.00  0.00    -0.185 A  
HETATM   25  C   UNL     1      -9.065  13.485  67.115  1.00  0.00    -0.232 A  
HETATM   26  C   UNL     1     -10.214  13.247  66.378  1.00  0.00    -0.292 A  
ENDBRANCH  12  14
ENDBRANCH   3   7
TORSDOF 2
ENDMDL
MODEL       33
REMARK 921   NORMALIZED FREE ENERGY PREDICTED BY IDOCK:   -6.29 KCAL/MOL
REMARK 922        TOTAL FREE ENERGY PREDICTED BY IDOCK:   -7.50 KCAL/MOL
REMARK 923 INTER-LIGAND FREE ENERGY PREDICTED BY IDOCK:   -7.00 KCAL/MOL
REMARK 924 INTRA-LIGAND FREE ENERGY PREDICTED BY IDOCK:   -0.50 KCAL/MOL
REMARK 927      BINDING AFFINITY PREDICTED BY RF-SCORE:    0.00 PKD
ROOT
HETATM    1  N   UNL     1      -8.917  19.408  68.356  1.00  0.00    -0.345 N  
HETATM    2  H2  UNL     1      -9.399  19.967  69.059  1.00  0.00     0.000 HD 
HETATM    3  S   UNL     1      -9.590  18.597  67.052  1.00  0.00    -0.316 S  
HETATM    4  H1  UNL     1      -7.917  19.216  68.290  1.00  0.00     0.000 HD 
HETATM    5  O   UNL     1      -8.823  18.963  65.886  1.00  0.00    -0.460 OA 
HETATM    6  O   UNL     1     -11.007  18.868  67.147  1.00  0.00    -0.410 OA 
ENDROOT
BRANCH   3   7
HETATM    7  C   UNL     1      -9.309  16.893  67.409  1.00  0.00    -0.235 A  
HETATM    8  C   UNL     1      -8.020  16.372  67.502  1.00  0.00    -0.152 A  
HETATM    9 CL   UNL     1      -6.578  17.311  67.373  1.00  0.00    -0.163 Cl 
HETATM   10  C   UNL     1      -7.853  14.994  67.676  1.00  0.00    -0.186 A  
HETATM   11  C   UNL     1      -8.957  14.142  67.718  1.00  0.00    -0.187 A  
HETATM   12  C   UNL     1     -10.263  14.649  67.602  1.00  0.00    -0.232 A  
HETATM   13  C   UNL     1     -10.427  16.042  67.482  1.00  0.00    -0.297 A  
BRANCH  12  14
HETATM   14  C   UNL     1     -11.438  13.695  67.411  1.00  0.00    -0.336 C  
HETATM   15  O   UNL     1     -12.483  14.311  66.696  1.00  0.00    -0.559 OA 
HETATM   16  N   UNL     1     -11.112  12.500  66.696  1.00  0.00    -0.270 N  
HETATM   17  H   UNL     1     -13.216  13.717  66.577  1.00  0.00     0.000 HD 
HETATM   18  H   UNL     1     -10.835  12.484  65.715  1.00  0.00     0.000 HD 
HETATM   19  C   UNL     1     -11.215  11.375  67.479  1.00  0.00    -0.292 C  
HETATM   20  O   UNL     1     -10.893  10.243  67.174  1.00  0.00    -0.262 OA 
HETATM   21  C   UNL     1     -11.747  11.795  68.783  1.00  0.00    -0.389 A  
HETATM   22  C   UNL     1     -11.987  11.051  69.924  1.00  0.00    -0.427 A  
HETATM   23  C   UNL     1     -12.436  11.738  71.055  1.00  0.00    -0.411 A  
HETATM   24  C   UNL     1     -12.650  13.128  71.013  1.00  0.00    -0.397 A  
HETATM   25  C   UNL     1     -12.401  13.856  69.845  1.00  0.00    -0.358 A  
HETATM   26  C   UNL     1     -11.930  13.176  68.733  1.00  0.00    -0.316 A  
ENDBRANCH  12  14
ENDBRANCH   3   7
TORSDOF 2
ENDMDL
MODEL       34
REMARK 921   NORMALIZED FREE ENERGY PREDICTED BY IDOCK:   -6.24 KCAL/MOL
REMARK 922        TOTAL FREE ENERGY PREDICTED BY IDOCK:   -7.45 KCAL/MOL
REMARK 923 INTER-LIGAND FREE ENERGY PREDICTED BY IDOCK:   -6.99 KCAL/MOL
REMARK 924 INTRA-LIGAND FREE ENERGY PREDICTED BY IDOCK:   -0.46 KCAL/MOL
REMARK 927      BINDING AFFINITY PREDICTED BY RF-SCORE:    0.00 PKD
ROOT
HETATM    1  N   UNL     1      -8.903  20.153  65.836  1.00  0.00    -0.538 N  
HETATM    2  H2  UNL     1      -8.422  21.018  65.592  1.00  0.00     0.000 HD 
HETATM    3  S   UNL     1      -9.837  19.845  67.194  1.00  0.00    -0.437 S  
HETATM    4  H1  UNL     1      -8.923  19.281  65.307  1.00  0.00     0.000 HD 
HETATM    5  O   UNL     1     -11.075  19.266  66.732  1.00  0.00    -0.310 OA 
HETATM    6  O   UNL     1      -9.808  21.082  67.943  1.00  0.00    -0.130 OA 
ENDROOT
BRANCH   3   7
HETATM    7  C   UNL     1      -8.927  18.620  68.078  1.00  0.00    -0.302 A  
HETATM    8  C   UNL     1      -7.615  18.847  68.491  1.00  0.00    -0.324 A  
HETATM    9 CL   UNL     1      -6.771  20.338  68.280  1.00  0.00    -0.333 Cl 
HETATM   10  C   UNL     1      -6.900  17.805  69.089  1.00  0.00    -0.227 A  
HETATM   11  C   UNL     1      -7.473  16.541  69.238  1.00  0.00    -0.183 A  
HETATM   12  C   UNL     1      -8.785  16.289  68.804  1.00  0.00    -0.244 A  
HETATM   13  C   UNL     1      -9.518  17.357  68.252  1.00  0.00    -0.290 A  
BRANCH  12  14
HETATM   14  C   UNL     1      -9.311  14.859  68.752  1.00  0.00    -0.203 C  
HETATM   15  O   UNL     1      -8.287  13.928  69.013  1.00  0.00    -0.339 OA 
HETATM   16  N   UNL     1     -10.353  14.583  69.694  1.00  0.00    -0.435 N  
HETATM   17  H   UNL     1      -8.615  13.037  68.981  1.00  0.00     0.000 HD 
HETATM   18  H   UNL     1     -10.218  14.583  70.704  1.00  0.00     0.000 HD 
HETATM   19  C   UNL     1     -11.555  14.318  69.083  1.00  0.00    -0.305 C  
HETATM   20  O   UNL     1     -12.631  14.164  69.629  1.00  0.00    -0.262 OA 
HETATM   21  C   UNL     1     -11.318  14.300  67.633  1.00  0.00    -0.344 A  
HETATM   22  C   UNL     1     -12.210  14.126  66.590  1.00  0.00    -0.450 A  
HETATM   23  C   UNL     1     -11.705  14.227  65.292  1.00  0.00    -0.357 A  
HETATM   24  C   UNL     1     -10.339  14.478  65.069  1.00  0.00    -0.442 A  
HETATM   25  C   UNL     1      -9.458  14.649  66.142  1.00  0.00    -0.308 A  
HETATM   26  C   UNL     1      -9.967  14.574  67.429  1.00  0.00    -0.227 A  
ENDBRANCH  12  14
ENDBRANCH   3   7
TORSDOF 2
ENDMDL
MODEL       35
REMARK 921   NORMALIZED FREE ENERGY PREDICTED BY IDOCK:   -6.24 KCAL/MOL
REMARK 922        TOTAL FREE ENERGY PREDICTED BY IDOCK:   -7.45 KCAL/MOL
REMARK 923 INTER-LIGAND FREE ENERGY PREDICTED BY IDOCK:   -6.84 KCAL/MOL
REMARK 924 INTRA-LIGAND FREE ENERGY PREDICTED BY IDOCK:   -0.61 KCAL/MOL
REMARK 927      BINDING AFFINITY PREDICTED BY RF-SCORE:    0.00 PKD
ROOT
HETATM    1  N   UNL     1      -8.494  12.448  66.243  1.00  0.00    -0.391 N  
HETATM    2  H2  UNL     1      -8.910  12.261  65.331  1.00  0.00     0.000 HD 
HETATM    3  S   UNL     1      -7.345  11.534  67.053  1.00  0.00    -0.139 S  
HETATM    4  H1  UNL     1      -8.684  13.232  66.865  1.00  0.00     0.000 HD 
HETATM    5  O   UNL     1      -6.304  12.439  67.471  1.00  0.00    -0.116 OA 
HETATM    6  O   UNL     1      -7.077  10.421  66.169  1.00  0.00    -0.116 OA 
ENDROOT
BRANCH   3   7
HETATM    7  C   UNL     1      -8.193  10.938  68.480  1.00  0.00    -0.140 A  
HETATM    8  C   UNL     1      -7.572  10.084  69.390  1.00  0.00    -0.123 A  
HETATM    9 CL   UNL     1      -5.922   9.588  69.292  1.00  0.00    -0.034 Cl 
HETATM   10  C   UNL     1      -8.322   9.551  70.444  1.00  0.00    -0.226 A  
HETATM   11  C   UNL     1      -9.683   9.835  70.565  1.00  0.00    -0.195 A  
HETATM   12  C   UNL     1     -10.329  10.675  69.642  1.00  0.00    -0.185 A  
HETATM   13  C   UNL     1      -9.557  11.251  68.615  1.00  0.00    -0.195 A  
BRANCH  12  14
HETATM   14  C   UNL     1     -11.849  10.786  69.645  1.00  0.00    -0.320 C  
HETATM   15  O   UNL     1     -12.373  10.665  68.343  1.00  0.00    -0.776 OA 
HETATM   16  N   UNL     1     -12.509   9.792  70.436  1.00  0.00    -0.495 N  
HETATM   17  H   UNL     1     -13.320  10.734  68.344  1.00  0.00     0.000 HD 
HETATM   18  H   UNL     1     -12.501   8.796  70.216  1.00  0.00     0.000 HD 
HETATM   19  C   UNL     1     -13.153  10.330  71.524  1.00  0.00    -0.433 C  
HETATM   20  O   UNL     1     -13.695   9.719  72.425  1.00  0.00    -0.376 OA 
HETATM   21  C   UNL     1     -13.030  11.792  71.429  1.00  0.00    -0.408 A  
HETATM   22  C   UNL     1     -13.465  12.776  72.298  1.00  0.00    -0.591 A  
HETATM   23  C   UNL     1     -13.144  14.098  71.982  1.00  0.00    -0.472 A  
HETATM   24  C   UNL     1     -12.422  14.402  70.812  1.00  0.00    -0.423 A  
HETATM   25  C   UNL     1     -11.996  13.387  69.950  1.00  0.00    -0.408 A  
HETATM   26  C   UNL     1     -12.294  12.074  70.281  1.00  0.00    -0.275 A  
ENDBRANCH  12  14
ENDBRANCH   3   7
TORSDOF 2
ENDMDL
MODEL       36
REMARK 921   NORMALIZED FREE ENERGY PREDICTED BY IDOCK:   -6.22 KCAL/MOL
REMARK 922        TOTAL FREE ENERGY PREDICTED BY IDOCK:   -7.43 KCAL/MOL
REMARK 923 INTER-LIGAND FREE ENERGY PREDICTED BY IDOCK:   -6.93 KCAL/MOL
REMARK 924 INTRA-LIGAND FREE ENERGY PREDICTED BY IDOCK:   -0.50 KCAL/MOL
REMARK 927      BINDING AFFINITY PREDICTED BY RF-SCORE:    0.00 PKD
ROOT
HETATM    1  N   UNL     1     -11.065   8.356  68.055  1.00  0.00    -0.360 N  
HETATM    2  H2  UNL     1     -11.390   7.434  68.342  1.00  0.00     0.000 HD 
HETATM    3  S   UNL     1      -9.860   9.285  68.761  1.00  0.00    -0.170 S  
HETATM    4  H1  UNL     1     -11.400   8.920  67.274  1.00  0.00     0.000 HD 
HETATM    5  O   UNL     1      -8.980   9.711  67.700  1.00  0.00    -0.125 OA 
HETATM    6  O   UNL     1      -9.386   8.485  69.868  1.00  0.00    -0.156 OA 
ENDROOT
BRANCH   3   7
HETATM    7  C   UNL     1     -10.713  10.692  69.396  1.00  0.00    -0.244 A  
HETATM    8  C   UNL     1     -11.632  10.575  70.438  1.00  0.00    -0.342 A  
HETATM    9 CL   UNL     1     -11.976   9.104  71.274  1.00  0.00    -0.369 Cl 
HETATM   10  C   UNL     1     -12.364  11.700  70.830  1.00  0.00    -0.454 A  
HETATM   11  C   UNL     1     -12.209  12.917  70.166  1.00  0.00    -0.336 A  
HETATM   12  C   UNL     1     -11.305  13.046  69.098  1.00  0.00    -0.328 A  
HETATM   13  C   UNL     1     -10.532  11.923  68.743  1.00  0.00    -0.207 A  
BRANCH  12  14
HETATM   14  C   UNL     1     -11.318  14.301  68.233  1.00  0.00    -0.289 C  
HETATM   15  O   UNL     1     -12.315  15.202  68.655  1.00  0.00    -0.583 OA 
HETATM   16  N   UNL     1     -10.088  15.032  68.241  1.00  0.00    -0.219 N  
HETATM   17  H   UNL     1     -12.323  15.985  68.116  1.00  0.00     0.000 HD 
HETATM   18  H   UNL     1      -9.715  15.505  69.064  1.00  0.00     0.000 HD 
HETATM   19  C   UNL     1      -9.465  15.025  67.016  1.00  0.00    -0.229 C  
HETATM   20  O   UNL     1      -8.361  15.463  66.758  1.00  0.00    -0.235 OA 
HETATM   21  C   UNL     1     -10.362  14.345  66.071  1.00  0.00    -0.319 A  
HETATM   22  C   UNL     1     -10.176  14.042  64.733  1.00  0.00    -0.332 A  
HETATM   23  C   UNL     1     -11.186  13.318  64.095  1.00  0.00    -0.412 A  
HETATM   24  C   UNL     1     -12.348  12.936  64.791  1.00  0.00    -0.516 A  
HETATM   25  C   UNL     1     -12.510  13.257  66.142  1.00  0.00    -0.335 A  
HETATM   26  C   UNL     1     -11.495  13.953  66.780  1.00  0.00    -0.369 A  
ENDBRANCH  12  14
ENDBRANCH   3   7
TORSDOF 2
ENDMDL
MODEL       37
REMARK 921   NORMALIZED FREE ENERGY PREDICTED BY IDOCK:   -6.22 KCAL/MOL
REMARK 922        TOTAL FREE ENERGY PREDICTED BY IDOCK:   -7.42 KCAL/MOL
REMARK 923 INTER-LIGAND FREE ENERGY PREDICTED BY IDOCK:   -6.80 KCAL/MOL
REMARK 924 INTRA-LIGAND FREE ENERGY PREDICTED BY IDOCK:   -0.62 KCAL/MOL
REMARK 927      BINDING AFFINITY PREDICTED BY RF-SCORE:    0.00 PKD
ROOT
HETATM    1  N   UNL     1     -10.790  10.524  70.239  1.00  0.00    -0.446 N  
HETATM    2  H2  UNL     1     -10.352  11.073  70.977  1.00  0.00     0.000 HD 
HETATM    3  S   UNL     1     -10.036   9.649  69.023  1.00  0.00    -0.195 S  
HETATM    4  H1  UNL     1     -11.787  10.385  70.074  1.00  0.00     0.000 HD 
HETATM    5  O   UNL     1     -10.628   8.334  69.020  1.00  0.00    -0.215 OA 
HETATM    6  O   UNL     1      -8.623   9.847  69.257  1.00  0.00    -0.141 OA 
ENDROOT
BRANCH   3   7
HETATM    7  C   UNL     1     -10.492  10.486  67.539  1.00  0.00    -0.239 A  
HETATM    8  C   UNL     1     -10.069  10.034  66.291  1.00  0.00    -0.243 A  
HETATM    9 CL   UNL     1      -9.150   8.596  66.035  1.00  0.00    -0.236 Cl 
HETATM   10  C   UNL     1     -10.364  10.796  65.155  1.00  0.00    -0.341 A  
HETATM   11  C   UNL     1     -11.039  12.011  65.268  1.00  0.00    -0.367 A  
HETATM   12  C   UNL     1     -11.451  12.493  66.523  1.00  0.00    -0.418 A  
HETATM   13  C   UNL     1     -11.199  11.696  67.655  1.00  0.00    -0.345 A  
BRANCH  12  14
HETATM   14  C   UNL     1     -11.970  13.920  66.660  1.00  0.00    -0.442 C  
HETATM   15  O   UNL     1     -12.923  14.215  65.665  1.00  0.00    -0.586 OA 
HETATM   16  N   UNL     1     -12.601  14.197  67.914  1.00  0.00    -0.320 N  
HETATM   17  H   UNL     1     -13.246  15.105  65.751  1.00  0.00     0.000 HD 
HETATM   18  H   UNL     1     -13.473  13.765  68.217  1.00  0.00     0.000 HD 
HETATM   19  C   UNL     1     -11.900  15.110  68.664  1.00  0.00    -0.302 C  
HETATM   20  O   UNL     1     -12.134  15.446  69.809  1.00  0.00    -0.337 OA 
HETATM   21  C   UNL     1     -10.774  15.581  67.844  1.00  0.00    -0.294 A  
HETATM   22  C   UNL     1      -9.756  16.462  68.160  1.00  0.00    -0.229 A  
HETATM   23  C   UNL     1      -8.769  16.673  67.193  1.00  0.00    -0.215 A  
HETATM   24  C   UNL     1      -8.833  16.022  65.947  1.00  0.00    -0.191 A  
HETATM   25  C   UNL     1      -9.876  15.137  65.654  1.00  0.00    -0.378 A  
HETATM   26  C   UNL     1     -10.838  14.910  66.625  1.00  0.00    -0.319 A  
ENDBRANCH  12  14
ENDBRANCH   3   7
TORSDOF 2
ENDMDL
MODEL       38
REMARK 921   NORMALIZED FREE ENERGY PREDICTED BY IDOCK:   -6.20 KCAL/MOL
REMARK 922        TOTAL FREE ENERGY PREDICTED BY IDOCK:   -7.41 KCAL/MOL
REMARK 923 INTER-LIGAND FREE ENERGY PREDICTED BY IDOCK:   -7.01 KCAL/MOL
REMARK 924 INTRA-LIGAND FREE ENERGY PREDICTED BY IDOCK:   -0.39 KCAL/MOL
REMARK 927      BINDING AFFINITY PREDICTED BY RF-SCORE:    0.00 PKD
ROOT
HETATM    1  N   UNL     1      -9.527  20.214  67.795  1.00  0.00    -0.363 N  
HETATM    2  H2  UNL     1     -10.392  20.605  68.167  1.00  0.00     0.000 HD 
HETATM    3  S   UNL     1      -9.260  19.584  66.264  1.00  0.00    -0.332 S  
HETATM    4  H1  UNL     1      -8.630  20.120  68.271  1.00  0.00     0.000 HD 
HETATM    5  O   UNL     1      -8.061  20.204  65.755  1.00  0.00    -0.265 OA 
HETATM    6  O   UNL     1     -10.532  19.718  65.589  1.00  0.00    -0.480 OA 
ENDROOT
BRANCH   3   7
HETATM    7  C   UNL     1      -8.942  17.873  66.549  1.00  0.00    -0.261 A  
HETATM    8  C   UNL     1      -7.691  17.426  66.970  1.00  0.00    -0.206 A  
HETATM    9 CL   UNL     1      -6.361  18.462  67.342  1.00  0.00    -0.184 Cl 
HETATM   10  C   UNL     1      -7.458  16.051  67.073  1.00  0.00    -0.264 A  
HETATM   11  C   UNL     1      -8.449  15.132  66.724  1.00  0.00    -0.272 A  
HETATM   12  C   UNL     1      -9.708  15.566  66.275  1.00  0.00    -0.328 A  
HETATM   13  C   UNL     1      -9.954  16.952  66.225  1.00  0.00    -0.324 A  
BRANCH  12  14
HETATM   14  C   UNL     1     -10.690  14.567  65.674  1.00  0.00    -0.327 C  
HETATM   15  O   UNL     1     -11.782  15.223  65.073  1.00  0.00    -0.284 OA 
HETATM   16  N   UNL     1     -10.126  13.722  64.667  1.00  0.00    -0.619 N  
HETATM   17  H   UNL     1     -12.394  14.600  64.698  1.00  0.00     0.000 HD 
HETATM   18  H   UNL     1      -9.793  14.060  63.764  1.00  0.00     0.000 HD 
HETATM   19  C   UNL     1     -10.082  12.404  65.053  1.00  0.00    -0.247 C  
HETATM   20  O   UNL     1      -9.554  11.486  64.453  1.00  0.00    -0.219 OA 
HETATM   21  C   UNL     1     -10.752  12.304  66.357  1.00  0.00    -0.284 A  
HETATM   22  C   UNL     1     -10.928  11.207  67.182  1.00  0.00    -0.350 A  
HETATM   23  C   UNL     1     -11.552  11.426  68.412  1.00  0.00    -0.385 A  
HETATM   24  C   UNL     1     -11.996  12.711  68.775  1.00  0.00    -0.279 A  
HETATM   25  C   UNL     1     -11.807  13.801  67.921  1.00  0.00    -0.413 A  
HETATM   26  C   UNL     1     -11.163  13.587  66.712  1.00  0.00    -0.327 A  
ENDBRANCH  12  14
ENDBRANCH   3   7
TORSDOF 2
ENDMDL
MODEL       39
REMARK 921   NORMALIZED FREE ENERGY PREDICTED BY IDOCK:   -6.18 KCAL/MOL
REMARK 922        TOTAL FREE ENERGY PREDICTED BY IDOCK:   -7.38 KCAL/MOL
REMARK 923 INTER-LIGAND FREE ENERGY PREDICTED BY IDOCK:   -6.93 KCAL/MOL
REMARK 924 INTRA-LIGAND FREE ENERGY PREDICTED BY IDOCK:   -0.45 KCAL/MOL
REMARK 927      BINDING AFFINITY PREDICTED BY RF-SCORE:    0.00 PKD
ROOT
HETATM    1  N   UNL     1     -12.245   6.946  70.262  1.00  0.00    -0.624 N  
HETATM    2  H2  UNL     1     -12.758   6.470  71.004  1.00  0.00     0.000 HD 
HETATM    3  S   UNL     1     -10.759   7.715  70.373  1.00  0.00    -0.238 S  
HETATM    4  H1  UNL     1     -12.521   7.061  69.287  1.00  0.00     0.000 HD 
HETATM    5  O   UNL     1      -9.946   7.219  69.290  1.00  0.00    -0.165 OA 
HETATM    6  O   UNL     1     -10.368   7.553  71.755  1.00  0.00    -0.191 OA 
ENDROOT
BRANCH   3   7
HETATM    7  C   UNL     1     -11.128   9.415  70.080  1.00  0.00    -0.242 A  
HETATM    8  C   UNL     1     -12.032  10.111  70.881  1.00  0.00    -0.365 A  
HETATM    9 CL   UNL     1     -12.811   9.449  72.271  1.00  0.00    -0.464 Cl 
HETATM   10  C   UNL     1     -12.374  11.423  70.540  1.00  0.00    -0.439 A  
HETATM   11  C   UNL     1     -11.851  12.020  69.392  1.00  0.00    -0.384 A  
HETATM   12  C   UNL     1     -10.958  11.323  68.560  1.00  0.00    -0.266 A  
HETATM   13  C   UNL     1     -10.575  10.022  68.939  1.00  0.00    -0.239 A  
BRANCH  12  14
HETATM   14  C   UNL     1     -10.583  11.892  67.196  1.00  0.00    -0.231 C  
HETATM   15  O   UNL     1      -9.606  11.099  66.563  1.00  0.00    -0.189 OA 
HETATM   16  N   UNL     1     -11.678  11.986  66.279  1.00  0.00    -0.325 N  
HETATM   17  H   UNL     1      -9.373  11.453  65.713  1.00  0.00     0.000 HD 
HETATM   18  H   UNL     1     -12.169  11.178  65.898  1.00  0.00     0.000 HD 
HETATM   19  C   UNL     1     -11.993  13.288  65.971  1.00  0.00    -0.423 C  
HETATM   20  O   UNL     1     -12.942  13.672  65.314  1.00  0.00    -0.719 OA 
HETATM   21  C   UNL     1     -10.994  14.148  66.621  1.00  0.00    -0.303 A  
HETATM   22  C   UNL     1     -10.900  15.528  66.655  1.00  0.00    -0.285 A  
HETATM   23  C   UNL     1      -9.869  16.080  67.420  1.00  0.00    -0.236 A  
HETATM   24  C   UNL     1      -8.961  15.254  68.106  1.00  0.00    -0.173 A  
HETATM   25  C   UNL     1      -9.078  13.862  68.053  1.00  0.00    -0.192 A  
HETATM   26  C   UNL     1     -10.118  13.317  67.316  1.00  0.00    -0.234 A  
ENDBRANCH  12  14
ENDBRANCH   3   7
TORSDOF 2
ENDMDL
MODEL       40
REMARK 921   NORMALIZED FREE ENERGY PREDICTED BY IDOCK:   -6.18 KCAL/MOL
REMARK 922        TOTAL FREE ENERGY PREDICTED BY IDOCK:   -7.38 KCAL/MOL
REMARK 923 INTER-LIGAND FREE ENERGY PREDICTED BY IDOCK:   -6.98 KCAL/MOL
REMARK 924 INTRA-LIGAND FREE ENERGY PREDICTED BY IDOCK:   -0.40 KCAL/MOL
REMARK 927      BINDING AFFINITY PREDICTED BY RF-SCORE:    0.00 PKD
ROOT
HETATM    1  N   UNL     1      -9.332   9.204  71.291  1.00  0.00    -0.249 N  
HETATM    2  H2  UNL     1      -8.364   9.177  71.613  1.00  0.00     0.000 HD 
HETATM    3  S   UNL     1      -9.920   8.801  69.774  1.00  0.00    -0.196 S  
HETATM    4  H1  UNL     1     -10.157   9.484  71.821  1.00  0.00     0.000 HD 
HETATM    5  O   UNL     1     -11.031   7.904  69.977  1.00  0.00    -0.249 OA 
HETATM    6  O   UNL     1      -8.749   8.405  69.023  1.00  0.00    -0.139 OA 
ENDROOT
BRANCH   3   7
HETATM    7  C   UNL     1     -10.526  10.324  69.125  1.00  0.00    -0.224 A  
HETATM    8  C   UNL     1     -11.572  11.012  69.739  1.00  0.00    -0.325 A  
HETATM    9 CL   UNL     1     -12.322  10.526  71.216  1.00  0.00    -0.486 Cl 
HETATM   10  C   UNL     1     -12.089  12.156  69.123  1.00  0.00    -0.224 A  
HETATM   11  C   UNL     1     -11.596  12.586  67.891  1.00  0.00    -0.403 A  
HETATM   12  C   UNL     1     -10.560  11.890  67.246  1.00  0.00    -0.261 A  
HETATM   13  C   UNL     1     -10.006  10.771  67.897  1.00  0.00    -0.196 A  
BRANCH  12  14
HETATM   14  C   UNL     1     -10.196  12.225  65.804  1.00  0.00    -0.255 C  
HETATM   15  O   UNL     1      -8.905  11.764  65.482  1.00  0.00    -0.406 OA 
HETATM   16  N   UNL     1     -11.078  11.660  64.830  1.00  0.00    -0.283 N  
HETATM   17  H   UNL     1      -8.678  11.973  64.583  1.00  0.00     0.000 HD 
HETATM   18  H   UNL     1     -11.168  10.658  64.660  1.00  0.00     0.000 HD 
HETATM   19  C   UNL     1     -11.792  12.617  64.150  1.00  0.00    -0.410 C  
HETATM   20  O   UNL     1     -12.691  12.426  63.353  1.00  0.00    -0.722 OA 
HETATM   21  C   UNL     1     -11.303  13.929  64.595  1.00  0.00    -0.380 A  
HETATM   22  C   UNL     1     -11.729  15.199  64.247  1.00  0.00    -0.234 A  
HETATM   23  C   UNL     1     -11.117  16.278  64.890  1.00  0.00    -0.301 A  
HETATM   24  C   UNL     1     -10.098  16.067  65.837  1.00  0.00    -0.378 A  
HETATM   25  C   UNL     1      -9.686  14.772  66.169  1.00  0.00    -0.338 A  
HETATM   26  C   UNL     1     -10.313  13.703  65.549  1.00  0.00    -0.319 A  
ENDBRANCH  12  14
ENDBRANCH   3   7
TORSDOF 2
ENDMDL
MODEL       41
REMARK 921   NORMALIZED FREE ENERGY PREDICTED BY IDOCK:   -6.15 KCAL/MOL
REMARK 922        TOTAL FREE ENERGY PREDICTED BY IDOCK:   -7.35 KCAL/MOL
REMARK 923 INTER-LIGAND FREE ENERGY PREDICTED BY IDOCK:   -6.92 KCAL/MOL
REMARK 924 INTRA-LIGAND FREE ENERGY PREDICTED BY IDOCK:   -0.42 KCAL/MOL
REMARK 927      BINDING AFFINITY PREDICTED BY RF-SCORE:    0.00 PKD
ROOT
HETATM    1  N   UNL     1     -13.206  10.043  70.089  1.00  0.00    -0.379 N  
HETATM    2  H2  UNL     1     -13.774   9.791  70.897  1.00  0.00     0.000 HD 
HETATM    3  S   UNL     1     -11.560  10.362  70.050  1.00  0.00    -0.309 S  
HETATM    4  H1  UNL     1     -13.512  10.157  69.123  1.00  0.00     0.000 HD 
HETATM    5  O   UNL     1     -11.002   9.574  68.979  1.00  0.00    -0.194 OA 
HETATM    6  O   UNL     1     -11.127  10.201  71.420  1.00  0.00    -0.169 OA 
ENDROOT
BRANCH   3   7
HETATM    7  C   UNL     1     -11.460  12.069  69.618  1.00  0.00    -0.252 A  
HETATM    8  C   UNL     1     -12.199  13.036  70.297  1.00  0.00    -0.296 A  
HETATM    9 CL   UNL     1     -13.205  12.713  71.662  1.00  0.00    -0.462 Cl 
HETATM   10  C   UNL     1     -12.170  14.359  69.843  1.00  0.00    -0.394 A  
HETATM   11  C   UNL     1     -11.443  14.705  68.703  1.00  0.00    -0.326 A  
HETATM   12  C   UNL     1     -10.712  13.738  67.993  1.00  0.00    -0.260 A  
HETATM   13  C   UNL     1     -10.702  12.419  68.486  1.00  0.00    -0.262 A  
BRANCH  12  14
HETATM   14  C   UNL     1     -10.123  14.076  66.628  1.00  0.00    -0.276 C  
HETATM   15  O   UNL     1      -9.906  12.913  65.863  1.00  0.00    -0.268 OA 
HETATM   16  N   UNL     1     -10.946  14.932  65.830  1.00  0.00    -0.335 N  
HETATM   17  H   UNL     1      -9.538  13.124  65.013  1.00  0.00     0.000 HD 
HETATM   18  H   UNL     1     -11.856  14.659  65.459  1.00  0.00     0.000 HD 
HETATM   19  C   UNL     1     -10.373  16.163  65.618  1.00  0.00    -0.382 C  
HETATM   20  O   UNL     1     -10.888  17.123  65.078  1.00  0.00    -0.684 OA 
HETATM   21  C   UNL     1      -9.027  16.128  66.208  1.00  0.00    -0.379 A  
HETATM   22  C   UNL     1      -8.074  17.126  66.300  1.00  0.00    -0.325 A  
HETATM   23  C   UNL     1      -6.895  16.824  66.986  1.00  0.00    -0.246 A  
HETATM   24  C   UNL     1      -6.691  15.545  67.538  1.00  0.00    -0.220 A  
HETATM   25  C   UNL     1      -7.672  14.555  67.429  1.00  0.00    -0.215 A  
HETATM   26  C   UNL     1      -8.852  14.866  66.771  1.00  0.00    -0.291 A  
ENDBRANCH  12  14
ENDBRANCH   3   7
TORSDOF 2
ENDMDL
MODEL       42
REMARK 921   NORMALIZED FREE ENERGY PREDICTED BY IDOCK:   -6.09 KCAL/MOL
REMARK 922        TOTAL FREE ENERGY PREDICTED BY IDOCK:   -7.28 KCAL/MOL
REMARK 923 INTER-LIGAND FREE ENERGY PREDICTED BY IDOCK:   -7.09 KCAL/MOL
REMARK 924 INTRA-LIGAND FREE ENERGY PREDICTED BY IDOCK:   -0.19 KCAL/MOL
REMARK 927      BINDING AFFINITY PREDICTED BY RF-SCORE:    0.00 PKD
ROOT
HETATM    1  N   UNL     1     -11.702   7.861  70.302  1.00  0.00    -0.474 N  
HETATM    2  H2  UNL     1     -12.701   7.769  70.486  1.00  0.00     0.000 HD 
HETATM    3  S   UNL     1     -10.845   9.262  69.963  1.00  0.00    -0.238 S  
HETATM    4  H1  UNL     1     -11.001   7.121  70.283  1.00  0.00     0.000 HD 
HETATM    5  O   UNL     1      -9.700   9.280  70.839  1.00  0.00    -0.256 OA 
HETATM    6  O   UNL     1     -11.840  10.312  69.989  1.00  0.00    -0.256 OA 
ENDROOT
BRANCH   3   7
HETATM    7  C   UNL     1     -10.293   9.041  68.303  1.00  0.00    -0.209 A  
HETATM    8  C   UNL     1      -9.497   7.955  67.940  1.00  0.00    -0.145 A  
HETATM    9 CL   UNL     1      -9.042   6.681  69.011  1.00  0.00    -0.133 Cl 
HETATM   10  C   UNL     1      -8.993   7.886  66.637  1.00  0.00    -0.179 A  
HETATM   11  C   UNL     1      -9.247   8.906  65.720  1.00  0.00    -0.283 A  
HETATM   12  C   UNL     1     -10.026  10.019  66.077  1.00  0.00    -0.334 A  
HETATM   13  C   UNL     1     -10.576  10.057  67.373  1.00  0.00    -0.330 A  
BRANCH  12  14
HETATM   14  C   UNL     1     -10.097  11.230  65.153  1.00  0.00    -0.275 C  
HETATM   15  O   UNL     1      -8.874  11.437  64.487  1.00  0.00    -0.383 OA 
HETATM   16  N   UNL     1     -11.097  11.133  64.134  1.00  0.00    -0.380 N  
HETATM   17  H   UNL     1      -8.918  12.191  63.911  1.00  0.00     0.000 HD 
HETATM   18  H   UNL     1     -11.068  10.454  63.374  1.00  0.00     0.000 HD 
HETATM   19  C   UNL     1     -12.101  12.058  64.294  1.00  0.00    -0.322 C  
HETATM   20  O   UNL     1     -13.131  12.134  63.652  1.00  0.00    -0.787 OA 
HETATM   21  C   UNL     1     -11.728  12.921  65.424  1.00  0.00    -0.413 A  
HETATM   22  C   UNL     1     -12.422  13.965  66.009  1.00  0.00    -0.501 A  
HETATM   23  C   UNL     1     -11.845  14.569  67.128  1.00  0.00    -0.412 A  
HETATM   24  C   UNL     1     -10.599  14.135  67.618  1.00  0.00    -0.253 A  
HETATM   25  C   UNL     1      -9.918  13.078  67.006  1.00  0.00    -0.242 A  
HETATM   26  C   UNL     1     -10.506  12.463  65.912  1.00  0.00    -0.284 A  
ENDBRANCH  12  14
ENDBRANCH   3   7
TORSDOF 2
ENDMDL
MODEL       43
REMARK 921   NORMALIZED FREE ENERGY PREDICTED BY IDOCK:   -6.08 KCAL/MOL
REMARK 922        TOTAL FREE ENERGY PREDICTED BY IDOCK:   -7.27 KCAL/MOL
REMARK 923 INTER-LIGAND FREE ENERGY PREDICTED BY IDOCK:   -6.79 KCAL/MOL
REMARK 924 INTRA-LIGAND FREE ENERGY PREDICTED BY IDOCK:   -0.48 KCAL/MOL
REMARK 927      BINDING AFFINITY PREDICTED BY RF-SCORE:    0.00 PKD
ROOT
HETATM    1  N   UNL     1      -6.614  20.081  68.220  1.00  0.00    -0.276 N  
HETATM    2  H2  UNL     1      -6.651  21.071  68.458  1.00  0.00     0.000 HD 
HETATM    3  S   UNL     1      -6.791  19.381  66.706  1.00  0.00    -0.199 S  
HETATM    4  H1  UNL     1      -6.460  19.294  68.850  1.00  0.00     0.000 HD 
HETATM    5  O   UNL     1      -5.685  18.473  66.529  1.00  0.00    -0.147 OA 
HETATM    6  O   UNL     1      -7.009  20.498  65.813  1.00  0.00    -0.247 OA 
ENDROOT
BRANCH   3   7
HETATM    7  C   UNL     1      -8.283  18.450  66.831  1.00  0.00    -0.247 A  
HETATM    8  C   UNL     1      -9.492  19.056  67.169  1.00  0.00    -0.307 A  
HETATM    9 CL   UNL     1      -9.697  20.752  67.413  1.00  0.00    -0.573 Cl 
HETATM   10  C   UNL     1     -10.623  18.256  67.365  1.00  0.00    -0.425 A  
HETATM   11  C   UNL     1     -10.540  16.867  67.262  1.00  0.00    -0.270 A  
HETATM   12  C   UNL     1      -9.323  16.239  66.946  1.00  0.00    -0.241 A  
HETATM   13  C   UNL     1      -8.201  17.053  66.697  1.00  0.00    -0.295 A  
BRANCH  12  14
HETATM   14  C   UNL     1      -9.190  14.726  67.070  1.00  0.00    -0.233 C  
HETATM   15  O   UNL     1      -7.870  14.306  66.814  1.00  0.00    -0.323 OA 
HETATM   16  N   UNL     1      -9.531  14.211  68.361  1.00  0.00    -0.211 N  
HETATM   17  H   UNL     1      -7.787  13.363  66.892  1.00  0.00     0.000 HD 
HETATM   18  H   UNL     1      -9.000  14.408  69.208  1.00  0.00     0.000 HD 
HETATM   19  C   UNL     1     -10.655  13.421  68.330  1.00  0.00    -0.248 C  
HETATM   20  O   UNL     1     -11.239  12.947  69.286  1.00  0.00    -0.243 OA 
HETATM   21  C   UNL     1     -11.060  13.286  66.924  1.00  0.00    -0.310 A  
HETATM   22  C   UNL     1     -12.149  12.634  66.373  1.00  0.00    -0.330 A  
HETATM   23  C   UNL     1     -12.321  12.732  64.990  1.00  0.00    -0.559 A  
HETATM   24  C   UNL     1     -11.406  13.452  64.200  1.00  0.00    -0.398 A  
HETATM   25  C   UNL     1     -10.313  14.100  64.783  1.00  0.00    -0.387 A  
HETATM   26  C   UNL     1     -10.159  14.023  66.159  1.00  0.00    -0.319 A  
ENDBRANCH  12  14
ENDBRANCH   3   7
TORSDOF 2
ENDMDL
MODEL       44
REMARK 921   NORMALIZED FREE ENERGY PREDICTED BY IDOCK:   -6.07 KCAL/MOL
REMARK 922        TOTAL FREE ENERGY PREDICTED BY IDOCK:   -7.26 KCAL/MOL
REMARK 923 INTER-LIGAND FREE ENERGY PREDICTED BY IDOCK:   -6.62 KCAL/MOL
REMARK 924 INTRA-LIGAND FREE ENERGY PREDICTED BY IDOCK:   -0.64 KCAL/MOL
REMARK 927      BINDING AFFINITY PREDICTED BY RF-SCORE:    0.00 PKD
ROOT
HETATM    1  N   UNL     1     -12.115  13.670  71.086  1.00  0.00    -0.436 N  
HETATM    2  H2  UNL     1     -13.025  13.290  71.349  1.00  0.00     0.000 HD 
HETATM    3  S   UNL     1     -11.772  15.209  70.515  1.00  0.00    -0.332 S  
HETATM    4  H1  UNL     1     -11.212  13.198  71.111  1.00  0.00     0.000 HD 
HETATM    5  O   UNL     1     -10.673  15.714  71.301  1.00  0.00    -0.140 OA 
HETATM    6  O   UNL     1     -13.053  15.878  70.479  1.00  0.00    -0.421 OA 
ENDROOT
BRANCH   3   7
HETATM    7  C   UNL     1     -11.219  14.944  68.862  1.00  0.00    -0.269 A  
HETATM    8  C   UNL     1     -10.708  15.987  68.091  1.00  0.00    -0.311 A  
HETATM    9 CL   UNL     1     -10.472  17.598  68.664  1.00  0.00    -0.347 Cl 
HETATM   10  C   UNL     1     -10.388  15.750  66.750  1.00  0.00    -0.293 A  
HETATM   11  C   UNL     1     -10.612  14.498  66.175  1.00  0.00    -0.308 A  
HETATM   12  C   UNL     1     -11.150  13.443  66.932  1.00  0.00    -0.309 A  
HETATM   13  C   UNL     1     -11.419  13.673  68.295  1.00  0.00    -0.348 A  
BRANCH  12  14
HETATM   14  C   UNL     1     -11.610  12.164  66.241  1.00  0.00    -0.360 C  
HETATM   15  O   UNL     1     -12.077  11.219  67.175  1.00  0.00    -0.269 OA 
HETATM   16  N   UNL     1     -12.669  12.355  65.299  1.00  0.00    -0.096 N  
HETATM   17  H   UNL     1     -12.363  10.422  66.744  1.00  0.00     0.000 HD 
HETATM   18  H   UNL     1     -13.611  12.650  65.557  1.00  0.00     0.000 HD 
HETATM   19  C   UNL     1     -12.276  12.096  64.008  1.00  0.00    -0.446 C  
HETATM   20  O   UNL     1     -12.927  12.283  62.997  1.00  0.00    -0.516 OA 
HETATM   21  C   UNL     1     -10.897  11.591  64.061  1.00  0.00    -0.453 A  
HETATM   22  C   UNL     1     -10.043  11.236  63.032  1.00  0.00    -0.327 A  
HETATM   23  C   UNL     1      -8.747  10.850  63.380  1.00  0.00    -0.074 A  
HETATM   24  C   UNL     1      -8.346  10.811  64.729  1.00  0.00     0.004 A  
HETATM   25  C   UNL     1      -9.231  11.174  65.749  1.00  0.00    -0.234 A  
HETATM   26  C   UNL     1     -10.508  11.582  65.398  1.00  0.00    -0.333 A  
ENDBRANCH  12  14
ENDBRANCH   3   7
TORSDOF 2
ENDMDL
MODEL       45
REMARK 921   NORMALIZED FREE ENERGY PREDICTED BY IDOCK:   -6.06 KCAL/MOL
REMARK 922        TOTAL FREE ENERGY PREDICTED BY IDOCK:   -7.25 KCAL/MOL
REMARK 923 INTER-LIGAND FREE ENERGY PREDICTED BY IDOCK:   -7.03 KCAL/MOL
REMARK 924 INTRA-LIGAND FREE ENERGY PREDICTED BY IDOCK:   -0.22 KCAL/MOL
REMARK 927      BINDING AFFINITY PREDICTED BY RF-SCORE:    0.00 PKD
ROOT
HETATM    1  N   UNL     1     -11.857   6.798  69.643  1.00  0.00    -0.646 N  
HETATM    2  H2  UNL     1     -12.189   6.040  70.238  1.00  0.00     0.000 HD 
HETATM    3  S   UNL     1     -10.506   7.764  69.868  1.00  0.00    -0.234 S  
HETATM    4  H1  UNL     1     -12.275   7.138  68.776  1.00  0.00     0.000 HD 
HETATM    5  O   UNL     1      -9.776   7.766  68.624  1.00  0.00    -0.152 OA 
HETATM    6  O   UNL     1      -9.914   7.282  71.096  1.00  0.00    -0.186 OA 
ENDROOT
BRANCH   3   7
HETATM    7  C   UNL     1     -11.166   9.376  70.147  1.00  0.00    -0.219 A  
HETATM    8  C   UNL     1     -11.984   9.646  71.243  1.00  0.00    -0.380 A  
HETATM    9 CL   UNL     1     -12.369   8.503  72.477  1.00  0.00    -0.428 Cl 
HETATM   10  C   UNL     1     -12.573  10.910  71.357  1.00  0.00    -0.508 A  
HETATM   11  C   UNL     1     -12.379  11.878  70.372  1.00  0.00    -0.334 A  
HETATM   12  C   UNL     1     -11.578  11.613  69.249  1.00  0.00    -0.385 A  
HETATM   13  C   UNL     1     -10.944  10.358  69.166  1.00  0.00    -0.285 A  
BRANCH  12  14
HETATM   14  C   UNL     1     -11.567  12.583  68.072  1.00  0.00    -0.342 C  
HETATM   15  O   UNL     1     -12.144  12.001  66.926  1.00  0.00    -0.608 OA 
HETATM   16  N   UNL     1     -12.282  13.799  68.308  1.00  0.00    -0.444 N  
HETATM   17  H   UNL     1     -12.137  12.606  66.193  1.00  0.00     0.000 HD 
HETATM   18  H   UNL     1     -13.292  13.846  68.442  1.00  0.00     0.000 HD 
HETATM   19  C   UNL     1     -11.456  14.897  68.334  1.00  0.00    -0.318 C  
HETATM   20  O   UNL     1     -11.767  16.036  68.625  1.00  0.00    -0.382 OA 
HETATM   21  C   UNL     1     -10.103  14.438  67.989  1.00  0.00    -0.232 A  
HETATM   22  C   UNL     1      -8.916  15.145  67.925  1.00  0.00    -0.174 A  
HETATM   23  C   UNL     1      -7.756  14.424  67.633  1.00  0.00    -0.198 A  
HETATM   24  C   UNL     1      -7.811  13.037  67.397  1.00  0.00    -0.166 A  
HETATM   25  C   UNL     1      -9.026  12.348  67.466  1.00  0.00    -0.183 A  
HETATM   26  C   UNL     1     -10.171  13.061  67.782  1.00  0.00    -0.228 A  
ENDBRANCH  12  14
ENDBRANCH   3   7
TORSDOF 2
ENDMDL
MODEL       46
REMARK 921   NORMALIZED FREE ENERGY PREDICTED BY IDOCK:   -6.03 KCAL/MOL
REMARK 922        TOTAL FREE ENERGY PREDICTED BY IDOCK:   -7.21 KCAL/MOL
REMARK 923 INTER-LIGAND FREE ENERGY PREDICTED BY IDOCK:   -6.56 KCAL/MOL
REMARK 924 INTRA-LIGAND FREE ENERGY PREDICTED BY IDOCK:   -0.66 KCAL/MOL
REMARK 927      BINDING AFFINITY PREDICTED BY RF-SCORE:    0.00 PKD
ROOT
HETATM    1  N   UNL     1     -10.749  11.034  62.929  1.00  0.00    -0.792 N  
HETATM    2  H2  UNL     1      -9.924  11.065  62.331  1.00  0.00     0.000 HD 
HETATM    3  S   UNL     1     -11.304  12.222  63.974  1.00  0.00    -0.440 S  
HETATM    4  H1  UNL     1     -11.421  10.273  63.025  1.00  0.00     0.000 HD 
HETATM    5  O   UNL     1     -12.707  12.408  63.694  1.00  0.00    -0.710 OA 
HETATM    6  O   UNL     1     -10.351  13.301  63.838  1.00  0.00    -0.326 OA 
ENDROOT
BRANCH   3   7
HETATM    7  C   UNL     1     -11.131  11.506  65.576  1.00  0.00    -0.191 A  
HETATM    8  C   UNL     1     -11.475  12.210  66.729  1.00  0.00    -0.356 A  
HETATM    9 CL   UNL     1     -12.177  13.787  66.733  1.00  0.00    -0.460 Cl 
HETATM   10  C   UNL     1     -11.213  11.640  67.979  1.00  0.00    -0.327 A  
HETATM   11  C   UNL     1     -10.581  10.401  68.078  1.00  0.00    -0.259 A  
HETATM   12  C   UNL     1     -10.205   9.689  66.926  1.00  0.00    -0.304 A  
HETATM   13  C   UNL     1     -10.520  10.243  65.671  1.00  0.00    -0.152 A  
BRANCH  12  14
HETATM   14  C   UNL     1      -9.310   8.460  67.046  1.00  0.00    -0.159 C  
HETATM   15  O   UNL     1      -9.210   7.780  65.817  1.00  0.00    -0.375 OA 
HETATM   16  N   UNL     1      -7.970   8.749  67.455  1.00  0.00    -0.102 N  
HETATM   17  H   UNL     1      -8.652   7.014  65.891  1.00  0.00     0.000 HD 
HETATM   18  H   UNL     1      -7.306   9.277  66.890  1.00  0.00     0.000 HD 
HETATM   19  C   UNL     1      -7.677   8.234  68.695  1.00  0.00    -0.114 C  
HETATM   20  O   UNL     1      -6.663   8.418  69.340  1.00  0.00    -0.044 OA 
HETATM   21  C   UNL     1      -8.841   7.448  69.131  1.00  0.00    -0.136 A  
HETATM   22  C   UNL     1      -9.061   6.774  70.318  1.00  0.00    -0.153 A  
HETATM   23  C   UNL     1     -10.306   6.162  70.486  1.00  0.00    -0.270 A  
HETATM   24  C   UNL     1     -11.279   6.222  69.471  1.00  0.00    -0.500 A  
HETATM   25  C   UNL     1     -11.029   6.910  68.280  1.00  0.00    -0.208 A  
HETATM   26  C   UNL     1      -9.803   7.538  68.127  1.00  0.00    -0.179 A  
ENDBRANCH  12  14
ENDBRANCH   3   7
TORSDOF 2
ENDMDL
MODEL       47
REMARK 921   NORMALIZED FREE ENERGY PREDICTED BY IDOCK:   -6.02 KCAL/MOL
REMARK 922        TOTAL FREE ENERGY PREDICTED BY IDOCK:   -7.21 KCAL/MOL
REMARK 923 INTER-LIGAND FREE ENERGY PREDICTED BY IDOCK:   -7.07 KCAL/MOL
REMARK 924 INTRA-LIGAND FREE ENERGY PREDICTED BY IDOCK:   -0.14 KCAL/MOL
REMARK 927      BINDING AFFINITY PREDICTED BY RF-SCORE:    0.00 PKD
ROOT
HETATM    1  N   UNL     1      -8.094  18.964  68.478  1.00  0.00    -0.338 N  
HETATM    2  H2  UNL     1      -8.435  19.505  69.272  1.00  0.00     0.000 HD 
HETATM    3  S   UNL     1      -8.994  18.274  67.243  1.00  0.00    -0.262 S  
HETATM    4  H1  UNL     1      -7.128  18.722  68.257  1.00  0.00     0.000 HD 
HETATM    5  O   UNL     1      -8.378  18.668  66.000  1.00  0.00    -0.475 OA 
HETATM    6  O   UNL     1     -10.364  18.618  67.556  1.00  0.00    -0.367 OA 
ENDROOT
BRANCH   3   7
HETATM    7  C   UNL     1      -8.777  16.538  67.465  1.00  0.00    -0.182 A  
HETATM    8  C   UNL     1      -7.511  15.954  67.431  1.00  0.00    -0.186 A  
HETATM    9 CL   UNL     1      -6.036  16.834  67.263  1.00  0.00    -0.185 Cl 
HETATM   10  C   UNL     1      -7.402  14.561  67.500  1.00  0.00    -0.212 A  
HETATM   11  C   UNL     1      -8.543  13.760  67.563  1.00  0.00    -0.194 A  
HETATM   12  C   UNL     1      -9.826  14.332  67.574  1.00  0.00    -0.231 A  
HETATM   13  C   UNL     1      -9.927  15.736  67.559  1.00  0.00    -0.236 A  
BRANCH  12  14
HETATM   14  C   UNL     1     -11.057  13.449  67.403  1.00  0.00    -0.278 C  
HETATM   15  O   UNL     1     -11.330  12.720  68.577  1.00  0.00    -0.249 OA 
HETATM   16  N   UNL     1     -12.255  14.166  67.089  1.00  0.00    -0.570 N  
HETATM   17  H   UNL     1     -12.097  12.170  68.471  1.00  0.00     0.000 HD 
HETATM   18  H   UNL     1     -12.710  14.816  67.729  1.00  0.00     0.000 HD 
HETATM   19  C   UNL     1     -12.722  13.881  65.829  1.00  0.00    -0.461 C  
HETATM   20  O   UNL     1     -13.647  14.422  65.255  1.00  0.00    -0.322 OA 
HETATM   21  C   UNL     1     -11.866  12.824  65.271  1.00  0.00    -0.442 A  
HETATM   22  C   UNL     1     -11.893  12.227  64.023  1.00  0.00    -0.530 A  
HETATM   23  C   UNL     1     -10.900  11.286  63.742  1.00  0.00    -0.424 A  
HETATM   24  C   UNL     1      -9.930  10.954  64.706  1.00  0.00    -0.366 A  
HETATM   25  C   UNL     1      -9.927  11.572  65.961  1.00  0.00    -0.258 A  
HETATM   26  C   UNL     1     -10.898  12.525  66.227  1.00  0.00    -0.299 A  
ENDBRANCH  12  14
ENDBRANCH   3   7
TORSDOF 2
ENDMDL
MODEL       48
REMARK 921   NORMALIZED FREE ENERGY PREDICTED BY IDOCK:   -5.99 KCAL/MOL
REMARK 922        TOTAL FREE ENERGY PREDICTED BY IDOCK:   -7.17 KCAL/MOL
REMARK 923 INTER-LIGAND FREE ENERGY PREDICTED BY IDOCK:   -7.21 KCAL/MOL
REMARK 924 INTRA-LIGAND FREE ENERGY PREDICTED BY IDOCK:    0.04 KCAL/MOL
REMARK 927      BINDING AFFINITY PREDICTED BY RF-SCORE:    0.00 PKD
ROOT
HETATM    1  N   UNL     1     -11.032  12.044  63.018  1.00  0.00    -0.657 N  
HETATM    2  H2  UNL     1     -10.510  12.376  62.208  1.00  0.00     0.000 HD 
HETATM    3  S   UNL     1     -12.278  12.822  63.826  1.00  0.00    -0.491 S  
HETATM    4  H1  UNL     1     -10.912  11.163  63.519  1.00  0.00     0.000 HD 
HETATM    5  O   UNL     1     -13.354  11.872  63.958  1.00  0.00    -0.646 OA 
HETATM    6  O   UNL     1     -12.447  14.071  63.117  1.00  0.00    -0.733 OA 
ENDROOT
BRANCH   3   7
HETATM    7  C   UNL     1     -11.614  13.160  65.425  1.00  0.00    -0.333 A  
HETATM    8  C   UNL     1     -11.076  14.407  65.740  1.00  0.00    -0.316 A  
HETATM    9 CL   UNL     1     -11.072  15.764  64.673  1.00  0.00    -0.441 Cl 
HETATM   10  C   UNL     1     -10.461  14.589  66.983  1.00  0.00    -0.268 A  
HETATM   11  C   UNL     1     -10.350  13.530  67.885  1.00  0.00    -0.249 A  
HETATM   12  C   UNL     1     -10.865  12.261  67.572  1.00  0.00    -0.271 A  
HETATM   13  C   UNL     1     -11.531  12.098  66.342  1.00  0.00    -0.430 A  
BRANCH  12  14
HETATM   14  C   UNL     1     -10.530  11.062  68.454  1.00  0.00    -0.180 C  
HETATM   15  O   UNL     1     -10.855  11.313  69.802  1.00  0.00    -0.440 OA 
HETATM   16  N   UNL     1     -11.216   9.859  68.094  1.00  0.00    -0.523 N  
HETATM   17  H   UNL     1     -10.647  10.567  70.351  1.00  0.00     0.000 HD 
HETATM   18  H   UNL     1     -12.225   9.737  68.172  1.00  0.00     0.000 HD 
HETATM   19  C   UNL     1     -10.361   8.887  67.631  1.00  0.00    -0.251 C  
HETATM   20  O   UNL     1     -10.671   7.814  67.151  1.00  0.00    -0.333 OA 
HETATM   21  C   UNL     1      -8.992   9.399  67.779  1.00  0.00    -0.127 A  
HETATM   22  C   UNL     1      -7.786   8.824  67.417  1.00  0.00    -0.098 A  
HETATM   23  C   UNL     1      -6.630   9.582  67.617  1.00  0.00    -0.063 A  
HETATM   24  C   UNL     1      -6.702  10.868  68.183  1.00  0.00    -0.063 A  
HETATM   25  C   UNL     1      -7.934  11.425  68.542  1.00  0.00    -0.143 A  
HETATM   26  C   UNL     1      -9.082  10.681  68.317  1.00  0.00    -0.153 A  
ENDBRANCH  12  14
ENDBRANCH   3   7
TORSDOF 2
ENDMDL
MODEL       49
REMARK 921   NORMALIZED FREE ENERGY PREDICTED BY IDOCK:   -5.99 KCAL/MOL
REMARK 922        TOTAL FREE ENERGY PREDICTED BY IDOCK:   -7.16 KCAL/MOL
REMARK 923 INTER-LIGAND FREE ENERGY PREDICTED BY IDOCK:   -6.94 KCAL/MOL
REMARK 924 INTRA-LIGAND FREE ENERGY PREDICTED BY IDOCK:   -0.22 KCAL/MOL
REMARK 927      BINDING AFFINITY PREDICTED BY RF-SCORE:    0.00 PKD
ROOT
HETATM    1  N   UNL     1      -8.938   8.215  69.819  1.00  0.00    -0.143 N  
HETATM    2  H2  UNL     1      -8.848   7.401  69.211  1.00  0.00     0.000 HD 
HETATM    3  S   UNL     1     -10.315   8.767  70.599  1.00  0.00    -0.223 S  
HETATM    4  H1  UNL     1      -8.208   8.875  70.087  1.00  0.00     0.000 HD 
HETATM    5  O   UNL     1      -9.960   8.985  71.980  1.00  0.00    -0.321 OA 
HETATM    6  O   UNL     1     -11.349   7.830  70.218  1.00  0.00    -0.252 OA 
ENDROOT
BRANCH   3   7
HETATM    7  C   UNL     1     -10.648  10.324  69.841  1.00  0.00    -0.276 A  
HETATM    8  C   UNL     1     -11.748  11.094  70.215  1.00  0.00    -0.341 A  
HETATM    9 CL   UNL     1     -12.838  10.682  71.488  1.00  0.00    -0.536 Cl 
HETATM   10  C   UNL     1     -12.031  12.267  69.507  1.00  0.00    -0.333 A  
HETATM   11  C   UNL     1     -11.250  12.645  68.415  1.00  0.00    -0.316 A  
HETATM   12  C   UNL     1     -10.152  11.867  68.009  1.00  0.00    -0.199 A  
HETATM   13  C   UNL     1      -9.840  10.717  68.760  1.00  0.00    -0.200 A  
BRANCH  12  14
HETATM   14  C   UNL     1      -9.458  12.158  66.683  1.00  0.00    -0.223 C  
HETATM   15  O   UNL     1      -8.384  13.053  66.855  1.00  0.00    -0.353 OA 
HETATM   16  N   UNL     1      -8.916  11.001  66.039  1.00  0.00    -0.192 N  
HETATM   17  H   UNL     1      -7.951  13.234  66.029  1.00  0.00     0.000 HD 
HETATM   18  H   UNL     1      -8.144  10.452  66.415  1.00  0.00     0.000 HD 
HETATM   19  C   UNL     1      -9.553  10.714  64.856  1.00  0.00    -0.269 C  
HETATM   20  O   UNL     1      -9.384   9.733  64.157  1.00  0.00    -0.266 OA 
HETATM   21  C   UNL     1     -10.521  11.791  64.604  1.00  0.00    -0.347 A  
HETATM   22  C   UNL     1     -11.434  11.940  63.575  1.00  0.00    -0.523 A  
HETATM   23  C   UNL     1     -12.286  13.046  63.630  1.00  0.00    -0.568 A  
HETATM   24  C   UNL     1     -12.194  13.972  64.686  1.00  0.00    -0.460 A  
HETATM   25  C   UNL     1     -11.260  13.797  65.712  1.00  0.00    -0.300 A  
HETATM   26  C   UNL     1     -10.434  12.685  65.669  1.00  0.00    -0.298 A  
ENDBRANCH  12  14
ENDBRANCH   3   7
TORSDOF 2
ENDMDL
MODEL       50
REMARK 921   NORMALIZED FREE ENERGY PREDICTED BY IDOCK:   -5.99 KCAL/MOL
REMARK 922        TOTAL FREE ENERGY PREDICTED BY IDOCK:   -7.16 KCAL/MOL
REMARK 923 INTER-LIGAND FREE ENERGY PREDICTED BY IDOCK:   -6.69 KCAL/MOL
REMARK 924 INTRA-LIGAND FREE ENERGY PREDICTED BY IDOCK:   -0.48 KCAL/MOL
REMARK 927      BINDING AFFINITY PREDICTED BY RF-SCORE:    0.00 PKD
ROOT
HETATM    1  N   UNL     1     -11.636  10.759  70.963  1.00  0.00    -0.289 N  
HETATM    2  H2  UNL     1     -11.116  11.507  71.420  1.00  0.00     0.000 HD 
HETATM    3  S   UNL     1     -11.285   9.119  70.958  1.00  0.00    -0.342 S  
HETATM    4  H1  UNL     1     -12.486  10.841  70.406  1.00  0.00     0.000 HD 
HETATM    5  O   UNL     1     -12.497   8.427  71.318  1.00  0.00    -0.302 OA 
HETATM    6  O   UNL     1     -10.078   9.003  71.747  1.00  0.00    -0.326 OA 
ENDROOT
BRANCH   3   7
HETATM    7  C   UNL     1     -10.901   8.763  69.274  1.00  0.00    -0.077 A  
HETATM    8  C   UNL     1     -10.841   7.453  68.803  1.00  0.00    -0.043 A  
HETATM    9 CL   UNL     1     -11.211   6.059  69.752  1.00  0.00    -0.481 Cl 
HETATM   10  C   UNL     1     -10.423   7.220  67.489  1.00  0.00    -0.337 A  
HETATM   11  C   UNL     1     -10.033   8.277  66.667  1.00  0.00    -0.348 A  
HETATM   12  C   UNL     1     -10.064   9.602  67.134  1.00  0.00    -0.276 A  
HETATM   13  C   UNL     1     -10.537   9.835  68.440  1.00  0.00    -0.264 A  
BRANCH  12  14
HETATM   14  C   UNL     1      -9.416  10.715  66.318  1.00  0.00    -0.177 C  
HETATM   15  O   UNL     1      -8.583  11.519  67.121  1.00  0.00    -0.145 OA 
HETATM   16  N   UNL     1      -8.603  10.252  65.236  1.00  0.00    -0.158 N  
HETATM   17  H   UNL     1      -8.179  12.212  66.613  1.00  0.00     0.000 HD 
HETATM   18  H   UNL     1      -7.737   9.729  65.361  1.00  0.00     0.000 HD 
HETATM   19  C   UNL     1      -9.120  10.590  64.009  1.00  0.00    -0.231 C  
HETATM   20  O   UNL     1      -8.708  10.235  62.921  1.00  0.00    -0.166 OA 
HETATM   21  C   UNL     1     -10.302  11.431  64.246  1.00  0.00    -0.383 A  
HETATM   22  C   UNL     1     -11.193  11.983  63.344  1.00  0.00    -0.481 A  
HETATM   23  C   UNL     1     -12.279  12.690  63.867  1.00  0.00    -0.565 A  
HETATM   24  C   UNL     1     -12.435  12.843  65.257  1.00  0.00    -0.552 A  
HETATM   25  C   UNL     1     -11.518  12.275  66.147  1.00  0.00    -0.429 A  
HETATM   26  C   UNL     1     -10.457  11.551  65.626  1.00  0.00    -0.317 A  
ENDBRANCH  12  14
ENDBRANCH   3   7
TORSDOF 2
ENDMDL
MODEL       51
REMARK 921   NORMALIZED FREE ENERGY PREDICTED BY IDOCK:   -5.98 KCAL/MOL
REMARK 922        TOTAL FREE ENERGY PREDICTED BY IDOCK:   -7.16 KCAL/MOL
REMARK 923 INTER-LIGAND FREE ENERGY PREDICTED BY IDOCK:   -6.83 KCAL/MOL
REMARK 924 INTRA-LIGAND FREE ENERGY PREDICTED BY IDOCK:   -0.34 KCAL/MOL
REMARK 927      BINDING AFFINITY PREDICTED BY RF-SCORE:    0.00 PKD
ROOT
HETATM    1  N   UNL     1     -12.039  14.705  73.723  1.00  0.00    -0.233 N  
HETATM    2  H2  UNL     1     -12.568  14.217  74.445  1.00  0.00     0.000 HD 
HETATM    3  S   UNL     1     -12.621  15.774  72.570  1.00  0.00    -0.483 S  
HETATM    4  H1  UNL     1     -11.037  14.651  73.541  1.00  0.00     0.000 HD 
HETATM    5  O   UNL     1     -11.778  16.943  72.615  1.00  0.00    -0.329 OA 
HETATM    6  O   UNL     1     -14.042  15.850  72.828  1.00  0.00    -0.567 OA 
ENDROOT
BRANCH   3   7
HETATM    7  C   UNL     1     -12.363  14.942  71.037  1.00  0.00    -0.324 A  
HETATM    8  C   UNL     1     -12.594  13.573  70.905  1.00  0.00    -0.337 A  
HETATM    9 CL   UNL     1     -13.227  12.567  72.156  1.00  0.00    -0.572 Cl 
HETATM   10  C   UNL     1     -12.267  12.941  69.701  1.00  0.00    -0.203 A  
HETATM   11  C   UNL     1     -11.683  13.656  68.656  1.00  0.00    -0.389 A  
HETATM   12  C   UNL     1     -11.421  15.031  68.782  1.00  0.00    -0.337 A  
HETATM   13  C   UNL     1     -11.801  15.673  69.976  1.00  0.00    -0.381 A  
BRANCH  12  14
HETATM   14  C   UNL     1     -10.572  15.746  67.736  1.00  0.00    -0.292 C  
HETATM   15  O   UNL     1     -10.739  15.170  66.462  1.00  0.00    -0.299 OA 
HETATM   16  N   UNL     1     -10.871  17.137  67.589  1.00  0.00    -0.296 N  
HETATM   17  H   UNL     1     -10.210  15.615  65.810  1.00  0.00     0.000 HD 
HETATM   18  H   UNL     1     -11.757  17.492  67.230  1.00  0.00     0.000 HD 
HETATM   19  C   UNL     1      -9.830  17.942  67.987  1.00  0.00    -0.320 C  
HETATM   20  O   UNL     1      -9.842  19.155  68.080  1.00  0.00    -0.326 OA 
HETATM   21  C   UNL     1      -8.701  17.065  68.327  1.00  0.00    -0.241 A  
HETATM   22  C   UNL     1      -7.449  17.384  68.822  1.00  0.00    -0.258 A  
HETATM   23  C   UNL     1      -6.591  16.323  69.123  1.00  0.00    -0.185 A  
HETATM   24  C   UNL     1      -6.991  14.991  68.908  1.00  0.00    -0.114 A  
HETATM   25  C   UNL     1      -8.262  14.698  68.405  1.00  0.00    -0.154 A  
HETATM   26  C   UNL     1      -9.121  15.751  68.132  1.00  0.00    -0.185 A  
ENDBRANCH  12  14
ENDBRANCH   3   7
TORSDOF 2
ENDMDL
MODEL       52
REMARK 921   NORMALIZED FREE ENERGY PREDICTED BY IDOCK:   -5.97 KCAL/MOL
REMARK 922        TOTAL FREE ENERGY PREDICTED BY IDOCK:   -7.15 KCAL/MOL
REMARK 923 INTER-LIGAND FREE ENERGY PREDICTED BY IDOCK:   -6.58 KCAL/MOL
REMARK 924 INTRA-LIGAND FREE ENERGY PREDICTED BY IDOCK:   -0.57 KCAL/MOL
REMARK 927      BINDING AFFINITY PREDICTED BY RF-SCORE:    0.00 PKD
ROOT
HETATM    1  N   UNL     1      -6.366  15.190  69.281  1.00  0.00    -0.110 N  
HETATM    2  H2  UNL     1      -5.763  15.848  69.774  1.00  0.00     0.000 HD 
HETATM    3  S   UNL     1      -6.605  15.056  67.627  1.00  0.00    -0.133 S  
HETATM    4  H1  UNL     1      -6.960  14.465  69.685  1.00  0.00     0.000 HD 
HETATM    5  O   UNL     1      -6.441  13.664  67.288  1.00  0.00    -0.279 OA 
HETATM    6  O   UNL     1      -5.764  16.084  67.054  1.00  0.00    -0.340 OA 
ENDROOT
BRANCH   3   7
HETATM    7  C   UNL     1      -8.295  15.506  67.395  1.00  0.00    -0.182 A  
HETATM    8  C   UNL     1      -8.795  16.720  67.864  1.00  0.00    -0.218 A  
HETATM    9 CL   UNL     1      -7.839  17.938  68.627  1.00  0.00    -0.299 Cl 
HETATM   10  C   UNL     1     -10.165  16.980  67.755  1.00  0.00    -0.312 A  
HETATM   11  C   UNL     1     -11.030  16.026  67.219  1.00  0.00    -0.207 A  
HETATM   12  C   UNL     1     -10.546  14.788  66.764  1.00  0.00    -0.302 A  
HETATM   13  C   UNL     1      -9.159  14.554  66.827  1.00  0.00    -0.283 A  
BRANCH  12  14
HETATM   14  C   UNL     1     -11.520  13.671  66.405  1.00  0.00    -0.338 C  
HETATM   15  O   UNL     1     -12.809  14.180  66.154  1.00  0.00    -0.502 OA 
HETATM   16  N   UNL     1     -11.151  12.921  65.244  1.00  0.00    -0.280 N  
HETATM   17  H   UNL     1     -13.417  13.484  65.930  1.00  0.00     0.000 HD 
HETATM   18  H   UNL     1     -11.125  13.310  64.302  1.00  0.00     0.000 HD 
HETATM   19  C   UNL     1     -10.836  11.617  65.541  1.00  0.00    -0.279 C  
HETATM   20  O   UNL     1     -10.382  10.786  64.778  1.00  0.00    -0.321 OA 
HETATM   21  C   UNL     1     -11.104  11.414  66.972  1.00  0.00    -0.364 A  
HETATM   22  C   UNL     1     -10.906  10.295  67.761  1.00  0.00    -0.346 A  
HETATM   23  C   UNL     1     -11.190  10.414  69.123  1.00  0.00    -0.301 A  
HETATM   24  C   UNL     1     -11.677  11.624  69.653  1.00  0.00    -0.418 A  
HETATM   25  C   UNL     1     -11.870  12.739  68.832  1.00  0.00    -0.351 A  
HETATM   26  C   UNL     1     -11.561  12.626  67.485  1.00  0.00    -0.418 A  
ENDBRANCH  12  14
ENDBRANCH   3   7
TORSDOF 2
ENDMDL
MODEL       53
REMARK 921   NORMALIZED FREE ENERGY PREDICTED BY IDOCK:   -5.94 KCAL/MOL
REMARK 922        TOTAL FREE ENERGY PREDICTED BY IDOCK:   -7.12 KCAL/MOL
REMARK 923 INTER-LIGAND FREE ENERGY PREDICTED BY IDOCK:   -7.02 KCAL/MOL
REMARK 924 INTRA-LIGAND FREE ENERGY PREDICTED BY IDOCK:   -0.09 KCAL/MOL
REMARK 927      BINDING AFFINITY PREDICTED BY RF-SCORE:    0.00 PKD
ROOT
HETATM    1  N   UNL     1     -12.043  13.462  63.300  1.00  0.00    -0.885 N  
HETATM    2  H2  UNL     1     -11.927  13.579  62.294  1.00  0.00     0.000 HD 
HETATM    3  S   UNL     1     -12.240  14.659  64.457  1.00  0.00    -0.374 S  
HETATM    4  H1  UNL     1     -12.064  12.589  63.827  1.00  0.00     0.000 HD 
HETATM    5  O   UNL     1     -13.377  14.286  65.261  1.00  0.00    -0.660 OA 
HETATM    6  O   UNL     1     -12.209  15.897  63.709  1.00  0.00    -0.817 OA 
ENDROOT
BRANCH   3   7
HETATM    7  C   UNL     1     -10.782  14.553  65.444  1.00  0.00    -0.361 A  
HETATM    8  C   UNL     1     -10.546  13.460  66.276  1.00  0.00    -0.291 A  
HETATM    9 CL   UNL     1     -11.569  12.074  66.378  1.00  0.00    -0.417 Cl 
HETATM   10  C   UNL     1      -9.431  13.476  67.121  1.00  0.00    -0.244 A  
HETATM   11  C   UNL     1      -8.585  14.585  67.163  1.00  0.00    -0.242 A  
HETATM   12  C   UNL     1      -8.823  15.704  66.348  1.00  0.00    -0.365 A  
HETATM   13  C   UNL     1      -9.915  15.660  65.460  1.00  0.00    -0.364 A  
BRANCH  12  14
HETATM   14  C   UNL     1      -8.039  16.993  66.573  1.00  0.00    -0.285 C  
HETATM   15  O   UNL     1      -7.434  17.437  65.381  1.00  0.00    -0.087 OA 
HETATM   16  N   UNL     1      -8.830  18.085  67.051  1.00  0.00    -0.248 N  
HETATM   17  H   UNL     1      -6.945  18.240  65.521  1.00  0.00     0.000 HD 
HETATM   18  H   UNL     1      -9.567  18.532  66.507  1.00  0.00     0.000 HD 
HETATM   19  C   UNL     1      -8.486  18.462  68.327  1.00  0.00    -0.303 C  
HETATM   20  O   UNL     1      -9.059  19.277  69.025  1.00  0.00    -0.345 OA 
HETATM   21  C   UNL     1      -7.318  17.663  68.722  1.00  0.00    -0.261 A  
HETATM   22  C   UNL     1      -6.627  17.635  69.921  1.00  0.00     0.161 A  
HETATM   23  C   UNL     1      -5.584  16.713  70.037  1.00  0.00    -0.211 A  
HETATM   24  C   UNL     1      -5.248  15.868  68.962  1.00  0.00    -0.100 A  
HETATM   25  C   UNL     1      -5.961  15.920  67.761  1.00  0.00    -0.167 A  
HETATM   26  C   UNL     1      -7.013  16.817  67.658  1.00  0.00    -0.156 A  
ENDBRANCH  12  14
ENDBRANCH   3   7
TORSDOF 2
ENDMDL
MODEL       54
REMARK 921   NORMALIZED FREE ENERGY PREDICTED BY IDOCK:   -5.92 KCAL/MOL
REMARK 922        TOTAL FREE ENERGY PREDICTED BY IDOCK:   -7.09 KCAL/MOL
REMARK 923 INTER-LIGAND FREE ENERGY PREDICTED BY IDOCK:   -6.35 KCAL/MOL
REMARK 924 INTRA-LIGAND FREE ENERGY PREDICTED BY IDOCK:   -0.74 KCAL/MOL
REMARK 927      BINDING AFFINITY PREDICTED BY RF-SCORE:    0.00 PKD
ROOT
HETATM    1  N   UNL     1      -7.870  11.727  68.265  1.00  0.00    -0.130 N  
HETATM    2  H2  UNL     1      -7.117  12.399  68.411  1.00  0.00     0.000 HD 
HETATM    3  S   UNL     1      -8.043  10.639  67.001  1.00  0.00    -0.124 S  
HETATM    4  H1  UNL     1      -8.686  11.567  68.855  1.00  0.00     0.000 HD 
HETATM    5  O   UNL     1      -8.314   9.350  67.588  1.00  0.00    -0.117 OA 
HETATM    6  O   UNL     1      -6.885  10.866  66.164  1.00  0.00    -0.132 OA 
ENDROOT
BRANCH   3   7
HETATM    7  C   UNL     1      -9.482  11.193  66.146  1.00  0.00    -0.204 A  
HETATM    8  C   UNL     1      -9.790  10.732  64.866  1.00  0.00    -0.292 A  
HETATM    9 CL   UNL     1      -8.885   9.532  64.019  1.00  0.00    -0.248 Cl 
HETATM   10  C   UNL     1     -10.881  11.286  64.188  1.00  0.00    -0.407 A  
HETATM   11  C   UNL     1     -11.630  12.313  64.762  1.00  0.00    -0.393 A  
HETATM   12  C   UNL     1     -11.318  12.806  66.040  1.00  0.00    -0.363 A  
HETATM   13  C   UNL     1     -10.253  12.207  66.740  1.00  0.00    -0.224 A  
BRANCH  12  14
HETATM   14  C   UNL     1     -11.986  14.077  66.553  1.00  0.00    -0.444 C  
HETATM   15  O   UNL     1     -13.067  14.453  65.732  1.00  0.00    -0.483 OA 
HETATM   16  N   UNL     1     -12.508  13.971  67.880  1.00  0.00    -0.416 N  
HETATM   17  H   UNL     1     -13.483  15.245  66.052  1.00  0.00     0.000 HD 
HETATM   18  H   UNL     1     -13.285  13.363  68.137  1.00  0.00     0.000 HD 
HETATM   19  C   UNL     1     -11.845  14.780  68.771  1.00  0.00    -0.296 C  
HETATM   20  O   UNL     1     -11.995  14.811  69.978  1.00  0.00    -0.280 OA 
HETATM   21  C   UNL     1     -10.877  15.578  68.005  1.00  0.00    -0.300 A  
HETATM   22  C   UNL     1      -9.944  16.500  68.444  1.00  0.00    -0.250 A  
HETATM   23  C   UNL     1      -9.098  17.061  67.484  1.00  0.00    -0.223 A  
HETATM   24  C   UNL     1      -9.216  16.707  66.126  1.00  0.00    -0.312 A  
HETATM   25  C   UNL     1     -10.171  15.774  65.711  1.00  0.00    -0.394 A  
HETATM   26  C   UNL     1     -10.990  15.199  66.669  1.00  0.00    -0.318 A  
ENDBRANCH  12  14
ENDBRANCH   3   7
TORSDOF 2
ENDMDL
MODEL       55
REMARK 921   NORMALIZED FREE ENERGY PREDICTED BY IDOCK:   -5.85 KCAL/MOL
REMARK 922        TOTAL FREE ENERGY PREDICTED BY IDOCK:   -7.01 KCAL/MOL
REMARK 923 INTER-LIGAND FREE ENERGY PREDICTED BY IDOCK:   -6.57 KCAL/MOL
REMARK 924 INTRA-LIGAND FREE ENERGY PREDICTED BY IDOCK:   -0.44 KCAL/MOL
REMARK 927      BINDING AFFINITY PREDICTED BY RF-SCORE:    0.00 PKD
ROOT
HETATM    1  N   UNL     1      -9.296  11.868  63.447  1.00  0.00    -0.551 N  
HETATM    2  H2  UNL     1      -9.535  11.406  62.570  1.00  0.00     0.000 HD 
HETATM    3  S   UNL     1      -9.577  11.321  65.007  1.00  0.00    -0.220 S  
HETATM    4  H1  UNL     1      -8.831  12.768  63.570  1.00  0.00     0.000 HD 
HETATM    5  O   UNL     1      -8.333  11.441  65.726  1.00  0.00    -0.056 OA 
HETATM    6  O   UNL     1     -10.235  10.046  64.832  1.00  0.00    -0.261 OA 
ENDROOT
BRANCH   3   7
HETATM    7  C   UNL     1     -10.735  12.475  65.669  1.00  0.00    -0.266 A  
HETATM    8  C   UNL     1     -11.924  12.774  65.005  1.00  0.00    -0.412 A  
HETATM    9 CL   UNL     1     -12.443  12.012  63.546  1.00  0.00    -0.682 Cl 
HETATM   10  C   UNL     1     -12.754  13.777  65.515  1.00  0.00    -0.530 A  
HETATM   11  C   UNL     1     -12.384  14.500  66.650  1.00  0.00    -0.141 A  
HETATM   12  C   UNL     1     -11.177  14.228  67.316  1.00  0.00    -0.330 A  
HETATM   13  C   UNL     1     -10.372  13.181  66.830  1.00  0.00    -0.252 A  
BRANCH  12  14
HETATM   14  C   UNL     1     -10.674  15.174  68.401  1.00  0.00    -0.248 C  
HETATM   15  O   UNL     1     -11.727  15.604  69.232  1.00  0.00    -0.336 OA 
HETATM   16  N   UNL     1      -9.688  14.602  69.266  1.00  0.00    -0.406 N  
HETATM   17  H   UNL     1     -11.413  16.194  69.908  1.00  0.00     0.000 HD 
HETATM   18  H   UNL     1      -9.877  13.834  69.910  1.00  0.00     0.000 HD 
HETATM   19  C   UNL     1      -8.460  15.204  69.133  1.00  0.00    -0.220 C  
HETATM   20  O   UNL     1      -7.418  14.855  69.653  1.00  0.00    -0.180 OA 
HETATM   21  C   UNL     1      -8.621  16.331  68.203  1.00  0.00    -0.183 A  
HETATM   22  C   UNL     1      -7.678  17.214  67.709  1.00  0.00    -0.185 A  
HETATM   23  C   UNL     1      -8.112  18.156  66.773  1.00  0.00    -0.266 A  
HETATM   24  C   UNL     1      -9.460  18.204  66.373  1.00  0.00    -0.284 A  
HETATM   25  C   UNL     1     -10.393  17.300  66.890  1.00  0.00    -0.310 A  
HETATM   26  C   UNL     1      -9.955  16.350  67.799  1.00  0.00    -0.248 A  
ENDBRANCH  12  14
ENDBRANCH   3   7
TORSDOF 2
ENDMDL
MODEL       56
REMARK 921   NORMALIZED FREE ENERGY PREDICTED BY IDOCK:   -5.85 KCAL/MOL
REMARK 922        TOTAL FREE ENERGY PREDICTED BY IDOCK:   -7.01 KCAL/MOL
REMARK 923 INTER-LIGAND FREE ENERGY PREDICTED BY IDOCK:   -6.39 KCAL/MOL
REMARK 924 INTRA-LIGAND FREE ENERGY PREDICTED BY IDOCK:   -0.62 KCAL/MOL
REMARK 927      BINDING AFFINITY PREDICTED BY RF-SCORE:    0.00 PKD
ROOT
HETATM    1  N   UNL     1      -5.516   9.294  63.367  1.00  0.00    -0.067 N  
HETATM    2  H2  UNL     1      -5.366   9.328  62.359  1.00  0.00     0.000 HD 
HETATM    3  S   UNL     1      -6.229   8.066  64.258  1.00  0.00    -0.058 S  
HETATM    4  H1  UNL     1      -5.266  10.001  64.059  1.00  0.00     0.000 HD 
HETATM    5  O   UNL     1      -5.343   7.771  65.356  1.00  0.00    -0.028 OA 
HETATM    6  O   UNL     1      -6.584   7.064  63.277  1.00  0.00    -0.043 OA 
ENDROOT
BRANCH   3   7
HETATM    7  C   UNL     1      -7.706   8.791  64.893  1.00  0.00    -0.104 A  
HETATM    8  C   UNL     1      -8.472   8.150  65.865  1.00  0.00    -0.142 A  
HETATM    9 CL   UNL     1      -8.040   6.656  66.615  1.00  0.00    -0.108 Cl 
HETATM   10  C   UNL     1      -9.691   8.713  66.253  1.00  0.00    -0.322 A  
HETATM   11  C   UNL     1     -10.160   9.882  65.651  1.00  0.00    -0.307 A  
HETATM   12  C   UNL     1      -9.412  10.527  64.652  1.00  0.00    -0.316 A  
HETATM   13  C   UNL     1      -8.160   9.985  64.304  1.00  0.00    -0.156 A  
BRANCH  12  14
HETATM   14  C   UNL     1     -10.037  11.657  63.841  1.00  0.00    -0.357 C  
HETATM   15  O   UNL     1      -9.137  12.150  62.875  1.00  0.00    -0.496 OA 
HETATM   16  N   UNL     1     -11.222  11.284  63.131  1.00  0.00    -0.845 N  
HETATM   17  H   UNL     1      -9.527  12.854  62.369  1.00  0.00     0.000 HD 
HETATM   18  H   UNL     1     -11.235  10.615  62.361  1.00  0.00     0.000 HD 
HETATM   19  C   UNL     1     -12.340  11.927  63.603  1.00  0.00    -0.481 C  
HETATM   20  O   UNL     1     -13.492  11.723  63.271  1.00  0.00    -0.419 OA 
HETATM   21  C   UNL     1     -11.898  12.885  64.626  1.00  0.00    -0.422 A  
HETATM   22  C   UNL     1     -12.642  13.734  65.427  1.00  0.00    -0.534 A  
HETATM   23  C   UNL     1     -11.948  14.492  66.373  1.00  0.00    -0.350 A  
HETATM   24  C   UNL     1     -10.548  14.401  66.482  1.00  0.00    -0.296 A  
HETATM   25  C   UNL     1      -9.821  13.536  65.658  1.00  0.00    -0.187 A  
HETATM   26  C   UNL     1     -10.514  12.764  64.739  1.00  0.00    -0.357 A  
ENDBRANCH  12  14
ENDBRANCH   3   7
TORSDOF 2
ENDMDL
MODEL       57
REMARK 921   NORMALIZED FREE ENERGY PREDICTED BY IDOCK:   -5.84 KCAL/MOL
REMARK 922        TOTAL FREE ENERGY PREDICTED BY IDOCK:   -7.01 KCAL/MOL
REMARK 923 INTER-LIGAND FREE ENERGY PREDICTED BY IDOCK:   -7.27 KCAL/MOL
REMARK 924 INTRA-LIGAND FREE ENERGY PREDICTED BY IDOCK:    0.27 KCAL/MOL
REMARK 927      BINDING AFFINITY PREDICTED BY RF-SCORE:    0.00 PKD
ROOT
HETATM    1  N   UNL     1      -9.832  11.421  68.847  1.00  0.00    -0.368 N  
HETATM    2  H2  UNL     1      -9.376  10.624  68.405  1.00  0.00     0.000 HD 
HETATM    3  S   UNL     1     -11.426  11.913  68.683  1.00  0.00    -0.321 S  
HETATM    4  H1  UNL     1      -9.419  12.098  69.489  1.00  0.00     0.000 HD 
HETATM    5  O   UNL     1     -11.946  12.112  70.014  1.00  0.00    -0.329 OA 
HETATM    6  O   UNL     1     -12.011  10.953  67.773  1.00  0.00    -0.553 OA 
ENDROOT
BRANCH   3   7
HETATM    7  C   UNL     1     -11.317  13.475  67.872  1.00  0.00    -0.289 A  
HETATM    8  C   UNL     1     -11.451  13.587  66.489  1.00  0.00    -0.339 A  
HETATM    9 CL   UNL     1     -11.821  12.270  65.437  1.00  0.00    -0.439 Cl 
HETATM   10  C   UNL     1     -11.245  14.831  65.884  1.00  0.00    -0.340 A  
HETATM   11  C   UNL     1     -10.872  15.940  66.643  1.00  0.00    -0.213 A  
HETATM   12  C   UNL     1     -10.708  15.838  68.035  1.00  0.00    -0.296 A  
HETATM   13  C   UNL     1     -10.970  14.597  68.646  1.00  0.00    -0.266 A  
BRANCH  12  14
HETATM   14  C   UNL     1     -10.074  16.984  68.815  1.00  0.00    -0.307 C  
HETATM   15  O   UNL     1     -10.842  17.318  69.948  1.00  0.00    -0.317 OA 
HETATM   16  N   UNL     1      -8.753  16.709  69.293  1.00  0.00    -0.116 N  
HETATM   17  H   UNL     1     -10.446  18.032  70.434  1.00  0.00     0.000 HD 
HETATM   18  H   UNL     1      -8.542  16.004  69.999  1.00  0.00     0.000 HD 
HETATM   19  C   UNL     1      -7.803  17.500  68.694  1.00  0.00    -0.272 C  
HETATM   20  O   UNL     1      -6.596  17.410  68.818  1.00  0.00    -0.186 OA 
HETATM   21  C   UNL     1      -8.508  18.457  67.830  1.00  0.00    -0.274 A  
HETATM   22  C   UNL     1      -8.002  19.428  66.984  1.00  0.00    -0.287 A  
HETATM   23  C   UNL     1      -8.920  20.154  66.222  1.00  0.00    -0.327 A  
HETATM   24  C   UNL     1     -10.302  19.911  66.336  1.00  0.00    -0.611 A  
HETATM   25  C   UNL     1     -10.786  18.925  67.201  1.00  0.00    -0.506 A  
HETATM   26  C   UNL     1      -9.871  18.187  67.936  1.00  0.00    -0.317 A  
ENDBRANCH  12  14
ENDBRANCH   3   7
TORSDOF 2
ENDMDL
MODEL       58
REMARK 921   NORMALIZED FREE ENERGY PREDICTED BY IDOCK:   -5.83 KCAL/MOL
REMARK 922        TOTAL FREE ENERGY PREDICTED BY IDOCK:   -6.99 KCAL/MOL
REMARK 923 INTER-LIGAND FREE ENERGY PREDICTED BY IDOCK:   -6.79 KCAL/MOL
REMARK 924 INTRA-LIGAND FREE ENERGY PREDICTED BY IDOCK:   -0.21 KCAL/MOL
REMARK 927      BINDING AFFINITY PREDICTED BY RF-SCORE:    0.00 PKD
ROOT
HETATM    1  N   UNL     1      -9.486   7.654  70.370  1.00  0.00    -0.164 N  
HETATM    2  H2  UNL     1      -9.441   6.882  69.706  1.00  0.00     0.000 HD 
HETATM    3  S   UNL     1     -10.813   8.175  71.251  1.00  0.00    -0.244 S  
HETATM    4  H1  UNL     1      -8.731   8.283  70.646  1.00  0.00     0.000 HD 
HETATM    5  O   UNL     1     -10.388   8.293  72.624  1.00  0.00    -0.313 OA 
HETATM    6  O   UNL     1     -11.882   7.283  70.859  1.00  0.00    -0.308 OA 
ENDROOT
BRANCH   3   7
HETATM    7  C   UNL     1     -11.151   9.785  70.616  1.00  0.00    -0.332 A  
HETATM    8  C   UNL     1     -12.291  10.492  70.996  1.00  0.00    -0.399 A  
HETATM    9 CL   UNL     1     -13.433   9.942  72.167  1.00  0.00    -0.503 Cl 
HETATM   10  C   UNL     1     -12.570  11.716  70.379  1.00  0.00    -0.213 A  
HETATM   11  C   UNL     1     -11.744  12.209  69.369  1.00  0.00    -0.391 A  
HETATM   12  C   UNL     1     -10.605  11.497  68.957  1.00  0.00    -0.207 A  
HETATM   13  C   UNL     1     -10.300  10.292  69.619  1.00  0.00    -0.281 A  
BRANCH  12  14
HETATM   14  C   UNL     1      -9.852  11.922  67.701  1.00  0.00    -0.187 C  
HETATM   15  O   UNL     1      -8.770  12.767  68.016  1.00  0.00    -0.178 OA 
HETATM   16  N   UNL     1      -9.305  10.834  66.949  1.00  0.00    -0.159 N  
HETATM   17  H   UNL     1      -8.300  13.032  67.234  1.00  0.00     0.000 HD 
HETATM   18  H   UNL     1      -8.559  10.228  67.289  1.00  0.00     0.000 HD 
HETATM   19  C   UNL     1      -9.898  10.698  65.717  1.00  0.00    -0.241 C  
HETATM   20  O   UNL     1      -9.717   9.800  64.917  1.00  0.00    -0.296 OA 
HETATM   21  C   UNL     1     -10.834  11.819  65.553  1.00  0.00    -0.348 A  
HETATM   22  C   UNL     1     -11.701  12.105  64.513  1.00  0.00    -0.410 A  
HETATM   23  C   UNL     1     -12.535  13.216  64.663  1.00  0.00    -0.433 A  
HETATM   24  C   UNL     1     -12.470  14.014  65.821  1.00  0.00    -0.523 A  
HETATM   25  C   UNL     1     -11.583  13.702  66.856  1.00  0.00    -0.397 A  
HETATM   26  C   UNL     1     -10.776  12.583  66.716  1.00  0.00    -0.261 A  
ENDBRANCH  12  14
ENDBRANCH   3   7
TORSDOF 2
ENDMDL
MODEL       59
REMARK 921   NORMALIZED FREE ENERGY PREDICTED BY IDOCK:   -5.83 KCAL/MOL
REMARK 922        TOTAL FREE ENERGY PREDICTED BY IDOCK:   -6.99 KCAL/MOL
REMARK 923 INTER-LIGAND FREE ENERGY PREDICTED BY IDOCK:   -7.03 KCAL/MOL
REMARK 924 INTRA-LIGAND FREE ENERGY PREDICTED BY IDOCK:    0.04 KCAL/MOL
REMARK 927      BINDING AFFINITY PREDICTED BY RF-SCORE:    0.00 PKD
ROOT
HETATM    1  N   UNL     1     -13.112  12.720  64.702  1.00  0.00    -0.720 N  
HETATM    2  H2  UNL     1     -13.335  12.850  63.716  1.00  0.00     0.000 HD 
HETATM    3  S   UNL     1     -11.825  13.371  65.558  1.00  0.00    -0.387 S  
HETATM    4  H1  UNL     1     -13.621  12.163  65.388  1.00  0.00     0.000 HD 
HETATM    5  O   UNL     1     -12.371  13.958  66.757  1.00  0.00    -0.422 OA 
HETATM    6  O   UNL     1     -11.103  14.160  64.584  1.00  0.00    -0.374 OA 
ENDROOT
BRANCH   3   7
HETATM    7  C   UNL     1     -10.845  11.973  65.999  1.00  0.00    -0.289 A  
HETATM    8  C   UNL     1     -10.471  11.020  65.053  1.00  0.00    -0.277 A  
HETATM    9 CL   UNL     1     -10.826  11.129  63.368  1.00  0.00    -0.333 Cl 
HETATM   10  C   UNL     1      -9.790   9.874  65.474  1.00  0.00    -0.381 A  
HETATM   11  C   UNL     1      -9.520   9.661  66.827  1.00  0.00    -0.209 A  
HETATM   12  C   UNL     1      -9.913  10.600  67.796  1.00  0.00    -0.192 A  
HETATM   13  C   UNL     1     -10.550  11.777  67.360  1.00  0.00    -0.258 A  
BRANCH  12  14
HETATM   14  C   UNL     1      -9.829  10.249  69.277  1.00  0.00    -0.228 C  
HETATM   15  O   UNL     1      -8.569  10.585  69.810  1.00  0.00    -0.387 OA 
HETATM   16  N   UNL     1     -10.799  10.912  70.093  1.00  0.00    -0.462 N  
HETATM   17  H   UNL     1      -8.516  10.366  70.734  1.00  0.00     0.000 HD 
HETATM   18  H   UNL     1     -10.815  11.920  70.250  1.00  0.00     0.000 HD 
HETATM   19  C   UNL     1     -11.708  10.039  70.642  1.00  0.00    -0.337 C  
HETATM   20  O   UNL     1     -12.702  10.328  71.279  1.00  0.00    -0.349 OA 
HETATM   21  C   UNL     1     -11.285   8.679  70.279  1.00  0.00    -0.196 A  
HETATM   22  C   UNL     1     -11.887   7.462  70.548  1.00  0.00    -0.187 A  
HETATM   23  C   UNL     1     -11.288   6.320  70.011  1.00  0.00    -0.486 A  
HETATM   24  C   UNL     1     -10.110   6.417  69.247  1.00  0.00    -0.203 A  
HETATM   25  C   UNL     1      -9.522   7.660  68.993  1.00  0.00    -0.150 A  
HETATM   26  C   UNL     1     -10.133   8.794  69.504  1.00  0.00    -0.202 A  
ENDBRANCH  12  14
ENDBRANCH   3   7
TORSDOF 2
ENDMDL
MODEL       60
REMARK 921   NORMALIZED FREE ENERGY PREDICTED BY IDOCK:   -5.82 KCAL/MOL
REMARK 922        TOTAL FREE ENERGY PREDICTED BY IDOCK:   -6.97 KCAL/MOL
REMARK 923 INTER-LIGAND FREE ENERGY PREDICTED BY IDOCK:   -6.83 KCAL/MOL
REMARK 924 INTRA-LIGAND FREE ENERGY PREDICTED BY IDOCK:   -0.14 KCAL/MOL
REMARK 927      BINDING AFFINITY PREDICTED BY RF-SCORE:    0.00 PKD
ROOT
HETATM    1  N   UNL     1     -10.766   6.306  66.539  1.00  0.00    -0.521 N  
HETATM    2  H2  UNL     1     -11.177   5.662  67.214  1.00  0.00     0.000 HD 
HETATM    3  S   UNL     1      -9.300   7.112  66.650  1.00  0.00    -0.162 S  
HETATM    4  H1  UNL     1     -11.155   6.603  65.644  1.00  0.00     0.000 HD 
HETATM    5  O   UNL     1      -8.602   6.891  65.408  1.00  0.00    -0.131 OA 
HETATM    6  O   UNL     1      -8.749   6.691  67.919  1.00  0.00    -0.118 OA 
ENDROOT
BRANCH   3   7
HETATM    7  C   UNL     1      -9.749   8.814  66.760  1.00  0.00    -0.221 A  
HETATM    8  C   UNL     1     -10.309   9.345  67.921  1.00  0.00    -0.225 A  
HETATM    9 CL   UNL     1     -10.543   8.458  69.383  1.00  0.00    -0.223 Cl 
HETATM   10  C   UNL     1     -10.750  10.672  67.918  1.00  0.00    -0.292 A  
HETATM   11  C   UNL     1     -10.669  11.448  66.762  1.00  0.00    -0.316 A  
HETATM   12  C   UNL     1     -10.130  10.920  65.576  1.00  0.00    -0.325 A  
HETATM   13  C   UNL     1      -9.638   9.601  65.600  1.00  0.00    -0.338 A  
BRANCH  12  14
HETATM   14  C   UNL     1     -10.266  11.690  64.267  1.00  0.00    -0.311 C  
HETATM   15  O   UNL     1      -9.124  11.526  63.458  1.00  0.00    -0.460 OA 
HETATM   16  N   UNL     1     -11.384  11.294  63.466  1.00  0.00    -0.690 N  
HETATM   17  H   UNL     1      -9.209  12.006  62.642  1.00  0.00     0.000 HD 
HETATM   18  H   UNL     1     -11.472  10.376  63.030  1.00  0.00     0.000 HD 
HETATM   19  C   UNL     1     -12.326  12.288  63.352  1.00  0.00    -0.517 C  
HETATM   20  O   UNL     1     -13.421  12.197  62.833  1.00  0.00     0.024 OA 
HETATM   21  C   UNL     1     -11.787  13.483  64.017  1.00  0.00    -0.476 A  
HETATM   22  C   UNL     1     -12.365  14.724  64.216  1.00  0.00    -0.345 A  
HETATM   23  C   UNL     1     -11.636  15.659  64.953  1.00  0.00    -0.156 A  
HETATM   24  C   UNL     1     -10.357  15.345  65.450  1.00  0.00    -0.422 A  
HETATM   25  C   UNL     1      -9.796  14.083  65.233  1.00  0.00    -0.186 A  
HETATM   26  C   UNL     1     -10.533  13.147  64.524  1.00  0.00    -0.425 A  
ENDBRANCH  12  14
ENDBRANCH   3   7
TORSDOF 2
ENDMDL
MODEL       61
REMARK 921   NORMALIZED FREE ENERGY PREDICTED BY IDOCK:   -5.80 KCAL/MOL
REMARK 922        TOTAL FREE ENERGY PREDICTED BY IDOCK:   -6.96 KCAL/MOL
REMARK 923 INTER-LIGAND FREE ENERGY PREDICTED BY IDOCK:   -6.25 KCAL/MOL
REMARK 924 INTRA-LIGAND FREE ENERGY PREDICTED BY IDOCK:   -0.71 KCAL/MOL
REMARK 927      BINDING AFFINITY PREDICTED BY RF-SCORE:    0.00 PKD
ROOT
HETATM    1  N   UNL     1     -12.209  15.426  69.000  1.00  0.00    -0.610 N  
HETATM    2  H2  UNL     1     -13.053  15.577  68.448  1.00  0.00     0.000 HD 
HETATM    3  S   UNL     1     -10.620  15.706  68.544  1.00  0.00    -0.267 S  
HETATM    4  H1  UNL     1     -12.144  15.072  69.954  1.00  0.00     0.000 HD 
HETATM    5  O   UNL     1     -10.007  16.474  69.598  1.00  0.00    -0.177 OA 
HETATM    6  O   UNL     1     -10.713  16.208  67.191  1.00  0.00    -0.310 OA 
ENDROOT
BRANCH   3   7
HETATM    7  C   UNL     1      -9.891  14.100  68.507  1.00  0.00    -0.230 A  
HETATM    8  C   UNL     1      -8.568  13.911  68.109  1.00  0.00    -0.180 A  
HETATM    9 CL   UNL     1      -7.482  15.189  67.702  1.00  0.00    -0.180 Cl 
HETATM   10  C   UNL     1      -8.073  12.609  67.990  1.00  0.00    -0.161 A  
HETATM   11  C   UNL     1      -8.897  11.508  68.227  1.00  0.00    -0.166 A  
HETATM   12  C   UNL     1     -10.239  11.681  68.605  1.00  0.00    -0.215 A  
HETATM   13  C   UNL     1     -10.717  12.995  68.776  1.00  0.00    -0.250 A  
BRANCH  12  14
HETATM   14  C   UNL     1     -11.186  10.487  68.629  1.00  0.00    -0.270 C  
HETATM   15  O   UNL     1     -12.524  10.899  68.780  1.00  0.00    -0.767 OA 
HETATM   16  N   UNL     1     -11.146   9.683  67.446  1.00  0.00    -0.364 N  
HETATM   17  H   UNL     1     -13.115  10.154  68.795  1.00  0.00     0.000 HD 
HETATM   18  H   UNL     1     -11.450  10.009  66.528  1.00  0.00     0.000 HD 
HETATM   19  C   UNL     1     -10.651   8.423  67.684  1.00  0.00    -0.195 C  
HETATM   20  O   UNL     1     -10.398   7.571  66.854  1.00  0.00    -0.284 OA 
HETATM   21  C   UNL     1     -10.436   8.302  69.133  1.00  0.00    -0.217 A  
HETATM   22  C   UNL     1      -9.912   7.252  69.866  1.00  0.00    -0.183 A  
HETATM   23  C   UNL     1      -9.759   7.446  71.241  1.00  0.00    -0.171 A  
HETATM   24  C   UNL     1     -10.146   8.657  71.844  1.00  0.00    -0.398 A  
HETATM   25  C   UNL     1     -10.676   9.701  71.079  1.00  0.00    -0.393 A  
HETATM   26  C   UNL     1     -10.801   9.516  69.711  1.00  0.00    -0.264 A  
ENDBRANCH  12  14
ENDBRANCH   3   7
TORSDOF 2
ENDMDL
MODEL       62
REMARK 921   NORMALIZED FREE ENERGY PREDICTED BY IDOCK:   -5.78 KCAL/MOL
REMARK 922        TOTAL FREE ENERGY PREDICTED BY IDOCK:   -6.94 KCAL/MOL
REMARK 923 INTER-LIGAND FREE ENERGY PREDICTED BY IDOCK:   -6.48 KCAL/MOL
REMARK 924 INTRA-LIGAND FREE ENERGY PREDICTED BY IDOCK:   -0.45 KCAL/MOL
REMARK 927      BINDING AFFINITY PREDICTED BY RF-SCORE:    0.00 PKD
ROOT
HETATM    1  N   UNL     1     -12.899  13.069  64.798  1.00  0.00    -0.745 N  
HETATM    2  H2  UNL     1     -13.010  13.253  63.802  1.00  0.00     0.000 HD 
HETATM    3  S   UNL     1     -11.623  13.519  65.789  1.00  0.00    -0.344 S  
HETATM    4  H1  UNL     1     -13.539  12.570  65.415  1.00  0.00     0.000 HD 
HETATM    5  O   UNL     1     -12.194  14.145  66.955  1.00  0.00    -0.432 OA 
HETATM    6  O   UNL     1     -10.714  14.226  64.913  1.00  0.00    -0.389 OA 
ENDROOT
BRANCH   3   7
HETATM    7  C   UNL     1     -10.883  11.990  66.264  1.00  0.00    -0.279 A  
HETATM    8  C   UNL     1     -10.480  11.051  65.316  1.00  0.00    -0.251 A  
HETATM    9 CL   UNL     1     -10.565  11.293  63.609  1.00  0.00    -0.442 Cl 
HETATM   10  C   UNL     1     -10.003   9.809  65.747  1.00  0.00    -0.349 A  
HETATM   11  C   UNL     1      -9.965   9.493  67.105  1.00  0.00    -0.261 A  
HETATM   12  C   UNL     1     -10.391  10.419  68.073  1.00  0.00    -0.212 A  
HETATM   13  C   UNL     1     -10.819  11.687  67.636  1.00  0.00    -0.273 A  
BRANCH  12  14
HETATM   14  C   UNL     1     -10.569   9.981  69.523  1.00  0.00    -0.244 C  
HETATM   15  O   UNL     1     -11.042  11.040  70.322  1.00  0.00    -0.463 OA 
HETATM   16  N   UNL     1     -11.492   8.902  69.700  1.00  0.00    -0.420 N  
HETATM   17  H   UNL     1     -11.153  10.767  71.225  1.00  0.00     0.000 HD 
HETATM   18  H   UNL     1     -12.492   8.974  69.515  1.00  0.00     0.000 HD 
HETATM   19  C   UNL     1     -10.879   7.756  70.149  1.00  0.00    -0.244 C  
HETATM   20  O   UNL     1     -11.389   6.660  70.278  1.00  0.00    -0.318 OA 
HETATM   21  C   UNL     1      -9.469   8.083  70.404  1.00  0.00    -0.166 A  
HETATM   22  C   UNL     1      -8.431   7.267  70.818  1.00  0.00    -0.132 A  
HETATM   23  C   UNL     1      -7.162   7.843  70.911  1.00  0.00    -0.053 A  
HETATM   24  C   UNL     1      -6.966   9.204  70.611  1.00  0.00    -0.090 A  
HETATM   25  C   UNL     1      -8.034  10.006  70.195  1.00  0.00    -0.123 A  
HETATM   26  C   UNL     1      -9.287   9.425  70.078  1.00  0.00    -0.253 A  
ENDBRANCH  12  14
ENDBRANCH   3   7
TORSDOF 2
ENDMDL
MODEL       63
REMARK 921   NORMALIZED FREE ENERGY PREDICTED BY IDOCK:   -5.78 KCAL/MOL
REMARK 922        TOTAL FREE ENERGY PREDICTED BY IDOCK:   -6.94 KCAL/MOL
REMARK 923 INTER-LIGAND FREE ENERGY PREDICTED BY IDOCK:   -6.29 KCAL/MOL
REMARK 924 INTRA-LIGAND FREE ENERGY PREDICTED BY IDOCK:   -0.65 KCAL/MOL
REMARK 927      BINDING AFFINITY PREDICTED BY RF-SCORE:    0.00 PKD
ROOT
HETATM    1  N   UNL     1      -7.016   8.308  70.920  1.00  0.00    -0.042 N  
HETATM    2  H2  UNL     1      -6.599   7.676  70.237  1.00  0.00     0.000 HD 
HETATM    3  S   UNL     1      -7.895   7.904  72.289  1.00  0.00    -0.122 S  
HETATM    4  H1  UNL     1      -6.991   9.327  70.922  1.00  0.00     0.000 HD 
HETATM    5  O   UNL     1      -7.329   8.646  73.388  1.00  0.00    -0.342 OA 
HETATM    6  O   UNL     1      -7.930   6.458  72.286  1.00  0.00    -0.103 OA 
ENDROOT
BRANCH   3   7
HETATM    7  C   UNL     1      -9.516   8.515  71.960  1.00  0.00    -0.294 A  
HETATM    8  C   UNL     1     -10.630   8.024  72.640  1.00  0.00    -0.350 A  
HETATM    9 CL   UNL     1     -10.560   6.861  73.913  1.00  0.00    -0.357 Cl 
HETATM   10  C   UNL     1     -11.904   8.461  72.263  1.00  0.00    -0.456 A  
HETATM   11  C   UNL     1     -12.068   9.345  71.196  1.00  0.00    -0.406 A  
HETATM   12  C   UNL     1     -10.957   9.830  70.485  1.00  0.00    -0.384 A  
HETATM   13  C   UNL     1      -9.674   9.429  70.903  1.00  0.00    -0.320 A  
BRANCH  12  14
HETATM   14  C   UNL     1     -11.160  10.598  69.184  1.00  0.00    -0.255 C  
HETATM   15  O   UNL     1     -12.526  10.846  68.944  1.00  0.00    -0.745 OA 
HETATM   16  N   UNL     1     -10.509  11.872  69.147  1.00  0.00    -0.421 N  
HETATM   17  H   UNL     1     -12.652  11.325  68.133  1.00  0.00     0.000 HD 
HETATM   18  H   UNL     1     -10.765  12.657  69.745  1.00  0.00     0.000 HD 
HETATM   19  C   UNL     1      -9.499  11.919  68.216  1.00  0.00    -0.197 C  
HETATM   20  O   UNL     1      -8.707  12.825  68.046  1.00  0.00    -0.178 OA 
HETATM   21  C   UNL     1      -9.516  10.644  67.485  1.00  0.00    -0.169 A  
HETATM   22  C   UNL     1      -8.675  10.183  66.487  1.00  0.00    -0.139 A  
HETATM   23  C   UNL     1      -8.891   8.885  66.018  1.00  0.00    -0.206 A  
HETATM   24  C   UNL     1      -9.936   8.097  66.535  1.00  0.00    -0.302 A  
HETATM   25  C   UNL     1     -10.772   8.589  67.542  1.00  0.00    -0.211 A  
HETATM   26  C   UNL     1     -10.539   9.868  68.025  1.00  0.00    -0.288 A  
ENDBRANCH  12  14
ENDBRANCH   3   7
TORSDOF 2
ENDMDL
MODEL       64
REMARK 921   NORMALIZED FREE ENERGY PREDICTED BY IDOCK:   -5.77 KCAL/MOL
REMARK 922        TOTAL FREE ENERGY PREDICTED BY IDOCK:   -6.93 KCAL/MOL
REMARK 923 INTER-LIGAND FREE ENERGY PREDICTED BY IDOCK:   -6.96 KCAL/MOL
REMARK 924 INTRA-LIGAND FREE ENERGY PREDICTED BY IDOCK:    0.04 KCAL/MOL
REMARK 927      BINDING AFFINITY PREDICTED BY RF-SCORE:    0.00 PKD
ROOT
HETATM    1  N   UNL     1     -11.333   6.697  66.690  1.00  0.00    -0.689 N  
HETATM    2  H2  UNL     1     -12.285   6.374  66.518  1.00  0.00     0.000 HD 
HETATM    3  S   UNL     1     -10.533   6.798  68.160  1.00  0.00    -0.232 S  
HETATM    4  H1  UNL     1     -10.655   7.030  66.005  1.00  0.00     0.000 HD 
HETATM    5  O   UNL     1      -9.252   6.158  67.988  1.00  0.00    -0.118 OA 
HETATM    6  O   UNL     1     -11.495   6.326  69.131  1.00  0.00    -0.394 OA 
ENDROOT
BRANCH   3   7
HETATM    7  C   UNL     1     -10.283   8.527  68.399  1.00  0.00    -0.203 A  
HETATM    8  C   UNL     1     -10.742   9.176  69.544  1.00  0.00    -0.215 A  
HETATM    9 CL   UNL     1     -11.507   8.384  70.872  1.00  0.00    -0.290 Cl 
HETATM   10  C   UNL     1     -10.617  10.567  69.634  1.00  0.00    -0.281 A  
HETATM   11  C   UNL     1     -10.077  11.304  68.580  1.00  0.00    -0.210 A  
HETATM   12  C   UNL     1      -9.633  10.667  67.409  1.00  0.00    -0.180 A  
HETATM   13  C   UNL     1      -9.711   9.262  67.346  1.00  0.00    -0.208 A  
BRANCH  12  14
HETATM   14  C   UNL     1      -9.270  11.494  66.180  1.00  0.00    -0.219 C  
HETATM   15  O   UNL     1      -8.302  12.469  66.488  1.00  0.00    -0.405 OA 
HETATM   16  N   UNL     1      -8.738  10.729  65.094  1.00  0.00    -0.253 N  
HETATM   17  H   UNL     1      -8.076  12.984  65.723  1.00  0.00     0.000 HD 
HETATM   18  H   UNL     1      -7.843  10.241  65.130  1.00  0.00     0.000 HD 
HETATM   19  C   UNL     1      -9.567  10.726  63.999  1.00  0.00    -0.291 C  
HETATM   20  O   UNL     1      -9.429  10.072  62.982  1.00  0.00    -0.297 OA 
HETATM   21  C   UNL     1     -10.690  11.627  64.294  1.00  0.00    -0.398 A  
HETATM   22  C   UNL     1     -11.808  11.928  63.537  1.00  0.00    -0.560 A  
HETATM   23  C   UNL     1     -12.758  12.777  64.109  1.00  0.00    -0.314 A  
HETATM   24  C   UNL     1     -12.563  13.313  65.395  1.00  0.00    -0.526 A  
HETATM   25  C   UNL     1     -11.422  12.994  66.138  1.00  0.00    -0.381 A  
HETATM   26  C   UNL     1     -10.494  12.129  65.579  1.00  0.00    -0.300 A  
ENDBRANCH  12  14
ENDBRANCH   3   7
TORSDOF 2
ENDMDL
MODEL       65
REMARK 921   NORMALIZED FREE ENERGY PREDICTED BY IDOCK:   -5.75 KCAL/MOL
REMARK 922        TOTAL FREE ENERGY PREDICTED BY IDOCK:   -6.90 KCAL/MOL
REMARK 923 INTER-LIGAND FREE ENERGY PREDICTED BY IDOCK:   -6.90 KCAL/MOL
REMARK 924 INTRA-LIGAND FREE ENERGY PREDICTED BY IDOCK:    0.01 KCAL/MOL
REMARK 927      BINDING AFFINITY PREDICTED BY RF-SCORE:    0.00 PKD
ROOT
HETATM    1  N   UNL     1      -6.270  14.973  69.383  1.00  0.00    -0.108 N  
HETATM    2  H2  UNL     1      -5.618  15.518  69.946  1.00  0.00     0.000 HD 
HETATM    3  S   UNL     1      -6.394  14.927  67.712  1.00  0.00    -0.130 S  
HETATM    4  H1  UNL     1      -6.994  14.333  69.712  1.00  0.00     0.000 HD 
HETATM    5  O   UNL     1      -6.410  13.538  67.328  1.00  0.00    -0.294 OA 
HETATM    6  O   UNL     1      -5.369  15.834  67.246  1.00  0.00    -0.327 OA 
ENDROOT
BRANCH   3   7
HETATM    7  C   UNL     1      -7.976  15.633  67.375  1.00  0.00    -0.178 A  
HETATM    8  C   UNL     1      -8.281  16.941  67.745  1.00  0.00    -0.189 A  
HETATM    9 CL   UNL     1      -7.162  18.035  68.472  1.00  0.00    -0.254 Cl 
HETATM   10  C   UNL     1      -9.583  17.415  67.556  1.00  0.00    -0.257 A  
HETATM   11  C   UNL     1     -10.578  16.582  67.042  1.00  0.00    -0.255 A  
HETATM   12  C   UNL     1     -10.292  15.253  66.688  1.00  0.00    -0.281 A  
HETATM   13  C   UNL     1      -8.967  14.798  66.829  1.00  0.00    -0.292 A  
BRANCH  12  14
HETATM   14  C   UNL     1     -11.426  14.290  66.356  1.00  0.00    -0.355 C  
HETATM   15  O   UNL     1     -12.319  14.161  67.438  1.00  0.00    -0.567 OA 
HETATM   16  N   UNL     1     -12.216  14.680  65.229  1.00  0.00    -0.298 N  
HETATM   17  H   UNL     1     -13.027  13.561  67.231  1.00  0.00     0.000 HD 
HETATM   18  H   UNL     1     -12.808  15.511  65.211  1.00  0.00     0.000 HD 
HETATM   19  C   UNL     1     -12.088  13.810  64.173  1.00  0.00    -0.433 C  
HETATM   20  O   UNL     1     -12.548  13.949  63.055  1.00  0.00    -0.694 OA 
HETATM   21  C   UNL     1     -11.249  12.691  64.623  1.00  0.00    -0.348 A  
HETATM   22  C   UNL     1     -10.791  11.589  63.924  1.00  0.00    -0.469 A  
HETATM   23  C   UNL     1      -9.940  10.711  64.599  1.00  0.00    -0.401 A  
HETATM   24  C   UNL     1      -9.588  10.941  65.943  1.00  0.00    -0.257 A  
HETATM   25  C   UNL     1     -10.067  12.063  66.626  1.00  0.00    -0.220 A  
HETATM   26  C   UNL     1     -10.890  12.947  65.945  1.00  0.00    -0.294 A  
ENDBRANCH  12  14
ENDBRANCH   3   7
TORSDOF 2
ENDMDL
MODEL       66
REMARK 921   NORMALIZED FREE ENERGY PREDICTED BY IDOCK:   -5.74 KCAL/MOL
REMARK 922        TOTAL FREE ENERGY PREDICTED BY IDOCK:   -6.89 KCAL/MOL
REMARK 923 INTER-LIGAND FREE ENERGY PREDICTED BY IDOCK:   -6.47 KCAL/MOL
REMARK 924 INTRA-LIGAND FREE ENERGY PREDICTED BY IDOCK:   -0.42 KCAL/MOL
REMARK 927      BINDING AFFINITY PREDICTED BY RF-SCORE:    0.00 PKD
ROOT
HETATM    1  N   UNL     1     -10.824   5.344  66.279  1.00  0.00    -0.697 N  
HETATM    2  H2  UNL     1     -11.742   4.923  66.140  1.00  0.00     0.000 HD 
HETATM    3  S   UNL     1     -10.328   6.331  67.541  1.00  0.00    -0.236 S  
HETATM    4  H1  UNL     1     -10.002   5.258  65.682  1.00  0.00     0.000 HD 
HETATM    5  O   UNL     1      -9.084   5.793  68.034  1.00  0.00    -0.112 OA 
HETATM    6  O   UNL     1     -11.494   6.453  68.388  1.00  0.00    -0.205 OA 
ENDROOT
BRANCH   3   7
HETATM    7  C   UNL     1     -10.014   7.889  66.774  1.00  0.00    -0.263 A  
HETATM    8  C   UNL     1      -9.069   8.021  65.758  1.00  0.00    -0.055 A  
HETATM    9 CL   UNL     1      -8.180   6.708  65.077  1.00  0.00    -0.129 Cl 
HETATM   10  C   UNL     1      -8.778   9.296  65.262  1.00  0.00    -0.214 A  
HETATM   11  C   UNL     1      -9.393  10.428  65.799  1.00  0.00    -0.230 A  
HETATM   12  C   UNL     1     -10.329  10.313  66.841  1.00  0.00    -0.298 A  
HETATM   13  C   UNL     1     -10.658   9.023  67.299  1.00  0.00    -0.301 A  
BRANCH  12  14
HETATM   14  C   UNL     1     -10.810  11.559  67.575  1.00  0.00    -0.237 C  
HETATM   15  O   UNL     1     -11.958  11.288  68.344  1.00  0.00    -0.555 OA 
HETATM   16  N   UNL     1      -9.848  12.118  68.475  1.00  0.00    -0.312 N  
HETATM   17  H   UNL     1     -12.258  12.064  68.802  1.00  0.00     0.000 HD 
HETATM   18  H   UNL     1      -9.522  11.648  69.319  1.00  0.00     0.000 HD 
HETATM   19  C   UNL     1      -9.413  13.358  68.075  1.00  0.00    -0.218 C  
HETATM   20  O   UNL     1      -8.522  14.015  68.577  1.00  0.00    -0.160 OA 
HETATM   21  C   UNL     1     -10.194  13.736  66.889  1.00  0.00    -0.261 A  
HETATM   22  C   UNL     1     -10.104  14.863  66.090  1.00  0.00    -0.316 A  
HETATM   23  C   UNL     1     -10.940  14.923  64.972  1.00  0.00    -0.432 A  
HETATM   24  C   UNL     1     -11.845  13.882  64.694  1.00  0.00    -0.428 A  
HETATM   25  C   UNL     1     -11.916  12.755  65.520  1.00  0.00    -0.497 A  
HETATM   26  C   UNL     1     -11.067  12.686  66.613  1.00  0.00    -0.314 A  
ENDBRANCH  12  14
ENDBRANCH   3   7
TORSDOF 2
ENDMDL
MODEL       67
REMARK 921   NORMALIZED FREE ENERGY PREDICTED BY IDOCK:   -5.73 KCAL/MOL
REMARK 922        TOTAL FREE ENERGY PREDICTED BY IDOCK:   -6.87 KCAL/MOL
REMARK 923 INTER-LIGAND FREE ENERGY PREDICTED BY IDOCK:   -6.89 KCAL/MOL
REMARK 924 INTRA-LIGAND FREE ENERGY PREDICTED BY IDOCK:    0.01 KCAL/MOL
REMARK 927      BINDING AFFINITY PREDICTED BY RF-SCORE:    0.00 PKD
ROOT
HETATM    1  N   UNL     1      -8.899   8.222  64.956  1.00  0.00    -0.402 N  
HETATM    2  H2  UNL     1      -8.118   7.712  65.367  1.00  0.00     0.000 HD 
HETATM    3  S   UNL     1      -8.941   9.831  64.486  1.00  0.00    -0.246 S  
HETATM    4  H1  UNL     1      -9.830   7.867  64.738  1.00  0.00     0.000 HD 
HETATM    5  O   UNL     1      -9.472   9.866  63.145  1.00  0.00    -0.271 OA 
HETATM    6  O   UNL     1      -7.621  10.335  64.795  1.00  0.00    -0.143 OA 
ENDROOT
BRANCH   3   7
HETATM    7  C   UNL     1     -10.106  10.573  65.582  1.00  0.00    -0.268 A  
HETATM    8  C   UNL     1     -11.029  11.517  65.133  1.00  0.00    -0.234 A  
HETATM    9 CL   UNL     1     -11.206  11.997  63.485  1.00  0.00    -0.512 Cl 
HETATM   10  C   UNL     1     -11.855  12.157  66.062  1.00  0.00    -0.328 A  
HETATM   11  C   UNL     1     -11.735  11.888  67.426  1.00  0.00    -0.326 A  
HETATM   12  C   UNL     1     -10.793  10.959  67.897  1.00  0.00    -0.295 A  
HETATM   13  C   UNL     1     -10.002  10.278  66.953  1.00  0.00    -0.259 A  
BRANCH  12  14
HETATM   14  C   UNL     1     -10.509  10.851  69.392  1.00  0.00    -0.173 C  
HETATM   15  O   UNL     1      -9.172  11.185  69.682  1.00  0.00    -0.266 OA 
HETATM   16  N   UNL     1     -11.321  11.701  70.206  1.00  0.00    -0.468 N  
HETATM   17  H   UNL     1      -8.995  11.117  70.614  1.00  0.00     0.000 HD 
HETATM   18  H   UNL     1     -11.271  12.719  70.188  1.00  0.00     0.000 HD 
HETATM   19  C   UNL     1     -12.176  10.992  71.016  1.00  0.00    -0.351 C  
HETATM   20  O   UNL     1     -13.054  11.447  71.723  1.00  0.00    -0.480 OA 
HETATM   21  C   UNL     1     -11.869   9.566  70.837  1.00  0.00    -0.385 A  
HETATM   22  C   UNL     1     -12.476   8.452  71.390  1.00  0.00    -0.313 A  
HETATM   23  C   UNL     1     -12.011   7.200  70.981  1.00  0.00    -0.387 A  
HETATM   24  C   UNL     1     -10.954   7.092  70.058  1.00  0.00    -0.287 A  
HETATM   25  C   UNL     1     -10.357   8.235  69.517  1.00  0.00    -0.219 A  
HETATM   26  C   UNL     1     -10.838   9.476  69.904  1.00  0.00    -0.272 A  
ENDBRANCH  12  14
ENDBRANCH   3   7
TORSDOF 2
ENDMDL
MODEL       68
REMARK 921   NORMALIZED FREE ENERGY PREDICTED BY IDOCK:   -5.71 KCAL/MOL
REMARK 922        TOTAL FREE ENERGY PREDICTED BY IDOCK:   -6.86 KCAL/MOL
REMARK 923 INTER-LIGAND FREE ENERGY PREDICTED BY IDOCK:   -6.36 KCAL/MOL
REMARK 924 INTRA-LIGAND FREE ENERGY PREDICTED BY IDOCK:   -0.50 KCAL/MOL
REMARK 927      BINDING AFFINITY PREDICTED BY RF-SCORE:    0.00 PKD
ROOT
HETATM    1  N   UNL     1      -7.603  10.669  63.866  1.00  0.00    -0.355 N  
HETATM    2  H2  UNL     1      -7.292  11.097  62.994  1.00  0.00     0.000 HD 
HETATM    3  S   UNL     1      -9.172  10.528  64.438  1.00  0.00    -0.266 S  
HETATM    4  H1  UNL     1      -7.027  10.231  64.585  1.00  0.00     0.000 HD 
HETATM    5  O   UNL     1      -9.359   9.151  64.824  1.00  0.00    -0.124 OA 
HETATM    6  O   UNL     1      -9.988  11.150  63.418  1.00  0.00    -0.314 OA 
ENDROOT
BRANCH   3   7
HETATM    7  C   UNL     1      -9.199  11.537  65.884  1.00  0.00    -0.210 A  
HETATM    8  C   UNL     1      -8.477  11.191  67.025  1.00  0.00    -0.146 A  
HETATM    9 CL   UNL     1      -7.427   9.826  67.137  1.00  0.00    -0.088 Cl 
HETATM   10  C   UNL     1      -8.621  11.964  68.182  1.00  0.00    -0.165 A  
HETATM   11  C   UNL     1      -9.502  13.045  68.212  1.00  0.00    -0.208 A  
HETATM   12  C   UNL     1     -10.256  13.392  67.078  1.00  0.00    -0.249 A  
HETATM   13  C   UNL     1     -10.066  12.644  65.900  1.00  0.00    -0.276 A  
BRANCH  12  14
HETATM   14  C   UNL     1     -11.381  14.415  67.192  1.00  0.00    -0.343 C  
HETATM   15  O   UNL     1     -12.370  14.197  66.213  1.00  0.00    -0.456 OA 
HETATM   16  N   UNL     1     -12.056  14.406  68.453  1.00  0.00    -0.574 N  
HETATM   17  H   UNL     1     -13.071  14.835  66.284  1.00  0.00     0.000 HD 
HETATM   18  H   UNL     1     -12.621  13.626  68.788  1.00  0.00     0.000 HD 
HETATM   19  C   UNL     1     -11.856  15.566  69.163  1.00  0.00    -0.354 C  
HETATM   20  O   UNL     1     -12.210  15.791  70.305  1.00  0.00    -0.386 OA 
HETATM   21  C   UNL     1     -11.090  16.480  68.305  1.00  0.00    -0.321 A  
HETATM   22  C   UNL     1     -10.600  17.746  68.573  1.00  0.00    -0.260 A  
HETATM   23  C   UNL     1      -9.836  18.361  67.578  1.00  0.00    -0.327 A  
HETATM   24  C   UNL     1      -9.600  17.715  66.350  1.00  0.00    -0.285 A  
HETATM   25  C   UNL     1     -10.109  16.436  66.105  1.00  0.00    -0.364 A  
HETATM   26  C   UNL     1     -10.844  15.817  67.105  1.00  0.00    -0.289 A  
ENDBRANCH  12  14
ENDBRANCH   3   7
TORSDOF 2
ENDMDL
MODEL       69
REMARK 921   NORMALIZED FREE ENERGY PREDICTED BY IDOCK:   -5.70 KCAL/MOL
REMARK 922        TOTAL FREE ENERGY PREDICTED BY IDOCK:   -6.85 KCAL/MOL
REMARK 923 INTER-LIGAND FREE ENERGY PREDICTED BY IDOCK:   -6.60 KCAL/MOL
REMARK 924 INTRA-LIGAND FREE ENERGY PREDICTED BY IDOCK:   -0.25 KCAL/MOL
REMARK 927      BINDING AFFINITY PREDICTED BY RF-SCORE:    0.00 PKD
ROOT
HETATM    1  N   UNL     1      -9.446   6.498  65.624  1.00  0.00    -0.356 N  
HETATM    2  H2  UNL     1      -9.884   5.577  65.634  1.00  0.00     0.000 HD 
HETATM    3  S   UNL     1      -8.769   7.327  66.915  1.00  0.00    -0.131 S  
HETATM    4  H1  UNL     1      -9.323   7.121  64.826  1.00  0.00     0.000 HD 
HETATM    5  O   UNL     1      -7.463   7.771  66.493  1.00  0.00    -0.085 OA 
HETATM    6  O   UNL     1      -8.943   6.443  68.046  1.00  0.00    -0.117 OA 
ENDROOT
BRANCH   3   7
HETATM    7  C   UNL     1      -9.812   8.733  67.123  1.00  0.00    -0.207 A  
HETATM    8  C   UNL     1      -9.924   9.708  66.133  1.00  0.00    -0.276 A  
HETATM    9 CL   UNL     1      -9.155   9.622  64.590  1.00  0.00    -0.279 Cl 
HETATM   10  C   UNL     1     -10.677  10.858  66.392  1.00  0.00    -0.257 A  
HETATM   11  C   UNL     1     -11.277  11.052  67.636  1.00  0.00    -0.373 A  
HETATM   12  C   UNL     1     -11.153  10.091  68.654  1.00  0.00    -0.223 A  
HETATM   13  C   UNL     1     -10.440   8.910  68.369  1.00  0.00    -0.230 A  
BRANCH  12  14
HETATM   14  C   UNL     1     -11.605  10.417  70.073  1.00  0.00    -0.301 C  
HETATM   15  O   UNL     1     -11.448  11.788  70.356  1.00  0.00    -0.502 OA 
HETATM   16  N   UNL     1     -12.977  10.108  70.337  1.00  0.00    -0.585 N  
HETATM   17  H   UNL     1     -11.730  11.992  71.240  1.00  0.00     0.000 HD 
HETATM   18  H   UNL     1     -13.761  10.584  69.890  1.00  0.00     0.000 HD 
HETATM   19  C   UNL     1     -13.120   9.099  71.258  1.00  0.00    -0.240 C  
HETATM   20  O   UNL     1     -14.156   8.555  71.588  1.00  0.00    -0.400 OA 
HETATM   21  C   UNL     1     -11.777   8.758  71.748  1.00  0.00    -0.416 A  
HETATM   22  C   UNL     1     -11.382   7.780  72.644  1.00  0.00    -0.449 A  
HETATM   23  C   UNL     1     -10.011   7.637  72.872  1.00  0.00    -0.319 A  
HETATM   24  C   UNL     1      -9.083   8.474  72.224  1.00  0.00    -0.318 A  
HETATM   25  C   UNL     1      -9.510   9.455  71.324  1.00  0.00    -0.113 A  
HETATM   26  C   UNL     1     -10.869   9.577  71.079  1.00  0.00    -0.423 A  
ENDBRANCH  12  14
ENDBRANCH   3   7
TORSDOF 2
ENDMDL
MODEL       70
REMARK 921   NORMALIZED FREE ENERGY PREDICTED BY IDOCK:   -5.69 KCAL/MOL
REMARK 922        TOTAL FREE ENERGY PREDICTED BY IDOCK:   -6.83 KCAL/MOL
REMARK 923 INTER-LIGAND FREE ENERGY PREDICTED BY IDOCK:   -6.37 KCAL/MOL
REMARK 924 INTRA-LIGAND FREE ENERGY PREDICTED BY IDOCK:   -0.47 KCAL/MOL
REMARK 927      BINDING AFFINITY PREDICTED BY RF-SCORE:    0.00 PKD
ROOT
HETATM    1  N   UNL     1      -7.160  16.171  69.506  1.00  0.00    -0.207 N  
HETATM    2  H2  UNL     1      -7.572  16.885  70.108  1.00  0.00     0.000 HD 
HETATM    3  S   UNL     1      -7.681  15.682  67.990  1.00  0.00    -0.132 S  
HETATM    4  H1  UNL     1      -6.340  15.596  69.695  1.00  0.00     0.000 HD 
HETATM    5  O   UNL     1      -6.528  15.698  67.123  1.00  0.00    -0.293 OA 
HETATM    6  O   UNL     1      -8.845  16.499  67.724  1.00  0.00    -0.195 OA 
ENDROOT
BRANCH   3   7
HETATM    7  C   UNL     1      -8.197  14.012  68.226  1.00  0.00    -0.153 A  
HETATM    8  C   UNL     1      -7.329  13.048  68.736  1.00  0.00    -0.064 A  
HETATM    9 CL   UNL     1      -5.720  13.372  69.270  1.00  0.00    -0.079 Cl 
HETATM   10  C   UNL     1      -7.751  11.717  68.799  1.00  0.00    -0.111 A  
HETATM   11  C   UNL     1      -9.009  11.345  68.323  1.00  0.00    -0.175 A  
HETATM   12  C   UNL     1      -9.887  12.301  67.783  1.00  0.00    -0.201 A  
HETATM   13  C   UNL     1      -9.477  13.647  67.773  1.00  0.00    -0.221 A  
BRANCH  12  14
HETATM   14  C   UNL     1     -11.149  11.853  67.055  1.00  0.00    -0.302 C  
HETATM   15  O   UNL     1     -11.771  10.780  67.723  1.00  0.00    -0.640 OA 
HETATM   16  N   UNL     1     -12.143  12.873  66.922  1.00  0.00    -0.323 N  
HETATM   17  H   UNL     1     -12.557  10.501  67.268  1.00  0.00     0.000 HD 
HETATM   18  H   UNL     1     -12.646  13.281  67.710  1.00  0.00     0.000 HD 
HETATM   19  C   UNL     1     -12.345  13.242  65.614  1.00  0.00    -0.465 C  
HETATM   20  O   UNL     1     -13.040  14.157  65.214  1.00  0.00    -0.763 OA 
HETATM   21  C   UNL     1     -11.526  12.355  64.775  1.00  0.00    -0.375 A  
HETATM   22  C   UNL     1     -11.345  12.350  63.404  1.00  0.00    -0.507 A  
HETATM   23  C   UNL     1     -10.442  11.422  62.881  1.00  0.00    -0.093 A  
HETATM   24  C   UNL     1      -9.765  10.522  63.725  1.00  0.00    -0.385 A  
HETATM   25  C   UNL     1      -9.969  10.549  65.109  1.00  0.00    -0.375 A  
HETATM   26  C   UNL     1     -10.846  11.488  65.627  1.00  0.00    -0.310 A  
ENDBRANCH  12  14
ENDBRANCH   3   7
TORSDOF 2
ENDMDL
MODEL       71
REMARK 921   NORMALIZED FREE ENERGY PREDICTED BY IDOCK:   -5.67 KCAL/MOL
REMARK 922        TOTAL FREE ENERGY PREDICTED BY IDOCK:   -6.81 KCAL/MOL
REMARK 923 INTER-LIGAND FREE ENERGY PREDICTED BY IDOCK:   -6.13 KCAL/MOL
REMARK 924 INTRA-LIGAND FREE ENERGY PREDICTED BY IDOCK:   -0.67 KCAL/MOL
REMARK 927      BINDING AFFINITY PREDICTED BY RF-SCORE:    0.00 PKD
ROOT
HETATM    1  N   UNL     1      -9.703   7.007  69.792  1.00  0.00    -0.168 N  
HETATM    2  H2  UNL     1      -9.745   6.313  69.046  1.00  0.00     0.000 HD 
HETATM    3  S   UNL     1     -10.923   7.446  70.855  1.00  0.00    -0.259 S  
HETATM    4  H1  UNL     1      -8.910   7.591  70.056  1.00  0.00     0.000 HD 
HETATM    5  O   UNL     1     -10.361   7.405  72.182  1.00  0.00    -0.192 OA 
HETATM    6  O   UNL     1     -12.048   6.618  70.479  1.00  0.00    -0.390 OA 
ENDROOT
BRANCH   3   7
HETATM    7  C   UNL     1     -11.282   9.121  70.437  1.00  0.00    -0.240 A  
HETATM    8  C   UNL     1     -12.211   9.868  71.159  1.00  0.00    -0.373 A  
HETATM    9 CL   UNL     1     -13.035   9.300  72.565  1.00  0.00    -0.439 Cl 
HETATM   10  C   UNL     1     -12.541  11.153  70.719  1.00  0.00    -0.445 A  
HETATM   11  C   UNL     1     -11.982  11.673  69.551  1.00  0.00    -0.383 A  
HETATM   12  C   UNL     1     -11.062  10.923  68.798  1.00  0.00    -0.310 A  
HETATM   13  C   UNL     1     -10.693   9.651  69.276  1.00  0.00    -0.246 A  
BRANCH  12  14
HETATM   14  C   UNL     1     -10.644  11.399  67.411  1.00  0.00    -0.218 C  
HETATM   15  O   UNL     1     -10.111  10.341  66.648  1.00  0.00    -0.206 OA 
HETATM   16  N   UNL     1     -11.709  11.956  66.636  1.00  0.00    -0.275 N  
HETATM   17  H   UNL     1      -9.851  10.638  65.783  1.00  0.00     0.000 HD 
HETATM   18  H   UNL     1     -12.507  11.418  66.299  1.00  0.00     0.000 HD 
HETATM   19  C   UNL     1     -11.537  13.298  66.396  1.00  0.00    -0.347 C  
HETATM   20  O   UNL     1     -12.332  14.051  65.867  1.00  0.00    -0.444 OA 
HETATM   21  C   UNL     1     -10.225  13.677  66.940  1.00  0.00    -0.261 A  
HETATM   22  C   UNL     1      -9.612  14.916  66.992  1.00  0.00    -0.245 A  
HETATM   23  C   UNL     1      -8.376  14.992  67.638  1.00  0.00    -0.175 A  
HETATM   24  C   UNL     1      -7.783  13.842  68.192  1.00  0.00    -0.142 A  
HETATM   25  C   UNL     1      -8.424  12.602  68.123  1.00  0.00    -0.177 A  
HETATM   26  C   UNL     1      -9.663  12.535  67.505  1.00  0.00    -0.196 A  
ENDBRANCH  12  14
ENDBRANCH   3   7
TORSDOF 2
ENDMDL
MODEL       72
REMARK 921   NORMALIZED FREE ENERGY PREDICTED BY IDOCK:   -5.62 KCAL/MOL
REMARK 922        TOTAL FREE ENERGY PREDICTED BY IDOCK:   -6.75 KCAL/MOL
REMARK 923 INTER-LIGAND FREE ENERGY PREDICTED BY IDOCK:   -6.05 KCAL/MOL
REMARK 924 INTRA-LIGAND FREE ENERGY PREDICTED BY IDOCK:   -0.70 KCAL/MOL
REMARK 927      BINDING AFFINITY PREDICTED BY RF-SCORE:    0.00 PKD
ROOT
HETATM    1  N   UNL     1     -12.093   8.403  70.716  1.00  0.00    -0.485 N  
HETATM    2  H2  UNL     1     -12.240   8.705  71.680  1.00  0.00     0.000 HD 
HETATM    3  S   UNL     1     -10.812   7.513  70.103  1.00  0.00    -0.243 S  
HETATM    4  H1  UNL     1     -12.694   8.577  69.911  1.00  0.00     0.000 HD 
HETATM    5  O   UNL     1     -11.379   6.433  69.333  1.00  0.00    -0.394 OA 
HETATM    6  O   UNL     1      -9.960   7.267  71.245  1.00  0.00    -0.188 OA 
ENDROOT
BRANCH   3   7
HETATM    7  C   UNL     1      -9.993   8.628  69.009  1.00  0.00    -0.192 A  
HETATM    8  C   UNL     1      -8.845   8.252  68.313  1.00  0.00    -0.140 A  
HETATM    9 CL   UNL     1      -8.153   6.672  68.359  1.00  0.00    -0.114 Cl 
HETATM   10  C   UNL     1      -8.171   9.207  67.547  1.00  0.00    -0.108 A  
HETATM   11  C   UNL     1      -8.613  10.529  67.506  1.00  0.00    -0.121 A  
HETATM   12  C   UNL     1      -9.754  10.930  68.221  1.00  0.00    -0.171 A  
HETATM   13  C   UNL     1     -10.460   9.952  68.947  1.00  0.00    -0.229 A  
BRANCH  12  14
HETATM   14  C   UNL     1     -10.086  12.412  68.361  1.00  0.00    -0.217 C  
HETATM   15  O   UNL     1     -10.880  12.652  69.499  1.00  0.00    -0.443 OA 
HETATM   16  N   UNL     1      -8.941  13.261  68.484  1.00  0.00    -0.347 N  
HETATM   17  H   UNL     1     -11.087  13.575  69.586  1.00  0.00     0.000 HD 
HETATM   18  H   UNL     1      -8.307  13.245  69.282  1.00  0.00     0.000 HD 
HETATM   19  C   UNL     1      -8.792  14.100  67.406  1.00  0.00    -0.206 C  
HETATM   20  O   UNL     1      -7.855  14.843  67.186  1.00  0.00    -0.200 OA 
HETATM   21  C   UNL     1      -9.957  13.904  66.531  1.00  0.00    -0.288 A  
HETATM   22  C   UNL     1     -10.251  14.475  65.306  1.00  0.00    -0.431 A  
HETATM   23  C   UNL     1     -11.413  14.043  64.661  1.00  0.00    -0.389 A  
HETATM   24  C   UNL     1     -12.249  13.080  65.255  1.00  0.00    -0.513 A  
HETATM   25  C   UNL     1     -11.928  12.520  66.496  1.00  0.00    -0.367 A  
HETATM   26  C   UNL     1     -10.761  12.931  67.121  1.00  0.00    -0.268 A  
ENDBRANCH  12  14
ENDBRANCH   3   7
TORSDOF 2
ENDMDL
MODEL       73
REMARK 921   NORMALIZED FREE ENERGY PREDICTED BY IDOCK:   -5.60 KCAL/MOL
REMARK 922        TOTAL FREE ENERGY PREDICTED BY IDOCK:   -6.74 KCAL/MOL
REMARK 923 INTER-LIGAND FREE ENERGY PREDICTED BY IDOCK:   -6.75 KCAL/MOL
REMARK 924 INTRA-LIGAND FREE ENERGY PREDICTED BY IDOCK:    0.01 KCAL/MOL
REMARK 927      BINDING AFFINITY PREDICTED BY RF-SCORE:    0.00 PKD
ROOT
HETATM    1  N   UNL     1     -10.645  17.216  67.102  1.00  0.00    -0.286 N  
HETATM    2  H2  UNL     1     -11.364  17.926  67.238  1.00  0.00     0.000 HD 
HETATM    3  S   UNL     1     -10.168  16.501  65.662  1.00  0.00    -0.239 S  
HETATM    4  H1  UNL     1     -10.056  16.782  67.812  1.00  0.00     0.000 HD 
HETATM    5  O   UNL     1      -8.729  16.582  65.608  1.00  0.00    -0.401 OA 
HETATM    6  O   UNL     1     -11.004  17.117  64.656  1.00  0.00    -1.005 OA 
ENDROOT
BRANCH   3   7
HETATM    7  C   UNL     1     -10.639  14.811  65.840  1.00  0.00    -0.314 A  
HETATM    8  C   UNL     1     -11.719  14.280  65.136  1.00  0.00    -0.368 A  
HETATM    9 CL   UNL     1     -12.645  15.152  63.969  1.00  0.00    -0.015 Cl 
HETATM   10  C   UNL     1     -12.121  12.966  65.396  1.00  0.00    -0.501 A  
HETATM   11  C   UNL     1     -11.480  12.205  66.374  1.00  0.00    -0.430 A  
HETATM   12  C   UNL     1     -10.406  12.734  67.110  1.00  0.00    -0.237 A  
HETATM   13  C   UNL     1      -9.971  14.038  66.805  1.00  0.00    -0.268 A  
BRANCH  12  14
HETATM   14  C   UNL     1      -9.874  11.987  68.328  1.00  0.00    -0.204 C  
HETATM   15  O   UNL     1      -8.651  12.531  68.766  1.00  0.00    -0.365 OA 
HETATM   16  N   UNL     1     -10.750  12.009  69.458  1.00  0.00    -0.440 N  
HETATM   17  H   UNL     1      -8.319  12.066  69.525  1.00  0.00     0.000 HD 
HETATM   18  H   UNL     1     -10.984  12.855  69.978  1.00  0.00     0.000 HD 
HETATM   19  C   UNL     1     -11.242  10.763  69.766  1.00  0.00    -0.297 C  
HETATM   20  O   UNL     1     -12.089  10.499  70.597  1.00  0.00    -0.296 OA 
HETATM   21  C   UNL     1     -10.588   9.799  68.869  1.00  0.00    -0.240 A  
HETATM   22  C   UNL     1     -10.774   8.434  68.748  1.00  0.00    -0.086 A  
HETATM   23  C   UNL     1     -10.054   7.776  67.748  1.00  0.00    -0.242 A  
HETATM   24  C   UNL     1      -9.165   8.483  66.918  1.00  0.00    -0.197 A  
HETATM   25  C   UNL     1      -8.995   9.864  67.063  1.00  0.00    -0.152 A  
HETATM   26  C   UNL     1      -9.731  10.518  68.039  1.00  0.00    -0.162 A  
ENDBRANCH  12  14
ENDBRANCH   3   7
TORSDOF 2
ENDMDL
MODEL       74
REMARK 921   NORMALIZED FREE ENERGY PREDICTED BY IDOCK:   -5.60 KCAL/MOL
REMARK 922        TOTAL FREE ENERGY PREDICTED BY IDOCK:   -6.73 KCAL/MOL
REMARK 923 INTER-LIGAND FREE ENERGY PREDICTED BY IDOCK:   -5.96 KCAL/MOL
REMARK 924 INTRA-LIGAND FREE ENERGY PREDICTED BY IDOCK:   -0.78 KCAL/MOL
REMARK 927      BINDING AFFINITY PREDICTED BY RF-SCORE:    0.00 PKD
ROOT
HETATM    1  N   UNL     1     -10.238  18.331  67.514  1.00  0.00    -0.351 N  
HETATM    2  H2  UNL     1     -10.920  18.429  66.763  1.00  0.00     0.000 HD 
HETATM    3  S   UNL     1      -8.581  18.575  67.433  1.00  0.00    -0.260 S  
HETATM    4  H1  UNL     1     -10.411  18.061  68.482  1.00  0.00     0.000 HD 
HETATM    5  O   UNL     1      -8.227  19.436  68.535  1.00  0.00    -0.339 OA 
HETATM    6  O   UNL     1      -8.336  18.957  66.060  1.00  0.00    -0.460 OA 
ENDROOT
BRANCH   3   7
HETATM    7  C   UNL     1      -7.893  16.975  67.712  1.00  0.00    -0.180 A  
HETATM    8  C   UNL     1      -6.523  16.743  67.595  1.00  0.00    -0.149 A  
HETATM    9 CL   UNL     1      -5.352  17.966  67.264  1.00  0.00    -0.139 Cl 
HETATM   10  C   UNL     1      -6.042  15.435  67.716  1.00  0.00    -0.173 A  
HETATM   11  C   UNL     1      -6.920  14.368  67.913  1.00  0.00    -0.174 A  
HETATM   12  C   UNL     1      -8.305  14.583  68.008  1.00  0.00    -0.153 A  
HETATM   13  C   UNL     1      -8.778  15.907  67.940  1.00  0.00    -0.168 A  
BRANCH  12  14
HETATM   14  C   UNL     1      -9.265  13.399  67.983  1.00  0.00    -0.209 C  
HETATM   15  O   UNL     1      -8.568  12.175  68.028  1.00  0.00    -0.159 OA 
HETATM   16  N   UNL     1     -10.193  13.372  69.072  1.00  0.00    -0.432 N  
HETATM   17  H   UNL     1      -9.166  11.437  68.012  1.00  0.00     0.000 HD 
HETATM   18  H   UNL     1      -9.921  13.234  70.045  1.00  0.00     0.000 HD 
HETATM   19  C   UNL     1     -11.491  13.553  68.659  1.00  0.00    -0.308 C  
HETATM   20  O   UNL     1     -12.469  13.689  69.369  1.00  0.00    -0.233 OA 
HETATM   21  C   UNL     1     -11.483  13.599  67.190  1.00  0.00    -0.367 A  
HETATM   22  C   UNL     1     -12.525  13.809  66.304  1.00  0.00    -0.441 A  
HETATM   23  C   UNL     1     -12.207  13.871  64.945  1.00  0.00    -0.445 A  
HETATM   24  C   UNL     1     -10.879  13.705  64.509  1.00  0.00    -0.416 A  
HETATM   25  C   UNL     1      -9.846  13.492  65.427  1.00  0.00    -0.141 A  
HETATM   26  C   UNL     1     -10.160  13.457  66.776  1.00  0.00    -0.260 A  
ENDBRANCH  12  14
ENDBRANCH   3   7
TORSDOF 2
ENDMDL
MODEL       75
REMARK 921   NORMALIZED FREE ENERGY PREDICTED BY IDOCK:   -5.51 KCAL/MOL
REMARK 922        TOTAL FREE ENERGY PREDICTED BY IDOCK:   -6.63 KCAL/MOL
REMARK 923 INTER-LIGAND FREE ENERGY PREDICTED BY IDOCK:   -6.47 KCAL/MOL
REMARK 924 INTRA-LIGAND FREE ENERGY PREDICTED BY IDOCK:   -0.17 KCAL/MOL
REMARK 927      BINDING AFFINITY PREDICTED BY RF-SCORE:    0.00 PKD
ROOT
HETATM    1  N   UNL     1      -7.655  19.057  69.083  1.00  0.00    -0.264 N  
HETATM    2  H2  UNL     1      -7.224  19.972  68.956  1.00  0.00     0.000 HD 
HETATM    3  S   UNL     1      -7.210  17.605  68.371  1.00  0.00    -0.245 S  
HETATM    4  H1  UNL     1      -8.452  18.820  69.672  1.00  0.00     0.000 HD 
HETATM    5  O   UNL     1      -7.109  16.630  69.429  1.00  0.00    -0.232 OA 
HETATM    6  O   UNL     1      -6.079  17.942  67.535  1.00  0.00    -0.151 OA 
ENDROOT
BRANCH   3   7
HETATM    7  C   UNL     1      -8.579  17.191  67.339  1.00  0.00    -0.203 A  
HETATM    8  C   UNL     1      -9.149  18.127  66.478  1.00  0.00    -0.276 A  
HETATM    9 CL   UNL     1      -8.553  19.731  66.249  1.00  0.00    -0.388 Cl 
HETATM   10  C   UNL     1     -10.302  17.783  65.764  1.00  0.00    -0.190 A  
HETATM   11  C   UNL     1     -10.900  16.534  65.937  1.00  0.00    -0.096 A  
HETATM   12  C   UNL     1     -10.352  15.589  66.821  1.00  0.00    -0.288 A  
HETATM   13  C   UNL     1      -9.162  15.921  67.495  1.00  0.00    -0.210 A  
BRANCH  12  14
HETATM   14  C   UNL     1     -11.139  14.333  67.179  1.00  0.00    -0.311 C  
HETATM   15  O   UNL     1     -11.469  14.310  68.548  1.00  0.00    -0.266 OA 
HETATM   16  N   UNL     1     -12.372  14.190  66.468  1.00  0.00    -0.507 N  
HETATM   17  H   UNL     1     -11.959  13.527  68.772  1.00  0.00     0.000 HD 
HETATM   18  H   UNL     1     -13.167  14.818  66.580  1.00  0.00     0.000 HD 
HETATM   19  C   UNL     1     -12.364  13.111  65.616  1.00  0.00    -0.461 C  
HETATM   20  O   UNL     1     -13.223  12.815  64.808  1.00  0.00    -0.812 OA 
HETATM   21  C   UNL     1     -11.097  12.396  65.823  1.00  0.00    -0.351 A  
HETATM   22  C   UNL     1     -10.593  11.281  65.179  1.00  0.00    -0.343 A  
HETATM   23  C   UNL     1      -9.312  10.856  65.542  1.00  0.00    -0.237 A  
HETATM   24  C   UNL     1      -8.585  11.534  66.538  1.00  0.00    -0.172 A  
HETATM   25  C   UNL     1      -9.120  12.658  67.174  1.00  0.00    -0.210 A  
HETATM   26  C   UNL     1     -10.380  13.093  66.793  1.00  0.00    -0.252 A  
ENDBRANCH  12  14
ENDBRANCH   3   7
TORSDOF 2
ENDMDL
MODEL       76
REMARK 921   NORMALIZED FREE ENERGY PREDICTED BY IDOCK:   -5.50 KCAL/MOL
REMARK 922        TOTAL FREE ENERGY PREDICTED BY IDOCK:   -6.62 KCAL/MOL
REMARK 923 INTER-LIGAND FREE ENERGY PREDICTED BY IDOCK:   -6.61 KCAL/MOL
REMARK 924 INTRA-LIGAND FREE ENERGY PREDICTED BY IDOCK:   -0.01 KCAL/MOL
REMARK 927      BINDING AFFINITY PREDICTED BY RF-SCORE:    0.00 PKD
ROOT
HETATM    1  N   UNL     1      -5.875  13.911  69.602  1.00  0.00    -0.101 N  
HETATM    2  H2  UNL     1      -5.006  14.304  69.963  1.00  0.00     0.000 HD 
HETATM    3  S   UNL     1      -6.565  14.157  68.094  1.00  0.00    -0.141 S  
HETATM    4  H1  UNL     1      -6.520  13.281  70.080  1.00  0.00     0.000 HD 
HETATM    5  O   UNL     1      -6.889  12.857  67.561  1.00  0.00    -0.141 OA 
HETATM    6  O   UNL     1      -5.651  15.051  67.418  1.00  0.00    -0.341 OA 
ENDROOT
BRANCH   3   7
HETATM    7  C   UNL     1      -8.062  15.025  68.437  1.00  0.00    -0.141 A  
HETATM    8  C   UNL     1      -8.049  16.320  68.951  1.00  0.00    -0.231 A  
HETATM    9 CL   UNL     1      -6.619  17.247  69.222  1.00  0.00    -0.239 Cl 
HETATM   10  C   UNL     1      -9.260  16.921  69.311  1.00  0.00    -0.005 A  
HETATM   11  C   UNL     1     -10.463  16.224  69.197  1.00  0.00    -0.280 A  
HETATM   12  C   UNL     1     -10.490  14.909  68.704  1.00  0.00    -0.242 A  
HETATM   13  C   UNL     1      -9.275  14.329  68.292  1.00  0.00    -0.197 A  
BRANCH  12  14
HETATM   14  C   UNL     1     -11.766  14.080  68.807  1.00  0.00    -0.353 C  
HETATM   15  O   UNL     1     -12.613  14.307  67.705  1.00  0.00    -0.487 OA 
HETATM   16  N   UNL     1     -11.545  12.668  68.859  1.00  0.00    -0.296 N  
HETATM   17  H   UNL     1     -13.408  13.791  67.769  1.00  0.00     0.000 HD 
HETATM   18  H   UNL     1     -11.160  12.125  68.087  1.00  0.00     0.000 HD 
HETATM   19  C   UNL     1     -11.912  12.123  70.067  1.00  0.00    -0.315 C  
HETATM   20  O   UNL     1     -11.733  10.978  70.434  1.00  0.00    -0.315 OA 
HETATM   21  C   UNL     1     -12.524  13.195  70.865  1.00  0.00    -0.407 A  
HETATM   22  C   UNL     1     -13.008  13.170  72.160  1.00  0.00    -0.382 A  
HETATM   23  C   UNL     1     -13.477  14.373  72.692  1.00  0.00    -0.605 A  
HETATM   24  C   UNL     1     -13.469  15.552  71.922  1.00  0.00    -0.576 A  
HETATM   25  C   UNL     1     -12.974  15.548  70.614  1.00  0.00    -0.425 A  
HETATM   26  C   UNL     1     -12.485  14.358  70.098  1.00  0.00    -0.395 A  
ENDBRANCH  12  14
ENDBRANCH   3   7
TORSDOF 2
ENDMDL
MODEL       77
REMARK 921   NORMALIZED FREE ENERGY PREDICTED BY IDOCK:   -5.49 KCAL/MOL
REMARK 922        TOTAL FREE ENERGY PREDICTED BY IDOCK:   -6.61 KCAL/MOL
REMARK 923 INTER-LIGAND FREE ENERGY PREDICTED BY IDOCK:   -6.16 KCAL/MOL
REMARK 924 INTRA-LIGAND FREE ENERGY PREDICTED BY IDOCK:   -0.45 KCAL/MOL
REMARK 927      BINDING AFFINITY PREDICTED BY RF-SCORE:    0.00 PKD
ROOT
HETATM    1  N   UNL     1      -9.792   7.575  69.959  1.00  0.00    -0.179 N  
HETATM    2  H2  UNL     1      -9.800   7.013  69.108  1.00  0.00     0.000 HD 
HETATM    3  S   UNL     1     -11.017   7.738  71.092  1.00  0.00    -0.243 S  
HETATM    4  H1  UNL     1      -9.037   8.164  70.310  1.00  0.00     0.000 HD 
HETATM    5  O   UNL     1     -10.424   7.518  72.388  1.00  0.00    -0.214 OA 
HETATM    6  O   UNL     1     -12.087   6.903  70.593  1.00  0.00    -0.371 OA 
ENDROOT
BRANCH   3   7
HETATM    7  C   UNL     1     -11.505   9.428  70.965  1.00  0.00    -0.334 A  
HETATM    8  C   UNL     1     -12.549   9.943  71.731  1.00  0.00    -0.414 A  
HETATM    9 CL   UNL     1     -13.410   9.049  72.930  1.00  0.00    -0.253 Cl 
HETATM   10  C   UNL     1     -12.970  11.258  71.512  1.00  0.00    -0.520 A  
HETATM   11  C   UNL     1     -12.383  12.037  70.514  1.00  0.00    -0.369 A  
HETATM   12  C   UNL     1     -11.346  11.524  69.716  1.00  0.00    -0.303 A  
HETATM   13  C   UNL     1     -10.890  10.218  69.978  1.00  0.00    -0.364 A  
BRANCH  12  14
HETATM   14  C   UNL     1     -10.881  12.292  68.483  1.00  0.00    -0.237 C  
HETATM   15  O   UNL     1     -11.939  13.020  67.905  1.00  0.00    -0.347 OA 
HETATM   16  N   UNL     1      -9.837  13.236  68.740  1.00  0.00    -0.421 N  
HETATM   17  H   UNL     1     -11.649  13.498  67.137  1.00  0.00     0.000 HD 
HETATM   18  H   UNL     1      -9.956  14.071  69.313  1.00  0.00     0.000 HD 
HETATM   19  C   UNL     1      -8.656  12.893  68.126  1.00  0.00    -0.188 C  
HETATM   20  O   UNL     1      -7.580  13.442  68.259  1.00  0.00    -0.116 OA 
HETATM   21  C   UNL     1      -8.917  11.701  67.306  1.00  0.00    -0.169 A  
HETATM   22  C   UNL     1      -8.049  10.947  66.537  1.00  0.00    -0.154 A  
HETATM   23  C   UNL     1      -8.569   9.811  65.912  1.00  0.00    -0.149 A  
HETATM   24  C   UNL     1      -9.928   9.471  66.053  1.00  0.00    -0.348 A  
HETATM   25  C   UNL     1     -10.783  10.253  66.835  1.00  0.00    -0.252 A  
HETATM   26  C   UNL     1     -10.258  11.365  67.475  1.00  0.00    -0.210 A  
ENDBRANCH  12  14
ENDBRANCH   3   7
TORSDOF 2
ENDMDL
MODEL       78
REMARK 921   NORMALIZED FREE ENERGY PREDICTED BY IDOCK:   -5.47 KCAL/MOL
REMARK 922        TOTAL FREE ENERGY PREDICTED BY IDOCK:   -6.58 KCAL/MOL
REMARK 923 INTER-LIGAND FREE ENERGY PREDICTED BY IDOCK:   -5.90 KCAL/MOL
REMARK 924 INTRA-LIGAND FREE ENERGY PREDICTED BY IDOCK:   -0.69 KCAL/MOL
REMARK 927      BINDING AFFINITY PREDICTED BY RF-SCORE:    0.00 PKD
ROOT
HETATM    1  N   UNL     1      -6.415  11.172  65.704  1.00  0.00    -0.366 N  
HETATM    2  H2  UNL     1      -6.415  12.030  65.152  1.00  0.00     0.000 HD 
HETATM    3  S   UNL     1      -6.885   9.639  65.216  1.00  0.00    -0.102 S  
HETATM    4  H1  UNL     1      -6.129  11.057  66.676  1.00  0.00     0.000 HD 
HETATM    5  O   UNL     1      -5.828   8.733  65.594  1.00  0.00    -0.049 OA 
HETATM    6  O   UNL     1      -7.291   9.803  63.838  1.00  0.00    -0.117 OA 
ENDROOT
BRANCH   3   7
HETATM    7  C   UNL     1      -8.312   9.291  66.193  1.00  0.00    -0.119 A  
HETATM    8  C   UNL     1      -8.860   8.011  66.251  1.00  0.00    -0.162 A  
HETATM    9 CL   UNL     1      -8.183   6.626  65.474  1.00  0.00    -0.134 Cl 
HETATM   10  C   UNL     1     -10.055   7.812  66.950  1.00  0.00    -0.356 A  
HETATM   11  C   UNL     1     -10.716   8.884  67.550  1.00  0.00    -0.223 A  
HETATM   12  C   UNL     1     -10.190  10.186  67.480  1.00  0.00    -0.257 A  
HETATM   13  C   UNL     1      -8.959  10.370  66.822  1.00  0.00    -0.153 A  
BRANCH  12  14
HETATM   14  C   UNL     1     -11.032  11.375  67.929  1.00  0.00    -0.240 C  
HETATM   15  O   UNL     1     -12.217  10.952  68.562  1.00  0.00    -0.799 OA 
HETATM   16  N   UNL     1     -10.373  12.246  68.852  1.00  0.00    -0.409 N  
HETATM   17  H   UNL     1     -12.742  11.693  68.841  1.00  0.00     0.000 HD 
HETATM   18  H   UNL     1     -10.108  11.973  69.799  1.00  0.00     0.000 HD 
HETATM   19  C   UNL     1     -10.135  13.491  68.321  1.00  0.00    -0.247 C  
HETATM   20  O   UNL     1      -9.495  14.390  68.831  1.00  0.00    -0.188 OA 
HETATM   21  C   UNL     1     -10.761  13.528  66.992  1.00  0.00    -0.278 A  
HETATM   22  C   UNL     1     -10.764  14.534  66.042  1.00  0.00    -0.306 A  
HETATM   23  C   UNL     1     -11.390  14.261  64.823  1.00  0.00    -0.382 A  
HETATM   24  C   UNL     1     -12.004  13.016  64.593  1.00  0.00    -0.445 A  
HETATM   25  C   UNL     1     -11.987  12.018  65.571  1.00  0.00    -0.168 A  
HETATM   26  C   UNL     1     -11.342  12.282  66.770  1.00  0.00    -0.395 A  
ENDBRANCH  12  14
ENDBRANCH   3   7
TORSDOF 2
ENDMDL
MODEL       79
REMARK 921   NORMALIZED FREE ENERGY PREDICTED BY IDOCK:   -5.43 KCAL/MOL
REMARK 922        TOTAL FREE ENERGY PREDICTED BY IDOCK:   -6.55 KCAL/MOL
REMARK 923 INTER-LIGAND FREE ENERGY PREDICTED BY IDOCK:   -6.32 KCAL/MOL
REMARK 924 INTRA-LIGAND FREE ENERGY PREDICTED BY IDOCK:   -0.22 KCAL/MOL
REMARK 927      BINDING AFFINITY PREDICTED BY RF-SCORE:    0.00 PKD
ROOT
HETATM    1  N   UNL     1     -10.228  10.346  65.676  1.00  0.00    -0.260 N  
HETATM    2  H2  UNL     1      -9.255  10.175  65.426  1.00  0.00     0.000 HD 
HETATM    3  S   UNL     1     -10.967  11.822  65.973  1.00  0.00    -0.294 S  
HETATM    4  H1  UNL     1     -10.970   9.658  65.802  1.00  0.00     0.000 HD 
HETATM    5  O   UNL     1     -12.175  11.855  65.186  1.00  0.00    -0.334 OA 
HETATM    6  O   UNL     1      -9.915  12.798  65.795  1.00  0.00    -0.265 OA 
ENDROOT
BRANCH   3   7
HETATM    7  C   UNL     1     -11.399  11.754  67.682  1.00  0.00    -0.302 A  
HETATM    8  C   UNL     1     -11.896  12.872  68.351  1.00  0.00    -0.318 A  
HETATM    9 CL   UNL     1     -12.228  14.389  67.599  1.00  0.00    -0.304 Cl 
HETATM   10  C   UNL     1     -12.117  12.797  69.730  1.00  0.00    -0.305 A  
HETATM   11  C   UNL     1     -11.811  11.635  70.439  1.00  0.00    -0.385 A  
HETATM   12  C   UNL     1     -11.286  10.508  69.784  1.00  0.00    -0.367 A  
HETATM   13  C   UNL     1     -11.117  10.571  68.387  1.00  0.00    -0.335 A  
BRANCH  12  14
HETATM   14  C   UNL     1     -10.735   9.341  70.595  1.00  0.00    -0.269 C  
HETATM   15  O   UNL     1      -9.631   9.736  71.374  1.00  0.00    -0.223 OA 
HETATM   16  N   UNL     1     -11.678   8.760  71.501  1.00  0.00    -0.288 N  
HETATM   17  H   UNL     1      -9.288   9.008  71.880  1.00  0.00     0.000 HD 
HETATM   18  H   UNL     1     -12.061   9.247  72.311  1.00  0.00     0.000 HD 
HETATM   19  C   UNL     1     -12.011   7.471  71.157  1.00  0.00    -0.308 C  
HETATM   20  O   UNL     1     -12.865   6.777  71.673  1.00  0.00    -0.358 OA 
HETATM   21  C   UNL     1     -11.172   7.092  70.011  1.00  0.00    -0.310 A  
HETATM   22  C   UNL     1     -11.159   5.922  69.272  1.00  0.00    -0.352 A  
HETATM   23  C   UNL     1     -10.291   5.866  68.178  1.00  0.00    -0.259 A  
HETATM   24  C   UNL     1      -9.456   6.956  67.866  1.00  0.00    -0.120 A  
HETATM   25  C   UNL     1      -9.490   8.125  68.632  1.00  0.00    -0.147 A  
HETATM   26  C   UNL     1     -10.371   8.188  69.700  1.00  0.00    -0.221 A  
ENDBRANCH  12  14
ENDBRANCH   3   7
TORSDOF 2
ENDMDL
MODEL       80
REMARK 921   NORMALIZED FREE ENERGY PREDICTED BY IDOCK:   -5.43 KCAL/MOL
REMARK 922        TOTAL FREE ENERGY PREDICTED BY IDOCK:   -6.54 KCAL/MOL
REMARK 923 INTER-LIGAND FREE ENERGY PREDICTED BY IDOCK:   -6.18 KCAL/MOL
REMARK 924 INTRA-LIGAND FREE ENERGY PREDICTED BY IDOCK:   -0.37 KCAL/MOL
REMARK 927      BINDING AFFINITY PREDICTED BY RF-SCORE:    0.00 PKD
ROOT
HETATM    1  N   UNL     1     -10.430   8.161  72.049  1.00  0.00    -0.241 N  
HETATM    2  H2  UNL     1      -9.457   8.003  72.312  1.00  0.00     0.000 HD 
HETATM    3  S   UNL     1     -11.025   8.643  70.558  1.00  0.00    -0.238 S  
HETATM    4  H1  UNL     1     -11.258   8.060  72.636  1.00  0.00     0.000 HD 
HETATM    5  O   UNL     1     -12.092   7.734  70.215  1.00  0.00     0.089 OA 
HETATM    6  O   UNL     1      -9.851   8.786  69.726  1.00  0.00    -0.180 OA 
ENDROOT
BRANCH   3   7
HETATM    7  C   UNL     1     -11.709  10.240  70.860  1.00  0.00    -0.379 A  
HETATM    8  C   UNL     1     -12.779  10.419  71.736  1.00  0.00    -0.421 A  
HETATM    9 CL   UNL     1     -13.489   9.159  72.676  1.00  0.00    -0.475 Cl 
HETATM   10  C   UNL     1     -13.356  11.688  71.855  1.00  0.00    -0.403 A  
HETATM   11  C   UNL     1     -12.898  12.755  71.081  1.00  0.00    -0.315 A  
HETATM   12  C   UNL     1     -11.836  12.585  70.176  1.00  0.00    -0.336 A  
HETATM   13  C   UNL     1     -11.224  11.319  70.100  1.00  0.00    -0.151 A  
BRANCH  12  14
HETATM   14  C   UNL     1     -11.505  13.685  69.173  1.00  0.00    -0.297 C  
HETATM   15  O   UNL     1     -12.599  14.552  68.987  1.00  0.00    -0.568 OA 
HETATM   16  N   UNL     1     -10.399  14.509  69.551  1.00  0.00    -0.425 N  
HETATM   17  H   UNL     1     -12.392  15.238  68.362  1.00  0.00     0.000 HD 
HETATM   18  H   UNL     1     -10.407  15.135  70.357  1.00  0.00     0.000 HD 
HETATM   19  C   UNL     1      -9.324  14.364  68.708  1.00  0.00    -0.150 C  
HETATM   20  O   UNL     1      -8.217  14.849  68.848  1.00  0.00    -0.156 OA 
HETATM   21  C   UNL     1      -9.738  13.472  67.617  1.00  0.00    -0.229 A  
HETATM   22  C   UNL     1      -9.010  12.980  66.548  1.00  0.00    -0.076 A  
HETATM   23  C   UNL     1      -9.654  12.083  65.693  1.00  0.00    -0.205 A  
HETATM   24  C   UNL     1     -10.995  11.717  65.912  1.00  0.00    -0.334 A  
HETATM   25  C   UNL     1     -11.708  12.230  67.000  1.00  0.00    -0.399 A  
HETATM   26  C   UNL     1     -11.058  13.100  67.861  1.00  0.00    -0.288 A  
ENDBRANCH  12  14
ENDBRANCH   3   7
TORSDOF 2
ENDMDL
MODEL       81
REMARK 921   NORMALIZED FREE ENERGY PREDICTED BY IDOCK:   -5.42 KCAL/MOL
REMARK 922        TOTAL FREE ENERGY PREDICTED BY IDOCK:   -6.53 KCAL/MOL
REMARK 923 INTER-LIGAND FREE ENERGY PREDICTED BY IDOCK:   -6.04 KCAL/MOL
REMARK 924 INTRA-LIGAND FREE ENERGY PREDICTED BY IDOCK:   -0.50 KCAL/MOL
REMARK 927      BINDING AFFINITY PREDICTED BY RF-SCORE:    0.00 PKD
ROOT
HETATM    1  N   UNL     1     -11.517  15.327  72.409  1.00  0.00    -0.433 N  
HETATM    2  H2  UNL     1     -11.799  15.355  73.389  1.00  0.00     0.000 HD 
HETATM    3  S   UNL     1     -12.500  15.429  71.055  1.00  0.00    -0.446 S  
HETATM    4  H1  UNL     1     -10.573  15.232  72.035  1.00  0.00     0.000 HD 
HETATM    5  O   UNL     1     -11.922  16.427  70.189  1.00  0.00     0.001 OA 
HETATM    6  O   UNL     1     -13.838  15.565  71.586  1.00  0.00    -0.484 OA 
ENDROOT
BRANCH   3   7
HETATM    7  C   UNL     1     -12.348  13.848  70.289  1.00  0.00    -0.345 A  
HETATM    8  C   UNL     1     -12.710  12.679  70.956  1.00  0.00    -0.226 A  
HETATM    9 CL   UNL     1     -13.416  12.635  72.530  1.00  0.00    -0.482 Cl 
HETATM   10  C   UNL     1     -12.465  11.444  70.347  1.00  0.00    -0.345 A  
HETATM   11  C   UNL     1     -11.832  11.375  69.106  1.00  0.00    -0.413 A  
HETATM   12  C   UNL     1     -11.438  12.543  68.431  1.00  0.00    -0.355 A  
HETATM   13  C   UNL     1     -11.736  13.784  69.024  1.00  0.00    -0.372 A  
BRANCH  12  14
HETATM   14  C   UNL     1     -10.541  12.449  67.202  1.00  0.00    -0.224 C  
HETATM   15  O   UNL     1     -10.881  11.338  66.405  1.00  0.00    -0.271 OA 
HETATM   16  N   UNL     1     -10.602  13.592  66.343  1.00  0.00    -0.280 N  
HETATM   17  H   UNL     1     -10.322  11.280  65.639  1.00  0.00     0.000 HD 
HETATM   18  H   UNL     1     -11.433  13.861  65.816  1.00  0.00     0.000 HD 
HETATM   19  C   UNL     1      -9.417  14.285  66.306  1.00  0.00    -0.252 C  
HETATM   20  O   UNL     1      -9.213  15.351  65.757  1.00  0.00    -0.302 OA 
HETATM   21  C   UNL     1      -8.439  13.525  67.097  1.00  0.00    -0.177 A  
HETATM   22  C   UNL     1      -7.123  13.824  67.405  1.00  0.00    -0.093 A  
HETATM   23  C   UNL     1      -6.445  12.938  68.246  1.00  0.00    -0.086 A  
HETATM   24  C   UNL     1      -7.082  11.783  68.737  1.00  0.00    -0.111 A  
HETATM   25  C   UNL     1      -8.412  11.505  68.409  1.00  0.00    -0.159 A  
HETATM   26  C   UNL     1      -9.091  12.399  67.596  1.00  0.00    -0.186 A  
ENDBRANCH  12  14
ENDBRANCH   3   7
TORSDOF 2
ENDMDL
MODEL       82
REMARK 921   NORMALIZED FREE ENERGY PREDICTED BY IDOCK:   -5.42 KCAL/MOL
REMARK 922        TOTAL FREE ENERGY PREDICTED BY IDOCK:   -6.53 KCAL/MOL
REMARK 923 INTER-LIGAND FREE ENERGY PREDICTED BY IDOCK:   -6.29 KCAL/MOL
REMARK 924 INTRA-LIGAND FREE ENERGY PREDICTED BY IDOCK:   -0.23 KCAL/MOL
REMARK 927      BINDING AFFINITY PREDICTED BY RF-SCORE:    0.00 PKD
ROOT
HETATM    1  N   UNL     1     -11.187  12.861  63.231  1.00  0.00    -0.677 N  
HETATM    2  H2  UNL     1     -10.763  13.448  62.512  1.00  0.00     0.000 HD 
HETATM    3  S   UNL     1     -12.017  13.356  64.601  1.00  0.00    -0.422 S  
HETATM    4  H1  UNL     1     -11.199  11.843  63.277  1.00  0.00     0.000 HD 
HETATM    5  O   UNL     1     -13.253  12.614  64.636  1.00  0.00    -0.828 OA 
HETATM    6  O   UNL     1     -11.999  14.801  64.535  1.00  0.00    -0.445 OA 
ENDROOT
BRANCH   3   7
HETATM    7  C   UNL     1     -10.996  12.833  65.940  1.00  0.00    -0.274 A  
HETATM    8  C   UNL     1      -9.936  13.616  66.395  1.00  0.00    -0.296 A  
HETATM    9 CL   UNL     1      -9.555  15.186  65.789  1.00  0.00    -0.371 Cl 
HETATM   10  C   UNL     1      -9.089  13.106  67.383  1.00  0.00    -0.208 A  
HETATM   11  C   UNL     1      -9.272  11.817  67.884  1.00  0.00    -0.181 A  
HETATM   12  C   UNL     1     -10.321  11.006  67.418  1.00  0.00    -0.242 A  
HETATM   13  C   UNL     1     -11.203  11.544  66.463  1.00  0.00    -0.324 A  
BRANCH  12  14
HETATM   14  C   UNL     1     -10.368   9.528  67.793  1.00  0.00    -0.239 C  
HETATM   15  O   UNL     1     -11.191   8.803  66.910  1.00  0.00    -0.022 OA 
HETATM   16  N   UNL     1      -9.093   8.879  67.778  1.00  0.00    -0.134 N  
HETATM   17  H   UNL     1     -11.221   7.883  67.144  1.00  0.00     0.000 HD 
HETATM   18  H   UNL     1      -8.543   8.730  66.933  1.00  0.00     0.000 HD 
HETATM   19  C   UNL     1      -8.694   8.478  69.031  1.00  0.00    -0.134 C  
HETATM   20  O   UNL     1      -7.615   8.007  69.335  1.00  0.00    -0.097 OA 
HETATM   21  C   UNL     1      -9.798   8.765  69.957  1.00  0.00    -0.187 A  
HETATM   22  C   UNL     1      -9.873   8.592  71.328  1.00  0.00    -0.279 A  
HETATM   23  C   UNL     1     -11.039   9.023  71.965  1.00  0.00    -0.371 A  
HETATM   24  C   UNL     1     -12.094   9.591  71.226  1.00  0.00    -0.443 A  
HETATM   25  C   UNL     1     -11.992   9.753  69.841  1.00  0.00     0.071 A  
HETATM   26  C   UNL     1     -10.823   9.348  69.215  1.00  0.00    -0.190 A  
ENDBRANCH  12  14
ENDBRANCH   3   7
TORSDOF 2
ENDMDL
MODEL       83
REMARK 921   NORMALIZED FREE ENERGY PREDICTED BY IDOCK:   -5.39 KCAL/MOL
REMARK 922        TOTAL FREE ENERGY PREDICTED BY IDOCK:   -6.50 KCAL/MOL
REMARK 923 INTER-LIGAND FREE ENERGY PREDICTED BY IDOCK:   -6.00 KCAL/MOL
REMARK 924 INTRA-LIGAND FREE ENERGY PREDICTED BY IDOCK:   -0.50 KCAL/MOL
REMARK 927      BINDING AFFINITY PREDICTED BY RF-SCORE:    0.00 PKD
ROOT
HETATM    1  N   UNL     1      -7.229  10.605  62.951  1.00  0.00    -0.336 N  
HETATM    2  H2  UNL     1      -7.176  11.198  62.124  1.00  0.00     0.000 HD 
HETATM    3  S   UNL     1      -8.603   9.973  63.675  1.00  0.00    -0.221 S  
HETATM    4  H1  UNL     1      -6.457  10.263  63.524  1.00  0.00     0.000 HD 
HETATM    5  O   UNL     1      -8.368   8.564  63.868  1.00  0.00    -0.159 OA 
HETATM    6  O   UNL     1      -9.697  10.459  62.863  1.00  0.00    -0.316 OA 
ENDROOT
BRANCH   3   7
HETATM    7  C   UNL     1      -8.667  10.765  65.250  1.00  0.00    -0.173 A  
HETATM    8  C   UNL     1      -7.627  10.638  66.169  1.00  0.00    -0.138 A  
HETATM    9 CL   UNL     1      -6.152   9.795  65.862  1.00  0.00    -0.067 Cl 
HETATM   10  C   UNL     1      -7.775  11.192  67.445  1.00  0.00    -0.120 A  
HETATM   11  C   UNL     1      -8.960  11.829  67.812  1.00  0.00    -0.173 A  
HETATM   12  C   UNL     1     -10.027  11.944  66.905  1.00  0.00    -0.219 A  
HETATM   13  C   UNL     1      -9.852  11.432  65.605  1.00  0.00    -0.274 A  
BRANCH  12  14
HETATM   14  C   UNL     1     -11.392  12.425  67.387  1.00  0.00    -0.321 C  
HETATM   15  O   UNL     1     -12.365  12.298  66.377  1.00  0.00    -0.531 OA 
HETATM   16  N   UNL     1     -11.897  11.714  68.522  1.00  0.00    -0.315 N  
HETATM   17  H   UNL     1     -13.215  12.597  66.678  1.00  0.00     0.000 HD 
HETATM   18  H   UNL     1     -12.161  10.730  68.503  1.00  0.00     0.000 HD 
HETATM   19  C   UNL     1     -11.986  12.508  69.641  1.00  0.00    -0.272 C  
HETATM   20  O   UNL     1     -12.270  12.149  70.767  1.00  0.00    -0.377 OA 
HETATM   21  C   UNL     1     -11.627  13.875  69.240  1.00  0.00    -0.358 A  
HETATM   22  C   UNL     1     -11.519  15.024  70.004  1.00  0.00    -0.310 A  
HETATM   23  C   UNL     1     -11.086  16.184  69.357  1.00  0.00    -0.335 A  
HETATM   24  C   UNL     1     -10.795  16.174  67.980  1.00  0.00    -0.333 A  
HETATM   25  C   UNL     1     -10.915  15.000  67.232  1.00  0.00    -0.326 A  
HETATM   26  C   UNL     1     -11.318  13.843  67.881  1.00  0.00    -0.320 A  
ENDBRANCH  12  14
ENDBRANCH   3   7
TORSDOF 2
ENDMDL
MODEL       84
REMARK 921   NORMALIZED FREE ENERGY PREDICTED BY IDOCK:   -5.36 KCAL/MOL
REMARK 922        TOTAL FREE ENERGY PREDICTED BY IDOCK:   -6.47 KCAL/MOL
REMARK 923 INTER-LIGAND FREE ENERGY PREDICTED BY IDOCK:   -6.16 KCAL/MOL
REMARK 924 INTRA-LIGAND FREE ENERGY PREDICTED BY IDOCK:   -0.31 KCAL/MOL
REMARK 927      BINDING AFFINITY PREDICTED BY RF-SCORE:    0.00 PKD
ROOT
HETATM    1  N   UNL     1     -10.915   5.477  66.166  1.00  0.00    -0.755 N  
HETATM    2  H2  UNL     1     -11.183   4.593  65.734  1.00  0.00     0.000 HD 
HETATM    3  S   UNL     1      -9.368   6.023  66.514  1.00  0.00    -0.152 S  
HETATM    4  H1  UNL     1     -11.529   6.227  66.484  1.00  0.00     0.000 HD 
HETATM    5  O   UNL     1      -9.265   7.362  65.988  1.00  0.00    -0.140 OA 
HETATM    6  O   UNL     1      -8.498   4.959  66.064  1.00  0.00    -0.115 OA 
ENDROOT
BRANCH   3   7
HETATM    7  C   UNL     1      -9.319   6.094  68.275  1.00  0.00    -0.116 A  
HETATM    8  C   UNL     1      -9.488   4.950  69.054  1.00  0.00    -0.144 A  
HETATM    9 CL   UNL     1      -9.670   3.357  68.417  1.00  0.00    -0.127 Cl 
HETATM   10  C   UNL     1      -9.553   5.078  70.445  1.00  0.00    -0.260 A  
HETATM   11  C   UNL     1      -9.488   6.333  71.050  1.00  0.00    -0.187 A  
HETATM   12  C   UNL     1      -9.342   7.498  70.277  1.00  0.00    -0.161 A  
HETATM   13  C   UNL     1      -9.224   7.359  68.881  1.00  0.00    -0.142 A  
BRANCH  12  14
HETATM   14  C   UNL     1      -9.512   8.869  70.923  1.00  0.00    -0.236 C  
HETATM   15  O   UNL     1      -8.600   9.052  71.981  1.00  0.00    -0.367 OA 
HETATM   16  N   UNL     1      -9.314   9.968  70.029  1.00  0.00    -0.382 N  
HETATM   17  H   UNL     1      -8.706   9.906  72.384  1.00  0.00     0.000 HD 
HETATM   18  H   UNL     1      -8.417  10.193  69.597  1.00  0.00     0.000 HD 
HETATM   19  C   UNL     1     -10.466  10.686  69.816  1.00  0.00    -0.143 C  
HETATM   20  O   UNL     1     -10.622  11.594  69.022  1.00  0.00    -0.207 OA 
HETATM   21  C   UNL     1     -11.502  10.125  70.694  1.00  0.00    -0.432 A  
HETATM   22  C   UNL     1     -12.837  10.465  70.819  1.00  0.00    -0.450 A  
HETATM   23  C   UNL     1     -13.612   9.705  71.698  1.00  0.00    -0.402 A  
HETATM   24  C   UNL     1     -13.039   8.651  72.434  1.00  0.00    -0.396 A  
HETATM   25  C   UNL     1     -11.686   8.330  72.290  1.00  0.00    -0.453 A  
HETATM   26  C   UNL     1     -10.925   9.069  71.397  1.00  0.00    -0.394 A  
ENDBRANCH  12  14
ENDBRANCH   3   7
TORSDOF 2
ENDMDL
MODEL       85
REMARK 921   NORMALIZED FREE ENERGY PREDICTED BY IDOCK:   -5.36 KCAL/MOL
REMARK 922        TOTAL FREE ENERGY PREDICTED BY IDOCK:   -6.47 KCAL/MOL
REMARK 923 INTER-LIGAND FREE ENERGY PREDICTED BY IDOCK:   -6.28 KCAL/MOL
REMARK 924 INTRA-LIGAND FREE ENERGY PREDICTED BY IDOCK:   -0.19 KCAL/MOL
REMARK 927      BINDING AFFINITY PREDICTED BY RF-SCORE:    0.00 PKD
ROOT
HETATM    1  N   UNL     1      -7.367  12.179  66.658  1.00  0.00    -0.377 N  
HETATM    2  H2  UNL     1      -6.953  12.306  65.734  1.00  0.00     0.000 HD 
HETATM    3  S   UNL     1      -8.994  12.049  67.044  1.00  0.00    -0.203 S  
HETATM    4  H1  UNL     1      -6.884  12.103  67.552  1.00  0.00     0.000 HD 
HETATM    5  O   UNL     1      -9.135  10.887  67.886  1.00  0.00    -0.143 OA 
HETATM    6  O   UNL     1      -9.678  12.156  65.774  1.00  0.00    -0.245 OA 
ENDROOT
BRANCH   3   7
HETATM    7  C   UNL     1      -9.330  13.493  67.998  1.00  0.00    -0.213 A  
HETATM    8  C   UNL     1     -10.551  13.667  68.648  1.00  0.00    -0.248 A  
HETATM    9 CL   UNL     1     -11.814  12.492  68.678  1.00  0.00    -0.352 Cl 
HETATM   10  C   UNL     1     -10.810  14.878  69.298  1.00  0.00    -0.272 A  
HETATM   11  C   UNL     1      -9.878  15.916  69.267  1.00  0.00    -0.259 A  
HETATM   12  C   UNL     1      -8.653  15.766  68.596  1.00  0.00    -0.194 A  
HETATM   13  C   UNL     1      -8.376  14.526  67.989  1.00  0.00    -0.153 A  
BRANCH  12  14
HETATM   14  C   UNL     1      -7.754  16.976  68.367  1.00  0.00    -0.230 C  
HETATM   15  O   UNL     1      -6.900  17.193  69.466  1.00  0.00    -0.215 OA 
HETATM   16  N   UNL     1      -6.909  16.870  67.217  1.00  0.00    -0.150 N  
HETATM   17  H   UNL     1      -6.340  17.947  69.323  1.00  0.00     0.000 HD 
HETATM   18  H   UNL     1      -6.153  16.190  67.130  1.00  0.00     0.000 HD 
HETATM   19  C   UNL     1      -7.229  17.785  66.244  1.00  0.00    -0.296 C  
HETATM   20  O   UNL     1      -6.760  17.852  65.124  1.00  0.00    -0.240 OA 
HETATM   21  C   UNL     1      -8.285  18.652  66.786  1.00  0.00    -0.276 A  
HETATM   22  C   UNL     1      -8.975  19.690  66.185  1.00  0.00    -0.375 A  
HETATM   23  C   UNL     1      -9.989  20.299  66.929  1.00  0.00    -0.592 A  
HETATM   24  C   UNL     1     -10.272  19.877  68.241  1.00  0.00    -0.562 A  
HETATM   25  C   UNL     1      -9.557  18.826  68.824  1.00  0.00    -0.411 A  
HETATM   26  C   UNL     1      -8.570  18.205  68.074  1.00  0.00    -0.272 A  
ENDBRANCH  12  14
ENDBRANCH   3   7
TORSDOF 2
ENDMDL
MODEL       86
REMARK 921   NORMALIZED FREE ENERGY PREDICTED BY IDOCK:   -5.36 KCAL/MOL
REMARK 922        TOTAL FREE ENERGY PREDICTED BY IDOCK:   -6.46 KCAL/MOL
REMARK 923 INTER-LIGAND FREE ENERGY PREDICTED BY IDOCK:   -6.29 KCAL/MOL
REMARK 924 INTRA-LIGAND FREE ENERGY PREDICTED BY IDOCK:   -0.17 KCAL/MOL
REMARK 927      BINDING AFFINITY PREDICTED BY RF-SCORE:    0.00 PKD
ROOT
HETATM    1  N   UNL     1      -7.288  15.311  67.871  1.00  0.00    -0.128 N  
HETATM    2  H2  UNL     1      -6.742  15.368  68.730  1.00  0.00     0.000 HD 
HETATM    3  S   UNL     1      -8.405  16.418  67.290  1.00  0.00    -0.188 S  
HETATM    4  H1  UNL     1      -7.278  14.567  67.174  1.00  0.00     0.000 HD 
HETATM    5  O   UNL     1      -8.066  16.675  65.911  1.00  0.00    -0.359 OA 
HETATM    6  O   UNL     1      -8.420  17.473  68.279  1.00  0.00    -0.249 OA 
ENDROOT
BRANCH   3   7
HETATM    7  C   UNL     1      -9.942  15.557  67.351  1.00  0.00    -0.234 A  
HETATM    8  C   UNL     1     -10.747  15.585  68.489  1.00  0.00    -0.259 A  
HETATM    9 CL   UNL     1     -10.399  16.509  69.905  1.00  0.00    -0.158 Cl 
HETATM   10  C   UNL     1     -11.900  14.795  68.527  1.00  0.00    -0.340 A  
HETATM   11  C   UNL     1     -12.227  13.959  67.459  1.00  0.00    -0.266 A  
HETATM   12  C   UNL     1     -11.413  13.900  66.315  1.00  0.00    -0.347 A  
HETATM   13  C   UNL     1     -10.283  14.738  66.260  1.00  0.00    -0.309 A  
BRANCH  12  14
HETATM   14  C   UNL     1     -11.646  12.817  65.267  1.00  0.00    -0.344 C  
HETATM   15  O   UNL     1     -13.021  12.623  65.030  1.00  0.00    -0.812 OA 
HETATM   16  N   UNL     1     -11.056  13.096  63.994  1.00  0.00    -0.488 N  
HETATM   17  H   UNL     1     -13.166  11.948  64.377  1.00  0.00     0.000 HD 
HETATM   18  H   UNL     1     -11.352  13.861  63.387  1.00  0.00     0.000 HD 
HETATM   19  C   UNL     1     -10.045  12.219  63.681  1.00  0.00    -0.344 C  
HETATM   20  O   UNL     1      -9.296  12.282  62.725  1.00  0.00     0.144 OA 
HETATM   21  C   UNL     1      -9.999  11.204  64.743  1.00  0.00    -0.339 A  
HETATM   22  C   UNL     1      -9.133  10.139  64.913  1.00  0.00    -0.256 A  
HETATM   23  C   UNL     1      -9.285   9.370  66.070  1.00  0.00    -0.253 A  
HETATM   24  C   UNL     1     -10.294   9.667  67.004  1.00  0.00    -0.315 A  
HETATM   25  C   UNL     1     -11.157  10.750  66.805  1.00  0.00    -0.153 A  
HETATM   26  C   UNL     1     -10.987  11.527  65.670  1.00  0.00    -0.296 A  
ENDBRANCH  12  14
ENDBRANCH   3   7
TORSDOF 2
ENDMDL
MODEL       87
REMARK 921   NORMALIZED FREE ENERGY PREDICTED BY IDOCK:   -5.34 KCAL/MOL
REMARK 922        TOTAL FREE ENERGY PREDICTED BY IDOCK:   -6.44 KCAL/MOL
REMARK 923 INTER-LIGAND FREE ENERGY PREDICTED BY IDOCK:   -5.90 KCAL/MOL
REMARK 924 INTRA-LIGAND FREE ENERGY PREDICTED BY IDOCK:   -0.54 KCAL/MOL
REMARK 927      BINDING AFFINITY PREDICTED BY RF-SCORE:    0.00 PKD
ROOT
HETATM    1  N   UNL     1      -8.423  11.883  68.661  1.00  0.00    -0.318 N  
HETATM    2  H2  UNL     1      -7.417  11.864  68.823  1.00  0.00     0.000 HD 
HETATM    3  S   UNL     1      -9.298  11.011  67.527  1.00  0.00    -0.160 S  
HETATM    4  H1  UNL     1      -9.123  12.437  69.154  1.00  0.00     0.000 HD 
HETATM    5  O   UNL     1     -10.399  10.395  68.225  1.00  0.00    -0.157 OA 
HETATM    6  O   UNL     1      -8.305  10.226  66.828  1.00  0.00    -0.122 OA 
ENDROOT
BRANCH   3   7
HETATM    7  C   UNL     1      -9.931  12.239  66.430  1.00  0.00    -0.228 A  
HETATM    8  C   UNL     1     -10.189  11.953  65.090  1.00  0.00    -0.277 A  
HETATM    9 CL   UNL     1     -10.015  10.392  64.377  1.00  0.00    -0.405 Cl 
HETATM   10  C   UNL     1     -10.583  12.989  64.237  1.00  0.00    -0.434 A  
HETATM   11  C   UNL     1     -10.680  14.300  64.705  1.00  0.00    -0.435 A  
HETATM   12  C   UNL     1     -10.400  14.608  66.047  1.00  0.00    -0.317 A  
HETATM   13  C   UNL     1     -10.056  13.553  66.914  1.00  0.00    -0.256 A  
BRANCH  12  14
HETATM   14  C   UNL     1     -10.278  16.063  66.487  1.00  0.00    -0.293 C  
HETATM   15  O   UNL     1     -10.637  16.943  65.447  1.00  0.00    -0.579 OA 
HETATM   16  N   UNL     1     -11.099  16.409  67.606  1.00  0.00    -0.215 N  
HETATM   17  H   UNL     1     -10.561  17.850  65.721  1.00  0.00     0.000 HD 
HETATM   18  H   UNL     1     -12.119  16.418  67.580  1.00  0.00     0.000 HD 
HETATM   19  C   UNL     1     -10.361  16.727  68.721  1.00  0.00    -0.318 C  
HETATM   20  O   UNL     1     -10.787  16.946  69.838  1.00  0.00    -0.254 OA 
HETATM   21  C   UNL     1      -8.944  16.709  68.329  1.00  0.00    -0.214 A  
HETATM   22  C   UNL     1      -7.810  16.915  69.095  1.00  0.00    -0.116 A  
HETATM   23  C   UNL     1      -6.574  16.766  68.461  1.00  0.00    -0.161 A  
HETATM   24  C   UNL     1      -6.502  16.440  67.094  1.00  0.00    -0.227 A  
HETATM   25  C   UNL     1      -7.665  16.240  66.343  1.00  0.00    -0.193 A  
HETATM   26  C   UNL     1      -8.889  16.362  66.981  1.00  0.00    -0.222 A  
ENDBRANCH  12  14
ENDBRANCH   3   7
TORSDOF 2
ENDMDL
MODEL       88
REMARK 921   NORMALIZED FREE ENERGY PREDICTED BY IDOCK:   -5.34 KCAL/MOL
REMARK 922        TOTAL FREE ENERGY PREDICTED BY IDOCK:   -6.44 KCAL/MOL
REMARK 923 INTER-LIGAND FREE ENERGY PREDICTED BY IDOCK:   -5.65 KCAL/MOL
REMARK 924 INTRA-LIGAND FREE ENERGY PREDICTED BY IDOCK:   -0.79 KCAL/MOL
REMARK 927      BINDING AFFINITY PREDICTED BY RF-SCORE:    0.00 PKD
ROOT
HETATM    1  N   UNL     1      -7.166  10.898  64.979  1.00  0.00    -0.339 N  
HETATM    2  H2  UNL     1      -7.360  11.279  64.053  1.00  0.00     0.000 HD 
HETATM    3  S   UNL     1      -7.818   9.523  65.682  1.00  0.00    -0.103 S  
HETATM    4  H1  UNL     1      -6.531  11.271  65.685  1.00  0.00     0.000 HD 
HETATM    5  O   UNL     1      -6.715   8.748  66.194  1.00  0.00    -0.070 OA 
HETATM    6  O   UNL     1      -8.718   8.995  64.680  1.00  0.00    -0.179 OA 
ENDROOT
BRANCH   3   7
HETATM    7  C   UNL     1      -8.766  10.136  67.036  1.00  0.00    -0.132 A  
HETATM    8  C   UNL     1      -9.474   9.277  67.876  1.00  0.00    -0.137 A  
HETATM    9 CL   UNL     1      -9.443   7.555  67.758  1.00  0.00    -0.149 Cl 
HETATM   10  C   UNL     1     -10.299   9.820  68.865  1.00  0.00    -0.225 A  
HETATM   11  C   UNL     1     -10.447  11.201  68.992  1.00  0.00    -0.233 A  
HETATM   12  C   UNL     1      -9.759  12.080  68.138  1.00  0.00    -0.199 A  
HETATM   13  C   UNL     1      -8.888  11.529  67.179  1.00  0.00    -0.168 A  
BRANCH  12  14
HETATM   14  C   UNL     1     -10.109  13.564  68.127  1.00  0.00    -0.250 C  
HETATM   15  O   UNL     1     -10.678  13.963  69.352  1.00  0.00    -0.419 OA 
HETATM   16  N   UNL     1      -8.990  14.429  67.905  1.00  0.00    -0.179 N  
HETATM   17  H   UNL     1     -10.896  14.888  69.346  1.00  0.00     0.000 HD 
HETATM   18  H   UNL     1      -8.215  14.533  68.559  1.00  0.00     0.000 HD 
HETATM   19  C   UNL     1      -9.078  15.103  66.710  1.00  0.00    -0.256 C  
HETATM   20  O   UNL     1      -8.226  15.811  66.210  1.00  0.00    -0.243 OA 
HETATM   21  C   UNL     1     -10.381  14.775  66.115  1.00  0.00    -0.314 A  
HETATM   22  C   UNL     1     -10.923  15.160  64.902  1.00  0.00    -0.434 A  
HETATM   23  C   UNL     1     -12.171  14.632  64.562  1.00  0.00    -0.473 A  
HETATM   24  C   UNL     1     -12.846  13.761  65.438  1.00  0.00    -0.455 A  
HETATM   25  C   UNL     1     -12.275  13.390  66.659  1.00  0.00    -0.391 A  
HETATM   26  C   UNL     1     -11.025  13.894  66.981  1.00  0.00    -0.301 A  
ENDBRANCH  12  14
ENDBRANCH   3   7
TORSDOF 2
ENDMDL
MODEL       89
REMARK 921   NORMALIZED FREE ENERGY PREDICTED BY IDOCK:   -5.33 KCAL/MOL
REMARK 922        TOTAL FREE ENERGY PREDICTED BY IDOCK:   -6.43 KCAL/MOL
REMARK 923 INTER-LIGAND FREE ENERGY PREDICTED BY IDOCK:   -6.44 KCAL/MOL
REMARK 924 INTRA-LIGAND FREE ENERGY PREDICTED BY IDOCK:    0.01 KCAL/MOL
REMARK 927      BINDING AFFINITY PREDICTED BY RF-SCORE:    0.00 PKD
ROOT
HETATM    1  N   UNL     1     -11.682  12.697  63.073  1.00  0.00    -0.759 N  
HETATM    2  H2  UNL     1     -11.470  13.042  62.137  1.00  0.00     0.000 HD 
HETATM    3  S   UNL     1     -12.279  13.568  64.376  1.00  0.00    -0.369 S  
HETATM    4  H1  UNL     1     -11.579  11.746  63.426  1.00  0.00     0.000 HD 
HETATM    5  O   UNL     1     -13.399  12.827  64.901  1.00  0.00    -0.736 OA 
HETATM    6  O   UNL     1     -12.425  14.917  63.876  1.00  0.00    -0.806 OA 
ENDROOT
BRANCH   3   7
HETATM    7  C   UNL     1     -10.968  13.535  65.556  1.00  0.00    -0.288 A  
HETATM    8  C   UNL     1     -10.327  14.704  65.963  1.00  0.00    -0.305 A  
HETATM    9 CL   UNL     1     -10.778  16.290  65.453  1.00  0.00    -0.381 Cl 
HETATM   10  C   UNL     1      -9.222  14.613  66.815  1.00  0.00    -0.285 A  
HETATM   11  C   UNL     1      -8.738  13.370  67.224  1.00  0.00    -0.219 A  
HETATM   12  C   UNL     1      -9.357  12.182  66.802  1.00  0.00    -0.212 A  
HETATM   13  C   UNL     1     -10.502  12.281  65.990  1.00  0.00    -0.284 A  
BRANCH  12  14
HETATM   14  C   UNL     1      -8.683  10.838  67.057  1.00  0.00    -0.136 C  
HETATM   15  O   UNL     1      -8.750  10.009  65.920  1.00  0.00    -0.134 OA 
HETATM   16  N   UNL     1      -7.299  10.932  67.404  1.00  0.00    -0.095 N  
HETATM   17  H   UNL     1      -8.330   9.172  66.079  1.00  0.00     0.000 HD 
HETATM   18  H   UNL     1      -6.576  11.265  66.766  1.00  0.00     0.000 HD 
HETATM   19  C   UNL     1      -7.052  10.524  68.693  1.00  0.00    -0.077 C  
HETATM   20  O   UNL     1      -5.996  10.602  69.292  1.00  0.00    -0.040 OA 
HETATM   21  C   UNL     1      -8.315  10.013  69.242  1.00  0.00    -0.154 A  
HETATM   22  C   UNL     1      -8.602   9.534  70.508  1.00  0.00    -0.231 A  
HETATM   23  C   UNL     1      -9.927   9.176  70.772  1.00  0.00    -0.334 A  
HETATM   24  C   UNL     1     -10.914   9.286  69.775  1.00  0.00    -0.213 A  
HETATM   25  C   UNL     1     -10.595   9.772  68.503  1.00  0.00    -0.252 A  
HETATM   26  C   UNL     1      -9.286  10.152  68.252  1.00  0.00    -0.130 A  
ENDBRANCH  12  14
ENDBRANCH   3   7
TORSDOF 2
ENDMDL
MODEL       90
REMARK 921   NORMALIZED FREE ENERGY PREDICTED BY IDOCK:   -5.29 KCAL/MOL
REMARK 922        TOTAL FREE ENERGY PREDICTED BY IDOCK:   -6.38 KCAL/MOL
REMARK 923 INTER-LIGAND FREE ENERGY PREDICTED BY IDOCK:   -5.97 KCAL/MOL
REMARK 924 INTRA-LIGAND FREE ENERGY PREDICTED BY IDOCK:   -0.42 KCAL/MOL
REMARK 927      BINDING AFFINITY PREDICTED BY RF-SCORE:    0.00 PKD
ROOT
HETATM    1  N   UNL     1     -11.395   9.621  69.002  1.00  0.00    -0.460 N  
HETATM    2  H2  UNL     1     -12.176   9.693  69.653  1.00  0.00     0.000 HD 
HETATM    3  S   UNL     1      -9.772   9.410  69.364  1.00  0.00    -0.187 S  
HETATM    4  H1  UNL     1     -11.428   9.662  67.983  1.00  0.00     0.000 HD 
HETATM    5  O   UNL     1      -9.295   8.322  68.546  1.00  0.00    -0.139 OA 
HETATM    6  O   UNL     1      -9.727   9.353  70.809  1.00  0.00    -0.260 OA 
ENDROOT
BRANCH   3   7
HETATM    7  C   UNL     1      -9.009  10.907  68.828  1.00  0.00    -0.164 A  
HETATM    8  C   UNL     1      -7.630  11.088  68.907  1.00  0.00    -0.134 A  
HETATM    9 CL   UNL     1      -6.517   9.880  69.435  1.00  0.00    -0.044 Cl 
HETATM   10  C   UNL     1      -7.087  12.333  68.574  1.00  0.00    -0.099 A  
HETATM   11  C   UNL     1      -7.913  13.395  68.205  1.00  0.00    -0.150 A  
HETATM   12  C   UNL     1      -9.308  13.236  68.145  1.00  0.00    -0.220 A  
HETATM   13  C   UNL     1      -9.844  11.965  68.428  1.00  0.00    -0.201 A  
BRANCH  12  14
HETATM   14  C   UNL     1     -10.209  14.454  67.975  1.00  0.00    -0.228 C  
HETATM   15  O   UNL     1     -10.970  14.692  69.137  1.00  0.00    -0.245 OA 
HETATM   16  N   UNL     1      -9.507  15.670  67.701  1.00  0.00    -0.210 N  
HETATM   17  H   UNL     1     -11.532  15.451  69.031  1.00  0.00     0.000 HD 
HETATM   18  H   UNL     1      -8.880  16.125  68.364  1.00  0.00     0.000 HD 
HETATM   19  C   UNL     1      -9.771  16.156  66.443  1.00  0.00    -0.286 C  
HETATM   20  O   UNL     1      -9.233  17.101  65.899  1.00  0.00    -0.506 OA 
HETATM   21  C   UNL     1     -10.798  15.292  65.845  1.00  0.00    -0.345 A  
HETATM   22  C   UNL     1     -11.366  15.332  64.583  1.00  0.00    -0.364 A  
HETATM   23  C   UNL     1     -12.281  14.327  64.261  1.00  0.00    -0.451 A  
HETATM   24  C   UNL     1     -12.618  13.333  65.199  1.00  0.00    -0.512 A  
HETATM   25  C   UNL     1     -12.030  13.318  66.468  1.00  0.00    -0.448 A  
HETATM   26  C   UNL     1     -11.102  14.300  66.775  1.00  0.00    -0.316 A  
ENDBRANCH  12  14
ENDBRANCH   3   7
TORSDOF 2
ENDMDL
MODEL       91
REMARK 921   NORMALIZED FREE ENERGY PREDICTED BY IDOCK:   -5.28 KCAL/MOL
REMARK 922        TOTAL FREE ENERGY PREDICTED BY IDOCK:   -6.37 KCAL/MOL
REMARK 923 INTER-LIGAND FREE ENERGY PREDICTED BY IDOCK:   -6.48 KCAL/MOL
REMARK 924 INTRA-LIGAND FREE ENERGY PREDICTED BY IDOCK:    0.10 KCAL/MOL
REMARK 927      BINDING AFFINITY PREDICTED BY RF-SCORE:    0.00 PKD
ROOT
HETATM    1  N   UNL     1     -13.408  14.105  65.252  1.00  0.00    -0.545 N  
HETATM    2  H2  UNL     1     -14.024  13.293  65.231  1.00  0.00     0.000 HD 
HETATM    3  S   UNL     1     -12.136  14.455  64.217  1.00  0.00    -0.357 S  
HETATM    4  H1  UNL     1     -13.429  14.886  65.907  1.00  0.00     0.000 HD 
HETATM    5  O   UNL     1     -12.316  15.814  63.771  1.00  0.00    -0.698 OA 
HETATM    6  O   UNL     1     -12.107  13.347  63.289  1.00  0.00    -0.537 OA 
ENDROOT
BRANCH   3   7
HETATM    7  C   UNL     1     -10.706  14.375  65.246  1.00  0.00    -0.375 A  
HETATM    8  C   UNL     1      -9.930  13.219  65.323  1.00  0.00    -0.173 A  
HETATM    9 CL   UNL     1     -10.204  11.797  64.385  1.00  0.00    -0.309 Cl 
HETATM   10  C   UNL     1      -8.873  13.169  66.238  1.00  0.00     0.195 A  
HETATM   11  C   UNL     1      -8.617  14.243  67.091  1.00  0.00    -0.234 A  
HETATM   12  C   UNL     1      -9.406  15.405  67.043  1.00  0.00    -0.238 A  
HETATM   13  C   UNL     1     -10.434  15.471  66.084  1.00  0.00    -0.323 A  
BRANCH  12  14
HETATM   14  C   UNL     1      -9.272  16.464  68.132  1.00  0.00    -0.201 C  
HETATM   15  O   UNL     1     -10.477  16.622  68.842  1.00  0.00    -0.279 OA 
HETATM   16  N   UNL     1      -8.266  16.178  69.108  1.00  0.00    -0.240 N  
HETATM   17  H   UNL     1     -10.394  17.283  69.521  1.00  0.00     0.000 HD 
HETATM   18  H   UNL     1      -8.316  15.397  69.762  1.00  0.00     0.000 HD 
HETATM   19  C   UNL     1      -7.224  17.073  69.066  1.00  0.00    -0.229 C  
HETATM   20  O   UNL     1      -6.185  17.012  69.695  1.00  0.00    -0.228 OA 
HETATM   21  C   UNL     1      -7.572  18.107  68.081  1.00  0.00    -0.269 A  
HETATM   22  C   UNL     1      -6.839  19.195  67.641  1.00  0.00    -0.234 A  
HETATM   23  C   UNL     1      -7.401  19.980  66.631  1.00  0.00    -0.287 A  
HETATM   24  C   UNL     1      -8.671  19.674  66.106  1.00  0.00    -0.361 A  
HETATM   25  C   UNL     1      -9.390  18.568  66.570  1.00  0.00    -0.313 A  
HETATM   26  C   UNL     1      -8.818  17.776  67.553  1.00  0.00    -0.243 A  
ENDBRANCH  12  14
ENDBRANCH   3   7
TORSDOF 2
ENDMDL
MODEL       92
REMARK 921   NORMALIZED FREE ENERGY PREDICTED BY IDOCK:   -5.28 KCAL/MOL
REMARK 922        TOTAL FREE ENERGY PREDICTED BY IDOCK:   -6.37 KCAL/MOL
REMARK 923 INTER-LIGAND FREE ENERGY PREDICTED BY IDOCK:   -5.78 KCAL/MOL
REMARK 924 INTRA-LIGAND FREE ENERGY PREDICTED BY IDOCK:   -0.59 KCAL/MOL
REMARK 927      BINDING AFFINITY PREDICTED BY RF-SCORE:    0.00 PKD
ROOT
HETATM    1  N   UNL     1      -9.859   8.576  68.392  1.00  0.00    -0.167 N  
HETATM    2  H2  UNL     1      -9.469   8.882  69.283  1.00  0.00     0.000 HD 
HETATM    3  S   UNL     1      -9.048   8.343  66.943  1.00  0.00    -0.156 S  
HETATM    4  H1  UNL     1     -10.829   8.344  68.184  1.00  0.00     0.000 HD 
HETATM    5  O   UNL     1      -9.428   7.042  66.451  1.00  0.00    -0.175 OA 
HETATM    6  O   UNL     1      -7.672   8.673  67.239  1.00  0.00    -0.095 OA 
ENDROOT
BRANCH   3   7
HETATM    7  C   UNL     1      -9.713   9.577  65.871  1.00  0.00    -0.282 A  
HETATM    8  C   UNL     1      -9.346   9.647  64.528  1.00  0.00    -0.182 A  
HETATM    9 CL   UNL     1      -8.299   8.521  63.744  1.00  0.00    -0.128 Cl 
HETATM   10  C   UNL     1      -9.814  10.711  63.750  1.00  0.00    -0.394 A  
HETATM   11  C   UNL     1     -10.607  11.711  64.313  1.00  0.00    -0.394 A  
HETATM   12  C   UNL     1     -10.966  11.668  65.671  1.00  0.00    -0.322 A  
HETATM   13  C   UNL     1     -10.536  10.567  66.436  1.00  0.00    -0.218 A  
BRANCH  12  14
HETATM   14  C   UNL     1     -11.624  12.877  66.326  1.00  0.00    -0.372 C  
HETATM   15  O   UNL     1     -12.701  13.353  65.553  1.00  0.00    -0.482 OA 
HETATM   16  N   UNL     1     -12.150  12.623  67.632  1.00  0.00    -0.234 N  
HETATM   17  H   UNL     1     -13.112  14.106  65.961  1.00  0.00     0.000 HD 
HETATM   18  H   UNL     1     -12.932  11.995  67.816  1.00  0.00     0.000 HD 
HETATM   19  C   UNL     1     -11.482  13.319  68.611  1.00  0.00    -0.304 C  
HETATM   20  O   UNL     1     -11.634  13.212  69.813  1.00  0.00    -0.275 OA 
HETATM   21  C   UNL     1     -10.507  14.192  67.942  1.00  0.00    -0.237 A  
HETATM   22  C   UNL     1      -9.567  15.050  68.485  1.00  0.00    -0.210 A  
HETATM   23  C   UNL     1      -8.715  15.711  67.596  1.00  0.00    -0.182 A  
HETATM   24  C   UNL     1      -8.834  15.516  66.207  1.00  0.00    -0.338 A  
HETATM   25  C   UNL     1      -9.795  14.644  65.686  1.00  0.00    -0.354 A  
HETATM   26  C   UNL     1     -10.620  13.969  66.571  1.00  0.00    -0.279 A  
ENDBRANCH  12  14
ENDBRANCH   3   7
TORSDOF 2
ENDMDL
MODEL       93
REMARK 921   NORMALIZED FREE ENERGY PREDICTED BY IDOCK:   -5.28 KCAL/MOL
REMARK 922        TOTAL FREE ENERGY PREDICTED BY IDOCK:   -6.37 KCAL/MOL
REMARK 923 INTER-LIGAND FREE ENERGY PREDICTED BY IDOCK:   -5.90 KCAL/MOL
REMARK 924 INTRA-LIGAND FREE ENERGY PREDICTED BY IDOCK:   -0.47 KCAL/MOL
REMARK 927      BINDING AFFINITY PREDICTED BY RF-SCORE:    0.00 PKD
ROOT
HETATM    1  N   UNL     1      -7.603  19.030  69.064  1.00  0.00    -0.312 N  
HETATM    2  H2  UNL     1      -7.601  19.161  70.076  1.00  0.00     0.000 HD 
HETATM    3  S   UNL     1      -8.801  19.467  67.976  1.00  0.00    -0.331 S  
HETATM    4  H1  UNL     1      -6.877  18.603  68.490  1.00  0.00     0.000 HD 
HETATM    5  O   UNL     1      -8.157  20.189  66.907  1.00  0.00    -0.302 OA 
HETATM    6  O   UNL     1      -9.831  20.072  68.792  1.00  0.00    -0.329 OA 
ENDROOT
BRANCH   3   7
HETATM    7  C   UNL     1      -9.399  17.930  67.349  1.00  0.00    -0.257 A  
HETATM    8  C   UNL     1     -10.269  17.878  66.261  1.00  0.00    -0.363 A  
HETATM    9 CL   UNL     1     -10.785  19.256  65.359  1.00  0.00    -0.242 Cl 
HETATM   10  C   UNL     1     -10.802  16.644  65.875  1.00  0.00    -0.067 A  
HETATM   11  C   UNL     1     -10.501  15.483  66.588  1.00  0.00    -0.299 A  
HETATM   12  C   UNL     1      -9.645  15.523  67.702  1.00  0.00    -0.210 A  
HETATM   13  C   UNL     1      -9.070  16.758  68.053  1.00  0.00    -0.228 A  
BRANCH  12  14
HETATM   14  C   UNL     1      -9.515  14.304  68.608  1.00  0.00    -0.178 C  
HETATM   15  O   UNL     1      -8.286  14.309  69.297  1.00  0.00    -0.353 OA 
HETATM   16  N   UNL     1     -10.534  14.204  69.607  1.00  0.00    -0.428 N  
HETATM   17  H   UNL     1      -8.205  13.549  69.862  1.00  0.00     0.000 HD 
HETATM   18  H   UNL     1     -10.641  14.865  70.376  1.00  0.00     0.000 HD 
HETATM   19  C   UNL     1     -11.353  13.118  69.415  1.00  0.00    -0.213 C  
HETATM   20  O   UNL     1     -12.364  12.848  70.035  1.00  0.00    -0.234 OA 
HETATM   21  C   UNL     1     -10.811  12.353  68.282  1.00  0.00    -0.264 A  
HETATM   22  C   UNL     1     -11.296  11.212  67.670  1.00  0.00    -0.356 A  
HETATM   23  C   UNL     1     -10.601  10.738  66.555  1.00  0.00    -0.279 A  
HETATM   24  C   UNL     1      -9.444  11.396  66.097  1.00  0.00    -0.237 A  
HETATM   25  C   UNL     1      -8.975  12.548  66.736  1.00  0.00    -0.198 A  
HETATM   26  C   UNL     1      -9.682  13.030  67.826  1.00  0.00    -0.218 A  
ENDBRANCH  12  14
ENDBRANCH   3   7
TORSDOF 2
ENDMDL
MODEL       94
REMARK 921   NORMALIZED FREE ENERGY PREDICTED BY IDOCK:   -5.28 KCAL/MOL
REMARK 922        TOTAL FREE ENERGY PREDICTED BY IDOCK:   -6.37 KCAL/MOL
REMARK 923 INTER-LIGAND FREE ENERGY PREDICTED BY IDOCK:   -5.79 KCAL/MOL
REMARK 924 INTRA-LIGAND FREE ENERGY PREDICTED BY IDOCK:   -0.58 KCAL/MOL
REMARK 927      BINDING AFFINITY PREDICTED BY RF-SCORE:    0.00 PKD
ROOT
HETATM    1  N   UNL     1      -6.632   8.526  71.654  1.00  0.00    -0.067 N  
HETATM    2  H2  UNL     1      -5.979   7.917  71.162  1.00  0.00     0.000 HD 
HETATM    3  S   UNL     1      -8.114   8.116  72.322  1.00  0.00    -0.147 S  
HETATM    4  H1  UNL     1      -6.529   9.522  71.849  1.00  0.00     0.000 HD 
HETATM    5  O   UNL     1      -8.126   8.630  73.669  1.00  0.00    -0.406 OA 
HETATM    6  O   UNL     1      -8.260   6.704  72.045  1.00  0.00    -0.106 OA 
ENDROOT
BRANCH   3   7
HETATM    7  C   UNL     1      -9.288   9.012  71.357  1.00  0.00    -0.240 A  
HETATM    8  C   UNL     1     -10.659   8.822  71.520  1.00  0.00    -0.309 A  
HETATM    9 CL   UNL     1     -11.365   7.790  72.710  1.00  0.00    -0.444 Cl 
HETATM   10  C   UNL     1     -11.544   9.473  70.654  1.00  0.00    -0.350 A  
HETATM   11  C   UNL     1     -11.066  10.271  69.615  1.00  0.00    -0.323 A  
HETATM   12  C   UNL     1      -9.686  10.452  69.421  1.00  0.00    -0.222 A  
HETATM   13  C   UNL     1      -8.802   9.839  70.329  1.00  0.00    -0.188 A  
BRANCH  12  14
HETATM   14  C   UNL     1      -9.175  11.125  68.152  1.00  0.00    -0.166 C  
HETATM   15  O   UNL     1      -7.871  11.628  68.330  1.00  0.00    -0.121 OA 
HETATM   16  N   UNL     1      -9.119  10.261  67.013  1.00  0.00    -0.139 N  
HETATM   17  H   UNL     1      -7.553  12.047  67.539  1.00  0.00     0.000 HD 
HETATM   18  H   UNL     1      -8.492   9.460  66.938  1.00  0.00     0.000 HD 
HETATM   19  C   UNL     1     -10.006  10.631  66.030  1.00  0.00    -0.239 C  
HETATM   20  O   UNL     1     -10.257  10.021  65.008  1.00  0.00    -0.280 OA 
HETATM   21  C   UNL     1     -10.639  11.886  66.459  1.00  0.00    -0.278 A  
HETATM   22  C   UNL     1     -11.629  12.633  65.846  1.00  0.00    -0.443 A  
HETATM   23  C   UNL     1     -12.093  13.761  66.527  1.00  0.00    -0.483 A  
HETATM   24  C   UNL     1     -11.551  14.121  67.776  1.00  0.00    -0.379 A  
HETATM   25  C   UNL     1     -10.550  13.348  68.371  1.00  0.00    -0.259 A  
HETATM   26  C   UNL     1     -10.110  12.214  67.705  1.00  0.00    -0.203 A  
ENDBRANCH  12  14
ENDBRANCH   3   7
TORSDOF 2
ENDMDL
MODEL       95
REMARK 921   NORMALIZED FREE ENERGY PREDICTED BY IDOCK:   -5.27 KCAL/MOL
REMARK 922        TOTAL FREE ENERGY PREDICTED BY IDOCK:   -6.36 KCAL/MOL
REMARK 923 INTER-LIGAND FREE ENERGY PREDICTED BY IDOCK:   -5.84 KCAL/MOL
REMARK 924 INTRA-LIGAND FREE ENERGY PREDICTED BY IDOCK:   -0.52 KCAL/MOL
REMARK 927      BINDING AFFINITY PREDICTED BY RF-SCORE:    0.00 PKD
ROOT
HETATM    1  N   UNL     1      -9.255  10.706  68.915  1.00  0.00    -0.179 N  
HETATM    2  H2  UNL     1      -8.353  10.395  69.276  1.00  0.00     0.000 HD 
HETATM    3  S   UNL     1      -9.814  10.617  67.337  1.00  0.00    -0.174 S  
HETATM    4  H1  UNL     1     -10.017  11.142  69.434  1.00  0.00     0.000 HD 
HETATM    5  O   UNL     1     -11.130  10.028  67.389  1.00  0.00    -0.257 OA 
HETATM    6  O   UNL     1      -8.733  10.000  66.602  1.00  0.00    -0.128 OA 
ENDROOT
BRANCH   3   7
HETATM    7  C   UNL     1      -9.960  12.301  66.832  1.00  0.00    -0.213 A  
HETATM    8  C   UNL     1     -10.317  12.640  65.529  1.00  0.00    -0.286 A  
HETATM    9 CL   UNL     1     -10.740  11.499  64.305  1.00  0.00    -0.389 Cl 
HETATM   10  C   UNL     1     -10.309  13.987  65.150  1.00  0.00    -0.422 A  
HETATM   11  C   UNL     1      -9.912  14.978  66.048  1.00  0.00    -0.334 A  
HETATM   12  C   UNL     1      -9.525  14.649  67.358  1.00  0.00    -0.201 A  
HETATM   13  C   UNL     1      -9.587  13.298  67.750  1.00  0.00    -0.214 A  
BRANCH  12  14
HETATM   14  C   UNL     1      -8.871  15.701  68.247  1.00  0.00    -0.180 C  
HETATM   15  O   UNL     1      -9.120  15.445  69.610  1.00  0.00    -0.330 OA 
HETATM   16  N   UNL     1      -7.449  15.784  68.109  1.00  0.00    -0.121 N  
HETATM   17  H   UNL     1      -8.713  16.100  70.164  1.00  0.00     0.000 HD 
HETATM   18  H   UNL     1      -6.809  15.039  68.381  1.00  0.00     0.000 HD 
HETATM   19  C   UNL     1      -7.044  16.980  67.568  1.00  0.00    -0.152 C  
HETATM   20  O   UNL     1      -5.914  17.283  67.233  1.00  0.00    -0.120 OA 
HETATM   21  C   UNL     1      -8.238  17.824  67.421  1.00  0.00    -0.221 A  
HETATM   22  C   UNL     1      -8.367  19.093  66.885  1.00  0.00    -0.300 A  
HETATM   23  C   UNL     1      -9.655  19.629  66.812  1.00  0.00    -0.474 A  
HETATM   24  C   UNL     1     -10.764  18.904  67.286  1.00  0.00    -0.523 A  
HETATM   25  C   UNL     1     -10.604  17.624  67.825  1.00  0.00    -0.380 A  
HETATM   26  C   UNL     1      -9.329  17.083  67.872  1.00  0.00    -0.240 A  
ENDBRANCH  12  14
ENDBRANCH   3   7
TORSDOF 2
ENDMDL
MODEL       96
REMARK 921   NORMALIZED FREE ENERGY PREDICTED BY IDOCK:   -5.26 KCAL/MOL
REMARK 922        TOTAL FREE ENERGY PREDICTED BY IDOCK:   -6.35 KCAL/MOL
REMARK 923 INTER-LIGAND FREE ENERGY PREDICTED BY IDOCK:   -5.78 KCAL/MOL
REMARK 924 INTRA-LIGAND FREE ENERGY PREDICTED BY IDOCK:   -0.57 KCAL/MOL
REMARK 927      BINDING AFFINITY PREDICTED BY RF-SCORE:    0.00 PKD
ROOT
HETATM    1  N   UNL     1     -10.144   6.265  71.358  1.00  0.00    -0.189 N  
HETATM    2  H2  UNL     1     -10.246   5.461  70.739  1.00  0.00     0.000 HD 
HETATM    3  S   UNL     1     -11.328   6.997  72.293  1.00  0.00    -0.274 S  
HETATM    4  H1  UNL     1      -9.298   6.804  71.546  1.00  0.00     0.000 HD 
HETATM    5  O   UNL     1     -10.792   7.128  73.626  1.00  0.00    -0.352 OA 
HETATM    6  O   UNL     1     -12.526   6.233  72.026  1.00  0.00    -0.306 OA 
ENDROOT
BRANCH   3   7
HETATM    7  C   UNL     1     -11.506   8.604  71.588  1.00  0.00    -0.305 A  
HETATM    8  C   UNL     1     -12.707   9.306  71.673  1.00  0.00    -0.364 A  
HETATM    9 CL   UNL     1     -14.099   8.754  72.529  1.00  0.00    -0.472 Cl 
HETATM   10  C   UNL     1     -12.831  10.527  71.001  1.00  0.00    -0.502 A  
HETATM   11  C   UNL     1     -11.784  11.021  70.223  1.00  0.00    -0.445 A  
HETATM   12  C   UNL     1     -10.575  10.313  70.106  1.00  0.00    -0.303 A  
HETATM   13  C   UNL     1     -10.437   9.113  70.828  1.00  0.00    -0.322 A  
BRANCH  12  14
HETATM   14  C   UNL     1      -9.538  10.738  69.073  1.00  0.00    -0.180 C  
HETATM   15  O   UNL     1      -9.870  11.979  68.496  1.00  0.00    -0.220 OA 
HETATM   16  N   UNL     1      -8.214  10.881  69.596  1.00  0.00    -0.357 N  
HETATM   17  H   UNL     1      -9.224  12.244  67.852  1.00  0.00     0.000 HD 
HETATM   18  H   UNL     1      -7.946  11.593  70.276  1.00  0.00     0.000 HD 
HETATM   19  C   UNL     1      -7.343   9.952  69.080  1.00  0.00    -0.080 C  
HETATM   20  O   UNL     1      -6.192   9.763  69.423  1.00  0.00    -0.043 OA 
HETATM   21  C   UNL     1      -8.071   9.187  68.058  1.00  0.00    -0.105 A  
HETATM   22  C   UNL     1      -7.653   8.116  67.288  1.00  0.00    -0.097 A  
HETATM   23  C   UNL     1      -8.596   7.535  66.435  1.00  0.00    -0.145 A  
HETATM   24  C   UNL     1      -9.906   8.042  66.360  1.00  0.00    -0.237 A  
HETATM   25  C   UNL     1     -10.300   9.127  67.148  1.00  0.00    -0.337 A  
HETATM   26  C   UNL     1      -9.371   9.685  68.013  1.00  0.00    -0.142 A  
ENDBRANCH  12  14
ENDBRANCH   3   7
TORSDOF 2
ENDMDL
MODEL       97
REMARK 921   NORMALIZED FREE ENERGY PREDICTED BY IDOCK:   -5.23 KCAL/MOL
REMARK 922        TOTAL FREE ENERGY PREDICTED BY IDOCK:   -6.31 KCAL/MOL
REMARK 923 INTER-LIGAND FREE ENERGY PREDICTED BY IDOCK:   -5.78 KCAL/MOL
REMARK 924 INTRA-LIGAND FREE ENERGY PREDICTED BY IDOCK:   -0.54 KCAL/MOL
REMARK 927      BINDING AFFINITY PREDICTED BY RF-SCORE:    0.00 PKD
ROOT
HETATM    1  N   UNL     1     -11.836  15.031  67.661  1.00  0.00    -0.425 N  
HETATM    2  H2  UNL     1     -12.600  15.705  67.608  1.00  0.00     0.000 HD 
HETATM    3  S   UNL     1     -10.392  15.047  66.811  1.00  0.00    -0.276 S  
HETATM    4  H1  UNL     1     -11.782  14.196  68.245  1.00  0.00     0.000 HD 
HETATM    5  O   UNL     1      -9.333  14.862  67.773  1.00  0.00    -0.191 OA 
HETATM    6  O   UNL     1     -10.470  16.231  65.984  1.00  0.00    -0.325 OA 
ENDROOT
BRANCH   3   7
HETATM    7  C   UNL     1     -10.481  13.621  65.777  1.00  0.00    -0.293 A  
HETATM    8  C   UNL     1     -11.424  13.523  64.755  1.00  0.00    -0.346 A  
HETATM    9 CL   UNL     1     -12.528  14.777  64.324  1.00  0.00    -0.396 Cl 
HETATM   10  C   UNL     1     -11.528  12.327  64.037  1.00  0.00    -0.483 A  
HETATM   11  C   UNL     1     -10.728  11.230  64.360  1.00  0.00    -0.407 A  
HETATM   12  C   UNL     1      -9.789  11.306  65.403  1.00  0.00    -0.281 A  
HETATM   13  C   UNL     1      -9.652  12.529  66.086  1.00  0.00    -0.230 A  
BRANCH  12  14
HETATM   14  C   UNL     1      -9.097  10.041  65.900  1.00  0.00    -0.159 C  
HETATM   15  O   UNL     1      -9.426   8.930  65.099  1.00  0.00    -0.448 OA 
HETATM   16  N   UNL     1      -7.668  10.120  65.909  1.00  0.00    -0.121 N  
HETATM   17  H   UNL     1      -8.994   8.142  65.409  1.00  0.00     0.000 HD 
HETATM   18  H   UNL     1      -7.099  10.197  65.066  1.00  0.00     0.000 HD 
HETATM   19  C   UNL     1      -7.148  10.079  67.180  1.00  0.00    -0.089 C  
HETATM   20  O   UNL     1      -5.985  10.241  67.498  1.00  0.00    -0.052 OA 
HETATM   21  C   UNL     1      -8.267   9.850  68.106  1.00  0.00    -0.109 A  
HETATM   22  C   UNL     1      -8.274   9.777  69.487  1.00  0.00    -0.146 A  
HETATM   23  C   UNL     1      -9.512   9.616  70.113  1.00  0.00    -0.298 A  
HETATM   24  C   UNL     1     -10.694   9.514  69.355  1.00  0.00    -0.244 A  
HETATM   25  C   UNL     1     -10.657   9.590  67.960  1.00  0.00    -0.282 A  
HETATM   26  C   UNL     1      -9.430   9.776  67.342  1.00  0.00    -0.178 A  
ENDBRANCH  12  14
ENDBRANCH   3   7
TORSDOF 2
ENDMDL
MODEL       98
REMARK 921   NORMALIZED FREE ENERGY PREDICTED BY IDOCK:   -5.21 KCAL/MOL
REMARK 922        TOTAL FREE ENERGY PREDICTED BY IDOCK:   -6.30 KCAL/MOL
REMARK 923 INTER-LIGAND FREE ENERGY PREDICTED BY IDOCK:   -5.90 KCAL/MOL
REMARK 924 INTRA-LIGAND FREE ENERGY PREDICTED BY IDOCK:   -0.39 KCAL/MOL
REMARK 927      BINDING AFFINITY PREDICTED BY RF-SCORE:    0.00 PKD
ROOT
HETATM    1  N   UNL     1     -13.332  14.184  65.555  1.00  0.00    -0.592 N  
HETATM    2  H2  UNL     1     -13.701  14.775  64.810  1.00  0.00     0.000 HD 
HETATM    3  S   UNL     1     -11.801  14.230  66.238  1.00  0.00    -0.400 S  
HETATM    4  H1  UNL     1     -13.812  13.433  66.050  1.00  0.00     0.000 HD 
HETATM    5  O   UNL     1     -11.979  14.257  67.669  1.00  0.00    -0.383 OA 
HETATM    6  O   UNL     1     -11.121  15.295  65.535  1.00  0.00    -0.337 OA 
ENDROOT
BRANCH   3   7
HETATM    7  C   UNL     1     -11.075  12.690  65.780  1.00  0.00    -0.297 A  
HETATM    8  C   UNL     1     -11.081  12.248  64.458  1.00  0.00    -0.321 A  
HETATM    9 CL   UNL     1     -11.696  13.161  63.128  1.00  0.00    -0.283 Cl 
HETATM   10  C   UNL     1     -10.593  10.970  64.165  1.00  0.00    -0.412 A  
HETATM   11  C   UNL     1     -10.142  10.129  65.182  1.00  0.00    -0.329 A  
HETATM   12  C   UNL     1     -10.152  10.550  66.523  1.00  0.00    -0.280 A  
HETATM   13  C   UNL     1     -10.594  11.857  66.805  1.00  0.00    -0.264 A  
BRANCH  12  14
HETATM   14  C   UNL     1      -9.885   9.548  67.640  1.00  0.00    -0.165 C  
HETATM   15  O   UNL     1      -9.791  10.189  68.890  1.00  0.00    -0.172 OA 
HETATM   16  N   UNL     1     -10.893   8.542  67.780  1.00  0.00    -0.495 N  
HETATM   17  H   UNL     1      -9.624   9.565  69.587  1.00  0.00     0.000 HD 
HETATM   18  H   UNL     1     -11.850   8.736  68.073  1.00  0.00     0.000 HD 
HETATM   19  C   UNL     1     -10.427   7.286  67.474  1.00  0.00    -0.266 C  
HETATM   20  O   UNL     1     -11.083   6.265  67.395  1.00  0.00    -0.350 OA 
HETATM   21  C   UNL     1      -8.985   7.403  67.212  1.00  0.00    -0.128 A  
HETATM   22  C   UNL     1      -8.074   6.439  66.821  1.00  0.00    -0.109 A  
HETATM   23  C   UNL     1      -6.764   6.858  66.575  1.00  0.00    -0.052 A  
HETATM   24  C   UNL     1      -6.397   8.206  66.742  1.00  0.00    -0.055 A  
HETATM   25  C   UNL     1      -7.339   9.160  67.141  1.00  0.00    -0.087 A  
HETATM   26  C   UNL     1      -8.644   8.746  67.358  1.00  0.00    -0.126 A  
ENDBRANCH  12  14
ENDBRANCH   3   7
TORSDOF 2
ENDMDL
MODEL       99
REMARK 921   NORMALIZED FREE ENERGY PREDICTED BY IDOCK:   -5.19 KCAL/MOL
REMARK 922        TOTAL FREE ENERGY PREDICTED BY IDOCK:   -6.27 KCAL/MOL
REMARK 923 INTER-LIGAND FREE ENERGY PREDICTED BY IDOCK:   -6.14 KCAL/MOL
REMARK 924 INTRA-LIGAND FREE ENERGY PREDICTED BY IDOCK:   -0.13 KCAL/MOL
REMARK 927      BINDING AFFINITY PREDICTED BY RF-SCORE:    0.00 PKD
ROOT
HETATM    1  N   UNL     1     -11.502  15.206  72.074  1.00  0.00    -0.486 N  
HETATM    2  H2  UNL     1     -11.841  15.377  73.020  1.00  0.00     0.000 HD 
HETATM    3  S   UNL     1     -12.407  15.055  70.670  1.00  0.00    -0.379 S  
HETATM    4  H1  UNL     1     -10.536  15.090  71.770  1.00  0.00     0.000 HD 
HETATM    5  O   UNL     1     -11.811  15.926  69.688  1.00  0.00    -0.333 OA 
HETATM    6  O   UNL     1     -13.777  15.220  71.102  1.00  0.00    -0.467 OA 
ENDROOT
BRANCH   3   7
HETATM    7  C   UNL     1     -12.162  13.380  70.175  1.00  0.00    -0.315 A  
HETATM    8  C   UNL     1     -12.601  12.317  70.963  1.00  0.00    -0.257 A  
HETATM    9 CL   UNL     1     -13.491  12.496  72.431  1.00  0.00    -0.541 Cl 
HETATM   10  C   UNL     1     -12.283  11.010  70.581  1.00  0.00    -0.481 A  
HETATM   11  C   UNL     1     -11.505  10.768  69.449  1.00  0.00    -0.366 A  
HETATM   12  C   UNL     1     -11.034  11.829  68.658  1.00  0.00    -0.269 A  
HETATM   13  C   UNL     1     -11.403  13.139  69.017  1.00  0.00    -0.332 A  
BRANCH  12  14
HETATM   14  C   UNL     1      -9.996  11.569  67.571  1.00  0.00    -0.190 C  
HETATM   15  O   UNL     1     -10.336  12.226  66.372  1.00  0.00    -0.221 OA 
HETATM   16  N   UNL     1      -8.675  12.005  67.906  1.00  0.00    -0.162 N  
HETATM   17  H   UNL     1      -9.689  12.064  65.695  1.00  0.00     0.000 HD 
HETATM   18  H   UNL     1      -8.416  12.983  68.033  1.00  0.00     0.000 HD 
HETATM   19  C   UNL     1      -7.795  10.958  68.038  1.00  0.00    -0.107 C  
HETATM   20  O   UNL     1      -6.644  11.019  68.425  1.00  0.00    -0.057 OA 
HETATM   21  C   UNL     1      -8.513   9.731  67.667  1.00  0.00    -0.122 A  
HETATM   22  C   UNL     1      -8.085   8.415  67.679  1.00  0.00    -0.118 A  
HETATM   23  C   UNL     1      -9.019   7.435  67.337  1.00  0.00    -0.124 A  
HETATM   24  C   UNL     1     -10.333   7.788  66.978  1.00  0.00    -0.405 A  
HETATM   25  C   UNL     1     -10.739   9.126  66.973  1.00  0.00    -0.189 A  
HETATM   26  C   UNL     1      -9.817  10.094  67.339  1.00  0.00    -0.225 A  
ENDBRANCH  12  14
ENDBRANCH   3   7
TORSDOF 2
ENDMDL
MODEL      100
REMARK 921   NORMALIZED FREE ENERGY PREDICTED BY IDOCK:   -5.18 KCAL/MOL
REMARK 922        TOTAL FREE ENERGY PREDICTED BY IDOCK:   -6.26 KCAL/MOL
REMARK 923 INTER-LIGAND FREE ENERGY PREDICTED BY IDOCK:   -6.11 KCAL/MOL
REMARK 924 INTRA-LIGAND FREE ENERGY PREDICTED BY IDOCK:   -0.15 KCAL/MOL
REMARK 927      BINDING AFFINITY PREDICTED BY RF-SCORE:    0.00 PKD
ROOT
HETATM    1  N   UNL     1     -13.778  10.045  70.334  1.00  0.00    -0.251 N  
HETATM    2  H2  UNL     1     -14.628  10.513  70.022  1.00  0.00     0.000 HD 
HETATM    3  S   UNL     1     -12.437  10.735  71.068  1.00  0.00    -0.442 S  
HETATM    4  H1  UNL     1     -13.553   9.052  70.269  1.00  0.00     0.000 HD 
HETATM    5  O   UNL     1     -12.144   9.945  72.239  1.00  0.00    -0.045 OA 
HETATM    6  O   UNL     1     -12.756  12.142  71.160  1.00  0.00    -0.358 OA 
ENDROOT
BRANCH   3   7
HETATM    7  C   UNL     1     -11.140  10.519  69.892  1.00  0.00    -0.307 A  
HETATM    8  C   UNL     1     -10.034   9.717  70.169  1.00  0.00    -0.263 A  
HETATM    9 CL   UNL     1      -9.840   8.789  71.611  1.00  0.00    -0.351 Cl 
HETATM   10  C   UNL     1      -8.981   9.669  69.249  1.00  0.00    -0.173 A  
HETATM   11  C   UNL     1      -9.014  10.441  68.087  1.00  0.00    -0.132 A  
HETATM   12  C   UNL     1     -10.111  11.273  67.806  1.00  0.00    -0.199 A  
HETATM   13  C   UNL     1     -11.191  11.276  68.709  1.00  0.00    -0.311 A  
BRANCH  12  14
HETATM   14  C   UNL     1     -10.030  12.283  66.666  1.00  0.00    -0.215 C  
HETATM   15  O   UNL     1      -9.041  11.920  65.731  1.00  0.00    -0.386 OA 
HETATM   16  N   UNL     1     -11.246  12.431  65.927  1.00  0.00    -0.320 N  
HETATM   17  H   UNL     1      -8.991  12.549  65.021  1.00  0.00     0.000 HD 
HETATM   18  H   UNL     1     -11.654  11.694  65.353  1.00  0.00     0.000 HD 
HETATM   19  C   UNL     1     -11.803  13.678  66.078  1.00  0.00    -0.385 C  
HETATM   20  O   UNL     1     -12.885  14.048  65.663  1.00  0.00    -0.545 OA 
HETATM   21  C   UNL     1     -10.870  14.483  66.878  1.00  0.00    -0.305 A  
HETATM   22  C   UNL     1     -10.990  15.781  67.341  1.00  0.00    -0.279 A  
HETATM   23  C   UNL     1      -9.961  16.271  68.149  1.00  0.00    -0.239 A  
HETATM   24  C   UNL     1      -8.844  15.471  68.455  1.00  0.00    -0.183 A  
HETATM   25  C   UNL     1      -8.747  14.162  67.972  1.00  0.00    -0.177 A  
HETATM   26  C   UNL     1      -9.783  13.670  67.192  1.00  0.00    -0.245 A  
ENDBRANCH  12  14
ENDBRANCH   3   7
TORSDOF 2
ENDMDL
MODEL      101
REMARK 921   NORMALIZED FREE ENERGY PREDICTED BY IDOCK:   -5.13 KCAL/MOL
REMARK 922        TOTAL FREE ENERGY PREDICTED BY IDOCK:   -6.20 KCAL/MOL
REMARK 923 INTER-LIGAND FREE ENERGY PREDICTED BY IDOCK:   -5.71 KCAL/MOL
REMARK 924 INTRA-LIGAND FREE ENERGY PREDICTED BY IDOCK:   -0.50 KCAL/MOL
REMARK 927      BINDING AFFINITY PREDICTED BY RF-SCORE:    0.00 PKD
ROOT
HETATM    1  N   UNL     1     -12.208   7.683  71.433  1.00  0.00    -0.316 N  
HETATM    2  H2  UNL     1     -13.170   7.550  71.743  1.00  0.00     0.000 HD 
HETATM    3  S   UNL     1     -11.344   9.118  71.354  1.00  0.00    -0.372 S  
HETATM    4  H1  UNL     1     -11.556   6.972  71.100  1.00  0.00     0.000 HD 
HETATM    5  O   UNL     1     -10.079   8.885  72.005  1.00  0.00    -0.332 OA 
HETATM    6  O   UNL     1     -12.269  10.125  71.825  1.00  0.00    -0.374 OA 
ENDROOT
BRANCH   3   7
HETATM    7  C   UNL     1     -11.064   9.362  69.630  1.00  0.00    -0.142 A  
HETATM    8  C   UNL     1     -10.404   8.407  68.859  1.00  0.00    -0.215 A  
HETATM    9 CL   UNL     1      -9.873   6.874  69.450  1.00  0.00    -0.157 Cl 
HETATM   10  C   UNL     1     -10.108   8.696  67.523  1.00  0.00    -0.277 A  
HETATM   11  C   UNL     1     -10.432   9.938  66.974  1.00  0.00    -0.296 A  
HETATM   12  C   UNL     1     -11.076  10.920  67.745  1.00  0.00    -0.371 A  
HETATM   13  C   UNL     1     -11.420  10.603  69.073  1.00  0.00    -0.342 A  
BRANCH  12  14
HETATM   14  C   UNL     1     -11.209  12.343  67.213  1.00  0.00    -0.303 C  
HETATM   15  O   UNL     1     -11.471  12.348  65.829  1.00  0.00    -0.335 OA 
HETATM   16  N   UNL     1     -12.257  13.102  67.823  1.00  0.00    -0.192 N  
HETATM   17  H   UNL     1     -11.554  13.235  65.497  1.00  0.00     0.000 HD 
HETATM   18  H   UNL     1     -13.248  12.885  67.720  1.00  0.00     0.000 HD 
HETATM   19  C   UNL     1     -11.779  14.156  68.563  1.00  0.00    -0.345 C  
HETATM   20  O   UNL     1     -12.426  14.897  69.279  1.00  0.00    -0.135 OA 
HETATM   21  C   UNL     1     -10.323  14.203  68.372  1.00  0.00    -0.249 A  
HETATM   22  C   UNL     1      -9.381  15.046  68.936  1.00  0.00    -0.208 A  
HETATM   23  C   UNL     1      -8.041  14.811  68.620  1.00  0.00    -0.153 A  
HETATM   24  C   UNL     1      -7.680  13.768  67.746  1.00  0.00    -0.172 A  
HETATM   25  C   UNL     1      -8.653  12.933  67.189  1.00  0.00    -0.198 A  
HETATM   26  C   UNL     1      -9.980  13.151  67.525  1.00  0.00    -0.223 A  
ENDBRANCH  12  14
ENDBRANCH   3   7
TORSDOF 2
ENDMDL
MODEL      102
REMARK 921   NORMALIZED FREE ENERGY PREDICTED BY IDOCK:   -5.12 KCAL/MOL
REMARK 922        TOTAL FREE ENERGY PREDICTED BY IDOCK:   -6.19 KCAL/MOL
REMARK 923 INTER-LIGAND FREE ENERGY PREDICTED BY IDOCK:   -5.97 KCAL/MOL
REMARK 924 INTRA-LIGAND FREE ENERGY PREDICTED BY IDOCK:   -0.22 KCAL/MOL
REMARK 927      BINDING AFFINITY PREDICTED BY RF-SCORE:    0.00 PKD
ROOT
HETATM    1  N   UNL     1      -9.493   4.786  70.436  1.00  0.00    -0.157 N  
HETATM    2  H2  UNL     1      -8.970   4.750  71.311  1.00  0.00     0.000 HD 
HETATM    3  S   UNL     1      -8.881   4.851  68.876  1.00  0.00    -0.096 S  
HETATM    4  H1  UNL     1     -10.505   4.790  70.316  1.00  0.00     0.000 HD 
HETATM    5  O   UNL     1      -9.559   3.831  68.115  1.00  0.00    -0.169 OA 
HETATM    6  O   UNL     1      -7.446   4.845  69.048  1.00  0.00    -0.059 OA 
ENDROOT
BRANCH   3   7
HETATM    7  C   UNL     1      -9.379   6.435  68.281  1.00  0.00    -0.109 A  
HETATM    8  C   UNL     1      -9.368   6.737  66.921  1.00  0.00    -0.150 A  
HETATM    9 CL   UNL     1      -8.967   5.610  65.676  1.00  0.00    -0.159 Cl 
HETATM   10  C   UNL     1      -9.664   8.040  66.510  1.00  0.00    -0.297 A  
HETATM   11  C   UNL     1      -9.929   9.040  67.447  1.00  0.00    -0.266 A  
HETATM   12  C   UNL     1      -9.920   8.758  68.823  1.00  0.00    -0.197 A  
HETATM   13  C   UNL     1      -9.675   7.431  69.228  1.00  0.00    -0.165 A  
BRANCH  12  14
HETATM   14  C   UNL     1      -9.974   9.896  69.837  1.00  0.00    -0.252 C  
HETATM   15  O   UNL     1      -8.726  10.083  70.461  1.00  0.00    -0.342 OA 
HETATM   16  N   UNL     1     -10.337  11.162  69.278  1.00  0.00    -0.393 N  
HETATM   17  H   UNL     1      -8.760  10.793  71.093  1.00  0.00     0.000 HD 
HETATM   18  H   UNL     1      -9.759  11.674  68.612  1.00  0.00     0.000 HD 
HETATM   19  C   UNL     1     -11.552  11.610  69.739  1.00  0.00    -0.315 C  
HETATM   20  O   UNL     1     -12.160  12.590  69.354  1.00  0.00    -0.266 OA 
HETATM   21  C   UNL     1     -12.013  10.658  70.759  1.00  0.00    -0.477 A  
HETATM   22  C   UNL     1     -13.192  10.637  71.483  1.00  0.00    -0.460 A  
HETATM   23  C   UNL     1     -13.394   9.557  72.346  1.00  0.00    -0.469 A  
HETATM   24  C   UNL     1     -12.420   8.550  72.477  1.00  0.00    -0.358 A  
HETATM   25  C   UNL     1     -11.237   8.597  71.734  1.00  0.00    -0.396 A  
HETATM   26  C   UNL     1     -11.051   9.656  70.859  1.00  0.00    -0.422 A  
ENDBRANCH  12  14
ENDBRANCH   3   7
TORSDOF 2
ENDMDL
MODEL      103
REMARK 921   NORMALIZED FREE ENERGY PREDICTED BY IDOCK:   -5.07 KCAL/MOL
REMARK 922        TOTAL FREE ENERGY PREDICTED BY IDOCK:   -6.14 KCAL/MOL
REMARK 923 INTER-LIGAND FREE ENERGY PREDICTED BY IDOCK:   -6.18 KCAL/MOL
REMARK 924 INTRA-LIGAND FREE ENERGY PREDICTED BY IDOCK:    0.04 KCAL/MOL
REMARK 927      BINDING AFFINITY PREDICTED BY RF-SCORE:    0.00 PKD
ROOT
HETATM    1  N   UNL     1      -6.922  13.219  69.230  1.00  0.00    -0.281 N  
HETATM    2  H2  UNL     1      -6.458  13.604  70.052  1.00  0.00     0.000 HD 
HETATM    3  S   UNL     1      -6.745  13.698  67.633  1.00  0.00    -0.139 S  
HETATM    4  H1  UNL     1      -7.599  12.457  69.196  1.00  0.00     0.000 HD 
HETATM    5  O   UNL     1      -6.506  12.505  66.859  1.00  0.00    -0.138 OA 
HETATM    6  O   UNL     1      -5.786  14.780  67.682  1.00  0.00    -0.289 OA 
ENDROOT
BRANCH   3   7
HETATM    7  C   UNL     1      -8.324  14.354  67.199  1.00  0.00    -0.191 A  
HETATM    8  C   UNL     1      -9.328  13.544  66.670  1.00  0.00    -0.245 A  
HETATM    9 CL   UNL     1      -9.193  11.836  66.464  1.00  0.00    -0.198 Cl 
HETATM   10  C   UNL     1     -10.521  14.133  66.239  1.00  0.00    -0.286 A  
HETATM   11  C   UNL     1     -10.695  15.516  66.299  1.00  0.00    -0.307 A  
HETATM   12  C   UNL     1      -9.684  16.349  66.806  1.00  0.00    -0.263 A  
HETATM   13  C   UNL     1      -8.507  15.746  67.289  1.00  0.00    -0.212 A  
BRANCH  12  14
HETATM   14  C   UNL     1      -9.788  17.862  66.646  1.00  0.00    -0.342 C  
HETATM   15  O   UNL     1     -10.385  18.205  65.417  1.00  0.00    -0.537 OA 
HETATM   16  N   UNL     1     -10.563  18.507  67.662  1.00  0.00    -0.424 N  
HETATM   17  H   UNL     1     -10.450  19.148  65.317  1.00  0.00     0.000 HD 
HETATM   18  H   UNL     1     -11.566  18.369  67.783  1.00  0.00     0.000 HD 
HETATM   19  C   UNL     1      -9.803  19.332  68.455  1.00  0.00    -0.414 C  
HETATM   20  O   UNL     1     -10.167  19.915  69.459  1.00  0.00    -0.292 OA 
HETATM   21  C   UNL     1      -8.444  19.351  67.896  1.00  0.00    -0.348 A  
HETATM   22  C   UNL     1      -7.305  19.989  68.355  1.00  0.00    -0.285 A  
HETATM   23  C   UNL     1      -6.120  19.770  67.649  1.00  0.00    -0.213 A  
HETATM   24  C   UNL     1      -6.104  18.945  66.509  1.00  0.00    -0.185 A  
HETATM   25  C   UNL     1      -7.270  18.313  66.066  1.00  0.00    -0.298 A  
HETATM   26  C   UNL     1      -8.439  18.512  66.784  1.00  0.00    -0.290 A  
ENDBRANCH  12  14
ENDBRANCH   3   7
TORSDOF 2
ENDMDL
MODEL      104
REMARK 921   NORMALIZED FREE ENERGY PREDICTED BY IDOCK:   -5.07 KCAL/MOL
REMARK 922        TOTAL FREE ENERGY PREDICTED BY IDOCK:   -6.14 KCAL/MOL
REMARK 923 INTER-LIGAND FREE ENERGY PREDICTED BY IDOCK:   -6.16 KCAL/MOL
REMARK 924 INTRA-LIGAND FREE ENERGY PREDICTED BY IDOCK:    0.03 KCAL/MOL
REMARK 927      BINDING AFFINITY PREDICTED BY RF-SCORE:    0.00 PKD
ROOT
HETATM    1  N   UNL     1      -9.771  11.973  65.651  1.00  0.00    -0.273 N  
HETATM    2  H2  UNL     1      -9.438  11.996  64.687  1.00  0.00     0.000 HD 
HETATM    3  S   UNL     1     -11.166  12.665  66.272  1.00  0.00    -0.328 S  
HETATM    4  H1  UNL     1      -9.328  11.524  66.453  1.00  0.00     0.000 HD 
HETATM    5  O   UNL     1     -11.839  11.645  67.037  1.00  0.00    -0.591 OA 
HETATM    6  O   UNL     1     -11.793  13.302  65.135  1.00  0.00    -0.320 OA 
ENDROOT
BRANCH   3   7
HETATM    7  C   UNL     1     -10.579  13.912  67.372  1.00  0.00    -0.267 A  
HETATM    8  C   UNL     1     -11.024  13.986  68.691  1.00  0.00    -0.263 A  
HETATM    9 CL   UNL     1     -12.100  12.851  69.421  1.00  0.00    -0.297 Cl 
HETATM   10  C   UNL     1     -10.614  15.059  69.489  1.00  0.00    -0.264 A  
HETATM   11  C   UNL     1      -9.803  16.066  68.967  1.00  0.00    -0.239 A  
HETATM   12  C   UNL     1      -9.366  16.020  67.632  1.00  0.00    -0.214 A  
HETATM   13  C   UNL     1      -9.737  14.909  66.850  1.00  0.00    -0.248 A  
BRANCH  12  14
HETATM   14  C   UNL     1      -8.685  17.233  67.009  1.00  0.00    -0.231 C  
HETATM   15  O   UNL     1      -7.932  16.870  65.875  1.00  0.00    -0.427 OA 
HETATM   16  N   UNL     1      -9.588  18.256  66.580  1.00  0.00    -0.312 N  
HETATM   17  H   UNL     1      -7.508  17.627  65.486  1.00  0.00     0.000 HD 
HETATM   18  H   UNL     1     -10.257  18.140  65.819  1.00  0.00     0.000 HD 
HETATM   19  C   UNL     1      -9.454  19.414  67.308  1.00  0.00    -0.318 C  
HETATM   20  O   UNL     1     -10.160  20.402  67.242  1.00  0.00    -0.425 OA 
HETATM   21  C   UNL     1      -8.320  19.228  68.224  1.00  0.00    -0.373 A  
HETATM   22  C   UNL     1      -7.813  20.078  69.191  1.00  0.00     0.064 A  
HETATM   23  C   UNL     1      -6.756  19.602  69.971  1.00  0.00    -0.185 A  
HETATM   24  C   UNL     1      -6.226  18.316  69.756  1.00  0.00    -0.174 A  
HETATM   25  C   UNL     1      -6.757  17.479  68.770  1.00  0.00    -0.225 A  
HETATM   26  C   UNL     1      -7.823  17.943  68.016  1.00  0.00    -0.251 A  
ENDBRANCH  12  14
ENDBRANCH   3   7
TORSDOF 2
ENDMDL
MODEL      105
REMARK 921   NORMALIZED FREE ENERGY PREDICTED BY IDOCK:   -5.06 KCAL/MOL
REMARK 922        TOTAL FREE ENERGY PREDICTED BY IDOCK:   -6.13 KCAL/MOL
REMARK 923 INTER-LIGAND FREE ENERGY PREDICTED BY IDOCK:   -5.79 KCAL/MOL
REMARK 924 INTRA-LIGAND FREE ENERGY PREDICTED BY IDOCK:   -0.34 KCAL/MOL
REMARK 927      BINDING AFFINITY PREDICTED BY RF-SCORE:    0.00 PKD
ROOT
HETATM    1  N   UNL     1     -13.529   7.842  71.161  1.00  0.00    -0.574 N  
HETATM    2  H2  UNL     1     -14.207   7.407  70.535  1.00  0.00     0.000 HD 
HETATM    3  S   UNL     1     -13.059   9.451  71.205  1.00  0.00    -0.254 S  
HETATM    4  H1  UNL     1     -12.985   7.395  71.898  1.00  0.00     0.000 HD 
HETATM    5  O   UNL     1     -13.149   9.878  72.580  1.00  0.00    -0.291 OA 
HETATM    6  O   UNL     1     -13.830  10.084  70.159  1.00  0.00     0.395 OA 
ENDROOT
BRANCH   3   7
HETATM    7  C   UNL     1     -11.362   9.420  70.725  1.00  0.00    -0.300 A  
HETATM    8  C   UNL     1     -10.384   8.864  71.548  1.00  0.00    -0.324 A  
HETATM    9 CL   UNL     1     -10.706   8.077  73.050  1.00  0.00    -0.402 Cl 
HETATM   10  C   UNL     1      -9.040   8.965  71.172  1.00  0.00    -0.315 A  
HETATM   11  C   UNL     1      -8.674   9.646  70.011  1.00  0.00    -0.256 A  
HETATM   12  C   UNL     1      -9.646  10.235  69.184  1.00  0.00    -0.229 A  
HETATM   13  C   UNL     1     -11.000  10.082  69.539  1.00  0.00    -0.289 A  
BRANCH  12  14
HETATM   14  C   UNL     1      -9.225  11.172  68.058  1.00  0.00    -0.159 C  
HETATM   15  O   UNL     1      -7.947  11.714  68.296  1.00  0.00    -0.128 OA 
HETATM   16  N   UNL     1      -9.165  10.552  66.770  1.00  0.00    -0.154 N  
HETATM   17  H   UNL     1      -7.684  12.298  67.594  1.00  0.00     0.000 HD 
HETATM   18  H   UNL     1      -8.496   9.824  66.522  1.00  0.00     0.000 HD 
HETATM   19  C   UNL     1     -10.109  11.049  65.904  1.00  0.00    -0.249 C  
HETATM   20  O   UNL     1     -10.365  10.634  64.790  1.00  0.00    -0.335 OA 
HETATM   21  C   UNL     1     -10.796  12.153  66.588  1.00  0.00    -0.307 A  
HETATM   22  C   UNL     1     -11.851  12.940  66.163  1.00  0.00    -0.487 A  
HETATM   23  C   UNL     1     -12.352  13.882  67.065  1.00  0.00    -0.287 A  
HETATM   24  C   UNL     1     -11.783  14.026  68.344  1.00  0.00    -0.389 A  
HETATM   25  C   UNL     1     -10.716  13.217  68.748  1.00  0.00    -0.253 A  
HETATM   26  C   UNL     1     -10.239  12.265  67.860  1.00  0.00    -0.202 A  
ENDBRANCH  12  14
ENDBRANCH   3   7
TORSDOF 2
ENDMDL
MODEL      106
REMARK 921   NORMALIZED FREE ENERGY PREDICTED BY IDOCK:   -5.00 KCAL/MOL
REMARK 922        TOTAL FREE ENERGY PREDICTED BY IDOCK:   -6.06 KCAL/MOL
REMARK 923 INTER-LIGAND FREE ENERGY PREDICTED BY IDOCK:   -5.60 KCAL/MOL
REMARK 924 INTRA-LIGAND FREE ENERGY PREDICTED BY IDOCK:   -0.47 KCAL/MOL
REMARK 927      BINDING AFFINITY PREDICTED BY RF-SCORE:    0.00 PKD
ROOT
HETATM    1  N   UNL     1     -12.642  13.986  65.453  1.00  0.00    -0.560 N  
HETATM    2  H2  UNL     1     -12.912  13.003  65.462  1.00  0.00     0.000 HD 
HETATM    3  S   UNL     1     -11.516  14.734  64.460  1.00  0.00    -0.283 S  
HETATM    4  H1  UNL     1     -12.996  14.735  66.048  1.00  0.00     0.000 HD 
HETATM    5  O   UNL     1     -12.152  15.904  63.908  1.00  0.00    -0.768 OA 
HETATM    6  O   UNL     1     -11.013  13.671  63.617  1.00  0.00     0.121 OA 
ENDROOT
BRANCH   3   7
HETATM    7  C   UNL     1     -10.236  15.243  65.561  1.00  0.00    -0.388 A  
HETATM    8  C   UNL     1      -9.565  14.326  66.369  1.00  0.00    -0.298 A  
HETATM    9 CL   UNL     1      -9.827  12.621  66.332  1.00  0.00    -0.254 Cl 
HETATM   10  C   UNL     1      -8.638  14.795  67.305  1.00  0.00    -0.230 A  
HETATM   11  C   UNL     1      -8.411  16.163  67.460  1.00  0.00    -0.175 A  
HETATM   12  C   UNL     1      -9.097  17.101  66.671  1.00  0.00    -0.280 A  
HETATM   13  C   UNL     1      -9.989  16.621  65.693  1.00  0.00    -0.197 A  
BRANCH  12  14
HETATM   14  C   UNL     1      -9.020  18.586  67.009  1.00  0.00    -0.274 C  
HETATM   15  O   UNL     1     -10.171  19.270  66.571  1.00  0.00    -0.366 OA 
HETATM   16  N   UNL     1      -8.897  18.863  68.407  1.00  0.00    -0.333 N  
HETATM   17  H   UNL     1     -10.124  20.195  66.782  1.00  0.00     0.000 HD 
HETATM   18  H   UNL     1      -9.626  18.662  69.092  1.00  0.00     0.000 HD 
HETATM   19  C   UNL     1      -7.686  19.430  68.725  1.00  0.00    -0.362 C  
HETATM   20  O   UNL     1      -7.262  19.665  69.840  1.00  0.00    -0.163 OA 
HETATM   21  C   UNL     1      -6.966  19.664  67.465  1.00  0.00    -0.257 A  
HETATM   22  C   UNL     1      -5.696  20.168  67.250  1.00  0.00    -0.184 A  
HETATM   23  C   UNL     1      -5.240  20.214  65.931  1.00  0.00    -0.184 A  
HETATM   24  C   UNL     1      -6.058  19.779  64.871  1.00  0.00    -0.297 A  
HETATM   25  C   UNL     1      -7.339  19.276  65.117  1.00  0.00     0.424 A  
HETATM   26  C   UNL     1      -7.779  19.206  66.430  1.00  0.00    -0.288 A  
ENDBRANCH  12  14
ENDBRANCH   3   7
TORSDOF 2
ENDMDL
MODEL      107
REMARK 921   NORMALIZED FREE ENERGY PREDICTED BY IDOCK:   -5.00 KCAL/MOL
REMARK 922        TOTAL FREE ENERGY PREDICTED BY IDOCK:   -6.06 KCAL/MOL
REMARK 923 INTER-LIGAND FREE ENERGY PREDICTED BY IDOCK:   -5.58 KCAL/MOL
REMARK 924 INTRA-LIGAND FREE ENERGY PREDICTED BY IDOCK:   -0.48 KCAL/MOL
REMARK 927      BINDING AFFINITY PREDICTED BY RF-SCORE:    0.00 PKD
ROOT
HETATM    1  N   UNL     1      -9.138  11.610  65.917  1.00  0.00    -0.322 N  
HETATM    2  H2  UNL     1      -8.141  11.822  65.869  1.00  0.00     0.000 HD 
HETATM    3  S   UNL     1     -10.406  12.682  66.150  1.00  0.00    -0.260 S  
HETATM    4  H1  UNL     1      -9.585  10.697  65.835  1.00  0.00     0.000 HD 
HETATM    5  O   UNL     1     -11.384  12.407  65.127  1.00  0.00    -0.305 OA 
HETATM    6  O   UNL     1      -9.770  13.976  66.267  1.00  0.00    -0.288 OA 
ENDROOT
BRANCH   3   7
HETATM    7  C   UNL     1     -11.074  12.230  67.718  1.00  0.00    -0.255 A  
HETATM    8  C   UNL     1     -11.736  13.158  68.521  1.00  0.00    -0.352 A  
HETATM    9 CL   UNL     1     -12.057  14.790  68.061  1.00  0.00    -0.250 Cl 
HETATM   10  C   UNL     1     -12.148  12.778  69.802  1.00  0.00    -0.305 A  
HETATM   11  C   UNL     1     -11.870  11.501  70.291  1.00  0.00    -0.431 A  
HETATM   12  C   UNL     1     -11.182  10.562  69.503  1.00  0.00    -0.329 A  
HETATM   13  C   UNL     1     -10.817  10.933  68.195  1.00  0.00    -0.283 A  
BRANCH  12  14
HETATM   14  C   UNL     1     -10.677   9.266  70.127  1.00  0.00    -0.235 C  
HETATM   15  O   UNL     1     -10.883   9.255  71.520  1.00  0.00    -0.339 OA 
HETATM   16  N   UNL     1     -11.307   8.086  69.620  1.00  0.00    -0.441 N  
HETATM   17  H   UNL     1     -10.569   8.447  71.909  1.00  0.00     0.000 HD 
HETATM   18  H   UNL     1     -12.293   7.865  69.760  1.00  0.00     0.000 HD 
HETATM   19  C   UNL     1     -10.436   7.285  68.921  1.00  0.00    -0.206 C  
HETATM   20  O   UNL     1     -10.715   6.286  68.287  1.00  0.00    -0.229 OA 
HETATM   21  C   UNL     1      -9.098   7.882  69.039  1.00  0.00    -0.144 A  
HETATM   22  C   UNL     1      -7.897   7.484  68.480  1.00  0.00    -0.122 A  
HETATM   23  C   UNL     1      -6.783   8.294  68.712  1.00  0.00    -0.058 A  
HETATM   24  C   UNL     1      -6.890   9.455  69.500  1.00  0.00    -0.049 A  
HETATM   25  C   UNL     1      -8.117   9.833  70.055  1.00  0.00    -0.203 A  
HETATM   26  C   UNL     1      -9.226   9.041  69.802  1.00  0.00    -0.172 A  
ENDBRANCH  12  14
ENDBRANCH   3   7
TORSDOF 2
ENDMDL
MODEL      108
REMARK 921   NORMALIZED FREE ENERGY PREDICTED BY IDOCK:   -5.00 KCAL/MOL
REMARK 922        TOTAL FREE ENERGY PREDICTED BY IDOCK:   -6.06 KCAL/MOL
REMARK 923 INTER-LIGAND FREE ENERGY PREDICTED BY IDOCK:   -5.70 KCAL/MOL
REMARK 924 INTRA-LIGAND FREE ENERGY PREDICTED BY IDOCK:   -0.36 KCAL/MOL
REMARK 927      BINDING AFFINITY PREDICTED BY RF-SCORE:    0.00 PKD
ROOT
HETATM    1  N   UNL     1      -6.686  19.529  69.096  1.00  0.00    -0.325 N  
HETATM    2  H2  UNL     1      -6.256  20.444  69.225  1.00  0.00     0.000 HD 
HETATM    3  S   UNL     1      -6.387  18.416  67.879  1.00  0.00    -0.193 S  
HETATM    4  H1  UNL     1      -7.395  19.086  69.681  1.00  0.00     0.000 HD 
HETATM    5  O   UNL     1      -6.158  17.143  68.518  1.00  0.00    -0.143 OA 
HETATM    6  O   UNL     1      -5.382  19.044  67.051  1.00  0.00    -0.150 OA 
ENDROOT
BRANCH   3   7
HETATM    7  C   UNL     1      -7.902  18.339  66.979  1.00  0.00    -0.223 A  
HETATM    8  C   UNL     1      -8.643  19.488  66.704  1.00  0.00    -0.340 A  
HETATM    9 CL   UNL     1      -8.145  21.089  67.113  1.00  0.00    -0.173 Cl 
HETATM   10  C   UNL     1      -9.891  19.361  66.086  1.00  0.00    -0.461 A  
HETATM   11  C   UNL     1     -10.411  18.103  65.782  1.00  0.00    -0.215 A  
HETATM   12  C   UNL     1      -9.689  16.934  66.076  1.00  0.00    -0.260 A  
HETATM   13  C   UNL     1      -8.410  17.071  66.648  1.00  0.00    -0.285 A  
BRANCH  12  14
HETATM   14  C   UNL     1     -10.362  15.571  65.961  1.00  0.00    -0.326 C  
HETATM   15  O   UNL     1     -11.382  15.585  64.990  1.00  0.00    -0.354 OA 
HETATM   16  N   UNL     1      -9.476  14.508  65.597  1.00  0.00    -0.534 N  
HETATM   17  H   UNL     1     -11.801  14.735  64.918  1.00  0.00     0.000 HD 
HETATM   18  H   UNL     1      -9.009  14.444  64.692  1.00  0.00     0.000 HD 
HETATM   19  C   UNL     1      -9.324  13.584  66.602  1.00  0.00    -0.245 C  
HETATM   20  O   UNL     1      -8.552  12.645  66.618  1.00  0.00    -0.148 OA 
HETATM   21  C   UNL     1     -10.239  13.962  67.689  1.00  0.00    -0.242 A  
HETATM   22  C   UNL     1     -10.427  13.382  68.931  1.00  0.00    -0.135 A  
HETATM   23  C   UNL     1     -11.327  14.006  69.798  1.00  0.00    -0.239 A  
HETATM   24  C   UNL     1     -12.022  15.164  69.403  1.00  0.00    -0.337 A  
HETATM   25  C   UNL     1     -11.813  15.728  68.140  1.00  0.00    -0.054 A  
HETATM   26  C   UNL     1     -10.900  15.122  67.292  1.00  0.00    -0.316 A  
ENDBRANCH  12  14
ENDBRANCH   3   7
TORSDOF 2
ENDMDL
MODEL      109
REMARK 921   NORMALIZED FREE ENERGY PREDICTED BY IDOCK:   -4.96 KCAL/MOL
REMARK 922        TOTAL FREE ENERGY PREDICTED BY IDOCK:   -6.02 KCAL/MOL
REMARK 923 INTER-LIGAND FREE ENERGY PREDICTED BY IDOCK:   -5.89 KCAL/MOL
REMARK 924 INTRA-LIGAND FREE ENERGY PREDICTED BY IDOCK:   -0.13 KCAL/MOL
REMARK 927      BINDING AFFINITY PREDICTED BY RF-SCORE:    0.00 PKD
ROOT
HETATM    1  N   UNL     1      -8.658  16.286  66.415  1.00  0.00    -0.299 N  
HETATM    2  H2  UNL     1      -8.093  16.480  67.242  1.00  0.00     0.000 HD 
HETATM    3  S   UNL     1     -10.330  16.311  66.285  1.00  0.00    -0.323 S  
HETATM    4  H1  UNL     1      -8.332  16.034  65.482  1.00  0.00     0.000 HD 
HETATM    5  O   UNL     1     -10.651  17.109  65.127  1.00  0.00    -0.695 OA 
HETATM    6  O   UNL     1     -10.792  16.669  67.608  1.00  0.00    -0.324 OA 
ENDROOT
BRANCH   3   7
HETATM    7  C   UNL     1     -10.765  14.633  65.963  1.00  0.00    -0.312 A  
HETATM    8  C   UNL     1     -11.773  14.304  65.058  1.00  0.00    -0.383 A  
HETATM    9 CL   UNL     1     -12.635  15.452  64.101  1.00  0.00    -0.015 Cl 
HETATM   10  C   UNL     1     -12.156  12.966  64.922  1.00  0.00    -0.479 A  
HETATM   11  C   UNL     1     -11.568  11.973  65.707  1.00  0.00    -0.353 A  
HETATM   12  C   UNL     1     -10.567  12.291  66.641  1.00  0.00    -0.257 A  
HETATM   13  C   UNL     1     -10.148  13.632  66.734  1.00  0.00    -0.269 A  
BRANCH  12  14
HETATM   14  C   UNL     1     -10.105  11.246  67.651  1.00  0.00    -0.179 C  
HETATM   15  O   UNL     1     -10.057  11.782  68.953  1.00  0.00    -0.353 OA 
HETATM   16  N   UNL     1     -10.944  10.090  67.724  1.00  0.00    -0.395 N  
HETATM   17  H   UNL     1      -9.770  11.131  69.583  1.00  0.00     0.000 HD 
HETATM   18  H   UNL     1     -11.907  10.108  68.060  1.00  0.00     0.000 HD 
HETATM   19  C   UNL     1     -10.308   8.952  67.289  1.00  0.00    -0.280 C  
HETATM   20  O   UNL     1     -10.806   7.854  67.131  1.00  0.00    -0.296 OA 
HETATM   21  C   UNL     1      -8.913   9.312  66.999  1.00  0.00    -0.142 A  
HETATM   22  C   UNL     1      -7.884   8.537  66.493  1.00  0.00    -0.096 A  
HETATM   23  C   UNL     1      -6.664   9.172  66.252  1.00  0.00    -0.071 A  
HETATM   24  C   UNL     1      -6.497  10.541  66.535  1.00  0.00    -0.099 A  
HETATM   25  C   UNL     1      -7.553  11.300  67.047  1.00  0.00    -0.143 A  
HETATM   26  C   UNL     1      -8.771  10.673  67.260  1.00  0.00    -0.129 A  
ENDBRANCH  12  14
ENDBRANCH   3   7
TORSDOF 2
ENDMDL
MODEL      110
REMARK 921   NORMALIZED FREE ENERGY PREDICTED BY IDOCK:   -4.95 KCAL/MOL
REMARK 922        TOTAL FREE ENERGY PREDICTED BY IDOCK:   -6.01 KCAL/MOL
REMARK 923 INTER-LIGAND FREE ENERGY PREDICTED BY IDOCK:   -5.78 KCAL/MOL
REMARK 924 INTRA-LIGAND FREE ENERGY PREDICTED BY IDOCK:   -0.22 KCAL/MOL
REMARK 927      BINDING AFFINITY PREDICTED BY RF-SCORE:    0.00 PKD
ROOT
HETATM    1  N   UNL     1     -12.390  13.830  66.355  1.00  0.00    -0.434 N  
HETATM    2  H2  UNL     1     -13.077  14.352  65.812  1.00  0.00     0.000 HD 
HETATM    3  S   UNL     1     -10.720  13.969  66.305  1.00  0.00    -0.292 S  
HETATM    4  H1  UNL     1     -12.567  13.104  67.050  1.00  0.00     0.000 HD 
HETATM    5  O   UNL     1     -10.267  14.098  67.668  1.00  0.00    -0.237 OA 
HETATM    6  O   UNL     1     -10.470  14.997  65.319  1.00  0.00    -0.346 OA 
ENDROOT
BRANCH   3   7
HETATM    7  C   UNL     1     -10.175  12.419  65.664  1.00  0.00    -0.262 A  
HETATM    8  C   UNL     1     -10.632  11.938  64.439  1.00  0.00    -0.319 A  
HETATM    9 CL   UNL     1     -11.685  12.806  63.382  1.00  0.00    -0.583 Cl 
HETATM   10  C   UNL     1     -10.257  10.654  64.028  1.00  0.00    -0.334 A  
HETATM   11  C   UNL     1      -9.467   9.847  64.848  1.00  0.00    -0.355 A  
HETATM   12  C   UNL     1      -9.018  10.308  66.097  1.00  0.00    -0.174 A  
HETATM   13  C   UNL     1      -9.354  11.620  66.480  1.00  0.00    -0.216 A  
BRANCH  12  14
HETATM   14  C   UNL     1      -8.363   9.341  67.078  1.00  0.00    -0.120 C  
HETATM   15  O   UNL     1      -7.136   8.862  66.580  1.00  0.00    -0.082 OA 
HETATM   16  N   UNL     1      -8.082   9.908  68.361  1.00  0.00    -0.099 N  
HETATM   17  H   UNL     1      -6.728   8.260  67.191  1.00  0.00     0.000 HD 
HETATM   18  H   UNL     1      -7.402  10.652  68.515  1.00  0.00     0.000 HD 
HETATM   19  C   UNL     1      -8.831   9.338  69.362  1.00  0.00    -0.149 C  
HETATM   20  O   UNL     1      -8.887   9.694  70.523  1.00  0.00    -0.225 OA 
HETATM   21  C   UNL     1      -9.599   8.237  68.763  1.00  0.00    -0.150 A  
HETATM   22  C   UNL     1     -10.530   7.390  69.339  1.00  0.00    -0.220 A  
HETATM   23  C   UNL     1     -11.161   6.468  68.500  1.00  0.00    -0.347 A  
HETATM   24  C   UNL     1     -10.838   6.402  67.132  1.00  0.00    -0.467 A  
HETATM   25  C   UNL     1      -9.892   7.269  66.577  1.00  0.00    -0.202 A  
HETATM   26  C   UNL     1      -9.287   8.201  67.406  1.00  0.00    -0.171 A  
ENDBRANCH  12  14
ENDBRANCH   3   7
TORSDOF 2
ENDMDL
MODEL      111
REMARK 921   NORMALIZED FREE ENERGY PREDICTED BY IDOCK:   -4.95 KCAL/MOL
REMARK 922        TOTAL FREE ENERGY PREDICTED BY IDOCK:   -6.00 KCAL/MOL
REMARK 923 INTER-LIGAND FREE ENERGY PREDICTED BY IDOCK:   -6.51 KCAL/MOL
REMARK 924 INTRA-LIGAND FREE ENERGY PREDICTED BY IDOCK:    0.51 KCAL/MOL
REMARK 927      BINDING AFFINITY PREDICTED BY RF-SCORE:    0.00 PKD
ROOT
HETATM    1  N   UNL     1     -13.734  11.473  72.199  1.00  0.00    -0.317 N  
HETATM    2  H2  UNL     1     -13.632  11.308  73.200  1.00  0.00     0.000 HD 
HETATM    3  S   UNL     1     -12.762  10.898  70.960  1.00  0.00    -0.406 S  
HETATM    4  H1  UNL     1     -14.450  12.027  71.729  1.00  0.00     0.000 HD 
HETATM    5  O   UNL     1     -13.638  10.321  69.970  1.00  0.00     0.207 OA 
HETATM    6  O   UNL     1     -11.747  10.114  71.628  1.00  0.00    -0.307 OA 
ENDROOT
BRANCH   3   7
HETATM    7  C   UNL     1     -12.014  12.347  70.288  1.00  0.00    -0.289 A  
HETATM    8  C   UNL     1     -12.430  13.622  70.665  1.00  0.00    -0.347 A  
HETATM    9 CL   UNL     1     -13.628  13.940  71.867  1.00  0.00    -0.480 Cl 
HETATM   10  C   UNL     1     -11.882  14.736  70.021  1.00  0.00    -0.362 A  
HETATM   11  C   UNL     1     -10.960  14.578  68.986  1.00  0.00    -0.272 A  
HETATM   12  C   UNL     1     -10.548  13.298  68.576  1.00  0.00    -0.270 A  
HETATM   13  C   UNL     1     -11.062  12.183  69.265  1.00  0.00    -0.229 A  
BRANCH  12  14
HETATM   14  C   UNL     1      -9.732  13.131  67.299  1.00  0.00    -0.230 C  
HETATM   15  O   UNL     1      -8.593  13.959  67.309  1.00  0.00    -0.193 OA 
HETATM   16  N   UNL     1      -9.258  11.800  67.077  1.00  0.00    -0.182 N  
HETATM   17  H   UNL     1      -8.084  13.855  66.514  1.00  0.00     0.000 HD 
HETATM   18  H   UNL     1      -8.572  11.335  67.672  1.00  0.00     0.000 HD 
HETATM   19  C   UNL     1      -9.829  11.217  65.971  1.00  0.00    -0.229 C  
HETATM   20  O   UNL     1      -9.704  10.063  65.609  1.00  0.00    -0.230 OA 
HETATM   21  C   UNL     1     -10.667  12.235  65.321  1.00  0.00    -0.329 A  
HETATM   22  C   UNL     1     -11.482  12.134  64.208  1.00  0.00    -0.437 A  
HETATM   23  C   UNL     1     -12.225  13.262  63.854  1.00  0.00    -0.491 A  
HETATM   24  C   UNL     1     -12.124  14.453  64.598  1.00  0.00    -0.485 A  
HETATM   25  C   UNL     1     -11.291  14.528  65.718  1.00  0.00    -0.336 A  
HETATM   26  C   UNL     1     -10.575  13.398  66.083  1.00  0.00    -0.294 A  
ENDBRANCH  12  14
ENDBRANCH   3   7
TORSDOF 2
ENDMDL
MODEL      112
REMARK 921   NORMALIZED FREE ENERGY PREDICTED BY IDOCK:   -4.93 KCAL/MOL
REMARK 922        TOTAL FREE ENERGY PREDICTED BY IDOCK:   -5.98 KCAL/MOL
REMARK 923 INTER-LIGAND FREE ENERGY PREDICTED BY IDOCK:   -5.29 KCAL/MOL
REMARK 924 INTRA-LIGAND FREE ENERGY PREDICTED BY IDOCK:   -0.70 KCAL/MOL
REMARK 927      BINDING AFFINITY PREDICTED BY RF-SCORE:    0.00 PKD
ROOT
HETATM    1  N   UNL     1      -9.801   9.432  64.461  1.00  0.00    -0.263 N  
HETATM    2  H2  UNL     1     -10.640   8.852  64.474  1.00  0.00     0.000 HD 
HETATM    3  S   UNL     1      -8.449   9.303  65.444  1.00  0.00    -0.154 S  
HETATM    4  H1  UNL     1      -9.597  10.219  63.845  1.00  0.00     0.000 HD 
HETATM    5  O   UNL     1      -7.295   9.311  64.578  1.00  0.00    -0.097 OA 
HETATM    6  O   UNL     1      -8.738   8.187  66.316  1.00  0.00    -0.134 OA 
ENDROOT
BRANCH   3   7
HETATM    7  C   UNL     1      -8.461  10.789  66.395  1.00  0.00    -0.158 A  
HETATM    8  C   UNL     1      -7.490  11.041  67.362  1.00  0.00    -0.106 A  
HETATM    9 CL   UNL     1      -6.142  10.011  67.681  1.00  0.00    -0.057 Cl 
HETATM   10  C   UNL     1      -7.608  12.180  68.165  1.00  0.00    -0.125 A  
HETATM   11  C   UNL     1      -8.703  13.035  68.031  1.00  0.00    -0.187 A  
HETATM   12  C   UNL     1      -9.703  12.782  67.078  1.00  0.00    -0.224 A  
HETATM   13  C   UNL     1      -9.550  11.664  66.236  1.00  0.00    -0.241 A  
BRANCH  12  14
HETATM   14  C   UNL     1     -11.002  13.581  67.103  1.00  0.00    -0.291 C  
HETATM   15  O   UNL     1     -11.874  13.170  66.076  1.00  0.00    -0.366 OA 
HETATM   16  N   UNL     1     -11.738  13.466  68.324  1.00  0.00    -0.336 N  
HETATM   17  H   UNL     1     -12.683  13.668  66.091  1.00  0.00     0.000 HD 
HETATM   18  H   UNL     1     -12.170  12.600  68.646  1.00  0.00     0.000 HD 
HETATM   19  C   UNL     1     -11.798  14.653  69.014  1.00  0.00    -0.310 C  
HETATM   20  O   UNL     1     -12.254  14.826  70.128  1.00  0.00    -0.304 OA 
HETATM   21  C   UNL     1     -11.162  15.681  68.178  1.00  0.00    -0.345 A  
HETATM   22  C   UNL     1     -10.929  17.019  68.441  1.00  0.00    -0.263 A  
HETATM   23  C   UNL     1     -10.233  17.749  67.475  1.00  0.00    -0.356 A  
HETATM   24  C   UNL     1      -9.809  17.140  66.279  1.00  0.00    -0.306 A  
HETATM   25  C   UNL     1     -10.060  15.786  66.038  1.00  0.00    -0.359 A  
HETATM   26  C   UNL     1     -10.727  15.057  67.010  1.00  0.00    -0.304 A  
ENDBRANCH  12  14
ENDBRANCH   3   7
TORSDOF 2
ENDMDL
MODEL      113
REMARK 921   NORMALIZED FREE ENERGY PREDICTED BY IDOCK:   -4.91 KCAL/MOL
REMARK 922        TOTAL FREE ENERGY PREDICTED BY IDOCK:   -5.96 KCAL/MOL
REMARK 923 INTER-LIGAND FREE ENERGY PREDICTED BY IDOCK:   -5.38 KCAL/MOL
REMARK 924 INTRA-LIGAND FREE ENERGY PREDICTED BY IDOCK:   -0.58 KCAL/MOL
REMARK 927      BINDING AFFINITY PREDICTED BY RF-SCORE:    0.00 PKD
ROOT
HETATM    1  N   UNL     1      -9.520  16.413  69.082  1.00  0.00    -0.257 N  
HETATM    2  H2  UNL     1      -9.785  17.398  69.091  1.00  0.00     0.000 HD 
HETATM    3  S   UNL     1      -8.231  15.705  68.278  1.00  0.00    -0.146 S  
HETATM    4  H1  UNL     1      -9.981  15.639  69.561  1.00  0.00     0.000 HD 
HETATM    5  O   UNL     1      -7.534  14.884  69.237  1.00  0.00    -0.156 OA 
HETATM    6  O   UNL     1      -7.578  16.802  67.599  1.00  0.00    -0.159 OA 
ENDROOT
BRANCH   3   7
HETATM    7  C   UNL     1      -8.990  14.661  67.076  1.00  0.00    -0.240 A  
HETATM    8  C   UNL     1      -9.788  15.184  66.059  1.00  0.00    -0.320 A  
HETATM    9 CL   UNL     1     -10.053  16.869  65.798  1.00  0.00    -0.292 Cl 
HETATM   10  C   UNL     1     -10.457  14.307  65.200  1.00  0.00    -0.432 A  
HETATM   11  C   UNL     1     -10.363  12.926  65.376  1.00  0.00    -0.310 A  
HETATM   12  C   UNL     1      -9.583  12.383  66.411  1.00  0.00    -0.249 A  
HETATM   13  C   UNL     1      -8.868  13.270  67.239  1.00  0.00    -0.216 A  
BRANCH  12  14
HETATM   14  C   UNL     1      -9.678  10.897  66.740  1.00  0.00    -0.190 C  
HETATM   15  O   UNL     1     -10.263  10.176  65.681  1.00  0.00    -0.275 OA 
HETATM   16  N   UNL     1      -8.417  10.273  67.003  1.00  0.00    -0.129 N  
HETATM   17  H   UNL     1     -10.322   9.250  65.886  1.00  0.00     0.000 HD 
HETATM   18  H   UNL     1      -7.687  10.154  66.301  1.00  0.00     0.000 HD 
HETATM   19  C   UNL     1      -8.301   9.853  68.306  1.00  0.00    -0.110 C  
HETATM   20  O   UNL     1      -7.307   9.397  68.838  1.00  0.00    -0.071 OA 
HETATM   21  C   UNL     1      -9.592  10.097  68.963  1.00  0.00    -0.202 A  
HETATM   22  C   UNL     1      -9.970   9.892  70.278  1.00  0.00    -0.261 A  
HETATM   23  C   UNL     1     -11.260  10.286  70.643  1.00  0.00    -0.406 A  
HETATM   24  C   UNL     1     -12.135  10.850  69.695  1.00  0.00    -0.400 A  
HETATM   25  C   UNL     1     -11.727  11.044  68.372  1.00  0.00    -0.329 A  
HETATM   26  C   UNL     1     -10.437  10.677  68.019  1.00  0.00    -0.228 A  
ENDBRANCH  12  14
ENDBRANCH   3   7
TORSDOF 2
ENDMDL
MODEL      114
REMARK 921   NORMALIZED FREE ENERGY PREDICTED BY IDOCK:   -4.89 KCAL/MOL
REMARK 922        TOTAL FREE ENERGY PREDICTED BY IDOCK:   -5.94 KCAL/MOL
REMARK 923 INTER-LIGAND FREE ENERGY PREDICTED BY IDOCK:   -5.71 KCAL/MOL
REMARK 924 INTRA-LIGAND FREE ENERGY PREDICTED BY IDOCK:   -0.24 KCAL/MOL
REMARK 927      BINDING AFFINITY PREDICTED BY RF-SCORE:    0.00 PKD
ROOT
HETATM    1  N   UNL     1      -9.796  12.650  66.270  1.00  0.00    -0.258 N  
HETATM    2  H2  UNL     1      -9.198  13.398  65.920  1.00  0.00     0.000 HD 
HETATM    3  S   UNL     1     -10.693  12.628  67.686  1.00  0.00    -0.223 S  
HETATM    4  H1  UNL     1      -9.980  11.746  65.835  1.00  0.00     0.000 HD 
HETATM    5  O   UNL     1     -12.029  12.215  67.333  1.00  0.00    -0.563 OA 
HETATM    6  O   UNL     1     -10.430  13.910  68.302  1.00  0.00    -0.236 OA 
ENDROOT
BRANCH   3   7
HETATM    7  C   UNL     1      -9.940  11.363  68.657  1.00  0.00    -0.202 A  
HETATM    8  C   UNL     1      -8.554  11.232  68.732  1.00  0.00    -0.108 A  
HETATM    9 CL   UNL     1      -7.432  12.309  67.984  1.00  0.00    -0.104 Cl 
HETATM   10  C   UNL     1      -8.010  10.146  69.425  1.00  0.00    -0.155 A  
HETATM   11  C   UNL     1      -8.837   9.182  70.002  1.00  0.00    -0.193 A  
HETATM   12  C   UNL     1     -10.235   9.286  69.914  1.00  0.00    -0.235 A  
HETATM   13  C   UNL     1     -10.778  10.410  69.263  1.00  0.00    -0.270 A  
BRANCH  12  14
HETATM   14  C   UNL     1     -11.116   8.115  70.335  1.00  0.00    -0.239 C  
HETATM   15  O   UNL     1     -12.459   8.514  70.485  1.00  0.00    -0.452 OA 
HETATM   16  N   UNL     1     -11.123   7.024  69.410  1.00  0.00    -0.430 N  
HETATM   17  H   UNL     1     -13.008   7.785  70.748  1.00  0.00     0.000 HD 
HETATM   18  H   UNL     1     -11.511   7.081  68.469  1.00  0.00     0.000 HD 
HETATM   19  C   UNL     1     -10.550   5.890  69.933  1.00  0.00    -0.299 C  
HETATM   20  O   UNL     1     -10.316   4.853  69.342  1.00  0.00    -0.207 OA 
HETATM   21  C   UNL     1     -10.222   6.170  71.338  1.00  0.00    -0.248 A  
HETATM   22  C   UNL     1      -9.592   5.373  72.277  1.00  0.00    -0.179 A  
HETATM   23  C   UNL     1      -9.348   5.935  73.533  1.00  0.00    -0.134 A  
HETATM   24  C   UNL     1      -9.750   7.252  73.822  1.00  0.00    -0.344 A  
HETATM   25  C   UNL     1     -10.387   8.035  72.854  1.00  0.00    -0.397 A  
HETATM   26  C   UNL     1     -10.604   7.484  71.600  1.00  0.00    -0.232 A  
ENDBRANCH  12  14
ENDBRANCH   3   7
TORSDOF 2
ENDMDL
MODEL      115
REMARK 921   NORMALIZED FREE ENERGY PREDICTED BY IDOCK:   -4.89 KCAL/MOL
REMARK 922        TOTAL FREE ENERGY PREDICTED BY IDOCK:   -5.94 KCAL/MOL
REMARK 923 INTER-LIGAND FREE ENERGY PREDICTED BY IDOCK:   -5.23 KCAL/MOL
REMARK 924 INTRA-LIGAND FREE ENERGY PREDICTED BY IDOCK:   -0.71 KCAL/MOL
REMARK 927      BINDING AFFINITY PREDICTED BY RF-SCORE:    0.00 PKD
ROOT
HETATM    1  N   UNL     1     -11.699  10.312  69.168  1.00  0.00    -0.491 N  
HETATM    2  H2  UNL     1     -12.366  10.724  69.820  1.00  0.00     0.000 HD 
HETATM    3  S   UNL     1     -10.324   9.422  69.530  1.00  0.00    -0.225 S  
HETATM    4  H1  UNL     1     -11.720  10.349  68.149  1.00  0.00     0.000 HD 
HETATM    5  O   UNL     1     -10.373   8.225  68.727  1.00  0.00    -0.208 OA 
HETATM    6  O   UNL     1     -10.295   9.370  70.975  1.00  0.00    -0.286 OA 
ENDROOT
BRANCH   3   7
HETATM    7  C   UNL     1      -8.993  10.434  68.968  1.00  0.00    -0.179 A  
HETATM    8  C   UNL     1      -7.684  10.216  69.396  1.00  0.00    -0.138 A  
HETATM    9 CL   UNL     1      -7.198   8.917  70.423  1.00  0.00    -0.052 Cl 
HETATM   10  C   UNL     1      -6.684  11.114  69.009  1.00  0.00    -0.085 A  
HETATM   11  C   UNL     1      -6.992  12.236  68.239  1.00  0.00    -0.082 A  
HETATM   12  C   UNL     1      -8.311  12.483  67.820  1.00  0.00    -0.170 A  
HETATM   13  C   UNL     1      -9.303  11.546  68.166  1.00  0.00    -0.185 A  
BRANCH  12  14
HETATM   14  C   UNL     1      -8.673  13.822  67.189  1.00  0.00    -0.221 C  
HETATM   15  O   UNL     1      -7.520  14.556  66.850  1.00  0.00    -0.293 OA 
HETATM   16  N   UNL     1      -9.447  13.716  65.991  1.00  0.00    -0.488 N  
HETATM   17  H   UNL     1      -7.746  15.391  66.456  1.00  0.00     0.000 HD 
HETATM   18  H   UNL     1      -9.097  13.310  65.123  1.00  0.00     0.000 HD 
HETATM   19  C   UNL     1     -10.717  14.221  66.139  1.00  0.00    -0.295 C  
HETATM   20  O   UNL     1     -11.624  14.161  65.332  1.00  0.00    -0.318 OA 
HETATM   21  C   UNL     1     -10.800  14.812  67.482  1.00  0.00    -0.287 A  
HETATM   22  C   UNL     1     -11.873  15.403  68.126  1.00  0.00    -0.178 A  
HETATM   23  C   UNL     1     -11.678  15.820  69.444  1.00  0.00    -0.379 A  
HETATM   24  C   UNL     1     -10.429  15.658  70.073  1.00  0.00    -0.333 A  
HETATM   25  C   UNL     1      -9.360  15.060  69.397  1.00  0.00    -0.120 A  
HETATM   26  C   UNL     1      -9.565  14.622  68.098  1.00  0.00    -0.213 A  
ENDBRANCH  12  14
ENDBRANCH   3   7
TORSDOF 2
ENDMDL
MODEL      116
REMARK 921   NORMALIZED FREE ENERGY PREDICTED BY IDOCK:   -4.88 KCAL/MOL
REMARK 922        TOTAL FREE ENERGY PREDICTED BY IDOCK:   -5.93 KCAL/MOL
REMARK 923 INTER-LIGAND FREE ENERGY PREDICTED BY IDOCK:   -5.90 KCAL/MOL
REMARK 924 INTRA-LIGAND FREE ENERGY PREDICTED BY IDOCK:   -0.04 KCAL/MOL
REMARK 927      BINDING AFFINITY PREDICTED BY RF-SCORE:    0.00 PKD
ROOT
HETATM    1  N   UNL     1      -9.172   6.768  65.340  1.00  0.00    -0.295 N  
HETATM    2  H2  UNL     1      -9.820   6.320  64.692  1.00  0.00     0.000 HD 
HETATM    3  S   UNL     1      -9.514   7.423  66.844  1.00  0.00    -0.171 S  
HETATM    4  H1  UNL     1      -8.170   6.916  65.216  1.00  0.00     0.000 HD 
HETATM    5  O   UNL     1      -8.547   6.884  67.769  1.00  0.00    -0.122 OA 
HETATM    6  O   UNL     1     -10.934   7.212  67.019  1.00  0.00    -0.369 OA 
ENDROOT
BRANCH   3   7
HETATM    7  C   UNL     1      -9.214   9.149  66.644  1.00  0.00    -0.164 A  
HETATM    8  C   UNL     1      -7.929   9.681  66.748  1.00  0.00    -0.105 A  
HETATM    9 CL   UNL     1      -6.502   8.740  66.987  1.00  0.00    -0.060 Cl 
HETATM   10  C   UNL     1      -7.760  11.068  66.693  1.00  0.00    -0.153 A  
HETATM   11  C   UNL     1      -8.861  11.916  66.574  1.00  0.00    -0.178 A  
HETATM   12  C   UNL     1     -10.164  11.397  66.493  1.00  0.00    -0.259 A  
HETATM   13  C   UNL     1     -10.324   9.999  66.494  1.00  0.00    -0.268 A  
BRANCH  12  14
HETATM   14  C   UNL     1     -11.366  12.330  66.604  1.00  0.00    -0.343 C  
HETATM   15  O   UNL     1     -12.373  11.978  65.684  1.00  0.00    -0.470 OA 
HETATM   16  N   UNL     1     -11.985  12.338  67.893  1.00  0.00    -0.280 N  
HETATM   17  H   UNL     1     -13.121  12.559  65.753  1.00  0.00     0.000 HD 
HETATM   18  H   UNL     1     -12.469  11.535  68.294  1.00  0.00     0.000 HD 
HETATM   19  C   UNL     1     -11.855  13.548  68.531  1.00  0.00    -0.362 C  
HETATM   20  O   UNL     1     -12.179  13.807  69.674  1.00  0.00    -0.332 OA 
HETATM   21  C   UNL     1     -11.203  14.472  67.592  1.00  0.00    -0.335 A  
HETATM   22  C   UNL     1     -10.810  15.786  67.771  1.00  0.00    -0.316 A  
HETATM   23  C   UNL     1     -10.142  16.404  66.711  1.00  0.00    -0.287 A  
HETATM   24  C   UNL     1      -9.903  15.711  65.509  1.00  0.00    -0.326 A  
HETATM   25  C   UNL     1     -10.314  14.383  65.355  1.00  0.00    -0.400 A  
HETATM   26  C   UNL     1     -10.952  13.764  66.418  1.00  0.00    -0.298 A  
ENDBRANCH  12  14
ENDBRANCH   3   7
TORSDOF 2
ENDMDL
MODEL      117
REMARK 921   NORMALIZED FREE ENERGY PREDICTED BY IDOCK:   -4.85 KCAL/MOL
REMARK 922        TOTAL FREE ENERGY PREDICTED BY IDOCK:   -5.90 KCAL/MOL
REMARK 923 INTER-LIGAND FREE ENERGY PREDICTED BY IDOCK:   -5.91 KCAL/MOL
REMARK 924 INTRA-LIGAND FREE ENERGY PREDICTED BY IDOCK:    0.02 KCAL/MOL
REMARK 927      BINDING AFFINITY PREDICTED BY RF-SCORE:    0.00 PKD
ROOT
HETATM    1  N   UNL     1     -11.872  15.426  64.062  1.00  0.00    -0.927 N  
HETATM    2  H2  UNL     1     -12.156  16.307  64.492  1.00  0.00     0.000 HD 
HETATM    3  S   UNL     1     -12.357  13.877  64.481  1.00  0.00    -0.333 S  
HETATM    4  H1  UNL     1     -11.230  15.293  63.281  1.00  0.00     0.000 HD 
HETATM    5  O   UNL     1     -12.768  13.220  63.264  1.00  0.00    -0.658 OA 
HETATM    6  O   UNL     1     -13.267  14.067  65.588  1.00  0.00    -0.634 OA 
ENDROOT
BRANCH   3   7
HETATM    7  C   UNL     1     -10.885  13.109  65.076  1.00  0.00    -0.315 A  
HETATM    8  C   UNL     1     -10.392  11.939  64.501  1.00  0.00    -0.292 A  
HETATM    9 CL   UNL     1     -11.081  11.166  63.120  1.00  0.00    -0.023 Cl 
HETATM   10  C   UNL     1      -9.286  11.309  65.081  1.00  0.00    -0.211 A  
HETATM   11  C   UNL     1      -8.704  11.818  66.243  1.00  0.00    -0.106 A  
HETATM   12  C   UNL     1      -9.205  12.982  66.849  1.00  0.00    -0.236 A  
HETATM   13  C   UNL     1     -10.284  13.642  66.230  1.00  0.00    -0.296 A  
BRANCH  12  14
HETATM   14  C   UNL     1      -8.720  13.391  68.236  1.00  0.00    -0.172 C  
HETATM   15  O   UNL     1      -9.795  13.768  69.063  1.00  0.00    -0.419 OA 
HETATM   16  N   UNL     1      -8.016  12.361  68.937  1.00  0.00    -0.335 N  
HETATM   17  H   UNL     1      -9.492  14.023  69.927  1.00  0.00     0.000 HD 
HETATM   18  H   UNL     1      -8.449  11.495  69.256  1.00  0.00     0.000 HD 
HETATM   19  C   UNL     1      -6.692  12.671  69.134  1.00  0.00    -0.086 C  
HETATM   20  O   UNL     1      -5.834  11.943  69.595  1.00  0.00    -0.077 OA 
HETATM   21  C   UNL     1      -6.482  14.040  68.640  1.00  0.00    -0.091 A  
HETATM   22  C   UNL     1      -5.321  14.789  68.570  1.00  0.00    -0.102 A  
HETATM   23  C   UNL     1      -5.410  16.052  67.981  1.00  0.00    -0.128 A  
HETATM   24  C   UNL     1      -6.640  16.537  67.500  1.00  0.00    -0.178 A  
HETATM   25  C   UNL     1      -7.799  15.759  67.585  1.00  0.00    -0.168 A  
HETATM   26  C   UNL     1      -7.703  14.495  68.146  1.00  0.00    -0.128 A  
ENDBRANCH  12  14
ENDBRANCH   3   7
TORSDOF 2
ENDMDL
MODEL      118
REMARK 921   NORMALIZED FREE ENERGY PREDICTED BY IDOCK:   -4.84 KCAL/MOL
REMARK 922        TOTAL FREE ENERGY PREDICTED BY IDOCK:   -5.88 KCAL/MOL
REMARK 923 INTER-LIGAND FREE ENERGY PREDICTED BY IDOCK:   -5.59 KCAL/MOL
REMARK 924 INTRA-LIGAND FREE ENERGY PREDICTED BY IDOCK:   -0.28 KCAL/MOL
REMARK 927      BINDING AFFINITY PREDICTED BY RF-SCORE:    0.00 PKD
ROOT
HETATM    1  N   UNL     1      -9.764   1.694  67.063  1.00  0.00    -0.272 N  
HETATM    2  H2  UNL     1     -10.209   0.789  67.218  1.00  0.00     0.000 HD 
HETATM    3  S   UNL     1      -8.852   2.588  68.149  1.00  0.00    -0.142 S  
HETATM    4  H1  UNL     1      -9.775   2.256  66.212  1.00  0.00     0.000 HD 
HETATM    5  O   UNL     1      -7.635   2.962  67.471  1.00  0.00    -0.064 OA 
HETATM    6  O   UNL     1      -8.837   1.791  69.355  1.00  0.00    -0.061 OA 
ENDROOT
BRANCH   3   7
HETATM    7  C   UNL     1      -9.816   4.038  68.434  1.00  0.00     0.019 A  
HETATM    8  C   UNL     1     -10.203   4.871  67.386  1.00  0.00    -0.118 A  
HETATM    9 CL   UNL     1      -9.879   4.556  65.720  1.00  0.00    -0.209 Cl 
HETATM   10  C   UNL     1     -10.870   6.065  67.677  1.00  0.00    -0.386 A  
HETATM   11  C   UNL     1     -11.113   6.442  68.998  1.00  0.00    -0.424 A  
HETATM   12  C   UNL     1     -10.707   5.625  70.067  1.00  0.00    -0.390 A  
HETATM   13  C   UNL     1     -10.085   4.399  69.766  1.00  0.00    -0.101 A  
BRANCH  12  14
HETATM   14  C   UNL     1     -10.763   6.154  71.496  1.00  0.00    -0.252 C  
HETATM   15  O   UNL     1     -10.970   5.110  72.419  1.00  0.00    -0.225 OA 
HETATM   16  N   UNL     1      -9.575   6.832  71.917  1.00  0.00    -0.150 N  
HETATM   17  H   UNL     1     -11.005   5.440  73.309  1.00  0.00     0.000 HD 
HETATM   18  H   UNL     1      -8.672   6.372  72.036  1.00  0.00     0.000 HD 
HETATM   19  C   UNL     1      -9.787   8.170  72.143  1.00  0.00    -0.246 C  
HETATM   20  O   UNL     1      -8.943   9.009  72.397  1.00  0.00    -0.326 OA 
HETATM   21  C   UNL     1     -11.226   8.422  71.977  1.00  0.00    -0.404 A  
HETATM   22  C   UNL     1     -11.932   9.609  72.052  1.00  0.00    -0.202 A  
HETATM   23  C   UNL     1     -13.301   9.558  71.777  1.00  0.00    -0.501 A  
HETATM   24  C   UNL     1     -13.925   8.337  71.458  1.00  0.00    -0.412 A  
HETATM   25  C   UNL     1     -13.187   7.152  71.392  1.00  0.00    -0.391 A  
HETATM   26  C   UNL     1     -11.824   7.210  71.638  1.00  0.00    -0.340 A  
ENDBRANCH  12  14
ENDBRANCH   3   7
TORSDOF 2
ENDMDL
MODEL      119
REMARK 921   NORMALIZED FREE ENERGY PREDICTED BY IDOCK:   -4.84 KCAL/MOL
REMARK 922        TOTAL FREE ENERGY PREDICTED BY IDOCK:   -5.88 KCAL/MOL
REMARK 923 INTER-LIGAND FREE ENERGY PREDICTED BY IDOCK:   -5.61 KCAL/MOL
REMARK 924 INTRA-LIGAND FREE ENERGY PREDICTED BY IDOCK:   -0.27 KCAL/MOL
REMARK 927      BINDING AFFINITY PREDICTED BY RF-SCORE:    0.00 PKD
ROOT
HETATM    1  N   UNL     1      -6.616  10.249  63.978  1.00  0.00    -0.262 N  
HETATM    2  H2  UNL     1      -6.382  10.170  62.988  1.00  0.00     0.000 HD 
HETATM    3  S   UNL     1      -7.802   9.417  64.822  1.00  0.00    -0.126 S  
HETATM    4  H1  UNL     1      -6.180  10.852  64.674  1.00  0.00     0.000 HD 
HETATM    5  O   UNL     1      -7.179   8.881  66.007  1.00  0.00    -0.086 OA 
HETATM    6  O   UNL     1      -8.421   8.562  63.833  1.00  0.00    -0.134 OA 
ENDROOT
BRANCH   3   7
HETATM    7  C   UNL     1      -8.953  10.667  65.296  1.00  0.00    -0.190 A  
HETATM    8  C   UNL     1      -9.567  11.487  64.350  1.00  0.00    -0.149 A  
HETATM    9 CL   UNL     1      -9.358  11.331  62.644  1.00  0.00    -0.364 Cl 
HETATM   10  C   UNL     1     -10.385  12.534  64.786  1.00  0.00    -0.331 A  
HETATM   11  C   UNL     1     -10.557  12.785  66.147  1.00  0.00    -0.286 A  
HETATM   12  C   UNL     1      -9.926  11.983  67.113  1.00  0.00    -0.208 A  
HETATM   13  C   UNL     1      -9.148  10.897  66.669  1.00  0.00    -0.175 A  
BRANCH  12  14
HETATM   14  C   UNL     1      -9.928  12.408  68.578  1.00  0.00    -0.170 C  
HETATM   15  O   UNL     1      -8.617  12.598  69.056  1.00  0.00    -0.327 OA 
HETATM   16  N   UNL     1     -10.629  13.628  68.834  1.00  0.00    -0.360 N  
HETATM   17  H   UNL     1      -8.618  12.863  69.969  1.00  0.00     0.000 HD 
HETATM   18  H   UNL     1     -10.328  14.538  68.487  1.00  0.00     0.000 HD 
HETATM   19  C   UNL     1     -11.754  13.436  69.600  1.00  0.00    -0.310 C  
HETATM   20  O   UNL     1     -12.598  14.267  69.876  1.00  0.00    -0.312 OA 
HETATM   21  C   UNL     1     -11.781  12.020  69.994  1.00  0.00    -0.346 A  
HETATM   22  C   UNL     1     -12.726  11.321  70.723  1.00  0.00    -0.360 A  
HETATM   23  C   UNL     1     -12.522   9.949  70.886  1.00  0.00    -0.401 A  
HETATM   24  C   UNL     1     -11.387   9.321  70.342  1.00  0.00    -0.283 A  
HETATM   25  C   UNL     1     -10.446  10.052  69.610  1.00  0.00    -0.275 A  
HETATM   26  C   UNL     1     -10.665  11.409  69.427  1.00  0.00    -0.152 A  
ENDBRANCH  12  14
ENDBRANCH   3   7
TORSDOF 2
ENDMDL
MODEL      120
REMARK 921   NORMALIZED FREE ENERGY PREDICTED BY IDOCK:   -4.83 KCAL/MOL
REMARK 922        TOTAL FREE ENERGY PREDICTED BY IDOCK:   -5.87 KCAL/MOL
REMARK 923 INTER-LIGAND FREE ENERGY PREDICTED BY IDOCK:   -5.46 KCAL/MOL
REMARK 924 INTRA-LIGAND FREE ENERGY PREDICTED BY IDOCK:   -0.41 KCAL/MOL
REMARK 927      BINDING AFFINITY PREDICTED BY RF-SCORE:    0.00 PKD
ROOT
HETATM    1  N   UNL     1      -8.416   6.607  66.100  1.00  0.00    -0.129 N  
HETATM    2  H2  UNL     1      -8.629   6.240  65.172  1.00  0.00     0.000 HD 
HETATM    3  S   UNL     1      -9.388   6.569  67.466  1.00  0.00    -0.123 S  
HETATM    4  H1  UNL     1      -7.564   7.079  66.403  1.00  0.00     0.000 HD 
HETATM    5  O   UNL     1      -8.579   6.056  68.545  1.00  0.00    -0.112 OA 
HETATM    6  O   UNL     1     -10.595   5.901  67.035  1.00  0.00    -0.241 OA 
ENDROOT
BRANCH   3   7
HETATM    7  C   UNL     1      -9.756   8.265  67.783  1.00  0.00    -0.158 A  
HETATM    8  C   UNL     1     -10.513   8.650  68.888  1.00  0.00    -0.192 A  
HETATM    9 CL   UNL     1     -11.091   7.564  70.099  1.00  0.00    -0.266 Cl 
HETATM   10  C   UNL     1     -10.871   9.994  69.033  1.00  0.00    -0.253 A  
HETATM   11  C   UNL     1     -10.512  10.935  68.068  1.00  0.00    -0.222 A  
HETATM   12  C   UNL     1      -9.770  10.559  66.935  1.00  0.00    -0.218 A  
HETATM   13  C   UNL     1      -9.366   9.215  66.823  1.00  0.00    -0.213 A  
BRANCH  12  14
HETATM   14  C   UNL     1      -9.591  11.537  65.780  1.00  0.00    -0.235 C  
HETATM   15  O   UNL     1      -8.301  11.440  65.224  1.00  0.00    -0.374 OA 
HETATM   16  N   UNL     1     -10.509  11.344  64.700  1.00  0.00    -0.296 N  
HETATM   17  H   UNL     1      -8.189  12.050  64.504  1.00  0.00     0.000 HD 
HETATM   18  H   UNL     1     -10.517  10.517  64.104  1.00  0.00     0.000 HD 
HETATM   19  C   UNL     1     -11.379  12.398  64.555  1.00  0.00    -0.328 C  
HETATM   20  O   UNL     1     -12.332  12.459  63.802  1.00  0.00    -0.473 OA 
HETATM   21  C   UNL     1     -10.977  13.435  65.517  1.00  0.00    -0.294 A  
HETATM   22  C   UNL     1     -11.558  14.659  65.795  1.00  0.00    -0.328 A  
HETATM   23  C   UNL     1     -10.992  15.418  66.822  1.00  0.00    -0.282 A  
HETATM   24  C   UNL     1      -9.865  14.951  67.525  1.00  0.00    -0.217 A  
HETATM   25  C   UNL     1      -9.297  13.709  67.222  1.00  0.00    -0.233 A  
HETATM   26  C   UNL     1      -9.877  12.947  66.219  1.00  0.00    -0.273 A  
ENDBRANCH  12  14
ENDBRANCH   3   7
TORSDOF 2
ENDMDL
MODEL      121
REMARK 921   NORMALIZED FREE ENERGY PREDICTED BY IDOCK:   -4.81 KCAL/MOL
REMARK 922        TOTAL FREE ENERGY PREDICTED BY IDOCK:   -5.85 KCAL/MOL
REMARK 923 INTER-LIGAND FREE ENERGY PREDICTED BY IDOCK:   -5.54 KCAL/MOL
REMARK 924 INTRA-LIGAND FREE ENERGY PREDICTED BY IDOCK:   -0.31 KCAL/MOL
REMARK 927      BINDING AFFINITY PREDICTED BY RF-SCORE:    0.00 PKD
ROOT
HETATM    1  N   UNL     1      -9.826  18.324  66.796  1.00  0.00    -0.323 N  
HETATM    2  H2  UNL     1     -10.309  18.542  65.925  1.00  0.00     0.000 HD 
HETATM    3  S   UNL     1      -8.229  17.853  66.994  1.00  0.00    -0.233 S  
HETATM    4  H1  UNL     1     -10.206  18.345  67.742  1.00  0.00     0.000 HD 
HETATM    5  O   UNL     1      -7.664  18.695  68.020  1.00  0.00    -0.251 OA 
HETATM    6  O   UNL     1      -7.690  17.824  65.652  1.00  0.00    -0.545 OA 
ENDROOT
BRANCH   3   7
HETATM    7  C   UNL     1      -8.336  16.202  67.602  1.00  0.00    -0.151 A  
HETATM    8  C   UNL     1      -7.201  15.502  68.010  1.00  0.00    -0.121 A  
HETATM    9 CL   UNL     1      -5.610  16.170  68.058  1.00  0.00    -0.112 Cl 
HETATM   10  C   UNL     1      -7.325  14.159  68.378  1.00  0.00    -0.115 A  
HETATM   11  C   UNL     1      -8.558  13.510  68.303  1.00  0.00    -0.168 A  
HETATM   12  C   UNL     1      -9.707  14.194  67.870  1.00  0.00    -0.224 A  
HETATM   13  C   UNL     1      -9.586  15.561  67.553  1.00  0.00    -0.212 A  
BRANCH  12  14
HETATM   14  C   UNL     1     -10.986  13.422  67.566  1.00  0.00    -0.267 C  
HETATM   15  O   UNL     1     -12.110  14.053  68.133  1.00  0.00    -0.451 OA 
HETATM   16  N   UNL     1     -11.267  13.280  66.170  1.00  0.00    -0.292 N  
HETATM   17  H   UNL     1     -12.908  13.572  67.943  1.00  0.00     0.000 HD 
HETATM   18  H   UNL     1     -11.496  14.061  65.556  1.00  0.00     0.000 HD 
HETATM   19  C   UNL     1     -11.194  11.973  65.751  1.00  0.00    -0.334 C  
HETATM   20  O   UNL     1     -11.272  11.570  64.606  1.00  0.00    -0.287 OA 
HETATM   21  C   UNL     1     -10.956  11.143  66.940  1.00  0.00    -0.333 A  
HETATM   22  C   UNL     1     -10.761   9.777  67.042  1.00  0.00    -0.236 A  
HETATM   23  C   UNL     1     -10.485   9.263  68.311  1.00  0.00    -0.260 A  
HETATM   24  C   UNL     1     -10.429  10.111  69.434  1.00  0.00    -0.254 A  
HETATM   25  C   UNL     1     -10.632  11.488  69.301  1.00  0.00    -0.120 A  
HETATM   26  C   UNL     1     -10.880  11.998  68.037  1.00  0.00    -0.254 A  
ENDBRANCH  12  14
ENDBRANCH   3   7
TORSDOF 2
ENDMDL
MODEL      122
REMARK 921   NORMALIZED FREE ENERGY PREDICTED BY IDOCK:   -4.79 KCAL/MOL
REMARK 922        TOTAL FREE ENERGY PREDICTED BY IDOCK:   -5.83 KCAL/MOL
REMARK 923 INTER-LIGAND FREE ENERGY PREDICTED BY IDOCK:   -5.27 KCAL/MOL
REMARK 924 INTRA-LIGAND FREE ENERGY PREDICTED BY IDOCK:   -0.57 KCAL/MOL
REMARK 927      BINDING AFFINITY PREDICTED BY RF-SCORE:    0.00 PKD
ROOT
HETATM    1  N   UNL     1      -9.854   8.878  71.614  1.00  0.00    -0.307 N  
HETATM    2  H2  UNL     1      -9.651   8.117  72.262  1.00  0.00     0.000 HD 
HETATM    3  S   UNL     1     -11.298   9.192  70.820  1.00  0.00    -0.293 S  
HETATM    4  H1  UNL     1      -9.224   9.617  71.303  1.00  0.00     0.000 HD 
HETATM    5  O   UNL     1     -11.601  10.586  71.033  1.00  0.00    -0.330 OA 
HETATM    6  O   UNL     1     -12.190   8.143  71.261  1.00  0.00    -0.300 OA 
ENDROOT
BRANCH   3   7
HETATM    7  C   UNL     1     -10.919   8.941  69.116  1.00  0.00     0.024 A  
HETATM    8  C   UNL     1     -10.582   7.681  68.624  1.00  0.00    -0.130 A  
HETATM    9 CL   UNL     1     -10.580   6.236  69.567  1.00  0.00    -0.295 Cl 
HETATM   10  C   UNL     1     -10.182   7.557  67.290  1.00  0.00    -0.337 A  
HETATM   11  C   UNL     1     -10.082   8.679  66.468  1.00  0.00    -0.339 A  
HETATM   12  C   UNL     1     -10.394   9.960  66.955  1.00  0.00    -0.303 A  
HETATM   13  C   UNL     1     -10.848  10.072  68.283  1.00  0.00    -0.286 A  
BRANCH  12  14
HETATM   14  C   UNL     1     -10.055  11.195  66.129  1.00  0.00    -0.238 C  
HETATM   15  O   UNL     1      -9.820  10.860  64.781  1.00  0.00    -0.240 OA 
HETATM   16  N   UNL     1     -11.079  12.195  66.120  1.00  0.00    -0.298 N  
HETATM   17  H   UNL     1      -9.609  11.630  64.266  1.00  0.00     0.000 HD 
HETATM   18  H   UNL     1     -11.997  12.062  65.695  1.00  0.00     0.000 HD 
HETATM   19  C   UNL     1     -10.688  13.352  66.750  1.00  0.00    -0.277 C  
HETATM   20  O   UNL     1     -11.384  14.319  66.993  1.00  0.00    -0.314 OA 
HETATM   21  C   UNL     1      -9.276  13.194  67.123  1.00  0.00    -0.227 A  
HETATM   22  C   UNL     1      -8.440  14.053  67.814  1.00  0.00    -0.184 A  
HETATM   23  C   UNL     1      -7.146  13.604  68.089  1.00  0.00    -0.118 A  
HETATM   24  C   UNL     1      -6.718  12.334  67.657  1.00  0.00    -0.126 A  
HETATM   25  C   UNL     1      -7.584  11.487  66.959  1.00  0.00    -0.154 A  
HETATM   26  C   UNL     1      -8.875  11.925  66.710  1.00  0.00    -0.193 A  
ENDBRANCH  12  14
ENDBRANCH   3   7
TORSDOF 2
ENDMDL
MODEL      123
REMARK 921   NORMALIZED FREE ENERGY PREDICTED BY IDOCK:   -4.79 KCAL/MOL
REMARK 922        TOTAL FREE ENERGY PREDICTED BY IDOCK:   -5.83 KCAL/MOL
REMARK 923 INTER-LIGAND FREE ENERGY PREDICTED BY IDOCK:   -5.19 KCAL/MOL
REMARK 924 INTRA-LIGAND FREE ENERGY PREDICTED BY IDOCK:   -0.64 KCAL/MOL
REMARK 927      BINDING AFFINITY PREDICTED BY RF-SCORE:    0.00 PKD
ROOT
HETATM    1  N   UNL     1      -7.300   8.131  65.365  1.00  0.00    -0.068 N  
HETATM    2  H2  UNL     1      -7.369   7.793  64.405  1.00  0.00     0.000 HD 
HETATM    3  S   UNL     1      -8.031   7.494  66.732  1.00  0.00    -0.117 S  
HETATM    4  H1  UNL     1      -6.770   8.932  65.707  1.00  0.00     0.000 HD 
HETATM    5  O   UNL     1      -7.003   7.352  67.733  1.00  0.00    -0.071 OA 
HETATM    6  O   UNL     1      -8.783   6.358  66.247  1.00  0.00    -0.133 OA 
ENDROOT
BRANCH   3   7
HETATM    7  C   UNL     1      -9.160   8.748  67.244  1.00  0.00    -0.132 A  
HETATM    8  C   UNL     1     -10.165   8.486  68.175  1.00  0.00    -0.208 A  
HETATM    9 CL   UNL     1     -10.371   6.977  68.987  1.00  0.00    -0.197 Cl 
HETATM   10  C   UNL     1     -11.102   9.483  68.463  1.00  0.00    -0.035 A  
HETATM   11  C   UNL     1     -11.062  10.712  67.803  1.00  0.00    -0.385 A  
HETATM   12  C   UNL     1     -10.071  10.983  66.845  1.00  0.00    -0.248 A  
HETATM   13  C   UNL     1      -9.097   9.995  66.599  1.00  0.00    -0.169 A  
BRANCH  12  14
HETATM   14  C   UNL     1     -10.177  12.224  65.966  1.00  0.00    -0.243 C  
HETATM   15  O   UNL     1      -9.116  12.287  65.041  1.00  0.00    -0.279 OA 
HETATM   16  N   UNL     1     -11.383  12.298  65.199  1.00  0.00    -0.320 N  
HETATM   17  H   UNL     1      -9.183  13.061  64.493  1.00  0.00     0.000 HD 
HETATM   18  H   UNL     1     -11.618  11.648  64.449  1.00  0.00     0.000 HD 
HETATM   19  C   UNL     1     -12.187  13.343  65.585  1.00  0.00    -0.463 C  
HETATM   20  O   UNL     1     -13.313  13.579  65.192  1.00  0.00    -0.655 OA 
HETATM   21  C   UNL     1     -11.455  14.108  66.605  1.00  0.00    -0.378 A  
HETATM   22  C   UNL     1     -11.849  15.214  67.335  1.00  0.00    -0.086 A  
HETATM   23  C   UNL     1     -10.959  15.696  68.298  1.00  0.00    -0.315 A  
HETATM   24  C   UNL     1      -9.707  15.081  68.492  1.00  0.00    -0.217 A  
HETATM   25  C   UNL     1      -9.334  13.964  67.738  1.00  0.00    -0.204 A  
HETATM   26  C   UNL     1     -10.231  13.473  66.802  1.00  0.00    -0.264 A  
ENDBRANCH  12  14
ENDBRANCH   3   7
TORSDOF 2
ENDMDL
MODEL      124
REMARK 921   NORMALIZED FREE ENERGY PREDICTED BY IDOCK:   -4.78 KCAL/MOL
REMARK 922        TOTAL FREE ENERGY PREDICTED BY IDOCK:   -5.82 KCAL/MOL
REMARK 923 INTER-LIGAND FREE ENERGY PREDICTED BY IDOCK:   -5.21 KCAL/MOL
REMARK 924 INTRA-LIGAND FREE ENERGY PREDICTED BY IDOCK:   -0.61 KCAL/MOL
REMARK 927      BINDING AFFINITY PREDICTED BY RF-SCORE:    0.00 PKD
ROOT
HETATM    1  N   UNL     1     -11.475  12.104  63.028  1.00  0.00    -0.662 N  
HETATM    2  H2  UNL     1     -11.376  12.480  62.085  1.00  0.00     0.000 HD 
HETATM    3  S   UNL     1     -11.782  12.950  64.443  1.00  0.00    -0.400 S  
HETATM    4  H1  UNL     1     -11.410  11.129  63.321  1.00  0.00     0.000 HD 
HETATM    5  O   UNL     1     -12.875  12.281  65.105  1.00  0.00    -0.522 OA 
HETATM    6  O   UNL     1     -11.875  14.332  64.027  1.00  0.00    -0.352 OA 
ENDROOT
BRANCH   3   7
HETATM    7  C   UNL     1     -10.317  12.739  65.401  1.00  0.00    -0.293 A  
HETATM    8  C   UNL     1      -9.881  11.475  65.794  1.00  0.00    -0.234 A  
HETATM    9 CL   UNL     1     -10.642   9.996  65.334  1.00  0.00     0.025 Cl 
HETATM   10  C   UNL     1      -8.777  11.370  66.646  1.00  0.00    -0.178 A  
HETATM   11  C   UNL     1      -8.139  12.512  67.130  1.00  0.00    -0.156 A  
HETATM   12  C   UNL     1      -8.582  13.795  66.763  1.00  0.00    -0.058 A  
HETATM   13  C   UNL     1      -9.659  13.893  65.863  1.00  0.00    -0.171 A  
BRANCH  12  14
HETATM   14  C   UNL     1      -8.036  15.025  67.480  1.00  0.00    -0.178 C  
HETATM   15  O   UNL     1      -6.853  14.724  68.182  1.00  0.00    -0.101 OA 
HETATM   16  N   UNL     1      -7.720  16.117  66.612  1.00  0.00    -0.246 N  
HETATM   17  H   UNL     1      -6.512  15.491  68.629  1.00  0.00     0.000 HD 
HETATM   18  H   UNL     1      -6.974  16.092  65.916  1.00  0.00     0.000 HD 
HETATM   19  C   UNL     1      -8.534  17.205  66.819  1.00  0.00    -0.235 C  
HETATM   20  O   UNL     1      -8.571  18.224  66.157  1.00  0.00    -0.455 OA 
HETATM   21  C   UNL     1      -9.395  16.897  67.970  1.00  0.00    -0.238 A  
HETATM   22  C   UNL     1     -10.410  17.642  68.543  1.00  0.00    -0.370 A  
HETATM   23  C   UNL     1     -11.114  17.060  69.599  1.00  0.00     0.263 A  
HETATM   24  C   UNL     1     -10.779  15.774  70.064  1.00  0.00    -0.347 A  
HETATM   25  C   UNL     1      -9.747  15.043  69.468  1.00  0.00    -0.113 A  
HETATM   26  C   UNL     1      -9.068  15.613  68.402  1.00  0.00    -0.190 A  
ENDBRANCH  12  14
ENDBRANCH   3   7
TORSDOF 2
ENDMDL
MODEL      125
REMARK 921   NORMALIZED FREE ENERGY PREDICTED BY IDOCK:   -4.78 KCAL/MOL
REMARK 922        TOTAL FREE ENERGY PREDICTED BY IDOCK:   -5.82 KCAL/MOL
REMARK 923 INTER-LIGAND FREE ENERGY PREDICTED BY IDOCK:   -5.44 KCAL/MOL
REMARK 924 INTRA-LIGAND FREE ENERGY PREDICTED BY IDOCK:   -0.38 KCAL/MOL
REMARK 927      BINDING AFFINITY PREDICTED BY RF-SCORE:    0.00 PKD
ROOT
HETATM    1  N   UNL     1      -6.168   8.631  65.004  1.00  0.00    -0.060 N  
HETATM    2  H2  UNL     1      -6.076   8.280  64.051  1.00  0.00     0.000 HD 
HETATM    3  S   UNL     1      -6.043   7.765  66.434  1.00  0.00    -0.046 S  
HETATM    4  H1  UNL     1      -6.357   9.589  65.299  1.00  0.00     0.000 HD 
HETATM    5  O   UNL     1      -5.134   8.489  67.288  1.00  0.00    -0.032 OA 
HETATM    6  O   UNL     1      -5.775   6.407  66.014  1.00  0.00    -0.020 OA 
ENDROOT
BRANCH   3   7
HETATM    7  C   UNL     1      -7.662   7.838  67.128  1.00  0.00    -0.105 A  
HETATM    8  C   UNL     1      -8.736   7.170  66.542  1.00  0.00    -0.134 A  
HETATM    9 CL   UNL     1      -8.607   6.145  65.159  1.00  0.00    -0.100 Cl 
HETATM   10  C   UNL     1     -10.020   7.352  67.067  1.00  0.00    -0.301 A  
HETATM   11  C   UNL     1     -10.235   8.218  68.139  1.00  0.00    -0.255 A  
HETATM   12  C   UNL     1      -9.167   8.918  68.726  1.00  0.00    -0.140 A  
HETATM   13  C   UNL     1      -7.870   8.690  68.228  1.00  0.00    -0.102 A  
BRANCH  12  14
HETATM   14  C   UNL     1      -9.444  10.032  69.729  1.00  0.00    -0.207 C  
HETATM   15  O   UNL     1      -8.265  10.428  70.391  1.00  0.00    -0.358 OA 
HETATM   16  N   UNL     1      -9.996  11.219  69.150  1.00  0.00    -0.410 N  
HETATM   17  H   UNL     1      -8.438  11.122  71.017  1.00  0.00     0.000 HD 
HETATM   18  H   UNL     1      -9.491  11.820  68.500  1.00  0.00     0.000 HD 
HETATM   19  C   UNL     1     -11.283  11.458  69.570  1.00  0.00    -0.256 C  
HETATM   20  O   UNL     1     -12.034  12.321  69.159  1.00  0.00    -0.297 OA 
HETATM   21  C   UNL     1     -11.611  10.443  70.581  1.00  0.00    -0.440 A  
HETATM   22  C   UNL     1     -12.792  10.226  71.268  1.00  0.00    -0.522 A  
HETATM   23  C   UNL     1     -12.838   9.128  72.131  1.00  0.00    -0.486 A  
HETATM   24  C   UNL     1     -11.714   8.299  72.300  1.00  0.00    -0.453 A  
HETATM   25  C   UNL     1     -10.532   8.543  71.595  1.00  0.00    -0.345 A  
HETATM   26  C   UNL     1     -10.498   9.616  70.718  1.00  0.00    -0.375 A  
ENDBRANCH  12  14
ENDBRANCH   3   7
TORSDOF 2
ENDMDL
MODEL      126
REMARK 921   NORMALIZED FREE ENERGY PREDICTED BY IDOCK:   -4.77 KCAL/MOL
REMARK 922        TOTAL FREE ENERGY PREDICTED BY IDOCK:   -5.81 KCAL/MOL
REMARK 923 INTER-LIGAND FREE ENERGY PREDICTED BY IDOCK:   -5.51 KCAL/MOL
REMARK 924 INTRA-LIGAND FREE ENERGY PREDICTED BY IDOCK:   -0.29 KCAL/MOL
REMARK 927      BINDING AFFINITY PREDICTED BY RF-SCORE:    0.00 PKD
ROOT
HETATM    1  N   UNL     1      -9.392   9.202  64.287  1.00  0.00    -0.338 N  
HETATM    2  H2  UNL     1      -9.701   8.267  64.551  1.00  0.00     0.000 HD 
HETATM    3  S   UNL     1      -8.399  10.238  65.153  1.00  0.00    -0.163 S  
HETATM    4  H1  UNL     1      -9.620   9.716  63.436  1.00  0.00     0.000 HD 
HETATM    5  O   UNL     1      -7.375  10.697  64.248  1.00  0.00     0.041 OA 
HETATM    6  O   UNL     1      -8.077   9.509  66.360  1.00  0.00    -0.110 OA 
ENDROOT
BRANCH   3   7
HETATM    7  C   UNL     1      -9.446  11.595  65.569  1.00  0.00    -0.195 A  
HETATM    8  C   UNL     1     -10.301  12.168  64.629  1.00  0.00    -0.297 A  
HETATM    9 CL   UNL     1     -10.507  11.586  63.018  1.00  0.00    -0.304 Cl 
HETATM   10  C   UNL     1     -11.026  13.312  64.977  1.00  0.00    -0.328 A  
HETATM   11  C   UNL     1     -10.872  13.900  66.233  1.00  0.00    -0.290 A  
HETATM   12  C   UNL     1      -9.995  13.349  67.183  1.00  0.00    -0.242 A  
HETATM   13  C   UNL     1      -9.309  12.166  66.847  1.00  0.00    -0.203 A  
BRANCH  12  14
HETATM   14  C   UNL     1      -9.657  14.126  68.451  1.00  0.00    -0.225 C  
HETATM   15  O   UNL     1      -8.480  13.635  69.051  1.00  0.00    -0.351 OA 
HETATM   16  N   UNL     1      -9.447  15.525  68.242  1.00  0.00    -0.198 N  
HETATM   17  H   UNL     1      -8.269  14.120  69.841  1.00  0.00     0.000 HD 
HETATM   18  H   UNL     1      -8.671  15.908  67.704  1.00  0.00     0.000 HD 
HETATM   19  C   UNL     1     -10.409  16.296  68.850  1.00  0.00    -0.263 C  
HETATM   20  O   UNL     1     -10.550  17.500  68.748  1.00  0.00    -0.330 OA 
HETATM   21  C   UNL     1     -11.278  15.392  69.617  1.00  0.00    -0.289 A  
HETATM   22  C   UNL     1     -12.411  15.669  70.359  1.00  0.00    -0.409 A  
HETATM   23  C   UNL     1     -13.083  14.586  70.931  1.00  0.00    -0.405 A  
HETATM   24  C   UNL     1     -12.603  13.274  70.766  1.00  0.00    -0.357 A  
HETATM   25  C   UNL     1     -11.453  13.022  70.012  1.00  0.00    -0.086 A  
HETATM   26  C   UNL     1     -10.804  14.096  69.423  1.00  0.00    -0.169 A  
ENDBRANCH  12  14
ENDBRANCH   3   7
TORSDOF 2
ENDMDL
MODEL      127
REMARK 921   NORMALIZED FREE ENERGY PREDICTED BY IDOCK:   -4.76 KCAL/MOL
REMARK 922        TOTAL FREE ENERGY PREDICTED BY IDOCK:   -5.80 KCAL/MOL
REMARK 923 INTER-LIGAND FREE ENERGY PREDICTED BY IDOCK:   -5.35 KCAL/MOL
REMARK 924 INTRA-LIGAND FREE ENERGY PREDICTED BY IDOCK:   -0.45 KCAL/MOL
REMARK 927      BINDING AFFINITY PREDICTED BY RF-SCORE:    0.00 PKD
ROOT
HETATM    1  N   UNL     1     -10.683  12.954  69.071  1.00  0.00    -0.412 N  
HETATM    2  H2  UNL     1     -10.010  13.343  69.731  1.00  0.00     0.000 HD 
HETATM    3  S   UNL     1     -11.066  11.340  68.826  1.00  0.00    -0.258 S  
HETATM    4  H1  UNL     1     -11.273  13.461  68.411  1.00  0.00     0.000 HD 
HETATM    5  O   UNL     1     -12.504  11.237  68.861  1.00  0.00    -0.433 OA 
HETATM    6  O   UNL     1     -10.228  10.622  69.760  1.00  0.00    -0.183 OA 
ENDROOT
BRANCH   3   7
HETATM    7  C   UNL     1     -10.508  11.006  67.186  1.00  0.00    -0.232 A  
HETATM    8  C   UNL     1     -10.996  11.719  66.093  1.00  0.00    -0.307 A  
HETATM    9 CL   UNL     1     -12.105  13.037  66.206  1.00  0.00    -0.471 Cl 
HETATM   10  C   UNL     1     -10.606  11.341  64.804  1.00  0.00    -0.376 A  
HETATM   11  C   UNL     1      -9.770  10.242  64.606  1.00  0.00    -0.398 A  
HETATM   12  C   UNL     1      -9.288   9.498  65.697  1.00  0.00    -0.302 A  
HETATM   13  C   UNL     1      -9.641   9.916  66.994  1.00  0.00    -0.218 A  
BRANCH  12  14
HETATM   14  C   UNL     1      -8.578   8.169  65.460  1.00  0.00    -0.149 C  
HETATM   15  O   UNL     1      -8.714   7.748  64.123  1.00  0.00    -0.344 OA 
HETATM   16  N   UNL     1      -7.174   8.199  65.731  1.00  0.00    -0.067 N  
HETATM   17  H   UNL     1      -8.271   6.920  63.976  1.00  0.00     0.000 HD 
HETATM   18  H   UNL     1      -6.504   8.745  65.190  1.00  0.00     0.000 HD 
HETATM   19  C   UNL     1      -6.829   7.408  66.800  1.00  0.00    -0.066 C  
HETATM   20  O   UNL     1      -5.734   7.329  67.325  1.00  0.00    -0.027 OA 
HETATM   21  C   UNL     1      -8.042   6.701  67.234  1.00  0.00    -0.121 A  
HETATM   22  C   UNL     1      -8.230   5.830  68.292  1.00  0.00    -0.108 A  
HETATM   23  C   UNL     1      -9.526   5.357  68.510  1.00  0.00    -0.156 A  
HETATM   24  C   UNL     1     -10.584   5.744  67.666  1.00  0.00    -0.313 A  
HETATM   25  C   UNL     1     -10.365   6.625  66.602  1.00  0.00    -0.215 A  
HETATM   26  C   UNL     1      -9.083   7.114  66.405  1.00  0.00    -0.189 A  
ENDBRANCH  12  14
ENDBRANCH   3   7
TORSDOF 2
ENDMDL
MODEL      128
REMARK 921   NORMALIZED FREE ENERGY PREDICTED BY IDOCK:   -4.65 KCAL/MOL
REMARK 922        TOTAL FREE ENERGY PREDICTED BY IDOCK:   -5.67 KCAL/MOL
REMARK 923 INTER-LIGAND FREE ENERGY PREDICTED BY IDOCK:   -5.15 KCAL/MOL
REMARK 924 INTRA-LIGAND FREE ENERGY PREDICTED BY IDOCK:   -0.52 KCAL/MOL
REMARK 927      BINDING AFFINITY PREDICTED BY RF-SCORE:    0.00 PKD
ROOT
HETATM    1  N   UNL     1     -11.742  11.981  66.893  1.00  0.00    -0.314 N  
HETATM    2  H2  UNL     1     -12.028  12.494  66.059  1.00  0.00     0.000 HD 
HETATM    3  S   UNL     1     -10.237  11.977  67.631  1.00  0.00    -0.203 S  
HETATM    4  H1  UNL     1     -12.310  11.354  67.464  1.00  0.00     0.000 HD 
HETATM    5  O   UNL     1     -10.455  12.220  69.035  1.00  0.00    -0.145 OA 
HETATM    6  O   UNL     1      -9.433  12.865  66.820  1.00  0.00    -0.233 OA 
ENDROOT
BRANCH   3   7
HETATM    7  C   UNL     1      -9.654  10.326  67.419  1.00  0.00    -0.158 A  
HETATM    8  C   UNL     1      -9.683   9.699  66.174  1.00  0.00    -0.252 A  
HETATM    9 CL   UNL     1     -10.190  10.461  64.711  1.00  0.00    -0.388 Cl 
HETATM   10  C   UNL     1      -9.314   8.353  66.081  1.00  0.00    -0.267 A  
HETATM   11  C   UNL     1      -8.959   7.632  67.221  1.00  0.00    -0.134 A  
HETATM   12  C   UNL     1      -8.948   8.242  68.486  1.00  0.00    -0.137 A  
HETATM   13  C   UNL     1      -9.268   9.611  68.566  1.00  0.00    -0.137 A  
BRANCH  12  14
HETATM   14  C   UNL     1      -8.792   7.393  69.743  1.00  0.00    -0.141 C  
HETATM   15  O   UNL     1      -8.287   6.115  69.436  1.00  0.00    -0.114 OA 
HETATM   16  N   UNL     1      -7.909   7.949  70.721  1.00  0.00    -0.089 N  
HETATM   17  H   UNL     1      -8.190   5.585  70.219  1.00  0.00     0.000 HD 
HETATM   18  H   UNL     1      -6.906   8.066  70.578  1.00  0.00     0.000 HD 
HETATM   19  C   UNL     1      -8.563   8.308  71.875  1.00  0.00    -0.168 C  
HETATM   20  O   UNL     1      -8.092   8.906  72.824  1.00  0.00    -0.380 OA 
HETATM   21  C   UNL     1      -9.962   7.880  71.739  1.00  0.00    -0.228 A  
HETATM   22  C   UNL     1     -11.030   8.051  72.602  1.00  0.00    -0.448 A  
HETATM   23  C   UNL     1     -12.278   7.593  72.175  1.00  0.00    -0.301 A  
HETATM   24  C   UNL     1     -12.425   6.969  70.922  1.00  0.00    -0.319 A  
HETATM   25  C   UNL     1     -11.328   6.808  70.070  1.00  0.00    -0.396 A  
HETATM   26  C   UNL     1     -10.096   7.286  70.486  1.00  0.00    -0.195 A  
ENDBRANCH  12  14
ENDBRANCH   3   7
TORSDOF 2
ENDMDL
MODEL      129
REMARK 921   NORMALIZED FREE ENERGY PREDICTED BY IDOCK:   -4.62 KCAL/MOL
REMARK 922        TOTAL FREE ENERGY PREDICTED BY IDOCK:   -5.64 KCAL/MOL
REMARK 923 INTER-LIGAND FREE ENERGY PREDICTED BY IDOCK:   -5.17 KCAL/MOL
REMARK 924 INTRA-LIGAND FREE ENERGY PREDICTED BY IDOCK:   -0.46 KCAL/MOL
REMARK 927      BINDING AFFINITY PREDICTED BY RF-SCORE:    0.00 PKD
ROOT
HETATM    1  N   UNL     1      -8.721   6.764  66.760  1.00  0.00    -0.118 N  
HETATM    2  H2  UNL     1      -9.173   6.360  65.940  1.00  0.00     0.000 HD 
HETATM    3  S   UNL     1      -9.453   7.393  68.130  1.00  0.00    -0.139 S  
HETATM    4  H1  UNL     1      -7.721   6.875  66.928  1.00  0.00     0.000 HD 
HETATM    5  O   UNL     1      -8.804   6.792  69.269  1.00  0.00    -0.137 OA 
HETATM    6  O   UNL     1     -10.871   7.235  67.891  1.00  0.00    -0.188 OA 
ENDROOT
BRANCH   3   7
HETATM    7  C   UNL     1      -9.055   9.111  68.085  1.00  0.00    -0.132 A  
HETATM    8  C   UNL     1      -7.743   9.557  68.235  1.00  0.00    -0.086 A  
HETATM    9 CL   UNL     1      -6.373   8.519  68.388  1.00  0.00    -0.054 Cl 
HETATM   10  C   UNL     1      -7.495  10.931  68.304  1.00  0.00    -0.093 A  
HETATM   11  C   UNL     1      -8.546  11.848  68.262  1.00  0.00    -0.162 A  
HETATM   12  C   UNL     1      -9.876  11.414  68.136  1.00  0.00    -0.195 A  
HETATM   13  C   UNL     1     -10.115  10.032  68.013  1.00  0.00    -0.197 A  
BRANCH  12  14
HETATM   14  C   UNL     1     -11.023  12.400  68.331  1.00  0.00    -0.241 C  
HETATM   15  O   UNL     1     -12.085  11.813  69.047  1.00  0.00    -0.305 OA 
HETATM   16  N   UNL     1     -10.663  13.584  69.048  1.00  0.00    -0.390 N  
HETATM   17  H   UNL     1     -12.800  12.427  69.168  1.00  0.00     0.000 HD 
HETATM   18  H   UNL     1     -10.384  13.591  70.028  1.00  0.00     0.000 HD 
HETATM   19  C   UNL     1     -10.735  14.712  68.266  1.00  0.00    -0.239 C  
HETATM   20  O   UNL     1     -10.380  15.835  68.573  1.00  0.00    -0.220 OA 
HETATM   21  C   UNL     1     -11.281  14.310  66.962  1.00  0.00    -0.332 A  
HETATM   22  C   UNL     1     -11.502  15.064  65.823  1.00  0.00    -0.236 A  
HETATM   23  C   UNL     1     -11.972  14.391  64.692  1.00  0.00    -0.475 A  
HETATM   24  C   UNL     1     -12.225  13.007  64.732  1.00  0.00    -0.487 A  
HETATM   25  C   UNL     1     -11.994  12.271  65.898  1.00  0.00    -0.358 A  
HETATM   26  C   UNL     1     -11.503  12.935  67.010  1.00  0.00    -0.390 A  
ENDBRANCH  12  14
ENDBRANCH   3   7
TORSDOF 2
ENDMDL
MODEL      130
REMARK 921   NORMALIZED FREE ENERGY PREDICTED BY IDOCK:   -4.61 KCAL/MOL
REMARK 922        TOTAL FREE ENERGY PREDICTED BY IDOCK:   -5.63 KCAL/MOL
REMARK 923 INTER-LIGAND FREE ENERGY PREDICTED BY IDOCK:   -5.35 KCAL/MOL
REMARK 924 INTRA-LIGAND FREE ENERGY PREDICTED BY IDOCK:   -0.28 KCAL/MOL
REMARK 927      BINDING AFFINITY PREDICTED BY RF-SCORE:    0.00 PKD
ROOT
HETATM    1  N   UNL     1     -13.092   7.316  71.164  1.00  0.00    -0.568 N  
HETATM    2  H2  UNL     1     -13.688   8.126  71.335  1.00  0.00     0.000 HD 
HETATM    3  S   UNL     1     -11.663   6.911  71.942  1.00  0.00    -0.313 S  
HETATM    4  H1  UNL     1     -13.232   6.572  70.481  1.00  0.00     0.000 HD 
HETATM    5  O   UNL     1     -11.776   5.529  72.338  1.00  0.00    -0.236 OA 
HETATM    6  O   UNL     1     -11.464   7.967  72.910  1.00  0.00    -0.403 OA 
ENDROOT
BRANCH   3   7
HETATM    7  C   UNL     1     -10.431   7.048  70.687  1.00  0.00    -0.210 A  
HETATM    8  C   UNL     1      -9.141   6.557  70.878  1.00  0.00    -0.154 A  
HETATM    9 CL   UNL     1      -8.623   5.700  72.284  1.00  0.00    -0.128 Cl 
HETATM   10  C   UNL     1      -8.172   6.791  69.897  1.00  0.00    -0.127 A  
HETATM   11  C   UNL     1      -8.476   7.537  68.759  1.00  0.00    -0.129 A  
HETATM   12  C   UNL     1      -9.765   8.060  68.563  1.00  0.00    -0.166 A  
HETATM   13  C   UNL     1     -10.750   7.776  69.527  1.00  0.00    -0.200 A  
BRANCH  12  14
HETATM   14  C   UNL     1     -10.020   9.065  67.445  1.00  0.00    -0.209 C  
HETATM   15  O   UNL     1      -9.983   8.444  66.181  1.00  0.00    -0.448 OA 
HETATM   16  N   UNL     1     -11.285   9.728  67.530  1.00  0.00    -0.385 N  
HETATM   17  H   UNL     1     -10.142   9.071  65.485  1.00  0.00     0.000 HD 
HETATM   18  H   UNL     1     -12.181   9.256  67.418  1.00  0.00     0.000 HD 
HETATM   19  C   UNL     1     -11.156  11.074  67.778  1.00  0.00    -0.295 C  
HETATM   20  O   UNL     1     -12.054  11.861  68.011  1.00  0.00    -0.541 OA 
HETATM   21  C   UNL     1      -9.721  11.390  67.757  1.00  0.00    -0.184 A  
HETATM   22  C   UNL     1      -9.074  12.589  67.996  1.00  0.00    -0.200 A  
HETATM   23  C   UNL     1      -7.677  12.578  67.975  1.00  0.00    -0.140 A  
HETATM   24  C   UNL     1      -6.971  11.391  67.701  1.00  0.00    -0.081 A  
HETATM   25  C   UNL     1      -7.651  10.193  67.461  1.00  0.00    -0.091 A  
HETATM   26  C   UNL     1      -9.037  10.202  67.509  1.00  0.00    -0.143 A  
ENDBRANCH  12  14
ENDBRANCH   3   7
TORSDOF 2
ENDMDL
MODEL      131
REMARK 921   NORMALIZED FREE ENERGY PREDICTED BY IDOCK:   -4.57 KCAL/MOL
REMARK 922        TOTAL FREE ENERGY PREDICTED BY IDOCK:   -5.58 KCAL/MOL
REMARK 923 INTER-LIGAND FREE ENERGY PREDICTED BY IDOCK:   -5.45 KCAL/MOL
REMARK 924 INTRA-LIGAND FREE ENERGY PREDICTED BY IDOCK:   -0.13 KCAL/MOL
REMARK 927      BINDING AFFINITY PREDICTED BY RF-SCORE:    0.00 PKD
ROOT
HETATM    1  N   UNL     1      -6.089   9.446  64.662  1.00  0.00    -0.074 N  
HETATM    2  H2  UNL     1      -5.960   9.839  63.730  1.00  0.00     0.000 HD 
HETATM    3  S   UNL     1      -7.480   8.769  65.307  1.00  0.00    -0.088 S  
HETATM    4  H1  UNL     1      -5.399   9.378  65.410  1.00  0.00     0.000 HD 
HETATM    5  O   UNL     1      -7.105   7.500  65.880  1.00  0.00    -0.063 OA 
HETATM    6  O   UNL     1      -8.458   8.866  64.246  1.00  0.00    -0.177 OA 
ENDROOT
BRANCH   3   7
HETATM    7  C   UNL     1      -7.937   9.871  66.607  1.00  0.00    -0.113 A  
HETATM    8  C   UNL     1      -7.126  10.050  67.726  1.00  0.00    -0.086 A  
HETATM    9 CL   UNL     1      -5.580   9.312  67.938  1.00  0.00    -0.038 Cl 
HETATM   10  C   UNL     1      -7.585  10.848  68.779  1.00  0.00    -0.121 A  
HETATM   11  C   UNL     1      -8.853  11.428  68.732  1.00  0.00    -0.076 A  
HETATM   12  C   UNL     1      -9.692  11.237  67.622  1.00  0.00    -0.183 A  
HETATM   13  C   UNL     1      -9.203  10.478  66.542  1.00  0.00    -0.183 A  
BRANCH  12  14
HETATM   14  C   UNL     1     -11.152  11.673  67.684  1.00  0.00    -0.255 C  
HETATM   15  O   UNL     1     -12.002  10.577  67.930  1.00  0.00    -0.696 OA 
HETATM   16  N   UNL     1     -11.434  12.636  68.704  1.00  0.00    -0.283 N  
HETATM   17  H   UNL     1     -12.912  10.848  67.969  1.00  0.00     0.000 HD 
HETATM   18  H   UNL     1     -11.366  12.440  69.703  1.00  0.00     0.000 HD 
HETATM   19  C   UNL     1     -11.808  13.853  68.188  1.00  0.00    -0.372 C  
HETATM   20  O   UNL     1     -11.994  14.882  68.809  1.00  0.00    -0.303 OA 
HETATM   21  C   UNL     1     -11.898  13.703  66.729  1.00  0.00    -0.452 A  
HETATM   22  C   UNL     1     -12.189  14.644  65.757  1.00  0.00    -0.168 A  
HETATM   23  C   UNL     1     -12.135  14.226  64.425  1.00  0.00    -0.490 A  
HETATM   24  C   UNL     1     -11.815  12.894  64.101  1.00  0.00    -0.479 A  
HETATM   25  C   UNL     1     -11.527  11.963  65.104  1.00  0.00    -0.304 A  
HETATM   26  C   UNL     1     -11.555  12.387  66.424  1.00  0.00    -0.442 A  
ENDBRANCH  12  14
ENDBRANCH   3   7
TORSDOF 2
ENDMDL
MODEL      132
REMARK 921   NORMALIZED FREE ENERGY PREDICTED BY IDOCK:   -4.57 KCAL/MOL
REMARK 922        TOTAL FREE ENERGY PREDICTED BY IDOCK:   -5.58 KCAL/MOL
REMARK 923 INTER-LIGAND FREE ENERGY PREDICTED BY IDOCK:   -5.06 KCAL/MOL
REMARK 924 INTRA-LIGAND FREE ENERGY PREDICTED BY IDOCK:   -0.52 KCAL/MOL
REMARK 927      BINDING AFFINITY PREDICTED BY RF-SCORE:    0.00 PKD
ROOT
HETATM    1  N   UNL     1     -11.072   4.893  65.882  1.00  0.00    -0.839 N  
HETATM    2  H2  UNL     1     -11.182   4.289  65.067  1.00  0.00     0.000 HD 
HETATM    3  S   UNL     1      -9.665   5.614  66.441  1.00  0.00    -0.141 S  
HETATM    4  H1  UNL     1     -11.793   5.193  66.538  1.00  0.00     0.000 HD 
HETATM    5  O   UNL     1      -9.963   7.009  66.656  1.00  0.00    -0.194 OA 
HETATM    6  O   UNL     1      -8.643   5.189  65.511  1.00  0.00    -0.131 OA 
ENDROOT
BRANCH   3   7
HETATM    7  C   UNL     1      -9.374   4.844  68.001  1.00  0.00    -0.129 A  
HETATM    8  C   UNL     1      -9.391   3.457  68.141  1.00  0.00    -0.184 A  
HETATM    9 CL   UNL     1      -9.602   2.349  66.835  1.00  0.00     0.104 Cl 
HETATM   10  C   UNL     1      -9.266   2.901  69.418  1.00  0.00    -0.212 A  
HETATM   11  C   UNL     1      -9.164   3.717  70.544  1.00  0.00    -0.210 A  
HETATM   12  C   UNL     1      -9.170   5.117  70.422  1.00  0.00    -0.193 A  
HETATM   13  C   UNL     1      -9.241   5.671  69.130  1.00  0.00    -0.136 A  
BRANCH  12  14
HETATM   14  C   UNL     1      -9.298   5.991  71.665  1.00  0.00    -0.148 C  
HETATM   15  O   UNL     1      -9.135   5.234  72.841  1.00  0.00    -0.123 OA 
HETATM   16  N   UNL     1      -8.342   7.054  71.736  1.00  0.00    -0.110 N  
HETATM   17  H   UNL     1      -9.215   5.779  73.616  1.00  0.00     0.000 HD 
HETATM   18  H   UNL     1      -7.339   6.907  71.844  1.00  0.00     0.000 HD 
HETATM   19  C   UNL     1      -8.928   8.293  71.643  1.00  0.00    -0.180 C  
HETATM   20  O   UNL     1      -8.357   9.364  71.559  1.00  0.00    -0.270 OA 
HETATM   21  C   UNL     1     -10.383   8.091  71.615  1.00  0.00    -0.267 A  
HETATM   22  C   UNL     1     -11.404   9.015  71.481  1.00  0.00    -0.416 A  
HETATM   23  C   UNL     1     -12.710   8.522  71.417  1.00  0.00    -0.294 A  
HETATM   24  C   UNL     1     -12.962   7.140  71.505  1.00  0.00    -0.431 A  
HETATM   25  C   UNL     1     -11.910   6.229  71.641  1.00  0.00    -0.315 A  
HETATM   26  C   UNL     1     -10.614   6.719  71.678  1.00  0.00    -0.239 A  
ENDBRANCH  12  14
ENDBRANCH   3   7
TORSDOF 2
ENDMDL
MODEL      133
REMARK 921   NORMALIZED FREE ENERGY PREDICTED BY IDOCK:   -4.54 KCAL/MOL
REMARK 922        TOTAL FREE ENERGY PREDICTED BY IDOCK:   -5.55 KCAL/MOL
REMARK 923 INTER-LIGAND FREE ENERGY PREDICTED BY IDOCK:   -5.31 KCAL/MOL
REMARK 924 INTRA-LIGAND FREE ENERGY PREDICTED BY IDOCK:   -0.24 KCAL/MOL
REMARK 927      BINDING AFFINITY PREDICTED BY RF-SCORE:    0.00 PKD
ROOT
HETATM    1  N   UNL     1      -9.847   4.921  70.931  1.00  0.00    -0.193 N  
HETATM    2  H2  UNL     1      -9.812   4.255  71.702  1.00  0.00     0.000 HD 
HETATM    3  S   UNL     1      -8.780   6.173  70.607  1.00  0.00    -0.140 S  
HETATM    4  H1  UNL     1     -10.540   4.975  70.185  1.00  0.00     0.000 HD 
HETATM    5  O   UNL     1      -8.409   6.063  69.218  1.00  0.00    -0.112 OA 
HETATM    6  O   UNL     1      -7.798   6.097  71.666  1.00  0.00    -0.100 OA 
ENDROOT
BRANCH   3   7
HETATM    7  C   UNL     1      -9.745   7.633  70.828  1.00  0.00    -0.173 A  
HETATM    8  C   UNL     1     -10.524   7.824  71.968  1.00  0.00    -0.224 A  
HETATM    9 CL   UNL     1     -10.573   6.737  73.307  1.00  0.00    -0.304 Cl 
HETATM   10  C   UNL     1     -11.356   8.946  72.043  1.00  0.00    -0.427 A  
HETATM   11  C   UNL     1     -11.439   9.844  70.979  1.00  0.00    -0.466 A  
HETATM   12  C   UNL     1     -10.679   9.653  69.813  1.00  0.00    -0.269 A  
HETATM   13  C   UNL     1      -9.803   8.552  69.765  1.00  0.00    -0.186 A  
BRANCH  12  14
HETATM   14  C   UNL     1     -10.954  10.499  68.575  1.00  0.00    -0.252 C  
HETATM   15  O   UNL     1     -11.283   9.692  67.468  1.00  0.00    -0.431 OA 
HETATM   16  N   UNL     1     -12.030  11.429  68.727  1.00  0.00    -0.332 N  
HETATM   17  H   UNL     1     -11.454  10.219  66.696  1.00  0.00     0.000 HD 
HETATM   18  H   UNL     1     -13.004  11.154  68.854  1.00  0.00     0.000 HD 
HETATM   19  C   UNL     1     -11.605  12.735  68.682  1.00  0.00    -0.314 C  
HETATM   20  O   UNL     1     -12.275  13.727  68.896  1.00  0.00    -0.344 OA 
HETATM   21  C   UNL     1     -10.168  12.719  68.373  1.00  0.00    -0.237 A  
HETATM   22  C   UNL     1      -9.273  13.769  68.266  1.00  0.00    -0.204 A  
HETATM   23  C   UNL     1      -7.935  13.447  68.027  1.00  0.00    -0.148 A  
HETATM   24  C   UNL     1      -7.532  12.106  67.883  1.00  0.00    -0.117 A  
HETATM   25  C   UNL     1      -8.459  11.065  67.994  1.00  0.00    -0.129 A  
HETATM   26  C   UNL     1      -9.782  11.386  68.258  1.00  0.00    -0.202 A  
ENDBRANCH  12  14
ENDBRANCH   3   7
TORSDOF 2
ENDMDL
MODEL      134
REMARK 921   NORMALIZED FREE ENERGY PREDICTED BY IDOCK:   -4.53 KCAL/MOL
REMARK 922        TOTAL FREE ENERGY PREDICTED BY IDOCK:   -5.53 KCAL/MOL
REMARK 923 INTER-LIGAND FREE ENERGY PREDICTED BY IDOCK:   -5.67 KCAL/MOL
REMARK 924 INTRA-LIGAND FREE ENERGY PREDICTED BY IDOCK:    0.13 KCAL/MOL
REMARK 927      BINDING AFFINITY PREDICTED BY RF-SCORE:    0.00 PKD
ROOT
HETATM    1  N   UNL     1      -8.051   7.008  63.914  1.00  0.00    -0.297 N  
HETATM    2  H2  UNL     1      -8.490   6.695  63.049  1.00  0.00     0.000 HD 
HETATM    3  S   UNL     1      -8.250   6.375  65.454  1.00  0.00    -0.138 S  
HETATM    4  H1  UNL     1      -7.392   7.777  64.035  1.00  0.00     0.000 HD 
HETATM    5  O   UNL     1      -6.931   6.166  65.997  1.00  0.00    -0.059 OA 
HETATM    6  O   UNL     1      -9.184   5.285  65.281  1.00  0.00    -0.137 OA 
ENDROOT
BRANCH   3   7
HETATM    7  C   UNL     1      -9.042   7.668  66.355  1.00  0.00    -0.174 A  
HETATM    8  C   UNL     1     -10.052   7.399  67.276  1.00  0.00    -0.228 A  
HETATM    9 CL   UNL     1     -10.580   5.813  67.707  1.00  0.00    -0.302 Cl 
HETATM   10  C   UNL     1     -10.725   8.466  67.881  1.00  0.00    -0.141 A  
HETATM   11  C   UNL     1     -10.419   9.784  67.542  1.00  0.00    -0.309 A  
HETATM   12  C   UNL     1      -9.419  10.072  66.597  1.00  0.00    -0.215 A  
HETATM   13  C   UNL     1      -8.709   8.996  66.032  1.00  0.00    -0.184 A  
BRANCH  12  14
HETATM   14  C   UNL     1      -9.260  11.492  66.063  1.00  0.00    -0.217 C  
HETATM   15  O   UNL     1      -7.956  11.976  66.281  1.00  0.00    -0.379 OA 
HETATM   16  N   UNL     1      -9.506  11.621  64.659  1.00  0.00    -0.414 N  
HETATM   17  H   UNL     1      -7.856  12.860  65.948  1.00  0.00     0.000 HD 
HETATM   18  H   UNL     1      -8.920  11.198  63.940  1.00  0.00     0.000 HD 
HETATM   19  C   UNL     1     -10.620  12.379  64.390  1.00  0.00    -0.337 C  
HETATM   20  O   UNL     1     -11.131  12.561  63.301  1.00  0.00    -0.438 OA 
HETATM   21  C   UNL     1     -11.118  12.900  65.671  1.00  0.00    -0.307 A  
HETATM   22  C   UNL     1     -12.234  13.672  65.940  1.00  0.00    -0.502 A  
HETATM   23  C   UNL     1     -12.503  13.964  67.279  1.00  0.00    -0.032 A  
HETATM   24  C   UNL     1     -11.652  13.502  68.301  1.00  0.00    -0.381 A  
HETATM   25  C   UNL     1     -10.529  12.725  68.000  1.00  0.00    -0.233 A  
HETATM   26  C   UNL     1     -10.280  12.414  66.672  1.00  0.00    -0.241 A  
ENDBRANCH  12  14
ENDBRANCH   3   7
TORSDOF 2
ENDMDL
MODEL      135
REMARK 921   NORMALIZED FREE ENERGY PREDICTED BY IDOCK:   -4.52 KCAL/MOL
REMARK 922        TOTAL FREE ENERGY PREDICTED BY IDOCK:   -5.53 KCAL/MOL
REMARK 923 INTER-LIGAND FREE ENERGY PREDICTED BY IDOCK:   -5.07 KCAL/MOL
REMARK 924 INTRA-LIGAND FREE ENERGY PREDICTED BY IDOCK:   -0.46 KCAL/MOL
REMARK 927      BINDING AFFINITY PREDICTED BY RF-SCORE:    0.00 PKD
ROOT
HETATM    1  N   UNL     1     -10.537  16.245  67.663  1.00  0.00    -0.306 N  
HETATM    2  H2  UNL     1     -10.279  17.072  68.201  1.00  0.00     0.000 HD 
HETATM    3  S   UNL     1     -11.085  14.771  68.245  1.00  0.00    -0.287 S  
HETATM    4  H1  UNL     1     -10.520  16.131  66.650  1.00  0.00     0.000 HD 
HETATM    5  O   UNL     1     -12.274  14.438  67.499  1.00  0.00    -0.342 OA 
HETATM    6  O   UNL     1     -11.109  14.934  69.682  1.00  0.00    -0.257 OA 
ENDROOT
BRANCH   3   7
HETATM    7  C   UNL     1      -9.806  13.635  67.821  1.00  0.00    -0.232 A  
HETATM    8  C   UNL     1      -8.493  13.823  68.252  1.00  0.00    -0.173 A  
HETATM    9 CL   UNL     1      -7.985  15.099  69.297  1.00  0.00    -0.204 Cl 
HETATM   10  C   UNL     1      -7.496  12.955  67.796  1.00  0.00    -0.136 A  
HETATM   11  C   UNL     1      -7.796  11.937  66.891  1.00  0.00    -0.120 A  
HETATM   12  C   UNL     1      -9.109  11.749  66.427  1.00  0.00    -0.215 A  
HETATM   13  C   UNL     1     -10.119  12.591  66.932  1.00  0.00    -0.232 A  
BRANCH  12  14
HETATM   14  C   UNL     1      -9.381  10.797  65.267  1.00  0.00    -0.210 C  
HETATM   15  O   UNL     1     -10.503  11.208  64.521  1.00  0.00    -0.318 OA 
HETATM   16  N   UNL     1      -8.300  10.683  64.337  1.00  0.00    -0.338 N  
HETATM   17  H   UNL     1     -10.672  10.615  63.799  1.00  0.00     0.000 HD 
HETATM   18  H   UNL     1      -7.982  11.447  63.741  1.00  0.00     0.000 HD 
HETATM   19  C   UNL     1      -7.739   9.429  64.336  1.00  0.00    -0.119 C  
HETATM   20  O   UNL     1      -6.741   9.078  63.736  1.00  0.00    -0.088 OA 
HETATM   21  C   UNL     1      -8.540   8.588  65.236  1.00  0.00    -0.192 A  
HETATM   22  C   UNL     1      -8.360   7.268  65.610  1.00  0.00    -0.142 A  
HETATM   23  C   UNL     1      -9.252   6.741  66.548  1.00  0.00    -0.190 A  
HETATM   24  C   UNL     1     -10.298   7.528  67.067  1.00  0.00    -0.395 A  
HETATM   25  C   UNL     1     -10.457   8.859  66.669  1.00  0.00    -0.231 A  
HETATM   26  C   UNL     1      -9.555   9.387  65.759  1.00  0.00    -0.340 A  
ENDBRANCH  12  14
ENDBRANCH   3   7
TORSDOF 2
ENDMDL
MODEL      136
REMARK 921   NORMALIZED FREE ENERGY PREDICTED BY IDOCK:   -4.51 KCAL/MOL
REMARK 922        TOTAL FREE ENERGY PREDICTED BY IDOCK:   -5.52 KCAL/MOL
REMARK 923 INTER-LIGAND FREE ENERGY PREDICTED BY IDOCK:   -4.79 KCAL/MOL
REMARK 924 INTRA-LIGAND FREE ENERGY PREDICTED BY IDOCK:   -0.73 KCAL/MOL
REMARK 927      BINDING AFFINITY PREDICTED BY RF-SCORE:    0.00 PKD
ROOT
HETATM    1  N   UNL     1     -10.987  10.249  70.810  1.00  0.00    -0.389 N  
HETATM    2  H2  UNL     1     -10.242  10.890  71.083  1.00  0.00     0.000 HD 
HETATM    3  S   UNL     1     -11.436   8.819  71.560  1.00  0.00    -0.332 S  
HETATM    4  H1  UNL     1     -11.624  10.336  70.019  1.00  0.00     0.000 HD 
HETATM    5  O   UNL     1     -12.866   8.868  71.740  1.00  0.00    -0.324 OA 
HETATM    6  O   UNL     1     -10.532   8.696  72.682  1.00  0.00    -0.250 OA 
ENDROOT
BRANCH   3   7
HETATM    7  C   UNL     1     -11.051   7.569  70.377  1.00  0.00    -0.261 A  
HETATM    8  C   UNL     1     -10.991   6.223  70.735  1.00  0.00    -0.297 A  
HETATM    9 CL   UNL     1     -11.364   5.615  72.307  1.00  0.00    -0.321 Cl 
HETATM   10  C   UNL     1     -10.572   5.284  69.787  1.00  0.00    -0.283 A  
HETATM   11  C   UNL     1     -10.180   5.688  68.510  1.00  0.00    -0.253 A  
HETATM   12  C   UNL     1     -10.210   7.043  68.142  1.00  0.00    -0.211 A  
HETATM   13  C   UNL     1     -10.685   7.977  69.083  1.00  0.00    -0.121 A  
BRANCH  12  14
HETATM   14  C   UNL     1      -9.560   7.495  66.839  1.00  0.00    -0.187 C  
HETATM   15  O   UNL     1      -9.232   6.395  66.023  1.00  0.00    -0.261 OA 
HETATM   16  N   UNL     1     -10.379   8.356  66.042  1.00  0.00    -0.145 N  
HETATM   17  H   UNL     1      -8.827   6.677  65.211  1.00  0.00     0.000 HD 
HETATM   18  H   UNL     1     -11.249   8.060  65.599  1.00  0.00     0.000 HD 
HETATM   19  C   UNL     1      -9.863   9.625  65.940  1.00  0.00    -0.288 C  
HETATM   20  O   UNL     1     -10.396  10.590  65.426  1.00  0.00    -0.278 OA 
HETATM   21  C   UNL     1      -8.555   9.623  66.611  1.00  0.00    -0.137 A  
HETATM   22  C   UNL     1      -7.665  10.662  66.822  1.00  0.00    -0.127 A  
HETATM   23  C   UNL     1      -6.515  10.378  67.562  1.00  0.00    -0.058 A  
HETATM   24  C   UNL     1      -6.275   9.080  68.050  1.00  0.00    -0.051 A  
HETATM   25  C   UNL     1      -7.191   8.049  67.820  1.00  0.00    -0.091 A  
HETATM   26  C   UNL     1      -8.344   8.339  67.109  1.00  0.00    -0.123 A  
ENDBRANCH  12  14
ENDBRANCH   3   7
TORSDOF 2
ENDMDL
MODEL      137
REMARK 921   NORMALIZED FREE ENERGY PREDICTED BY IDOCK:   -4.51 KCAL/MOL
REMARK 922        TOTAL FREE ENERGY PREDICTED BY IDOCK:   -5.52 KCAL/MOL
REMARK 923 INTER-LIGAND FREE ENERGY PREDICTED BY IDOCK:   -5.31 KCAL/MOL
REMARK 924 INTRA-LIGAND FREE ENERGY PREDICTED BY IDOCK:   -0.21 KCAL/MOL
REMARK 927      BINDING AFFINITY PREDICTED BY RF-SCORE:    0.00 PKD
ROOT
HETATM    1  N   UNL     1      -9.817  10.350  65.027  1.00  0.00    -0.297 N  
HETATM    2  H2  UNL     1      -9.450   9.583  64.463  1.00  0.00     0.000 HD 
HETATM    3  S   UNL     1      -9.064  11.140  66.299  1.00  0.00    -0.199 S  
HETATM    4  H1  UNL     1     -10.725  10.806  64.942  1.00  0.00     0.000 HD 
HETATM    5  O   UNL     1      -9.181  12.555  66.045  1.00  0.00    -0.149 OA 
HETATM    6  O   UNL     1      -7.776  10.492  66.418  1.00  0.00    -0.122 OA 
ENDROOT
BRANCH   3   7
HETATM    7  C   UNL     1     -10.043  10.728  67.707  1.00  0.00    -0.174 A  
HETATM    8  C   UNL     1     -11.243  11.385  67.975  1.00  0.00    -0.281 A  
HETATM    9 CL   UNL     1     -11.949  12.581  66.951  1.00  0.00    -0.390 Cl 
HETATM   10  C   UNL     1     -11.925  11.099  69.162  1.00  0.00    -0.413 A  
HETATM   11  C   UNL     1     -11.397  10.199  70.088  1.00  0.00    -0.372 A  
HETATM   12  C   UNL     1     -10.176   9.547  69.844  1.00  0.00    -0.261 A  
HETATM   13  C   UNL     1      -9.522   9.798  68.623  1.00  0.00    -0.151 A  
BRANCH  12  14
HETATM   14  C   UNL     1      -9.496   8.757  70.957  1.00  0.00    -0.228 C  
HETATM   15  O   UNL     1      -8.220   9.277  71.246  1.00  0.00    -0.324 OA 
HETATM   16  N   UNL     1     -10.216   8.748  72.194  1.00  0.00    -0.326 N  
HETATM   17  H   UNL     1      -7.796   8.784  71.940  1.00  0.00     0.000 HD 
HETATM   18  H   UNL     1     -10.369   9.578  72.766  1.00  0.00     0.000 HD 
HETATM   19  C   UNL     1     -10.677   7.497  72.524  1.00  0.00    -0.285 C  
HETATM   20  O   UNL     1     -11.411   7.212  73.451  1.00  0.00    -0.135 OA 
HETATM   21  C   UNL     1     -10.159   6.558  71.519  1.00  0.00    -0.211 A  
HETATM   22  C   UNL     1     -10.376   5.198  71.380  1.00  0.00    -0.273 A  
HETATM   23  C   UNL     1      -9.802   4.568  70.274  1.00  0.00    -0.299 A  
HETATM   24  C   UNL     1      -9.022   5.296  69.356  1.00  0.00    -0.124 A  
HETATM   25  C   UNL     1      -8.818   6.669  69.521  1.00  0.00    -0.139 A  
HETATM   26  C   UNL     1      -9.411   7.297  70.605  1.00  0.00    -0.157 A  
ENDBRANCH  12  14
ENDBRANCH   3   7
TORSDOF 2
ENDMDL
MODEL      138
REMARK 921   NORMALIZED FREE ENERGY PREDICTED BY IDOCK:   -4.49 KCAL/MOL
REMARK 922        TOTAL FREE ENERGY PREDICTED BY IDOCK:   -5.50 KCAL/MOL
REMARK 923 INTER-LIGAND FREE ENERGY PREDICTED BY IDOCK:   -5.30 KCAL/MOL
REMARK 924 INTRA-LIGAND FREE ENERGY PREDICTED BY IDOCK:   -0.19 KCAL/MOL
REMARK 927      BINDING AFFINITY PREDICTED BY RF-SCORE:    0.00 PKD
ROOT
HETATM    1  N   UNL     1      -6.613  10.491  64.288  1.00  0.00    -0.351 N  
HETATM    2  H2  UNL     1      -6.287  10.087  63.411  1.00  0.00     0.000 HD 
HETATM    3  S   UNL     1      -7.645   9.802  65.416  1.00  0.00    -0.127 S  
HETATM    4  H1  UNL     1      -6.383  11.406  64.676  1.00  0.00     0.000 HD 
HETATM    5  O   UNL     1      -7.016   9.942  66.705  1.00  0.00    -0.086 OA 
HETATM    6  O   UNL     1      -7.970   8.505  64.865  1.00  0.00    -0.120 OA 
ENDROOT
BRANCH   3   7
HETATM    7  C   UNL     1      -9.084  10.820  65.367  1.00  0.00    -0.194 A  
HETATM    8  C   UNL     1      -9.839  10.956  64.203  1.00  0.00    -0.314 A  
HETATM    9 CL   UNL     1      -9.528  10.103  62.735  1.00  0.00    -0.317 Cl 
HETATM   10  C   UNL     1     -10.905  11.861  64.184  1.00  0.00    -0.412 A  
HETATM   11  C   UNL     1     -11.189  12.650  65.300  1.00  0.00    -0.335 A  
HETATM   12  C   UNL     1     -10.422  12.543  66.472  1.00  0.00    -0.258 A  
HETATM   13  C   UNL     1      -9.385  11.591  66.503  1.00  0.00    -0.210 A  
BRANCH  12  14
HETATM   14  C   UNL     1     -10.588  13.567  67.590  1.00  0.00    -0.241 C  
HETATM   15  O   UNL     1     -11.835  13.429  68.229  1.00  0.00    -0.333 OA 
HETATM   16  N   UNL     1      -9.598  13.478  68.619  1.00  0.00    -0.385 N  
HETATM   17  H   UNL     1     -11.938  14.067  68.925  1.00  0.00     0.000 HD 
HETATM   18  H   UNL     1      -9.508  12.683  69.251  1.00  0.00     0.000 HD 
HETATM   19  C   UNL     1      -8.782  14.583  68.660  1.00  0.00    -0.172 C  
HETATM   20  O   UNL     1      -7.792  14.732  69.349  1.00  0.00    -0.152 OA 
HETATM   21  C   UNL     1      -9.298  15.547  67.677  1.00  0.00    -0.203 A  
HETATM   22  C   UNL     1      -8.805  16.785  67.307  1.00  0.00    -0.216 A  
HETATM   23  C   UNL     1      -9.472  17.460  66.282  1.00  0.00    -0.247 A  
HETATM   24  C   UNL     1     -10.610  16.898  65.673  1.00  0.00    -0.231 A  
HETATM   25  C   UNL     1     -11.088  15.645  66.069  1.00  0.00    -0.136 A  
HETATM   26  C   UNL     1     -10.408  14.966  67.068  1.00  0.00    -0.264 A  
ENDBRANCH  12  14
ENDBRANCH   3   7
TORSDOF 2
ENDMDL
MODEL      139
REMARK 921   NORMALIZED FREE ENERGY PREDICTED BY IDOCK:   -4.48 KCAL/MOL
REMARK 922        TOTAL FREE ENERGY PREDICTED BY IDOCK:   -5.49 KCAL/MOL
REMARK 923 INTER-LIGAND FREE ENERGY PREDICTED BY IDOCK:   -5.30 KCAL/MOL
REMARK 924 INTRA-LIGAND FREE ENERGY PREDICTED BY IDOCK:   -0.18 KCAL/MOL
REMARK 927      BINDING AFFINITY PREDICTED BY RF-SCORE:    0.00 PKD
ROOT
HETATM    1  N   UNL     1     -11.250   4.484  73.816  1.00  0.00    -0.255 N  
HETATM    2  H2  UNL     1     -11.132   4.885  74.747  1.00  0.00     0.000 HD 
HETATM    3  S   UNL     1     -10.091   3.724  72.872  1.00  0.00    -0.163 S  
HETATM    4  H1  UNL     1     -12.099   4.455  73.253  1.00  0.00     0.000 HD 
HETATM    5  O   UNL     1     -10.663   2.479  72.423  1.00  0.00    -0.051 OA 
HETATM    6  O   UNL     1      -8.887   3.765  73.670  1.00  0.00    -0.089 OA 
ENDROOT
BRANCH   3   7
HETATM    7  C   UNL     1      -9.893   4.795  71.484  1.00  0.00    -0.187 A  
HETATM    8  C   UNL     1      -9.607   4.296  70.215  1.00  0.00    -0.199 A  
HETATM    9 CL   UNL     1      -9.503   2.616  69.830  1.00  0.00    -0.187 Cl 
HETATM   10  C   UNL     1      -9.348   5.192  69.173  1.00  0.00    -0.171 A  
HETATM   11  C   UNL     1      -9.337   6.568  69.403  1.00  0.00    -0.143 A  
HETATM   12  C   UNL     1      -9.599   7.087  70.682  1.00  0.00    -0.165 A  
HETATM   13  C   UNL     1      -9.912   6.182  71.715  1.00  0.00    -0.197 A  
BRANCH  12  14
HETATM   14  C   UNL     1      -9.351   8.563  70.973  1.00  0.00    -0.185 C  
HETATM   15  O   UNL     1      -8.551   8.730  72.120  1.00  0.00    -0.355 OA 
HETATM   16  N   UNL     1      -8.689   9.266  69.917  1.00  0.00    -0.162 N  
HETATM   17  H   UNL     1      -8.396   9.650  72.301  1.00  0.00     0.000 HD 
HETATM   18  H   UNL     1      -7.730   9.079  69.625  1.00  0.00     0.000 HD 
HETATM   19  C   UNL     1      -9.491  10.221  69.339  1.00  0.00    -0.206 C  
HETATM   20  O   UNL     1      -9.237  10.886  68.353  1.00  0.00    -0.154 OA 
HETATM   21  C   UNL     1     -10.745  10.264  70.105  1.00  0.00    -0.334 A  
HETATM   22  C   UNL     1     -11.885  11.021  69.897  1.00  0.00    -0.431 A  
HETATM   23  C   UNL     1     -12.964  10.800  70.756  1.00  0.00    -0.348 A  
HETATM   24  C   UNL     1     -12.874   9.857  71.797  1.00  0.00    -0.540 A  
HETATM   25  C   UNL     1     -11.709   9.108  71.985  1.00  0.00    -0.384 A  
HETATM   26  C   UNL     1     -10.649   9.309  71.115  1.00  0.00    -0.402 A  
ENDBRANCH  12  14
ENDBRANCH   3   7
TORSDOF 2
ENDMDL
MODEL      140
REMARK 921   NORMALIZED FREE ENERGY PREDICTED BY IDOCK:   -4.48 KCAL/MOL
REMARK 922        TOTAL FREE ENERGY PREDICTED BY IDOCK:   -5.48 KCAL/MOL
REMARK 923 INTER-LIGAND FREE ENERGY PREDICTED BY IDOCK:   -4.91 KCAL/MOL
REMARK 924 INTRA-LIGAND FREE ENERGY PREDICTED BY IDOCK:   -0.57 KCAL/MOL
REMARK 927      BINDING AFFINITY PREDICTED BY RF-SCORE:    0.00 PKD
ROOT
HETATM    1  N   UNL     1      -9.193   5.709  65.072  1.00  0.00    -0.357 N  
HETATM    2  H2  UNL     1      -9.823   6.036  64.340  1.00  0.00     0.000 HD 
HETATM    3  S   UNL     1      -9.480   5.650  66.723  1.00  0.00    -0.149 S  
HETATM    4  H1  UNL     1      -8.247   5.343  64.962  1.00  0.00     0.000 HD 
HETATM    5  O   UNL     1      -9.122   4.325  67.166  1.00  0.00    -0.121 OA 
HETATM    6  O   UNL     1     -10.821   6.168  66.878  1.00  0.00    -0.319 OA 
ENDROOT
BRANCH   3   7
HETATM    7  C   UNL     1      -8.338   6.809  67.403  1.00  0.00    -0.122 A  
HETATM    8  C   UNL     1      -6.964   6.679  67.203  1.00  0.00    -0.071 A  
HETATM    9 CL   UNL     1      -6.234   5.462  66.222  1.00  0.00    -0.033 Cl 
HETATM   10  C   UNL     1      -6.095   7.559  67.856  1.00  0.00    -0.043 A  
HETATM   11  C   UNL     1      -6.587   8.531  68.727  1.00  0.00    -0.054 A  
HETATM   12  C   UNL     1      -7.967   8.659  68.959  1.00  0.00    -0.115 A  
HETATM   13  C   UNL     1      -8.840   7.806  68.257  1.00  0.00    -0.129 A  
BRANCH  12  14
HETATM   14  C   UNL     1      -8.473   9.556  70.084  1.00  0.00    -0.205 C  
HETATM   15  O   UNL     1      -7.421  10.294  70.660  1.00  0.00    -0.431 OA 
HETATM   16  N   UNL     1      -9.456  10.511  69.675  1.00  0.00    -0.413 N  
HETATM   17  H   UNL     1      -7.736  10.853  71.361  1.00  0.00     0.000 HD 
HETATM   18  H   UNL     1      -9.266  11.283  69.036  1.00  0.00     0.000 HD 
HETATM   19  C   UNL     1     -10.686  10.273  70.239  1.00  0.00    -0.250 C  
HETATM   20  O   UNL     1     -11.728  10.848  69.987  1.00  0.00    -0.283 OA 
HETATM   21  C   UNL     1     -10.529   9.154  71.180  1.00  0.00    -0.385 A  
HETATM   22  C   UNL     1     -11.475   8.509  71.956  1.00  0.00    -0.431 A  
HETATM   23  C   UNL     1     -11.045   7.418  72.715  1.00  0.00    -0.394 A  
HETATM   24  C   UNL     1      -9.696   7.015  72.694  1.00  0.00    -0.173 A  
HETATM   25  C   UNL     1      -8.761   7.686  71.901  1.00  0.00    -0.138 A  
HETATM   26  C   UNL     1      -9.196   8.752  71.129  1.00  0.00    -0.299 A  
ENDBRANCH  12  14
ENDBRANCH   3   7
TORSDOF 2
ENDMDL
MODEL      141
REMARK 921   NORMALIZED FREE ENERGY PREDICTED BY IDOCK:   -4.48 KCAL/MOL
REMARK 922        TOTAL FREE ENERGY PREDICTED BY IDOCK:   -5.48 KCAL/MOL
REMARK 923 INTER-LIGAND FREE ENERGY PREDICTED BY IDOCK:   -5.44 KCAL/MOL
REMARK 924 INTRA-LIGAND FREE ENERGY PREDICTED BY IDOCK:   -0.04 KCAL/MOL
REMARK 927      BINDING AFFINITY PREDICTED BY RF-SCORE:    0.00 PKD
ROOT
HETATM    1  N   UNL     1     -11.777  11.589  62.554  1.00  0.00     0.133 N  
HETATM    2  H2  UNL     1     -11.640  11.762  61.558  1.00  0.00     0.000 HD 
HETATM    3  S   UNL     1     -12.339  12.662  63.714  1.00  0.00    -0.472 S  
HETATM    4  H1  UNL     1     -11.603  10.725  63.066  1.00  0.00     0.000 HD 
HETATM    5  O   UNL     1     -13.385  11.987  64.441  1.00  0.00    -0.657 OA 
HETATM    6  O   UNL     1     -12.586  13.887  62.987  1.00  0.00    -0.694 OA 
ENDROOT
BRANCH   3   7
HETATM    7  C   UNL     1     -10.959  12.903  64.786  1.00  0.00    -0.318 A  
HETATM    8  C   UNL     1     -10.125  11.845  65.146  1.00  0.00    -0.261 A  
HETATM    9 CL   UNL     1     -10.274  10.237  64.538  1.00  0.00    -0.309 Cl 
HETATM   10  C   UNL     1      -9.113  12.066  66.086  1.00  0.00    -0.129 A  
HETATM   11  C   UNL     1      -8.960  13.315  66.688  1.00  0.00    -0.137 A  
HETATM   12  C   UNL     1      -9.808  14.385  66.354  1.00  0.00    -0.309 A  
HETATM   13  C   UNL     1     -10.790  14.171  65.368  1.00  0.00    -0.341 A  
BRANCH  12  14
HETATM   14  C   UNL     1      -9.787  15.664  67.184  1.00  0.00    -0.229 C  
HETATM   15  O   UNL     1     -10.251  16.765  66.437  1.00  0.00    -0.301 OA 
HETATM   16  N   UNL     1     -10.594  15.611  68.364  1.00  0.00    -0.244 N  
HETATM   17  H   UNL     1     -10.237  17.562  66.954  1.00  0.00     0.000 HD 
HETATM   18  H   UNL     1     -11.611  15.540  68.353  1.00  0.00     0.000 HD 
HETATM   19  C   UNL     1      -9.845  15.667  69.515  1.00  0.00    -0.289 C  
HETATM   20  O   UNL     1     -10.247  15.529  70.654  1.00  0.00    -0.111 OA 
HETATM   21  C   UNL     1      -8.446  15.881  69.119  1.00  0.00    -0.254 A  
HETATM   22  C   UNL     1      -7.306  15.961  69.899  1.00  0.00     0.189 A  
HETATM   23  C   UNL     1      -6.084  16.102  69.235  1.00  0.00    -0.146 A  
HETATM   24  C   UNL     1      -6.034  16.178  67.831  1.00  0.00    -0.147 A  
HETATM   25  C   UNL     1      -7.202  16.097  67.067  1.00  0.00    -0.256 A  
HETATM   26  C   UNL     1      -8.410  15.930  67.727  1.00  0.00    -0.159 A  
ENDBRANCH  12  14
ENDBRANCH   3   7
TORSDOF 2
ENDMDL
MODEL      142
REMARK 921   NORMALIZED FREE ENERGY PREDICTED BY IDOCK:   -4.46 KCAL/MOL
REMARK 922        TOTAL FREE ENERGY PREDICTED BY IDOCK:   -5.46 KCAL/MOL
REMARK 923 INTER-LIGAND FREE ENERGY PREDICTED BY IDOCK:   -5.18 KCAL/MOL
REMARK 924 INTRA-LIGAND FREE ENERGY PREDICTED BY IDOCK:   -0.29 KCAL/MOL
REMARK 927      BINDING AFFINITY PREDICTED BY RF-SCORE:    0.00 PKD
ROOT
HETATM    1  N   UNL     1      -9.360   9.571  64.367  1.00  0.00    -0.429 N  
HETATM    2  H2  UNL     1     -10.197   8.995  64.286  1.00  0.00     0.000 HD 
HETATM    3  S   UNL     1      -8.045   9.334  65.379  1.00  0.00    -0.128 S  
HETATM    4  H1  UNL     1      -9.136  10.421  63.849  1.00  0.00     0.000 HD 
HETATM    5  O   UNL     1      -6.860   9.435  64.563  1.00  0.00    -0.087 OA 
HETATM    6  O   UNL     1      -8.363   8.129  66.113  1.00  0.00    -0.113 OA 
ENDROOT
BRANCH   3   7
HETATM    7  C   UNL     1      -8.097  10.707  66.486  1.00  0.00    -0.140 A  
HETATM    8  C   UNL     1      -7.287  10.758  67.619  1.00  0.00    -0.094 A  
HETATM    9 CL   UNL     1      -6.102   9.570  68.024  1.00  0.00    -0.051 Cl 
HETATM   10  C   UNL     1      -7.446  11.813  68.522  1.00  0.00    -0.110 A  
HETATM   11  C   UNL     1      -8.427  12.784  68.318  1.00  0.00    -0.161 A  
HETATM   12  C   UNL     1      -9.268  12.733  67.194  1.00  0.00    -0.219 A  
HETATM   13  C   UNL     1      -9.067  11.699  66.260  1.00  0.00    -0.219 A  
BRANCH  12  14
HETATM   14  C   UNL     1     -10.482  13.652  67.106  1.00  0.00    -0.264 C  
HETATM   15  O   UNL     1     -11.252  13.596  68.283  1.00  0.00    -0.248 OA 
HETATM   16  N   UNL     1     -10.159  15.032  66.904  1.00  0.00    -0.245 N  
HETATM   17  H   UNL     1     -12.008  14.169  68.228  1.00  0.00     0.000 HD 
HETATM   18  H   UNL     1      -9.672  15.607  67.591  1.00  0.00     0.000 HD 
HETATM   19  C   UNL     1     -10.579  15.495  65.680  1.00  0.00    -0.373 C  
HETATM   20  O   UNL     1     -10.343  16.584  65.193  1.00  0.00    -0.618 OA 
HETATM   21  C   UNL     1     -11.333  14.411  65.034  1.00  0.00    -0.373 A  
HETATM   22  C   UNL     1     -11.917  14.361  63.781  1.00  0.00     0.006 A  
HETATM   23  C   UNL     1     -12.517  13.158  63.402  1.00  0.00    -0.328 A  
HETATM   24  C   UNL     1     -12.537  12.056  64.278  1.00  0.00    -0.359 A  
HETATM   25  C   UNL     1     -11.940  12.135  65.540  1.00  0.00    -0.290 A  
HETATM   26  C   UNL     1     -11.321  13.321  65.903  1.00  0.00    -0.333 A  
ENDBRANCH  12  14
ENDBRANCH   3   7
TORSDOF 2
ENDMDL
MODEL      143
REMARK 921   NORMALIZED FREE ENERGY PREDICTED BY IDOCK:   -4.45 KCAL/MOL
REMARK 922        TOTAL FREE ENERGY PREDICTED BY IDOCK:   -5.44 KCAL/MOL
REMARK 923 INTER-LIGAND FREE ENERGY PREDICTED BY IDOCK:   -5.53 KCAL/MOL
REMARK 924 INTRA-LIGAND FREE ENERGY PREDICTED BY IDOCK:    0.09 KCAL/MOL
REMARK 927      BINDING AFFINITY PREDICTED BY RF-SCORE:    0.00 PKD
ROOT
HETATM    1  N   UNL     1      -7.290  19.963  70.034  1.00  0.00     0.117 N  
HETATM    2  H2  UNL     1      -7.667  20.885  70.253  1.00  0.00     0.000 HD 
HETATM    3  S   UNL     1      -6.562  19.463  68.608  1.00  0.00    -0.288 S  
HETATM    4  H1  UNL     1      -7.273  19.138  70.634  1.00  0.00     0.000 HD 
HETATM    5  O   UNL     1      -5.326  18.815  68.971  1.00  0.00    -0.192 OA 
HETATM    6  O   UNL     1      -6.587  20.633  67.758  1.00  0.00    -0.280 OA 
ENDROOT
BRANCH   3   7
HETATM    7  C   UNL     1      -7.671  18.258  67.954  1.00  0.00    -0.243 A  
HETATM    8  C   UNL     1      -8.437  18.515  66.818  1.00  0.00    -0.282 A  
HETATM    9 CL   UNL     1      -8.337  19.963  65.884  1.00  0.00    -0.308 Cl 
HETATM   10  C   UNL     1      -9.382  17.571  66.406  1.00  0.00    -0.265 A  
HETATM   11  C   UNL     1      -9.587  16.401  67.139  1.00  0.00    -0.239 A  
HETATM   12  C   UNL     1      -8.840  16.138  68.300  1.00  0.00    -0.188 A  
HETATM   13  C   UNL     1      -7.853  17.067  68.680  1.00  0.00    -0.257 A  
BRANCH  12  14
HETATM   14  C   UNL     1      -9.235  14.985  69.217  1.00  0.00    -0.159 C  
HETATM   15  O   UNL     1      -8.146  14.564  70.005  1.00  0.00    -0.234 OA 
HETATM   16  N   UNL     1     -10.293  15.297  70.128  1.00  0.00    -0.473 N  
HETATM   17  H   UNL     1      -8.392  13.846  70.576  1.00  0.00     0.000 HD 
HETATM   18  H   UNL     1     -10.208  15.976  70.885  1.00  0.00     0.000 HD 
HETATM   19  C   UNL     1     -11.436  14.578  69.871  1.00  0.00    -0.270 C  
HETATM   20  O   UNL     1     -12.519  14.717  70.406  1.00  0.00    -0.324 OA 
HETATM   21  C   UNL     1     -11.126  13.633  68.789  1.00  0.00    -0.302 A  
HETATM   22  C   UNL     1     -11.948  12.728  68.141  1.00  0.00    -0.295 A  
HETATM   23  C   UNL     1     -11.391  11.998  67.088  1.00  0.00    -0.396 A  
HETATM   24  C   UNL     1     -10.042  12.173  66.726  1.00  0.00    -0.218 A  
HETATM   25  C   UNL     1      -9.234  13.094  67.399  1.00  0.00    -0.213 A  
HETATM   26  C   UNL     1      -9.797  13.836  68.426  1.00  0.00    -0.227 A  
ENDBRANCH  12  14
ENDBRANCH   3   7
TORSDOF 2
ENDMDL
MODEL      144
REMARK 921   NORMALIZED FREE ENERGY PREDICTED BY IDOCK:   -4.44 KCAL/MOL
REMARK 922        TOTAL FREE ENERGY PREDICTED BY IDOCK:   -5.44 KCAL/MOL
REMARK 923 INTER-LIGAND FREE ENERGY PREDICTED BY IDOCK:   -4.99 KCAL/MOL
REMARK 924 INTRA-LIGAND FREE ENERGY PREDICTED BY IDOCK:   -0.45 KCAL/MOL
REMARK 927      BINDING AFFINITY PREDICTED BY RF-SCORE:    0.00 PKD
ROOT
HETATM    1  N   UNL     1     -10.144  12.436  66.581  1.00  0.00    -0.218 N  
HETATM    2  H2  UNL     1      -9.648  13.325  66.522  1.00  0.00     0.000 HD 
HETATM    3  S   UNL     1     -10.808  11.719  67.943  1.00  0.00    -0.225 S  
HETATM    4  H1  UNL     1     -10.348  11.784  65.823  1.00  0.00     0.000 HD 
HETATM    5  O   UNL     1     -12.160  11.344  67.607  1.00  0.00    -0.630 OA 
HETATM    6  O   UNL     1     -10.520  12.643  69.018  1.00  0.00    -0.135 OA 
ENDROOT
BRANCH   3   7
HETATM    7  C   UNL     1      -9.849  10.257  68.175  1.00  0.00    -0.148 A  
HETATM    8  C   UNL     1      -8.492  10.319  68.484  1.00  0.00    -0.121 A  
HETATM    9 CL   UNL     1      -7.622  11.784  68.762  1.00  0.00    -0.123 Cl 
HETATM   10  C   UNL     1      -7.752   9.134  68.547  1.00  0.00    -0.093 A  
HETATM   11  C   UNL     1      -8.351   7.905  68.266  1.00  0.00    -0.124 A  
HETATM   12  C   UNL     1      -9.713   7.827  67.929  1.00  0.00    -0.181 A  
HETATM   13  C   UNL     1     -10.464   9.018  67.920  1.00  0.00    -0.291 A  
BRANCH  12  14
HETATM   14  C   UNL     1     -10.294   6.522  67.396  1.00  0.00    -0.208 C  
HETATM   15  O   UNL     1     -11.676   6.642  67.149  1.00  0.00    -0.632 OA 
HETATM   16  N   UNL     1      -9.706   6.075  66.170  1.00  0.00    -0.345 N  
HETATM   17  H   UNL     1     -12.038   5.829  66.817  1.00  0.00     0.000 HD 
HETATM   18  H   UNL     1      -9.796   6.571  65.284  1.00  0.00     0.000 HD 
HETATM   19  C   UNL     1      -9.006   4.903  66.322  1.00  0.00    -0.121 C  
HETATM   20  O   UNL     1      -8.313   4.354  65.486  1.00  0.00    -0.112 OA 
HETATM   21  C   UNL     1      -9.206   4.446  67.704  1.00  0.00    -0.169 A  
HETATM   22  C   UNL     1      -8.677   3.349  68.362  1.00  0.00    -0.137 A  
HETATM   23  C   UNL     1      -8.992   3.200  69.714  1.00  0.00    -0.175 A  
HETATM   24  C   UNL     1      -9.831   4.126  70.364  1.00  0.00    -0.237 A  
HETATM   25  C   UNL     1     -10.353   5.225  69.674  1.00  0.00    -0.348 A  
HETATM   26  C   UNL     1     -10.017   5.385  68.339  1.00  0.00    -0.217 A  
ENDBRANCH  12  14
ENDBRANCH   3   7
TORSDOF 2
ENDMDL
MODEL      145
REMARK 921   NORMALIZED FREE ENERGY PREDICTED BY IDOCK:   -4.44 KCAL/MOL
REMARK 922        TOTAL FREE ENERGY PREDICTED BY IDOCK:   -5.44 KCAL/MOL
REMARK 923 INTER-LIGAND FREE ENERGY PREDICTED BY IDOCK:   -5.22 KCAL/MOL
REMARK 924 INTRA-LIGAND FREE ENERGY PREDICTED BY IDOCK:   -0.22 KCAL/MOL
REMARK 927      BINDING AFFINITY PREDICTED BY RF-SCORE:    0.00 PKD
ROOT
HETATM    1  N   UNL     1     -10.050  12.597  64.677  1.00  0.00    -0.490 N  
HETATM    2  H2  UNL     1      -9.491  13.326  64.235  1.00  0.00     0.000 HD 
HETATM    3  S   UNL     1     -10.948  12.706  66.089  1.00  0.00    -0.293 S  
HETATM    4  H1  UNL     1     -10.187  11.638  64.358  1.00  0.00     0.000 HD 
HETATM    5  O   UNL     1     -12.260  12.185  65.795  1.00  0.00    -0.586 OA 
HETATM    6  O   UNL     1     -10.752  14.066  66.540  1.00  0.00    -0.279 OA 
ENDROOT
BRANCH   3   7
HETATM    7  C   UNL     1     -10.134  11.611  67.206  1.00  0.00    -0.199 A  
HETATM    8  C   UNL     1      -9.061  12.037  67.988  1.00  0.00    -0.188 A  
HETATM    9 CL   UNL     1      -8.469  13.657  68.031  1.00  0.00    -0.164 Cl 
HETATM   10  C   UNL     1      -8.379  11.102  68.774  1.00  0.00    -0.136 A  
HETATM   11  C   UNL     1      -8.738   9.754  68.751  1.00  0.00    -0.128 A  
HETATM   12  C   UNL     1      -9.801   9.305  67.949  1.00  0.00    -0.200 A  
HETATM   13  C   UNL     1     -10.518  10.259  67.202  1.00  0.00    -0.311 A  
BRANCH  12  14
HETATM   14  C   UNL     1     -10.028   7.811  67.748  1.00  0.00    -0.174 C  
HETATM   15  O   UNL     1     -11.086   7.571  66.849  1.00  0.00    -0.501 OA 
HETATM   16  N   UNL     1      -8.894   7.109  67.229  1.00  0.00    -0.119 N  
HETATM   17  H   UNL     1     -11.227   6.640  66.725  1.00  0.00     0.000 HD 
HETATM   18  H   UNL     1      -8.514   7.259  66.295  1.00  0.00     0.000 HD 
HETATM   19  C   UNL     1      -8.375   6.212  68.131  1.00  0.00    -0.114 C  
HETATM   20  O   UNL     1      -7.352   5.565  68.008  1.00  0.00    -0.071 OA 
HETATM   21  C   UNL     1      -9.259   6.205  69.305  1.00  0.00    -0.134 A  
HETATM   22  C   UNL     1      -9.147   5.511  70.496  1.00  0.00    -0.171 A  
HETATM   23  C   UNL     1     -10.113   5.757  71.474  1.00  0.00    -0.246 A  
HETATM   24  C   UNL     1     -11.164   6.662  71.235  1.00  0.00    -0.329 A  
HETATM   25  C   UNL     1     -11.254   7.349  70.021  1.00  0.00    -0.200 A  
HETATM   26  C   UNL     1     -10.279   7.123  69.062  1.00  0.00    -0.191 A  
ENDBRANCH  12  14
ENDBRANCH   3   7
TORSDOF 2
ENDMDL
MODEL      146
REMARK 921   NORMALIZED FREE ENERGY PREDICTED BY IDOCK:   -4.44 KCAL/MOL
REMARK 922        TOTAL FREE ENERGY PREDICTED BY IDOCK:   -5.43 KCAL/MOL
REMARK 923 INTER-LIGAND FREE ENERGY PREDICTED BY IDOCK:   -4.64 KCAL/MOL
REMARK 924 INTRA-LIGAND FREE ENERGY PREDICTED BY IDOCK:   -0.80 KCAL/MOL
REMARK 927      BINDING AFFINITY PREDICTED BY RF-SCORE:    0.00 PKD
ROOT
HETATM    1  N   UNL     1     -11.152  10.762  66.911  1.00  0.00    -0.203 N  
HETATM    2  H2  UNL     1     -11.674   9.988  66.500  1.00  0.00     0.000 HD 
HETATM    3  S   UNL     1      -9.599  11.267  66.531  1.00  0.00    -0.197 S  
HETATM    4  H1  UNL     1     -11.457  11.401  67.644  1.00  0.00     0.000 HD 
HETATM    5  O   UNL     1      -9.659  12.693  66.319  1.00  0.00    -0.252 OA 
HETATM    6  O   UNL     1      -9.166  10.361  65.491  1.00  0.00    -0.164 OA 
ENDROOT
BRANCH   3   7
HETATM    7  C   UNL     1      -8.668  10.945  67.993  1.00  0.00    -0.132 A  
HETATM    8  C   UNL     1      -7.301  11.212  68.059  1.00  0.00    -0.088 A  
HETATM    9 CL   UNL     1      -6.392  11.952  66.793  1.00  0.00    -0.100 Cl 
HETATM   10  C   UNL     1      -6.588  10.834  69.201  1.00  0.00    -0.065 A  
HETATM   11  C   UNL     1      -7.221  10.164  70.248  1.00  0.00    -0.131 A  
HETATM   12  C   UNL     1      -8.593   9.866  70.187  1.00  0.00    -0.141 A  
HETATM   13  C   UNL     1      -9.317  10.296  69.058  1.00  0.00    -0.195 A  
BRANCH  12  14
HETATM   14  C   UNL     1      -9.218   8.932  71.217  1.00  0.00    -0.258 C  
HETATM   15  O   UNL     1      -8.462   8.904  72.406  1.00  0.00    -0.396 OA 
HETATM   16  N   UNL     1     -10.551   9.286  71.598  1.00  0.00    -0.348 N  
HETATM   17  H   UNL     1      -8.852   8.322  73.048  1.00  0.00     0.000 HD 
HETATM   18  H   UNL     1     -10.788  10.137  72.107  1.00  0.00     0.000 HD 
HETATM   19  C   UNL     1     -11.476   8.350  71.201  1.00  0.00    -0.274 C  
HETATM   20  O   UNL     1     -12.686   8.440  71.285  1.00  0.00    -0.285 OA 
HETATM   21  C   UNL     1     -10.738   7.227  70.607  1.00  0.00    -0.252 A  
HETATM   22  C   UNL     1     -11.211   6.067  70.019  1.00  0.00    -0.425 A  
HETATM   23  C   UNL     1     -10.267   5.196  69.470  1.00  0.00    -0.318 A  
HETATM   24  C   UNL     1      -8.892   5.492  69.536  1.00  0.00    -0.115 A  
HETATM   25  C   UNL     1      -8.442   6.671  70.137  1.00  0.00    -0.136 A  
HETATM   26  C   UNL     1      -9.382   7.545  70.658  1.00  0.00    -0.163 A  
ENDBRANCH  12  14
ENDBRANCH   3   7
TORSDOF 2
ENDMDL
MODEL      147
REMARK 921   NORMALIZED FREE ENERGY PREDICTED BY IDOCK:   -4.42 KCAL/MOL
REMARK 922        TOTAL FREE ENERGY PREDICTED BY IDOCK:   -5.41 KCAL/MOL
REMARK 923 INTER-LIGAND FREE ENERGY PREDICTED BY IDOCK:   -5.01 KCAL/MOL
REMARK 924 INTRA-LIGAND FREE ENERGY PREDICTED BY IDOCK:   -0.41 KCAL/MOL
REMARK 927      BINDING AFFINITY PREDICTED BY RF-SCORE:    0.00 PKD
ROOT
HETATM    1  N   UNL     1     -11.124   4.624  72.656  1.00  0.00    -0.119 N  
HETATM    2  H2  UNL     1     -11.127   4.349  73.638  1.00  0.00     0.000 HD 
HETATM    3  S   UNL     1      -9.796   4.904  71.672  1.00  0.00    -0.191 S  
HETATM    4  H1  UNL     1     -11.930   4.789  72.053  1.00  0.00     0.000 HD 
HETATM    5  O   UNL     1     -10.003   4.152  70.459  1.00  0.00    -0.201 OA 
HETATM    6  O   UNL     1      -8.654   4.670  72.528  1.00  0.00    -0.113 OA 
ENDROOT
BRANCH   3   7
HETATM    7  C   UNL     1      -9.887   6.626  71.301  1.00  0.00    -0.177 A  
HETATM    8  C   UNL     1     -10.040   7.579  72.306  1.00  0.00    -0.199 A  
HETATM    9 CL   UNL     1     -10.067   7.219  73.994  1.00  0.00    -0.307 Cl 
HETATM   10  C   UNL     1     -10.219   8.920  71.951  1.00  0.00    -0.403 A  
HETATM   11  C   UNL     1     -10.284   9.299  70.610  1.00  0.00    -0.335 A  
HETATM   12  C   UNL     1     -10.157   8.347  69.584  1.00  0.00    -0.199 A  
HETATM   13  C   UNL     1      -9.922   7.007  69.948  1.00  0.00    -0.183 A  
BRANCH  12  14
HETATM   14  C   UNL     1     -10.466   8.732  68.142  1.00  0.00    -0.191 C  
HETATM   15  O   UNL     1     -11.007   7.645  67.428  1.00  0.00    -0.522 OA 
HETATM   16  N   UNL     1     -11.402   9.805  68.009  1.00  0.00    -0.499 N  
HETATM   17  H   UNL     1     -11.200   7.885  66.529  1.00  0.00     0.000 HD 
HETATM   18  H   UNL     1     -12.381   9.741  68.286  1.00  0.00     0.000 HD 
HETATM   19  C   UNL     1     -10.835  10.933  67.465  1.00  0.00    -0.272 C  
HETATM   20  O   UNL     1     -11.356  12.024  67.342  1.00  0.00    -0.284 OA 
HETATM   21  C   UNL     1      -9.453  10.595  67.096  1.00  0.00    -0.177 A  
HETATM   22  C   UNL     1      -8.458  11.393  66.560  1.00  0.00    -0.170 A  
HETATM   23  C   UNL     1      -7.201  10.811  66.374  1.00  0.00    -0.138 A  
HETATM   24  C   UNL     1      -6.977   9.462  66.705  1.00  0.00    -0.081 A  
HETATM   25  C   UNL     1      -8.002   8.678  67.244  1.00  0.00    -0.101 A  
HETATM   26  C   UNL     1      -9.240   9.265  67.452  1.00  0.00    -0.145 A  
ENDBRANCH  12  14
ENDBRANCH   3   7
TORSDOF 2
ENDMDL
MODEL      148
REMARK 921   NORMALIZED FREE ENERGY PREDICTED BY IDOCK:   -4.41 KCAL/MOL
REMARK 922        TOTAL FREE ENERGY PREDICTED BY IDOCK:   -5.41 KCAL/MOL
REMARK 923 INTER-LIGAND FREE ENERGY PREDICTED BY IDOCK:   -5.27 KCAL/MOL
REMARK 924 INTRA-LIGAND FREE ENERGY PREDICTED BY IDOCK:   -0.14 KCAL/MOL
REMARK 927      BINDING AFFINITY PREDICTED BY RF-SCORE:    0.00 PKD
ROOT
HETATM    1  N   UNL     1      -7.439  10.532  63.582  1.00  0.00    -0.345 N  
HETATM    2  H2  UNL     1      -7.246  11.391  63.067  1.00  0.00     0.000 HD 
HETATM    3  S   UNL     1      -8.847   9.621  63.568  1.00  0.00    -0.213 S  
HETATM    4  H1  UNL     1      -6.819  10.037  64.222  1.00  0.00     0.000 HD 
HETATM    5  O   UNL     1      -8.460   8.251  63.340  1.00  0.00    -0.080 OA 
HETATM    6  O   UNL     1      -9.726  10.325  62.660  1.00  0.00    -0.288 OA 
ENDROOT
BRANCH   3   7
HETATM    7  C   UNL     1      -9.478   9.773  65.207  1.00  0.00    -0.279 A  
HETATM    8  C   UNL     1     -10.296  10.840  65.576  1.00  0.00    -0.241 A  
HETATM    9 CL   UNL     1     -10.853  12.060  64.490  1.00  0.00    -0.342 Cl 
HETATM   10  C   UNL     1     -10.678  10.974  66.914  1.00  0.00    -0.325 A  
HETATM   11  C   UNL     1     -10.219  10.078  67.880  1.00  0.00    -0.228 A  
HETATM   12  C   UNL     1      -9.374   9.011  67.529  1.00  0.00    -0.159 A  
HETATM   13  C   UNL     1      -9.037   8.849  66.172  1.00  0.00    -0.251 A  
BRANCH  12  14
HETATM   14  C   UNL     1      -8.692   8.188  68.616  1.00  0.00    -0.134 C  
HETATM   15  O   UNL     1      -8.186   6.979  68.100  1.00  0.00    -0.118 OA 
HETATM   16  N   UNL     1      -7.590   8.847  69.246  1.00  0.00    -0.081 N  
HETATM   17  H   UNL     1      -7.761   6.466  68.777  1.00  0.00     0.000 HD 
HETATM   18  H   UNL     1      -6.721   9.083  68.767  1.00  0.00     0.000 HD 
HETATM   19  C   UNL     1      -7.833   9.127  70.570  1.00  0.00    -0.142 C  
HETATM   20  O   UNL     1      -7.129   9.777  71.318  1.00  0.00    -0.326 OA 
HETATM   21  C   UNL     1      -9.133   8.533  70.913  1.00  0.00    -0.208 A  
HETATM   22  C   UNL     1      -9.841   8.576  72.101  1.00  0.00    -0.388 A  
HETATM   23  C   UNL     1     -11.100   7.971  72.118  1.00  0.00    -0.372 A  
HETATM   24  C   UNL     1     -11.606   7.332  70.970  1.00  0.00    -0.329 A  
HETATM   25  C   UNL     1     -10.868   7.303  69.783  1.00  0.00    -0.251 A  
HETATM   26  C   UNL     1      -9.631   7.926  69.762  1.00  0.00    -0.167 A  
ENDBRANCH  12  14
ENDBRANCH   3   7
TORSDOF 2
ENDMDL
MODEL      149
REMARK 921   NORMALIZED FREE ENERGY PREDICTED BY IDOCK:   -4.37 KCAL/MOL
REMARK 922        TOTAL FREE ENERGY PREDICTED BY IDOCK:   -5.36 KCAL/MOL
REMARK 923 INTER-LIGAND FREE ENERGY PREDICTED BY IDOCK:   -5.36 KCAL/MOL
REMARK 924 INTRA-LIGAND FREE ENERGY PREDICTED BY IDOCK:    0.00 KCAL/MOL
REMARK 927      BINDING AFFINITY PREDICTED BY RF-SCORE:    0.00 PKD
ROOT
HETATM    1  N   UNL     1      -6.768  10.848  68.870  1.00  0.00    -0.061 N  
HETATM    2  H2  UNL     1      -5.753  10.765  68.836  1.00  0.00     0.000 HD 
HETATM    3  S   UNL     1      -7.803  11.301  67.630  1.00  0.00    -0.122 S  
HETATM    4  H1  UNL     1      -7.382  10.674  69.665  1.00  0.00     0.000 HD 
HETATM    5  O   UNL     1      -8.854  10.316  67.576  1.00  0.00    -0.128 OA 
HETATM    6  O   UNL     1      -6.932  11.549  66.502  1.00  0.00    -0.106 OA 
ENDROOT
BRANCH   3   7
HETATM    7  C   UNL     1      -8.483  12.835  68.173  1.00  0.00    -0.177 A  
HETATM    8  C   UNL     1      -7.667  13.914  68.509  1.00  0.00    -0.139 A  
HETATM    9 CL   UNL     1      -5.948  13.920  68.355  1.00  0.00    -0.091 Cl 
HETATM   10  C   UNL     1      -8.250  15.070  69.039  1.00  0.00    -0.187 A  
HETATM   11  C   UNL     1      -9.625  15.133  69.269  1.00  0.00    -0.218 A  
HETATM   12  C   UNL     1     -10.458  14.045  68.959  1.00  0.00    -0.169 A  
HETATM   13  C   UNL     1      -9.873  12.906  68.374  1.00  0.00    -0.197 A  
BRANCH  12  14
HETATM   14  C   UNL     1     -11.908  14.035  69.431  1.00  0.00    -0.333 C  
HETATM   15  O   UNL     1     -12.762  14.607  68.468  1.00  0.00    -0.322 OA 
HETATM   16  N   UNL     1     -12.427  12.729  69.702  1.00  0.00     0.039 N  
HETATM   17  H   UNL     1     -13.666  14.601  68.762  1.00  0.00     0.000 HD 
HETATM   18  H   UNL     1     -12.570  12.016  68.987  1.00  0.00     0.000 HD 
HETATM   19  C   UNL     1     -12.712  12.544  71.034  1.00  0.00    -0.225 C  
HETATM   20  O   UNL     1     -13.054  11.507  71.568  1.00  0.00    -0.422 OA 
HETATM   21  C   UNL     1     -12.482  13.827  71.715  1.00  0.00    -0.254 A  
HETATM   22  C   UNL     1     -12.581  14.148  73.057  1.00  0.00    -0.222 A  
HETATM   23  C   UNL     1     -12.231  15.447  73.432  1.00  0.00    -0.621 A  
HETATM   24  C   UNL     1     -11.816  16.386  72.469  1.00  0.00    -0.547 A  
HETATM   25  C   UNL     1     -11.726  16.035  71.118  1.00  0.00    -0.487 A  
HETATM   26  C   UNL     1     -12.049  14.737  70.753  1.00  0.00    -0.374 A  
ENDBRANCH  12  14
ENDBRANCH   3   7
TORSDOF 2
ENDMDL
MODEL      150
REMARK 921   NORMALIZED FREE ENERGY PREDICTED BY IDOCK:   -4.34 KCAL/MOL
REMARK 922        TOTAL FREE ENERGY PREDICTED BY IDOCK:   -5.33 KCAL/MOL
REMARK 923 INTER-LIGAND FREE ENERGY PREDICTED BY IDOCK:   -5.75 KCAL/MOL
REMARK 924 INTRA-LIGAND FREE ENERGY PREDICTED BY IDOCK:    0.42 KCAL/MOL
REMARK 927      BINDING AFFINITY PREDICTED BY RF-SCORE:    0.00 PKD
ROOT
HETATM    1  N   UNL     1      -9.339   8.504  65.446  1.00  0.00    -0.427 N  
HETATM    2  H2  UNL     1      -9.616   7.655  64.955  1.00  0.00     0.000 HD 
HETATM    3  S   UNL     1      -8.032   8.716  66.475  1.00  0.00    -0.100 S  
HETATM    4  H1  UNL     1      -9.796   9.416  65.421  1.00  0.00     0.000 HD 
HETATM    5  O   UNL     1      -7.338   9.901  66.036  1.00  0.00    -0.098 OA 
HETATM    6  O   UNL     1      -7.384   7.424  66.510  1.00  0.00    -0.080 OA 
ENDROOT
BRANCH   3   7
HETATM    7  C   UNL     1      -8.765   9.031  68.048  1.00  0.00    -0.129 A  
HETATM    8  C   UNL     1      -8.448   8.260  69.165  1.00  0.00    -0.127 A  
HETATM    9 CL   UNL     1      -7.270   6.999  69.175  1.00  0.00    -0.087 Cl 
HETATM   10  C   UNL     1      -9.139   8.477  70.361  1.00  0.00    -0.164 A  
HETATM   11  C   UNL     1     -10.160   9.426  70.431  1.00  0.00    -0.310 A  
HETATM   12  C   UNL     1     -10.509  10.194  69.307  1.00  0.00    -0.246 A  
HETATM   13  C   UNL     1      -9.773  10.008  68.122  1.00  0.00    -0.156 A  
BRANCH  12  14
HETATM   14  C   UNL     1     -11.772  11.048  69.328  1.00  0.00    -0.326 C  
HETATM   15  O   UNL     1     -12.930  10.249  69.264  1.00  0.00    -0.232 OA 
HETATM   16  N   UNL     1     -11.911  11.862  70.496  1.00  0.00    -0.510 N  
HETATM   17  H   UNL     1     -13.717  10.781  69.277  1.00  0.00     0.000 HD 
HETATM   18  H   UNL     1     -12.051  11.488  71.435  1.00  0.00     0.000 HD 
HETATM   19  C   UNL     1     -11.833  13.204  70.212  1.00  0.00    -0.224 C  
HETATM   20  O   UNL     1     -11.803  14.118  71.015  1.00  0.00    -0.301 OA 
HETATM   21  C   UNL     1     -11.746  13.341  68.752  1.00  0.00    -0.366 A  
HETATM   22  C   UNL     1     -11.603  14.476  67.974  1.00  0.00    -0.364 A  
HETATM   23  C   UNL     1     -11.475  14.296  66.595  1.00  0.00    -0.374 A  
HETATM   24  C   UNL     1     -11.512  13.006  66.032  1.00  0.00    -0.374 A  
HETATM   25  C   UNL     1     -11.659  11.876  66.841  1.00  0.00    -0.358 A  
HETATM   26  C   UNL     1     -11.758  12.056  68.212  1.00  0.00    -0.396 A  
ENDBRANCH  12  14
ENDBRANCH   3   7
TORSDOF 2
ENDMDL
MODEL      151
REMARK 921   NORMALIZED FREE ENERGY PREDICTED BY IDOCK:   -4.34 KCAL/MOL
REMARK 922        TOTAL FREE ENERGY PREDICTED BY IDOCK:   -5.32 KCAL/MOL
REMARK 923 INTER-LIGAND FREE ENERGY PREDICTED BY IDOCK:   -4.94 KCAL/MOL
REMARK 924 INTRA-LIGAND FREE ENERGY PREDICTED BY IDOCK:   -0.38 KCAL/MOL
REMARK 927      BINDING AFFINITY PREDICTED BY RF-SCORE:    0.00 PKD
ROOT
HETATM    1  N   UNL     1     -12.774   8.402  70.489  1.00  0.00    -0.151 N  
HETATM    2  H2  UNL     1     -13.384   9.211  70.375  1.00  0.00     0.000 HD 
HETATM    3  S   UNL     1     -12.176   7.760  71.918  1.00  0.00    -0.312 S  
HETATM    4  H1  UNL     1     -12.392   7.802  69.758  1.00  0.00     0.000 HD 
HETATM    5  O   UNL     1     -12.438   6.342  71.886  1.00  0.00    -0.337 OA 
HETATM    6  O   UNL     1     -12.718   8.611  72.954  1.00  0.00    -0.289 OA 
ENDROOT
BRANCH   3   7
HETATM    7  C   UNL     1     -10.435   8.023  71.816  1.00  0.00    -0.229 A  
HETATM    8  C   UNL     1      -9.586   7.683  72.868  1.00  0.00    -0.218 A  
HETATM    9 CL   UNL     1     -10.098   6.904  74.320  1.00  0.00    -0.349 Cl 
HETATM   10  C   UNL     1      -8.230   8.015  72.782  1.00  0.00    -0.212 A  
HETATM   11  C   UNL     1      -7.735   8.711  71.679  1.00  0.00    -0.146 A  
HETATM   12  C   UNL     1      -8.583   9.083  70.622  1.00  0.00    -0.245 A  
HETATM   13  C   UNL     1      -9.935   8.699  70.689  1.00  0.00    -0.230 A  
BRANCH  12  14
HETATM   14  C   UNL     1      -8.086  10.042  69.545  1.00  0.00    -0.161 C  
HETATM   15  O   UNL     1      -7.303  11.073  70.102  1.00  0.00    -0.426 OA 
HETATM   16  N   UNL     1      -7.280   9.426  68.537  1.00  0.00    -0.071 N  
HETATM   17  H   UNL     1      -6.993  11.670  69.431  1.00  0.00     0.000 HD 
HETATM   18  H   UNL     1      -6.360   9.021  68.715  1.00  0.00     0.000 HD 
HETATM   19  C   UNL     1      -7.882   9.439  67.302  1.00  0.00    -0.099 C  
HETATM   20  O   UNL     1      -7.485   8.891  66.292  1.00  0.00    -0.089 OA 
HETATM   21  C   UNL     1      -9.131  10.204  67.431  1.00  0.00    -0.149 A  
HETATM   22  C   UNL     1     -10.112  10.464  66.491  1.00  0.00    -0.285 A  
HETATM   23  C   UNL     1     -11.238  11.170  66.919  1.00  0.00    -0.258 A  
HETATM   24  C   UNL     1     -11.347  11.610  68.252  1.00  0.00    -0.348 A  
HETATM   25  C   UNL     1     -10.339  11.335  69.181  1.00  0.00    -0.156 A  
HETATM   26  C   UNL     1      -9.235  10.611  68.759  1.00  0.00    -0.182 A  
ENDBRANCH  12  14
ENDBRANCH   3   7
TORSDOF 2
ENDMDL
MODEL      152
REMARK 921   NORMALIZED FREE ENERGY PREDICTED BY IDOCK:   -4.33 KCAL/MOL
REMARK 922        TOTAL FREE ENERGY PREDICTED BY IDOCK:   -5.32 KCAL/MOL
REMARK 923 INTER-LIGAND FREE ENERGY PREDICTED BY IDOCK:   -5.09 KCAL/MOL
REMARK 924 INTRA-LIGAND FREE ENERGY PREDICTED BY IDOCK:   -0.23 KCAL/MOL
REMARK 927      BINDING AFFINITY PREDICTED BY RF-SCORE:    0.00 PKD
ROOT
HETATM    1  N   UNL     1     -11.060   6.410  69.722  1.00  0.00    -0.360 N  
HETATM    2  H2  UNL     1     -12.012   6.580  70.044  1.00  0.00     0.000 HD 
HETATM    3  S   UNL     1      -9.767   7.478  69.731  1.00  0.00    -0.171 S  
HETATM    4  H1  UNL     1     -10.681   5.552  69.322  1.00  0.00     0.000 HD 
HETATM    5  O   UNL     1      -8.654   6.788  70.333  1.00  0.00    -0.142 OA 
HETATM    6  O   UNL     1     -10.305   8.695  70.298  1.00  0.00    -0.190 OA 
ENDROOT
BRANCH   3   7
HETATM    7  C   UNL     1      -9.418   7.750  68.024  1.00  0.00    -0.144 A  
HETATM    8  C   UNL     1      -9.013   6.708  67.190  1.00  0.00    -0.118 A  
HETATM    9 CL   UNL     1      -8.894   5.058  67.680  1.00  0.00    -0.103 Cl 
HETATM   10  C   UNL     1      -8.640   6.996  65.873  1.00  0.00    -0.152 A  
HETATM   11  C   UNL     1      -8.634   8.311  65.406  1.00  0.00    -0.176 A  
HETATM   12  C   UNL     1      -9.015   9.375  66.241  1.00  0.00    -0.189 A  
HETATM   13  C   UNL     1      -9.441   9.073  67.548  1.00  0.00    -0.168 A  
BRANCH  12  14
HETATM   14  C   UNL     1      -8.778  10.815  65.800  1.00  0.00    -0.186 C  
HETATM   15  O   UNL     1      -7.780  11.430  66.580  1.00  0.00    -0.152 OA 
HETATM   16  N   UNL     1      -8.362  10.950  64.438  1.00  0.00    -0.373 N  
HETATM   17  H   UNL     1      -7.632  12.328  66.306  1.00  0.00     0.000 HD 
HETATM   18  H   UNL     1      -7.469  10.609  64.081  1.00  0.00     0.000 HD 
HETATM   19  C   UNL     1      -9.299  11.592  63.664  1.00  0.00    -0.093 C  
HETATM   20  O   UNL     1      -9.267  11.744  62.458  1.00  0.00    -0.236 OA 
HETATM   21  C   UNL     1     -10.382  12.027  64.556  1.00  0.00    -0.334 A  
HETATM   22  C   UNL     1     -11.571  12.669  64.259  1.00  0.00    -0.435 A  
HETATM   23  C   UNL     1     -12.456  12.900  65.316  1.00  0.00    -0.552 A  
HETATM   24  C   UNL     1     -12.128  12.506  66.627  1.00  0.00    -0.212 A  
HETATM   25  C   UNL     1     -10.918  11.860  66.899  1.00  0.00    -0.335 A  
HETATM   26  C   UNL     1     -10.054  11.609  65.844  1.00  0.00    -0.267 A  
ENDBRANCH  12  14
ENDBRANCH   3   7
TORSDOF 2
ENDMDL
MODEL      153
REMARK 921   NORMALIZED FREE ENERGY PREDICTED BY IDOCK:   -4.32 KCAL/MOL
REMARK 922        TOTAL FREE ENERGY PREDICTED BY IDOCK:   -5.30 KCAL/MOL
REMARK 923 INTER-LIGAND FREE ENERGY PREDICTED BY IDOCK:   -5.32 KCAL/MOL
REMARK 924 INTRA-LIGAND FREE ENERGY PREDICTED BY IDOCK:    0.02 KCAL/MOL
REMARK 927      BINDING AFFINITY PREDICTED BY RF-SCORE:    0.00 PKD
ROOT
HETATM    1  N   UNL     1     -11.585   7.465  73.122  1.00  0.00    -0.588 N  
HETATM    2  H2  UNL     1     -10.954   6.851  73.638  1.00  0.00     0.000 HD 
HETATM    3  S   UNL     1     -12.045   7.347  71.514  1.00  0.00    -0.345 S  
HETATM    4  H1  UNL     1     -12.075   8.289  73.470  1.00  0.00     0.000 HD 
HETATM    5  O   UNL     1     -13.483   7.444  71.479  1.00  0.00    -0.376 OA 
HETATM    6  O   UNL     1     -11.348   6.179  71.022  1.00  0.00    -0.307 OA 
ENDROOT
BRANCH   3   7
HETATM    7  C   UNL     1     -11.355   8.784  70.759  1.00  0.00    -0.272 A  
HETATM    8  C   UNL     1     -11.955  10.035  70.894  1.00  0.00    -0.361 A  
HETATM    9 CL   UNL     1     -13.352  10.346  71.859  1.00  0.00    -0.503 Cl 
HETATM   10  C   UNL     1     -11.432  11.120  70.184  1.00  0.00    -0.361 A  
HETATM   11  C   UNL     1     -10.349  10.952  69.321  1.00  0.00    -0.211 A  
HETATM   12  C   UNL     1      -9.748   9.693  69.155  1.00  0.00    -0.180 A  
HETATM   13  C   UNL     1     -10.245   8.615  69.914  1.00  0.00    -0.206 A  
BRANCH  12  14
HETATM   14  C   UNL     1      -8.730   9.473  68.042  1.00  0.00    -0.120 C  
HETATM   15  O   UNL     1      -7.442   9.881  68.439  1.00  0.00    -0.081 OA 
HETATM   16  N   UNL     1      -8.607   8.111  67.620  1.00  0.00    -0.130 N  
HETATM   17  H   UNL     1      -6.808   9.744  67.745  1.00  0.00     0.000 HD 
HETATM   18  H   UNL     1      -8.242   7.366  68.211  1.00  0.00     0.000 HD 
HETATM   19  C   UNL     1      -9.037   7.921  66.329  1.00  0.00    -0.179 C  
HETATM   20  O   UNL     1      -9.155   6.859  65.749  1.00  0.00    -0.077 OA 
HETATM   21  C   UNL     1      -9.377   9.242  65.779  1.00  0.00    -0.306 A  
HETATM   22  C   UNL     1      -9.897   9.580  64.543  1.00  0.00     0.374 A  
HETATM   23  C   UNL     1     -10.189  10.928  64.318  1.00  0.00    -0.430 A  
HETATM   24  C   UNL     1      -9.940  11.893  65.313  1.00  0.00    -0.280 A  
HETATM   25  C   UNL     1      -9.412  11.522  66.553  1.00  0.00    -0.220 A  
HETATM   26  C   UNL     1      -9.149  10.181  66.783  1.00  0.00    -0.159 A  
ENDBRANCH  12  14
ENDBRANCH   3   7
TORSDOF 2
ENDMDL
MODEL      154
REMARK 921   NORMALIZED FREE ENERGY PREDICTED BY IDOCK:   -4.31 KCAL/MOL
REMARK 922        TOTAL FREE ENERGY PREDICTED BY IDOCK:   -5.29 KCAL/MOL
REMARK 923 INTER-LIGAND FREE ENERGY PREDICTED BY IDOCK:   -5.03 KCAL/MOL
REMARK 924 INTRA-LIGAND FREE ENERGY PREDICTED BY IDOCK:   -0.26 KCAL/MOL
REMARK 927      BINDING AFFINITY PREDICTED BY RF-SCORE:    0.00 PKD
ROOT
HETATM    1  N   UNL     1      -8.009   8.118  64.730  1.00  0.00    -0.140 N  
HETATM    2  H2  UNL     1      -7.718   7.717  63.839  1.00  0.00     0.000 HD 
HETATM    3  S   UNL     1      -7.383   7.799  66.252  1.00  0.00    -0.080 S  
HETATM    4  H1  UNL     1      -8.746   8.803  64.894  1.00  0.00     0.000 HD 
HETATM    5  O   UNL     1      -7.111   9.072  66.872  1.00  0.00    -0.077 OA 
HETATM    6  O   UNL     1      -6.337   6.827  66.019  1.00  0.00    -0.046 OA 
ENDROOT
BRANCH   3   7
HETATM    7  C   UNL     1      -8.709   7.015  67.111  1.00  0.00    -0.121 A  
HETATM    8  C   UNL     1      -9.319   5.865  66.612  1.00  0.00    -0.145 A  
HETATM    9 CL   UNL     1      -8.814   5.035  65.186  1.00  0.00    -0.153 Cl 
HETATM   10  C   UNL     1     -10.438   5.348  67.272  1.00  0.00    -0.274 A  
HETATM   11  C   UNL     1     -10.966   5.991  68.392  1.00  0.00    -0.340 A  
HETATM   12  C   UNL     1     -10.377   7.164  68.893  1.00  0.00    -0.202 A  
HETATM   13  C   UNL     1      -9.219   7.650  68.257  1.00  0.00    -0.139 A  
BRANCH  12  14
HETATM   14  C   UNL     1     -11.095   7.983  69.960  1.00  0.00    -0.154 C  
HETATM   15  O   UNL     1     -11.395   9.278  69.495  1.00  0.00    -0.435 OA 
HETATM   16  N   UNL     1     -12.334   7.418  70.399  1.00  0.00    -0.512 N  
HETATM   17  H   UNL     1     -11.842   9.788  70.160  1.00  0.00     0.000 HD 
HETATM   18  H   UNL     1     -13.156   7.324  69.803  1.00  0.00     0.000 HD 
HETATM   19  C   UNL     1     -12.292   7.016  71.712  1.00  0.00    -0.354 C  
HETATM   20  O   UNL     1     -13.152   6.403  72.314  1.00  0.00    -0.066 OA 
HETATM   21  C   UNL     1     -10.988   7.422  72.255  1.00  0.00    -0.296 A  
HETATM   22  C   UNL     1     -10.444   7.208  73.509  1.00  0.00    -0.422 A  
HETATM   23  C   UNL     1      -9.137   7.653  73.724  1.00  0.00    -0.332 A  
HETATM   24  C   UNL     1      -8.423   8.308  72.703  1.00  0.00    -0.248 A  
HETATM   25  C   UNL     1      -8.998   8.512  71.445  1.00  0.00    -0.262 A  
HETATM   26  C   UNL     1     -10.285   8.046  71.226  1.00  0.00    -0.230 A  
ENDBRANCH  12  14
ENDBRANCH   3   7
TORSDOF 2
ENDMDL
MODEL      155
REMARK 921   NORMALIZED FREE ENERGY PREDICTED BY IDOCK:   -4.29 KCAL/MOL
REMARK 922        TOTAL FREE ENERGY PREDICTED BY IDOCK:   -5.26 KCAL/MOL
REMARK 923 INTER-LIGAND FREE ENERGY PREDICTED BY IDOCK:   -5.36 KCAL/MOL
REMARK 924 INTRA-LIGAND FREE ENERGY PREDICTED BY IDOCK:    0.10 KCAL/MOL
REMARK 927      BINDING AFFINITY PREDICTED BY RF-SCORE:    0.00 PKD
ROOT
HETATM    1  N   UNL     1     -13.368  14.060  65.395  1.00  0.00    -0.593 N  
HETATM    2  H2  UNL     1     -14.313  13.791  65.123  1.00  0.00     0.000 HD 
HETATM    3  S   UNL     1     -12.012  14.176  64.416  1.00  0.00    -0.435 S  
HETATM    4  H1  UNL     1     -13.037  14.318  66.325  1.00  0.00     0.000 HD 
HETATM    5  O   UNL     1     -11.411  15.460  64.678  1.00  0.00    -0.408 OA 
HETATM    6  O   UNL     1     -12.482  13.809  63.099  1.00  0.00    -0.786 OA 
ENDROOT
BRANCH   3   7
HETATM    7  C   UNL     1     -10.938  12.910  65.012  1.00  0.00    -0.297 A  
HETATM    8  C   UNL     1     -10.620  11.799  64.231  1.00  0.00    -0.335 A  
HETATM    9 CL   UNL     1     -11.145  11.571  62.603  1.00  0.00     0.519 Cl 
HETATM   10  C   UNL     1      -9.855  10.771  64.790  1.00  0.00    -0.358 A  
HETATM   11  C   UNL     1      -9.445  10.831  66.122  1.00  0.00    -0.221 A  
HETATM   12  C   UNL     1      -9.778  11.931  66.930  1.00  0.00    -0.212 A  
HETATM   13  C   UNL     1     -10.502  12.989  66.346  1.00  0.00    -0.285 A  
BRANCH  12  14
HETATM   14  C   UNL     1      -9.533  11.877  68.434  1.00  0.00    -0.189 C  
HETATM   15  O   UNL     1      -9.417  13.170  68.979  1.00  0.00    -0.378 OA 
HETATM   16  N   UNL     1     -10.568  11.222  69.173  1.00  0.00    -0.312 N  
HETATM   17  H   UNL     1      -9.264  13.136  69.917  1.00  0.00     0.000 HD 
HETATM   18  H   UNL     1     -11.518  11.582  69.259  1.00  0.00     0.000 HD 
HETATM   19  C   UNL     1     -10.138  10.053  69.754  1.00  0.00    -0.248 C  
HETATM   20  O   UNL     1     -10.823   9.236  70.340  1.00  0.00    -0.224 OA 
HETATM   21  C   UNL     1      -8.696   9.940  69.499  1.00  0.00    -0.200 A  
HETATM   22  C   UNL     1      -7.813   8.928  69.833  1.00  0.00    -0.092 A  
HETATM   23  C   UNL     1      -6.493   9.059  69.394  1.00  0.00    -0.044 A  
HETATM   24  C   UNL     1      -6.088  10.189  68.660  1.00  0.00    -0.044 A  
HETATM   25  C   UNL     1      -7.001  11.198  68.338  1.00  0.00    -0.072 A  
HETATM   26  C   UNL     1      -8.316  11.053  68.751  1.00  0.00    -0.144 A  
ENDBRANCH  12  14
ENDBRANCH   3   7
TORSDOF 2
ENDMDL
MODEL      156
REMARK 921   NORMALIZED FREE ENERGY PREDICTED BY IDOCK:   -4.28 KCAL/MOL
REMARK 922        TOTAL FREE ENERGY PREDICTED BY IDOCK:   -5.26 KCAL/MOL
REMARK 923 INTER-LIGAND FREE ENERGY PREDICTED BY IDOCK:   -4.67 KCAL/MOL
REMARK 924 INTRA-LIGAND FREE ENERGY PREDICTED BY IDOCK:   -0.59 KCAL/MOL
REMARK 927      BINDING AFFINITY PREDICTED BY RF-SCORE:    0.00 PKD
ROOT
HETATM    1  N   UNL     1      -9.726   2.118  67.222  1.00  0.00    -0.352 N  
HETATM    2  H2  UNL     1     -10.514   1.491  67.380  1.00  0.00     0.000 HD 
HETATM    3  S   UNL     1      -8.949   3.093  68.344  1.00  0.00    -0.156 S  
HETATM    4  H1  UNL     1      -9.235   2.293  66.346  1.00  0.00     0.000 HD 
HETATM    5  O   UNL     1      -7.534   2.850  68.206  1.00  0.00    -0.052 OA 
HETATM    6  O   UNL     1      -9.646   2.844  69.586  1.00  0.00    -0.124 OA 
ENDROOT
BRANCH   3   7
HETATM    7  C   UNL     1      -9.303   4.736  67.809  1.00  0.00    -0.136 A  
HETATM    8  C   UNL     1      -8.732   5.262  66.652  1.00  0.00    -0.113 A  
HETATM    9 CL   UNL     1      -7.713   4.376  65.578  1.00  0.00    -0.085 Cl 
HETATM   10  C   UNL     1      -8.956   6.605  66.333  1.00  0.00    -0.161 A  
HETATM   11  C   UNL     1      -9.707   7.423  67.177  1.00  0.00    -0.223 A  
HETATM   12  C   UNL     1     -10.269   6.914  68.361  1.00  0.00    -0.191 A  
HETATM   13  C   UNL     1     -10.085   5.548  68.649  1.00  0.00    -0.246 A  
BRANCH  12  14
HETATM   14  C   UNL     1     -10.879   7.863  69.386  1.00  0.00    -0.106 C  
HETATM   15  O   UNL     1     -11.296   9.066  68.784  1.00  0.00    -0.363 OA 
HETATM   16  N   UNL     1     -12.023   7.336  70.065  1.00  0.00    -0.508 N  
HETATM   17  H   UNL     1     -11.677   9.657  69.423  1.00  0.00     0.000 HD 
HETATM   18  H   UNL     1     -12.911   7.133  69.606  1.00  0.00     0.000 HD 
HETATM   19  C   UNL     1     -11.792   7.136  71.405  1.00  0.00    -0.308 C  
HETATM   20  O   UNL     1     -12.538   6.596  72.200  1.00  0.00    -0.259 OA 
HETATM   21  C   UNL     1     -10.449   7.652  71.702  1.00  0.00    -0.229 A  
HETATM   22  C   UNL     1      -9.738   7.642  72.888  1.00  0.00    -0.282 A  
HETATM   23  C   UNL     1      -8.436   8.149  72.859  1.00  0.00    -0.259 A  
HETATM   24  C   UNL     1      -7.892   8.663  71.667  1.00  0.00    -0.153 A  
HETATM   25  C   UNL     1      -8.634   8.663  70.482  1.00  0.00    -0.170 A  
HETATM   26  C   UNL     1      -9.915   8.135  70.508  1.00  0.00    -0.195 A  
ENDBRANCH  12  14
ENDBRANCH   3   7
TORSDOF 2
ENDMDL
MODEL      157
REMARK 921   NORMALIZED FREE ENERGY PREDICTED BY IDOCK:   -4.27 KCAL/MOL
REMARK 922        TOTAL FREE ENERGY PREDICTED BY IDOCK:   -5.25 KCAL/MOL
REMARK 923 INTER-LIGAND FREE ENERGY PREDICTED BY IDOCK:   -5.52 KCAL/MOL
REMARK 924 INTRA-LIGAND FREE ENERGY PREDICTED BY IDOCK:    0.28 KCAL/MOL
REMARK 927      BINDING AFFINITY PREDICTED BY RF-SCORE:    0.00 PKD
ROOT
HETATM    1  N   UNL     1     -12.995  12.502  64.406  1.00  0.00    -0.757 N  
HETATM    2  H2  UNL     1     -13.346  11.730  63.839  1.00  0.00     0.000 HD 
HETATM    3  S   UNL     1     -11.465  13.186  64.374  1.00  0.00    -0.387 S  
HETATM    4  H1  UNL     1     -13.498  13.029  65.120  1.00  0.00     0.000 HD 
HETATM    5  O   UNL     1     -11.643  14.614  64.277  1.00  0.00    -0.314 OA 
HETATM    6  O   UNL     1     -10.753  12.438  63.362  1.00  0.00    -0.446 OA 
ENDROOT
BRANCH   3   7
HETATM    7  C   UNL     1     -10.784  12.800  65.954  1.00  0.00    -0.270 A  
HETATM    8  C   UNL     1     -10.027  13.729  66.666  1.00  0.00    -0.279 A  
HETATM    9 CL   UNL     1      -9.743  15.353  66.154  1.00  0.00    -0.319 Cl 
HETATM   10  C   UNL     1      -9.416  13.337  67.862  1.00  0.00    -0.214 A  
HETATM   11  C   UNL     1      -9.527  12.024  68.321  1.00  0.00    -0.199 A  
HETATM   12  C   UNL     1     -10.266  11.069  67.603  1.00  0.00    -0.211 A  
HETATM   13  C   UNL     1     -10.923  11.484  66.429  1.00  0.00    -0.336 A  
BRANCH  12  14
HETATM   14  C   UNL     1     -10.183   9.595  67.983  1.00  0.00    -0.194 C  
HETATM   15  O   UNL     1     -11.191   9.248  68.904  1.00  0.00    -0.448 OA 
HETATM   16  N   UNL     1     -10.322   8.696  66.879  1.00  0.00    -0.293 N  
HETATM   17  H   UNL     1     -11.139   8.329  69.142  1.00  0.00     0.000 HD 
HETATM   18  H   UNL     1     -11.180   8.591  66.338  1.00  0.00     0.000 HD 
HETATM   19  C   UNL     1      -9.170   7.989  66.630  1.00  0.00    -0.180 C  
HETATM   20  O   UNL     1      -8.961   7.244  65.692  1.00  0.00    -0.087 OA 
HETATM   21  C   UNL     1      -8.207   8.332  67.686  1.00  0.00    -0.127 A  
HETATM   22  C   UNL     1      -6.895   7.925  67.856  1.00  0.00    -0.072 A  
HETATM   23  C   UNL     1      -6.188   8.475  68.928  1.00  0.00    -0.044 A  
HETATM   24  C   UNL     1      -6.805   9.389  69.802  1.00  0.00    -0.055 A  
HETATM   25  C   UNL     1      -8.132   9.782  69.608  1.00  0.00    -0.158 A  
HETATM   26  C   UNL     1      -8.823   9.256  68.528  1.00  0.00    -0.129 A  
ENDBRANCH  12  14
ENDBRANCH   3   7
TORSDOF 2
ENDMDL
MODEL      158
REMARK 921   NORMALIZED FREE ENERGY PREDICTED BY IDOCK:   -4.27 KCAL/MOL
REMARK 922        TOTAL FREE ENERGY PREDICTED BY IDOCK:   -5.24 KCAL/MOL
REMARK 923 INTER-LIGAND FREE ENERGY PREDICTED BY IDOCK:   -4.65 KCAL/MOL
REMARK 924 INTRA-LIGAND FREE ENERGY PREDICTED BY IDOCK:   -0.59 KCAL/MOL
REMARK 927      BINDING AFFINITY PREDICTED BY RF-SCORE:    0.00 PKD
ROOT
HETATM    1  N   UNL     1      -8.345  11.931  68.639  1.00  0.00    -0.307 N  
HETATM    2  H2  UNL     1      -7.338  11.808  68.749  1.00  0.00     0.000 HD 
HETATM    3  S   UNL     1      -9.264  11.683  67.259  1.00  0.00    -0.173 S  
HETATM    4  H1  UNL     1      -9.017  12.232  69.345  1.00  0.00     0.000 HD 
HETATM    5  O   UNL     1     -10.384  10.859  67.640  1.00  0.00    -0.183 OA 
HETATM    6  O   UNL     1      -8.310  11.257  66.259  1.00  0.00    -0.170 OA 
ENDROOT
BRANCH   3   7
HETATM    7  C   UNL     1      -9.853  13.291  66.836  1.00  0.00    -0.247 A  
HETATM    8  C   UNL     1     -10.546  13.523  65.649  1.00  0.00    -0.284 A  
HETATM    9 CL   UNL     1     -10.983  12.292  64.520  1.00  0.00    -0.338 Cl 
HETATM   10  C   UNL     1     -10.894  14.834  65.308  1.00  0.00    -0.395 A  
HETATM   11  C   UNL     1     -10.521  15.904  66.122  1.00  0.00    -0.336 A  
HETATM   12  C   UNL     1      -9.800  15.690  67.309  1.00  0.00    -0.225 A  
HETATM   13  C   UNL     1      -9.501  14.364  67.674  1.00  0.00    -0.214 A  
BRANCH  12  14
HETATM   14  C   UNL     1      -9.196  16.872  68.060  1.00  0.00    -0.235 C  
HETATM   15  O   UNL     1     -10.157  17.876  68.290  1.00  0.00    -0.332 OA 
HETATM   16  N   UNL     1      -8.651  16.537  69.340  1.00  0.00    -0.045 N  
HETATM   17  H   UNL     1      -9.780  18.612  68.758  1.00  0.00     0.000 HD 
HETATM   18  H   UNL     1      -9.213  16.219  70.129  1.00  0.00     0.000 HD 
HETATM   19  C   UNL     1      -7.287  16.693  69.386  1.00  0.00    -0.095 C  
HETATM   20  O   UNL     1      -6.548  16.377  70.299  1.00  0.00     0.119 OA 
HETATM   21  C   UNL     1      -6.866  17.272  68.102  1.00  0.00    -0.182 A  
HETATM   22  C   UNL     1      -5.598  17.573  67.638  1.00  0.00    -0.143 A  
HETATM   23  C   UNL     1      -5.493  18.057  66.332  1.00  0.00    -0.205 A  
HETATM   24  C   UNL     1      -6.641  18.245  65.539  1.00  0.00    -0.254 A  
HETATM   25  C   UNL     1      -7.911  17.934  66.035  1.00  0.00    -0.189 A  
HETATM   26  C   UNL     1      -8.010  17.428  67.322  1.00  0.00    -0.218 A  
ENDBRANCH  12  14
ENDBRANCH   3   7
TORSDOF 2
ENDMDL
MODEL      159
REMARK 921   NORMALIZED FREE ENERGY PREDICTED BY IDOCK:   -4.24 KCAL/MOL
REMARK 922        TOTAL FREE ENERGY PREDICTED BY IDOCK:   -5.22 KCAL/MOL
REMARK 923 INTER-LIGAND FREE ENERGY PREDICTED BY IDOCK:   -5.08 KCAL/MOL
REMARK 924 INTRA-LIGAND FREE ENERGY PREDICTED BY IDOCK:   -0.13 KCAL/MOL
REMARK 927      BINDING AFFINITY PREDICTED BY RF-SCORE:    0.00 PKD
ROOT
HETATM    1  N   UNL     1     -10.448  13.797  64.706  1.00  0.00    -0.422 N  
HETATM    2  H2  UNL     1     -10.156  14.768  64.598  1.00  0.00     0.000 HD 
HETATM    3  S   UNL     1     -11.500  13.162  65.847  1.00  0.00    -0.349 S  
HETATM    4  H1  UNL     1     -10.165  12.995  64.144  1.00  0.00     0.000 HD 
HETATM    5  O   UNL     1     -12.461  12.358  65.134  1.00  0.00    -0.583 OA 
HETATM    6  O   UNL     1     -11.901  14.299  66.645  1.00  0.00    -0.390 OA 
ENDROOT
BRANCH   3   7
HETATM    7  C   UNL     1     -10.486  12.104  66.830  1.00  0.00    -0.218 A  
HETATM    8  C   UNL     1      -9.428  12.608  67.585  1.00  0.00    -0.189 A  
HETATM    9 CL   UNL     1      -9.042  14.284  67.725  1.00  0.00    -0.187 Cl 
HETATM   10  C   UNL     1      -8.587  11.716  68.258  1.00  0.00    -0.162 A  
HETATM   11  C   UNL     1      -8.774  10.338  68.146  1.00  0.00    -0.123 A  
HETATM   12  C   UNL     1      -9.821   9.813  67.369  1.00  0.00    -0.219 A  
HETATM   13  C   UNL     1     -10.697  10.717  66.739  1.00  0.00    -0.291 A  
BRANCH  12  14
HETATM   14  C   UNL     1      -9.871   8.320  67.063  1.00  0.00    -0.232 C  
HETATM   15  O   UNL     1     -11.169   7.805  67.245  1.00  0.00    -0.457 OA 
HETATM   16  N   UNL     1      -9.490   7.982  65.726  1.00  0.00    -0.426 N  
HETATM   17  H   UNL     1     -11.201   6.875  67.055  1.00  0.00     0.000 HD 
HETATM   18  H   UNL     1     -10.022   8.252  64.899  1.00  0.00     0.000 HD 
HETATM   19  C   UNL     1      -8.325   7.254  65.681  1.00  0.00    -0.140 C  
HETATM   20  O   UNL     1      -7.708   6.929  64.685  1.00  0.00    -0.102 OA 
HETATM   21  C   UNL     1      -7.928   6.973  67.068  1.00  0.00    -0.116 A  
HETATM   22  C   UNL     1      -6.811   6.318  67.555  1.00  0.00    -0.063 A  
HETATM   23  C   UNL     1      -6.658   6.258  68.942  1.00  0.00    -0.048 A  
HETATM   24  C   UNL     1      -7.619   6.830  69.797  1.00  0.00    -0.104 A  
HETATM   25  C   UNL     1      -8.740   7.485  69.277  1.00  0.00    -0.136 A  
HETATM   26  C   UNL     1      -8.876   7.566  67.900  1.00  0.00    -0.126 A  
ENDBRANCH  12  14
ENDBRANCH   3   7
TORSDOF 2
ENDMDL
MODEL      160
REMARK 921   NORMALIZED FREE ENERGY PREDICTED BY IDOCK:   -4.23 KCAL/MOL
REMARK 922        TOTAL FREE ENERGY PREDICTED BY IDOCK:   -5.20 KCAL/MOL
REMARK 923 INTER-LIGAND FREE ENERGY PREDICTED BY IDOCK:   -5.23 KCAL/MOL
REMARK 924 INTRA-LIGAND FREE ENERGY PREDICTED BY IDOCK:    0.03 KCAL/MOL
REMARK 927      BINDING AFFINITY PREDICTED BY RF-SCORE:    0.00 PKD
ROOT
HETATM    1  N   UNL     1     -12.023   6.295  72.794  1.00  0.00    -0.500 N  
HETATM    2  H2  UNL     1     -12.850   6.625  73.290  1.00  0.00     0.000 HD 
HETATM    3  S   UNL     1     -10.621   7.150  72.455  1.00  0.00    -0.240 S  
HETATM    4  H1  UNL     1     -11.865   5.372  72.392  1.00  0.00     0.000 HD 
HETATM    5  O   UNL     1      -9.513   6.323  72.867  1.00  0.00    -0.147 OA 
HETATM    6  O   UNL     1     -10.846   8.460  73.024  1.00  0.00    -0.145 OA 
ENDROOT
BRANCH   3   7
HETATM    7  C   UNL     1     -10.610   7.286  70.696  1.00  0.00    -0.226 A  
HETATM    8  C   UNL     1     -10.355   6.183  69.883  1.00  0.00    -0.213 A  
HETATM    9 CL   UNL     1     -10.116   4.577  70.468  1.00  0.00    -0.275 Cl 
HETATM   10  C   UNL     1     -10.247   6.366  68.501  1.00  0.00    -0.198 A  
HETATM   11  C   UNL     1     -10.353   7.640  67.941  1.00  0.00    -0.270 A  
HETATM   12  C   UNL     1     -10.586   8.765  68.749  1.00  0.00    -0.174 A  
HETATM   13  C   UNL     1     -10.748   8.567  70.134  1.00  0.00    -0.240 A  
BRANCH  12  14
HETATM   14  C   UNL     1     -10.462  10.167  68.161  1.00  0.00    -0.206 C  
HETATM   15  O   UNL     1     -11.729  10.741  67.940  1.00  0.00    -0.648 OA 
HETATM   16  N   UNL     1      -9.743  11.088  68.985  1.00  0.00    -0.342 N  
HETATM   17  H   UNL     1     -11.652  11.615  67.573  1.00  0.00     0.000 HD 
HETATM   18  H   UNL     1     -10.072  11.411  69.895  1.00  0.00     0.000 HD 
HETATM   19  C   UNL     1      -8.558  11.488  68.415  1.00  0.00    -0.159 C  
HETATM   20  O   UNL     1      -7.695  12.171  68.932  1.00  0.00    -0.075 OA 
HETATM   21  C   UNL     1      -8.498  10.900  67.069  1.00  0.00    -0.134 A  
HETATM   22  C   UNL     1      -7.495  10.964  66.118  1.00  0.00    -0.107 A  
HETATM   23  C   UNL     1      -7.684  10.240  64.938  1.00  0.00    -0.124 A  
HETATM   24  C   UNL     1      -8.861   9.496  64.732  1.00  0.00    -0.244 A  
HETATM   25  C   UNL     1      -9.859   9.451  65.710  1.00  0.00    -0.345 A  
HETATM   26  C   UNL     1      -9.657  10.148  66.891  1.00  0.00    -0.219 A  
ENDBRANCH  12  14
ENDBRANCH   3   7
TORSDOF 2
ENDMDL
MODEL      161
REMARK 921   NORMALIZED FREE ENERGY PREDICTED BY IDOCK:   -4.23 KCAL/MOL
REMARK 922        TOTAL FREE ENERGY PREDICTED BY IDOCK:   -5.20 KCAL/MOL
REMARK 923 INTER-LIGAND FREE ENERGY PREDICTED BY IDOCK:   -4.76 KCAL/MOL
REMARK 924 INTRA-LIGAND FREE ENERGY PREDICTED BY IDOCK:   -0.44 KCAL/MOL
REMARK 927      BINDING AFFINITY PREDICTED BY RF-SCORE:    0.00 PKD
ROOT
HETATM    1  N   UNL     1     -11.872   8.675  72.387  1.00  0.00    -0.362 N  
HETATM    2  H2  UNL     1     -11.633   9.060  73.301  1.00  0.00     0.000 HD 
HETATM    3  S   UNL     1     -11.654   7.102  71.847  1.00  0.00    -0.290 S  
HETATM    4  H1  UNL     1     -12.296   9.161  71.597  1.00  0.00     0.000 HD 
HETATM    5  O   UNL     1     -12.908   6.674  71.278  1.00  0.00    -0.261 OA 
HETATM    6  O   UNL     1     -11.052   6.414  72.968  1.00  0.00    -0.250 OA 
ENDROOT
BRANCH   3   7
HETATM    7  C   UNL     1     -10.460   7.248  70.558  1.00  0.00    -0.217 A  
HETATM    8  C   UNL     1      -9.817   6.128  70.033  1.00  0.00    -0.170 A  
HETATM    9 CL   UNL     1     -10.160   4.501  70.496  1.00  0.00    -0.275 Cl 
HETATM   10  C   UNL     1      -8.798   6.307  69.092  1.00  0.00    -0.128 A  
HETATM   11  C   UNL     1      -8.399   7.587  68.708  1.00  0.00    -0.129 A  
HETATM   12  C   UNL     1      -9.020   8.727  69.246  1.00  0.00    -0.144 A  
HETATM   13  C   UNL     1     -10.081   8.540  70.152  1.00  0.00    -0.197 A  
BRANCH  12  14
HETATM   14  C   UNL     1      -8.422  10.109  69.004  1.00  0.00    -0.151 C  
HETATM   15  O   UNL     1      -8.012  10.707  70.212  1.00  0.00    -0.360 OA 
HETATM   16  N   UNL     1      -7.277  10.110  68.147  1.00  0.00    -0.080 N  
HETATM   17  H   UNL     1      -7.640  11.568  70.061  1.00  0.00     0.000 HD 
HETATM   18  H   UNL     1      -6.386   9.679  68.391  1.00  0.00     0.000 HD 
HETATM   19  C   UNL     1      -7.512  10.759  66.959  1.00  0.00    -0.114 C  
HETATM   20  O   UNL     1      -6.765  10.817  66.001  1.00  0.00    -0.128 OA 
HETATM   21  C   UNL     1      -8.861  11.337  67.033  1.00  0.00    -0.153 A  
HETATM   22  C   UNL     1      -9.577  12.041  66.080  1.00  0.00    -0.252 A  
HETATM   23  C   UNL     1     -10.882  12.414  66.408  1.00  0.00    -0.291 A  
HETATM   24  C   UNL     1     -11.426  12.098  67.668  1.00  0.00    -0.399 A  
HETATM   25  C   UNL     1     -10.679  11.388  68.612  1.00  0.00    -0.241 A  
HETATM   26  C   UNL     1      -9.393  10.995  68.274  1.00  0.00    -0.172 A  
ENDBRANCH  12  14
ENDBRANCH   3   7
TORSDOF 2
ENDMDL
MODEL      162
REMARK 921   NORMALIZED FREE ENERGY PREDICTED BY IDOCK:   -4.21 KCAL/MOL
REMARK 922        TOTAL FREE ENERGY PREDICTED BY IDOCK:   -5.18 KCAL/MOL
REMARK 923 INTER-LIGAND FREE ENERGY PREDICTED BY IDOCK:   -4.70 KCAL/MOL
REMARK 924 INTRA-LIGAND FREE ENERGY PREDICTED BY IDOCK:   -0.49 KCAL/MOL
REMARK 927      BINDING AFFINITY PREDICTED BY RF-SCORE:    0.00 PKD
ROOT
HETATM    1  N   UNL     1      -6.353  10.062  67.019  1.00  0.00    -0.063 N  
HETATM    2  H2  UNL     1      -5.454  10.106  67.497  1.00  0.00     0.000 HD 
HETATM    3  S   UNL     1      -7.785  10.819  67.454  1.00  0.00    -0.109 S  
HETATM    4  H1  UNL     1      -6.583   9.548  66.169  1.00  0.00     0.000 HD 
HETATM    5  O   UNL     1      -8.286  11.484  66.277  1.00  0.00    -0.142 OA 
HETATM    6  O   UNL     1      -7.459  11.548  68.660  1.00  0.00    -0.104 OA 
ENDROOT
BRANCH   3   7
HETATM    7  C   UNL     1      -8.869   9.490  67.867  1.00  0.00    -0.119 A  
HETATM    8  C   UNL     1      -9.395   8.650  66.886  1.00  0.00    -0.170 A  
HETATM    9 CL   UNL     1      -8.995   8.739  65.210  1.00  0.00    -0.217 Cl 
HETATM   10  C   UNL     1     -10.337   7.683  67.252  1.00  0.00    -0.367 A  
HETATM   11  C   UNL     1     -10.778   7.581  68.572  1.00  0.00    -0.115 A  
HETATM   12  C   UNL     1     -10.276   8.437  69.567  1.00  0.00    -0.207 A  
HETATM   13  C   UNL     1      -9.289   9.372  69.203  1.00  0.00    -0.159 A  
BRANCH  12  14
HETATM   14  C   UNL     1     -10.934   8.477  70.942  1.00  0.00    -0.251 C  
HETATM   15  O   UNL     1     -10.583   9.647  71.643  1.00  0.00    -0.199 OA 
HETATM   16  N   UNL     1     -12.364   8.443  70.910  1.00  0.00    -0.494 N  
HETATM   17  H   UNL     1     -10.992   9.672  72.500  1.00  0.00     0.000 HD 
HETATM   18  H   UNL     1     -12.940   9.190  70.524  1.00  0.00     0.000 HD 
HETATM   19  C   UNL     1     -12.874   7.290  71.458  1.00  0.00    -0.388 C  
HETATM   20  O   UNL     1     -14.038   6.939  71.463  1.00  0.00    -0.276 OA 
HETATM   21  C   UNL     1     -11.743   6.525  72.003  1.00  0.00    -0.367 A  
HETATM   22  C   UNL     1     -11.725   5.282  72.610  1.00  0.00    -0.173 A  
HETATM   23  C   UNL     1     -10.479   4.764  72.970  1.00  0.00    -0.258 A  
HETATM   24  C   UNL     1      -9.300   5.497  72.737  1.00  0.00    -0.146 A  
HETATM   25  C   UNL     1      -9.348   6.752  72.123  1.00  0.00    -0.145 A  
HETATM   26  C   UNL     1     -10.584   7.252  71.742  1.00  0.00    -0.229 A  
ENDBRANCH  12  14
ENDBRANCH   3   7
TORSDOF 2
ENDMDL
MODEL      163
REMARK 921   NORMALIZED FREE ENERGY PREDICTED BY IDOCK:   -4.21 KCAL/MOL
REMARK 922        TOTAL FREE ENERGY PREDICTED BY IDOCK:   -5.18 KCAL/MOL
REMARK 923 INTER-LIGAND FREE ENERGY PREDICTED BY IDOCK:   -4.61 KCAL/MOL
REMARK 924 INTRA-LIGAND FREE ENERGY PREDICTED BY IDOCK:   -0.56 KCAL/MOL
REMARK 927      BINDING AFFINITY PREDICTED BY RF-SCORE:    0.00 PKD
ROOT
HETATM    1  N   UNL     1      -9.924   4.215  70.570  1.00  0.00    -0.173 N  
HETATM    2  H2  UNL     1     -10.369   3.393  70.979  1.00  0.00     0.000 HD 
HETATM    3  S   UNL     1      -8.854   5.275  71.306  1.00  0.00    -0.138 S  
HETATM    4  H1  UNL     1     -10.032   4.575  69.622  1.00  0.00     0.000 HD 
HETATM    5  O   UNL     1      -7.727   5.421  70.417  1.00  0.00    -0.077 OA 
HETATM    6  O   UNL     1      -8.701   4.763  72.650  1.00  0.00    -0.114 OA 
ENDROOT
BRANCH   3   7
HETATM    7  C   UNL     1      -9.733   6.802  71.373  1.00  0.00    -0.171 A  
HETATM    8  C   UNL     1     -10.977   6.898  71.993  1.00  0.00    -0.235 A  
HETATM    9 CL   UNL     1     -11.752   5.601  72.827  1.00  0.00    -0.299 Cl 
HETATM   10  C   UNL     1     -11.683   8.103  71.920  1.00  0.00    -0.362 A  
HETATM   11  C   UNL     1     -11.171   9.187  71.206  1.00  0.00    -0.407 A  
HETATM   12  C   UNL     1      -9.929   9.099  70.554  1.00  0.00    -0.288 A  
HETATM   13  C   UNL     1      -9.199   7.901  70.676  1.00  0.00    -0.157 A  
BRANCH  12  14
HETATM   14  C   UNL     1      -9.495  10.194  69.587  1.00  0.00    -0.200 C  
HETATM   15  O   UNL     1     -10.353  11.309  69.659  1.00  0.00    -0.442 OA 
HETATM   16  N   UNL     1      -8.173  10.690  69.818  1.00  0.00    -0.364 N  
HETATM   17  H   UNL     1     -10.082  11.992  69.056  1.00  0.00     0.000 HD 
HETATM   18  H   UNL     1      -7.899  11.207  70.654  1.00  0.00     0.000 HD 
HETATM   19  C   UNL     1      -7.313  10.392  68.789  1.00  0.00    -0.089 C  
HETATM   20  O   UNL     1      -6.112  10.585  68.763  1.00  0.00    -0.041 OA 
HETATM   21  C   UNL     1      -8.102   9.747  67.730  1.00  0.00    -0.113 A  
HETATM   22  C   UNL     1      -7.695   9.221  66.517  1.00  0.00    -0.093 A  
HETATM   23  C   UNL     1      -8.667   8.599  65.730  1.00  0.00    -0.212 A  
HETATM   24  C   UNL     1     -10.006   8.535  66.159  1.00  0.00    -0.160 A  
HETATM   25  C   UNL     1     -10.390   9.077  67.389  1.00  0.00    -0.335 A  
HETATM   26  C   UNL     1      -9.418   9.670  68.179  1.00  0.00    -0.144 A  
ENDBRANCH  12  14
ENDBRANCH   3   7
TORSDOF 2
ENDMDL
MODEL      164
REMARK 921   NORMALIZED FREE ENERGY PREDICTED BY IDOCK:   -4.18 KCAL/MOL
REMARK 922        TOTAL FREE ENERGY PREDICTED BY IDOCK:   -5.14 KCAL/MOL
REMARK 923 INTER-LIGAND FREE ENERGY PREDICTED BY IDOCK:   -5.10 KCAL/MOL
REMARK 924 INTRA-LIGAND FREE ENERGY PREDICTED BY IDOCK:   -0.04 KCAL/MOL
REMARK 927      BINDING AFFINITY PREDICTED BY RF-SCORE:    0.00 PKD
ROOT
HETATM    1  N   UNL     1      -6.688   9.626  65.451  1.00  0.00    -0.085 N  
HETATM    2  H2  UNL     1      -7.121   9.863  64.559  1.00  0.00     0.000 HD 
HETATM    3  S   UNL     1      -6.989   8.288  66.415  1.00  0.00    -0.068 S  
HETATM    4  H1  UNL     1      -5.974  10.151  65.956  1.00  0.00     0.000 HD 
HETATM    5  O   UNL     1      -5.710   7.707  66.742  1.00  0.00    -0.027 OA 
HETATM    6  O   UNL     1      -8.001   7.544  65.698  1.00  0.00    -0.103 OA 
ENDROOT
BRANCH   3   7
HETATM    7  C   UNL     1      -7.704   8.961  67.879  1.00  0.00    -0.101 A  
HETATM    8  C   UNL     1      -7.100   8.798  69.125  1.00  0.00    -0.063 A  
HETATM    9 CL   UNL     1      -5.578   8.023  69.375  1.00  0.00    -0.026 Cl 
HETATM   10  C   UNL     1      -7.764   9.253  70.269  1.00  0.00    -0.133 A  
HETATM   11  C   UNL     1      -9.031   9.828  70.175  1.00  0.00    -0.235 A  
HETATM   12  C   UNL     1      -9.665   9.976  68.930  1.00  0.00    -0.181 A  
HETATM   13  C   UNL     1      -8.969   9.566  67.777  1.00  0.00    -0.126 A  
BRANCH  12  14
HETATM   14  C   UNL     1     -11.134  10.381  68.864  1.00  0.00    -0.247 C  
HETATM   15  O   UNL     1     -11.758   9.853  67.717  1.00  0.00    -0.429 OA 
HETATM   16  N   UNL     1     -11.914   9.944  69.982  1.00  0.00    -0.461 N  
HETATM   17  H   UNL     1     -12.674  10.106  67.676  1.00  0.00     0.000 HD 
HETATM   18  H   UNL     1     -12.109   8.965  70.188  1.00  0.00     0.000 HD 
HETATM   19  C   UNL     1     -12.369  10.992  70.745  1.00  0.00    -0.398 C  
HETATM   20  O   UNL     1     -12.954  10.918  71.809  1.00  0.00    -0.452 OA 
HETATM   21  C   UNL     1     -11.979  12.234  70.064  1.00  0.00    -0.379 A  
HETATM   22  C   UNL     1     -12.160  13.551  70.450  1.00  0.00    -0.415 A  
HETATM   23  C   UNL     1     -11.617  14.539  69.626  1.00  0.00    -0.346 A  
HETATM   24  C   UNL     1     -10.933  14.196  68.445  1.00  0.00    -0.270 A  
HETATM   25  C   UNL     1     -10.766  12.856  68.079  1.00  0.00    -0.244 A  
HETATM   26  C   UNL     1     -11.283  11.877  68.912  1.00  0.00    -0.310 A  
ENDBRANCH  12  14
ENDBRANCH   3   7
TORSDOF 2
ENDMDL
MODEL      165
REMARK 921   NORMALIZED FREE ENERGY PREDICTED BY IDOCK:   -4.18 KCAL/MOL
REMARK 922        TOTAL FREE ENERGY PREDICTED BY IDOCK:   -5.14 KCAL/MOL
REMARK 923 INTER-LIGAND FREE ENERGY PREDICTED BY IDOCK:   -4.78 KCAL/MOL
REMARK 924 INTRA-LIGAND FREE ENERGY PREDICTED BY IDOCK:   -0.36 KCAL/MOL
REMARK 927      BINDING AFFINITY PREDICTED BY RF-SCORE:    0.00 PKD
ROOT
HETATM    1  N   UNL     1     -11.790  12.626  66.958  1.00  0.00    -0.379 N  
HETATM    2  H2  UNL     1     -12.258  12.235  66.140  1.00  0.00     0.000 HD 
HETATM    3  S   UNL     1     -10.316  13.422  67.014  1.00  0.00    -0.248 S  
HETATM    4  H1  UNL     1     -12.116  12.619  67.924  1.00  0.00     0.000 HD 
HETATM    5  O   UNL     1     -10.523  14.643  67.753  1.00  0.00    -0.243 OA 
HETATM    6  O   UNL     1      -9.855  13.431  65.644  1.00  0.00    -0.248 OA 
ENDROOT
BRANCH   3   7
HETATM    7  C   UNL     1      -9.280  12.350  67.958  1.00  0.00    -0.203 A  
HETATM    8  C   UNL     1      -7.909  12.578  68.070  1.00  0.00    -0.147 A  
HETATM    9 CL   UNL     1      -7.090  13.940  67.400  1.00  0.00    -0.162 Cl 
HETATM   10  C   UNL     1      -7.116  11.638  68.736  1.00  0.00    -0.106 A  
HETATM   11  C   UNL     1      -7.677  10.468  69.249  1.00  0.00    -0.144 A  
HETATM   12  C   UNL     1      -9.052  10.212  69.122  1.00  0.00    -0.189 A  
HETATM   13  C   UNL     1      -9.855  11.187  68.499  1.00  0.00    -0.199 A  
BRANCH  12  14
HETATM   14  C   UNL     1      -9.609   8.835  69.470  1.00  0.00    -0.167 C  
HETATM   15  O   UNL     1      -9.945   8.112  68.309  1.00  0.00    -0.174 OA 
HETATM   16  N   UNL     1      -8.706   8.008  70.211  1.00  0.00    -0.133 N  
HETATM   17  H   UNL     1     -10.291   7.254  68.526  1.00  0.00     0.000 HD 
HETATM   18  H   UNL     1      -7.829   7.648  69.835  1.00  0.00     0.000 HD 
HETATM   19  C   UNL     1      -9.154   7.753  71.485  1.00  0.00    -0.133 C  
HETATM   20  O   UNL     1      -8.547   7.180  72.369  1.00  0.00    -0.118 OA 
HETATM   21  C   UNL     1     -10.494   8.344  71.606  1.00  0.00    -0.321 A  
HETATM   22  C   UNL     1     -11.342   8.400  72.698  1.00  0.00    -0.346 A  
HETATM   23  C   UNL     1     -12.544   9.096  72.540  1.00  0.00    -0.311 A  
HETATM   24  C   UNL     1     -12.873   9.692  71.308  1.00  0.00    -0.438 A  
HETATM   25  C   UNL     1     -11.997   9.618  70.221  1.00  0.00    -0.101 A  
HETATM   26  C   UNL     1     -10.794   8.950  70.388  1.00  0.00    -0.269 A  
ENDBRANCH  12  14
ENDBRANCH   3   7
TORSDOF 2
ENDMDL
MODEL      166
REMARK 921   NORMALIZED FREE ENERGY PREDICTED BY IDOCK:   -4.16 KCAL/MOL
REMARK 922        TOTAL FREE ENERGY PREDICTED BY IDOCK:   -5.13 KCAL/MOL
REMARK 923 INTER-LIGAND FREE ENERGY PREDICTED BY IDOCK:   -4.69 KCAL/MOL
REMARK 924 INTRA-LIGAND FREE ENERGY PREDICTED BY IDOCK:   -0.44 KCAL/MOL
REMARK 927      BINDING AFFINITY PREDICTED BY RF-SCORE:    0.00 PKD
ROOT
HETATM    1  N   UNL     1     -13.893   9.659  70.534  1.00  0.00    -0.288 N  
HETATM    2  H2  UNL     1     -14.792  10.102  70.349  1.00  0.00     0.000 HD 
HETATM    3  S   UNL     1     -12.667  10.205  71.540  1.00  0.00    -0.471 S  
HETATM    4  H1  UNL     1     -13.538   8.785  70.148  1.00  0.00     0.000 HD 
HETATM    5  O   UNL     1     -12.292   9.099  72.386  1.00  0.00    -0.329 OA 
HETATM    6  O   UNL     1     -13.171  11.445  72.087  1.00  0.00    -0.490 OA 
ENDROOT
BRANCH   3   7
HETATM    7  C   UNL     1     -11.334  10.565  70.443  1.00  0.00    -0.328 A  
HETATM    8  C   UNL     1     -11.329  11.717  69.659  1.00  0.00    -0.236 A  
HETATM    9 CL   UNL     1     -12.540  12.945  69.723  1.00  0.00     0.065 Cl 
HETATM   10  C   UNL     1     -10.304  11.899  68.724  1.00  0.00    -0.184 A  
HETATM   11  C   UNL     1      -9.319  10.927  68.548  1.00  0.00    -0.181 A  
HETATM   12  C   UNL     1      -9.324   9.749  69.314  1.00  0.00    -0.198 A  
HETATM   13  C   UNL     1     -10.327   9.596  70.290  1.00  0.00    -0.336 A  
BRANCH  12  14
HETATM   14  C   UNL     1      -8.393   8.598  68.950  1.00  0.00    -0.124 C  
HETATM   15  O   UNL     1      -7.259   9.059  68.252  1.00  0.00    -0.076 OA 
HETATM   16  N   UNL     1      -7.900   7.864  70.075  1.00  0.00    -0.103 N  
HETATM   17  H   UNL     1      -6.679   8.341  68.025  1.00  0.00     0.000 HD 
HETATM   18  H   UNL     1      -7.272   8.257  70.777  1.00  0.00     0.000 HD 
HETATM   19  C   UNL     1      -8.366   6.572  70.104  1.00  0.00    -0.134 C  
HETATM   20  O   UNL     1      -8.207   5.760  70.995  1.00  0.00    -0.117 OA 
HETATM   21  C   UNL     1      -9.140   6.356  68.873  1.00  0.00    -0.129 A  
HETATM   22  C   UNL     1      -9.848   5.243  68.455  1.00  0.00    -0.210 A  
HETATM   23  C   UNL     1     -10.555   5.349  67.255  1.00  0.00    -0.250 A  
HETATM   24  C   UNL     1     -10.523   6.538  66.504  1.00  0.00    -0.132 A  
HETATM   25  C   UNL     1      -9.798   7.647  66.949  1.00  0.00    -0.304 A  
HETATM   26  C   UNL     1      -9.119   7.549  68.154  1.00  0.00    -0.128 A  
ENDBRANCH  12  14
ENDBRANCH   3   7
TORSDOF 2
ENDMDL
MODEL      167
REMARK 921   NORMALIZED FREE ENERGY PREDICTED BY IDOCK:   -4.14 KCAL/MOL
REMARK 922        TOTAL FREE ENERGY PREDICTED BY IDOCK:   -5.10 KCAL/MOL
REMARK 923 INTER-LIGAND FREE ENERGY PREDICTED BY IDOCK:   -4.66 KCAL/MOL
REMARK 924 INTRA-LIGAND FREE ENERGY PREDICTED BY IDOCK:   -0.45 KCAL/MOL
REMARK 927      BINDING AFFINITY PREDICTED BY RF-SCORE:    0.00 PKD
ROOT
HETATM    1  N   UNL     1     -13.884   9.745  70.263  1.00  0.00     0.035 N  
HETATM    2  H2  UNL     1     -14.141  10.522  69.655  1.00  0.00     0.000 HD 
HETATM    3  S   UNL     1     -13.234   9.821  71.807  1.00  0.00    -0.447 S  
HETATM    4  H1  UNL     1     -13.964   8.748  70.067  1.00  0.00     0.000 HD 
HETATM    5  O   UNL     1     -14.021   8.945  72.639  1.00  0.00    -0.448 OA 
HETATM    6  O   UNL     1     -13.120  11.236  72.084  1.00  0.00    -0.458 OA 
ENDROOT
BRANCH   3   7
HETATM    7  C   UNL     1     -11.616   9.142  71.630  1.00  0.00    -0.379 A  
HETATM    8  C   UNL     1     -10.703   9.667  70.717  1.00  0.00    -0.331 A  
HETATM    9 CL   UNL     1     -10.994  11.059  69.739  1.00  0.00    -0.288 Cl 
HETATM   10  C   UNL     1      -9.475   9.023  70.535  1.00  0.00    -0.265 A  
HETATM   11  C   UNL     1      -9.177   7.849  71.228  1.00  0.00    -0.170 A  
HETATM   12  C   UNL     1     -10.096   7.293  72.134  1.00  0.00    -0.207 A  
HETATM   13  C   UNL     1     -11.308   7.975  72.352  1.00  0.00    -0.443 A  
BRANCH  12  14
HETATM   14  C   UNL     1      -9.862   5.897  72.699  1.00  0.00    -0.164 C  
HETATM   15  O   UNL     1     -10.843   5.561  73.652  1.00  0.00    -0.278 OA 
HETATM   16  N   UNL     1      -9.884   4.855  71.718  1.00  0.00    -0.173 N  
HETATM   17  H   UNL     1     -10.698   4.690  74.005  1.00  0.00     0.000 HD 
HETATM   18  H   UNL     1     -10.716   4.591  71.190  1.00  0.00     0.000 HD 
HETATM   19  C   UNL     1      -8.659   4.252  71.565  1.00  0.00    -0.111 C  
HETATM   20  O   UNL     1      -8.354   3.422  70.731  1.00  0.00    -0.063 OA 
HETATM   21  C   UNL     1      -7.757   4.829  72.573  1.00  0.00    -0.092 A  
HETATM   22  C   UNL     1      -6.413   4.591  72.798  1.00  0.00    -0.041 A  
HETATM   23  C   UNL     1      -5.788   5.345  73.795  1.00  0.00    -0.039 A  
HETATM   24  C   UNL     1      -6.514   6.290  74.544  1.00  0.00    -0.074 A  
HETATM   25  C   UNL     1      -7.873   6.508  74.295  1.00  0.00    -0.107 A  
HETATM   26  C   UNL     1      -8.484   5.778  73.288  1.00  0.00    -0.116 A  
ENDBRANCH  12  14
ENDBRANCH   3   7
TORSDOF 2
ENDMDL
MODEL      168
REMARK 921   NORMALIZED FREE ENERGY PREDICTED BY IDOCK:   -4.11 KCAL/MOL
REMARK 922        TOTAL FREE ENERGY PREDICTED BY IDOCK:   -5.07 KCAL/MOL
REMARK 923 INTER-LIGAND FREE ENERGY PREDICTED BY IDOCK:   -5.03 KCAL/MOL
REMARK 924 INTRA-LIGAND FREE ENERGY PREDICTED BY IDOCK:   -0.04 KCAL/MOL
REMARK 927      BINDING AFFINITY PREDICTED BY RF-SCORE:    0.00 PKD
ROOT
HETATM    1  N   UNL     1      -9.648   1.649  66.941  1.00  0.00    -0.349 N  
HETATM    2  H2  UNL     1     -10.171   0.844  67.284  1.00  0.00     0.000 HD 
HETATM    3  S   UNL     1      -8.711   2.719  67.830  1.00  0.00    -0.127 S  
HETATM    4  H1  UNL     1      -9.578   1.984  65.980  1.00  0.00     0.000 HD 
HETATM    5  O   UNL     1      -7.441   2.829  67.155  1.00  0.00    -0.064 OA 
HETATM    6  O   UNL     1      -8.810   2.243  69.192  1.00  0.00    -0.074 OA 
ENDROOT
BRANCH   3   7
HETATM    7  C   UNL     1      -9.565   4.256  67.698  1.00  0.00    -0.165 A  
HETATM    8  C   UNL     1      -9.718   4.900  66.471  1.00  0.00    -0.186 A  
HETATM    9 CL   UNL     1      -9.190   4.254  64.960  1.00  0.00    -0.147 Cl 
HETATM   10  C   UNL     1     -10.303   6.169  66.437  1.00  0.00    -0.102 A  
HETATM   11  C   UNL     1     -10.696   6.805  67.615  1.00  0.00    -0.357 A  
HETATM   12  C   UNL     1     -10.526   6.180  68.862  1.00  0.00    -0.293 A  
HETATM   13  C   UNL     1      -9.986   4.880  68.886  1.00  0.00    -0.220 A  
BRANCH  12  14
HETATM   14  C   UNL     1     -10.735   6.972  70.148  1.00  0.00    -0.240 C  
HETATM   15  O   UNL     1      -9.929   8.127  70.173  1.00  0.00    -0.184 OA 
HETATM   16  N   UNL     1     -12.079   7.417  70.352  1.00  0.00    -0.533 N  
HETATM   17  H   UNL     1     -10.059   8.621  70.975  1.00  0.00     0.000 HD 
HETATM   18  H   UNL     1     -12.546   8.103  69.758  1.00  0.00     0.000 HD 
HETATM   19  C   UNL     1     -12.672   6.817  71.436  1.00  0.00    -0.263 C  
HETATM   20  O   UNL     1     -13.836   6.914  71.777  1.00  0.00    -0.297 OA 
HETATM   21  C   UNL     1     -11.651   5.988  72.093  1.00  0.00    -0.348 A  
HETATM   22  C   UNL     1     -11.759   5.153  73.191  1.00  0.00    -0.189 A  
HETATM   23  C   UNL     1     -10.623   4.427  73.556  1.00  0.00    -0.299 A  
HETATM   24  C   UNL     1      -9.420   4.563  72.838  1.00  0.00    -0.153 A  
HETATM   25  C   UNL     1      -9.339   5.415  71.733  1.00  0.00    -0.170 A  
HETATM   26  C   UNL     1     -10.475   6.115  71.356  1.00  0.00    -0.273 A  
ENDBRANCH  12  14
ENDBRANCH   3   7
TORSDOF 2
ENDMDL
MODEL      169
REMARK 921   NORMALIZED FREE ENERGY PREDICTED BY IDOCK:   -4.11 KCAL/MOL
REMARK 922        TOTAL FREE ENERGY PREDICTED BY IDOCK:   -5.07 KCAL/MOL
REMARK 923 INTER-LIGAND FREE ENERGY PREDICTED BY IDOCK:   -5.28 KCAL/MOL
REMARK 924 INTRA-LIGAND FREE ENERGY PREDICTED BY IDOCK:    0.22 KCAL/MOL
REMARK 927      BINDING AFFINITY PREDICTED BY RF-SCORE:    0.00 PKD
ROOT
HETATM    1  N   UNL     1      -7.530  16.391  69.132  1.00  0.00    -0.231 N  
HETATM    2  H2  UNL     1      -7.387  16.786  70.061  1.00  0.00     0.000 HD 
HETATM    3  S   UNL     1      -8.943  15.755  68.492  1.00  0.00    -0.204 S  
HETATM    4  H1  UNL     1      -6.843  16.294  68.384  1.00  0.00     0.000 HD 
HETATM    5  O   UNL     1      -9.137  16.369  67.202  1.00  0.00    -0.200 OA 
HETATM    6  O   UNL     1      -9.916  15.891  69.554  1.00  0.00    -0.255 OA 
ENDROOT
BRANCH   3   7
HETATM    7  C   UNL     1      -8.585  14.043  68.264  1.00  0.00    -0.180 A  
HETATM    8  C   UNL     1      -7.331  13.615  67.829  1.00  0.00    -0.166 A  
HETATM    9 CL   UNL     1      -5.986  14.660  67.555  1.00  0.00    -0.034 Cl 
HETATM   10  C   UNL     1      -7.133  12.258  67.557  1.00  0.00    -0.142 A  
HETATM   11  C   UNL     1      -8.181  11.345  67.679  1.00  0.00    -0.128 A  
HETATM   12  C   UNL     1      -9.457  11.765  68.092  1.00  0.00    -0.193 A  
HETATM   13  C   UNL     1      -9.636  13.123  68.417  1.00  0.00    -0.186 A  
BRANCH  12  14
HETATM   14  C   UNL     1     -10.644  10.813  67.992  1.00  0.00    -0.207 C  
HETATM   15  O   UNL     1     -11.458  11.125  66.886  1.00  0.00    -0.414 OA 
HETATM   16  N   UNL     1     -10.281   9.436  67.846  1.00  0.00    -0.198 N  
HETATM   17  H   UNL     1     -12.197  10.532  66.824  1.00  0.00     0.000 HD 
HETATM   18  H   UNL     1      -9.806   9.059  67.026  1.00  0.00     0.000 HD 
HETATM   19  C   UNL     1     -10.644   8.680  68.934  1.00  0.00    -0.144 C  
HETATM   20  O   UNL     1     -10.364   7.514  69.137  1.00  0.00    -0.204 OA 
HETATM   21  C   UNL     1     -11.399   9.552  69.844  1.00  0.00    -0.161 A  
HETATM   22  C   UNL     1     -11.938   9.281  71.089  1.00  0.00    -0.394 A  
HETATM   23  C   UNL     1     -12.553  10.337  71.765  1.00  0.00    -0.488 A  
HETATM   24  C   UNL     1     -12.631  11.616  71.181  1.00  0.00    -0.439 A  
HETATM   25  C   UNL     1     -12.080  11.862  69.920  1.00  0.00    -0.344 A  
HETATM   26  C   UNL     1     -11.446  10.818  69.264  1.00  0.00    -0.369 A  
ENDBRANCH  12  14
ENDBRANCH   3   7
TORSDOF 2
ENDMDL
MODEL      170
REMARK 921   NORMALIZED FREE ENERGY PREDICTED BY IDOCK:   -4.10 KCAL/MOL
REMARK 922        TOTAL FREE ENERGY PREDICTED BY IDOCK:   -5.05 KCAL/MOL
REMARK 923 INTER-LIGAND FREE ENERGY PREDICTED BY IDOCK:   -5.02 KCAL/MOL
REMARK 924 INTRA-LIGAND FREE ENERGY PREDICTED BY IDOCK:   -0.03 KCAL/MOL
REMARK 927      BINDING AFFINITY PREDICTED BY RF-SCORE:    0.00 PKD
ROOT
HETATM    1  N   UNL     1     -11.967   7.838  73.034  1.00  0.00    -0.577 N  
HETATM    2  H2  UNL     1     -11.628   6.964  73.437  1.00  0.00     0.000 HD 
HETATM    3  S   UNL     1     -12.678   8.068  71.533  1.00  0.00    -0.284 S  
HETATM    4  H1  UNL     1     -11.948   8.767  73.455  1.00  0.00     0.000 HD 
HETATM    5  O   UNL     1     -13.885   8.826  71.750  1.00  0.00    -0.388 OA 
HETATM    6  O   UNL     1     -12.704   6.750  70.938  1.00  0.00    -0.301 OA 
ENDROOT
BRANCH   3   7
HETATM    7  C   UNL     1     -11.522   9.069  70.655  1.00  0.00    -0.248 A  
HETATM    8  C   UNL     1     -11.695  10.447  70.540  1.00  0.00    -0.344 A  
HETATM    9 CL   UNL     1     -12.968  11.336  71.294  1.00  0.00    -0.467 Cl 
HETATM   10  C   UNL     1     -10.812  11.180  69.740  1.00  0.00    -0.152 A  
HETATM   11  C   UNL     1      -9.794  10.540  69.032  1.00  0.00    -0.224 A  
HETATM   12  C   UNL     1      -9.622   9.148  69.117  1.00  0.00    -0.161 A  
HETATM   13  C   UNL     1     -10.480   8.423  69.967  1.00  0.00    -0.224 A  
BRANCH  12  14
HETATM   14  C   UNL     1      -8.669   8.436  68.163  1.00  0.00    -0.143 C  
HETATM   15  O   UNL     1      -8.362   9.244  67.051  1.00  0.00    -0.118 OA 
HETATM   16  N   UNL     1      -7.417   8.068  68.750  1.00  0.00    -0.089 N  
HETATM   17  H   UNL     1      -7.768   8.800  66.457  1.00  0.00     0.000 HD 
HETATM   18  H   UNL     1      -6.722   8.742  69.071  1.00  0.00     0.000 HD 
HETATM   19  C   UNL     1      -7.257   6.706  68.834  1.00  0.00    -0.091 C  
HETATM   20  O   UNL     1      -6.351   6.112  69.387  1.00  0.00    -0.037 OA 
HETATM   21  C   UNL     1      -8.411   6.086  68.169  1.00  0.00    -0.115 A  
HETATM   22  C   UNL     1      -8.740   4.749  68.027  1.00  0.00    -0.110 A  
HETATM   23  C   UNL     1      -9.952   4.451  67.400  1.00  0.00    -0.146 A  
HETATM   24  C   UNL     1     -10.785   5.479  66.919  1.00  0.00    -0.310 A  
HETATM   25  C   UNL     1     -10.427   6.821  67.074  1.00  0.00    -0.369 A  
HETATM   26  C   UNL     1      -9.237   7.115  67.721  1.00  0.00    -0.125 A  
ENDBRANCH  12  14
ENDBRANCH   3   7
TORSDOF 2
ENDMDL
MODEL      171
REMARK 921   NORMALIZED FREE ENERGY PREDICTED BY IDOCK:   -4.05 KCAL/MOL
REMARK 922        TOTAL FREE ENERGY PREDICTED BY IDOCK:   -5.01 KCAL/MOL
REMARK 923 INTER-LIGAND FREE ENERGY PREDICTED BY IDOCK:   -4.94 KCAL/MOL
REMARK 924 INTRA-LIGAND FREE ENERGY PREDICTED BY IDOCK:   -0.06 KCAL/MOL
REMARK 927      BINDING AFFINITY PREDICTED BY RF-SCORE:    0.00 PKD
ROOT
HETATM    1  N   UNL     1     -10.970   4.775  72.548  1.00  0.00    -0.147 N  
HETATM    2  H2  UNL     1     -11.046   4.542  73.538  1.00  0.00     0.000 HD 
HETATM    3  S   UNL     1      -9.581   5.145  71.684  1.00  0.00    -0.159 S  
HETATM    4  H1  UNL     1     -11.723   4.835  71.863  1.00  0.00     0.000 HD 
HETATM    5  O   UNL     1      -9.593   4.328  70.496  1.00  0.00    -0.164 OA 
HETATM    6  O   UNL     1      -8.514   5.060  72.656  1.00  0.00    -0.115 OA 
ENDROOT
BRANCH   3   7
HETATM    7  C   UNL     1      -9.797   6.833  71.220  1.00  0.00    -0.176 A  
HETATM    8  C   UNL     1     -10.256   7.784  72.129  1.00  0.00    -0.213 A  
HETATM    9 CL   UNL     1     -10.574   7.465  73.795  1.00  0.00    -0.336 Cl 
HETATM   10  C   UNL     1     -10.516   9.084  71.682  1.00  0.00    -0.426 A  
HETATM   11  C   UNL     1     -10.358   9.420  70.337  1.00  0.00    -0.318 A  
HETATM   12  C   UNL     1      -9.920   8.466  69.403  1.00  0.00    -0.191 A  
HETATM   13  C   UNL     1      -9.607   7.174  69.869  1.00  0.00    -0.163 A  
BRANCH  12  14
HETATM   14  C   UNL     1      -9.980   8.775  67.911  1.00  0.00    -0.187 C  
HETATM   15  O   UNL     1     -11.104   9.562  67.597  1.00  0.00    -0.481 OA 
HETATM   16  N   UNL     1      -8.842   9.484  67.413  1.00  0.00    -0.128 N  
HETATM   17  H   UNL     1     -11.142   9.755  66.668  1.00  0.00     0.000 HD 
HETATM   18  H   UNL     1      -8.606  10.439  67.683  1.00  0.00     0.000 HD 
HETATM   19  C   UNL     1      -8.102   8.736  66.529  1.00  0.00    -0.103 C  
HETATM   20  O   UNL     1      -7.030   9.036  66.040  1.00  0.00    -0.082 OA 
HETATM   21  C   UNL     1      -8.821   7.473  66.313  1.00  0.00    -0.184 A  
HETATM   22  C   UNL     1      -8.470   6.371  65.553  1.00  0.00    -0.141 A  
HETATM   23  C   UNL     1      -9.328   5.269  65.589  1.00  0.00    -0.126 A  
HETATM   24  C   UNL     1     -10.506   5.299  66.358  1.00  0.00    -0.347 A  
HETATM   25  C   UNL     1     -10.837   6.427  67.116  1.00  0.00    -0.467 A  
HETATM   26  C   UNL     1      -9.972   7.509  67.099  1.00  0.00    -0.288 A  
ENDBRANCH  12  14
ENDBRANCH   3   7
TORSDOF 2
ENDMDL
MODEL      172
REMARK 921   NORMALIZED FREE ENERGY PREDICTED BY IDOCK:   -4.00 KCAL/MOL
REMARK 922        TOTAL FREE ENERGY PREDICTED BY IDOCK:   -4.94 KCAL/MOL
REMARK 923 INTER-LIGAND FREE ENERGY PREDICTED BY IDOCK:   -4.90 KCAL/MOL
REMARK 924 INTRA-LIGAND FREE ENERGY PREDICTED BY IDOCK:   -0.05 KCAL/MOL
REMARK 927      BINDING AFFINITY PREDICTED BY RF-SCORE:    0.00 PKD
ROOT
HETATM    1  N   UNL     1     -11.348  14.977  67.559  1.00  0.00    -0.331 N  
HETATM    2  H2  UNL     1     -12.224  15.420  67.283  1.00  0.00     0.000 HD 
HETATM    3  S   UNL     1     -10.011  14.661  66.599  1.00  0.00    -0.284 S  
HETATM    4  H1  UNL     1     -11.091  14.627  68.482  1.00  0.00     0.000 HD 
HETATM    5  O   UNL     1      -8.857  15.161  67.305  1.00  0.00    -0.179 OA 
HETATM    6  O   UNL     1     -10.377  15.158  65.291  1.00  0.00    -0.360 OA 
ENDROOT
BRANCH   3   7
HETATM    7  C   UNL     1      -9.926  12.901  66.538  1.00  0.00    -0.259 A  
HETATM    8  C   UNL     1     -10.530  12.179  65.509  1.00  0.00    -0.265 A  
HETATM    9 CL   UNL     1     -11.333  12.894  64.159  1.00  0.00    -0.411 Cl 
HETATM   10  C   UNL     1     -10.531  10.782  65.567  1.00  0.00    -0.264 A  
HETATM   11  C   UNL     1      -9.970  10.114  66.656  1.00  0.00    -0.272 A  
HETATM   12  C   UNL     1      -9.379  10.827  67.713  1.00  0.00    -0.158 A  
HETATM   13  C   UNL     1      -9.334  12.231  67.623  1.00  0.00    -0.186 A  
BRANCH  12  14
HETATM   14  C   UNL     1      -8.988  10.104  68.997  1.00  0.00    -0.167 C  
HETATM   15  O   UNL     1      -8.089  10.873  69.763  1.00  0.00    -0.360 OA 
HETATM   16  N   UNL     1     -10.089   9.800  69.858  1.00  0.00    -0.236 N  
HETATM   17  H   UNL     1      -7.846  10.423  70.563  1.00  0.00     0.000 HD 
HETATM   18  H   UNL     1     -10.651  10.508  70.332  1.00  0.00     0.000 HD 
HETATM   19  C   UNL     1     -10.306   8.448  69.975  1.00  0.00    -0.211 C  
HETATM   20  O   UNL     1     -11.235   7.906  70.544  1.00  0.00    -0.265 OA 
HETATM   21  C   UNL     1      -9.230   7.765  69.244  1.00  0.00    -0.145 A  
HETATM   22  C   UNL     1      -9.026   6.415  69.024  1.00  0.00    -0.128 A  
HETATM   23  C   UNL     1      -7.940   6.053  68.223  1.00  0.00    -0.106 A  
HETATM   24  C   UNL     1      -7.086   7.034  67.684  1.00  0.00    -0.085 A  
HETATM   25  C   UNL     1      -7.315   8.392  67.924  1.00  0.00    -0.096 A  
HETATM   26  C   UNL     1      -8.409   8.749  68.697  1.00  0.00    -0.128 A  
ENDBRANCH  12  14
ENDBRANCH   3   7
TORSDOF 2
ENDMDL
MODEL      173
REMARK 921   NORMALIZED FREE ENERGY PREDICTED BY IDOCK:   -3.97 KCAL/MOL
REMARK 922        TOTAL FREE ENERGY PREDICTED BY IDOCK:   -4.91 KCAL/MOL
REMARK 923 INTER-LIGAND FREE ENERGY PREDICTED BY IDOCK:   -4.80 KCAL/MOL
REMARK 924 INTRA-LIGAND FREE ENERGY PREDICTED BY IDOCK:   -0.10 KCAL/MOL
REMARK 927      BINDING AFFINITY PREDICTED BY RF-SCORE:    0.00 PKD
ROOT
HETATM    1  N   UNL     1     -11.673  10.533  70.856  1.00  0.00    -0.347 N  
HETATM    2  H2  UNL     1     -11.263  11.330  71.343  1.00  0.00     0.000 HD 
HETATM    3  S   UNL     1     -11.088   8.963  70.782  1.00  0.00    -0.274 S  
HETATM    4  H1  UNL     1     -12.530  10.514  70.303  1.00  0.00     0.000 HD 
HETATM    5  O   UNL     1     -12.185   8.088  71.115  1.00  0.00    -0.302 OA 
HETATM    6  O   UNL     1      -9.872   8.991  71.566  1.00  0.00    -0.296 OA 
ENDROOT
BRANCH   3   7
HETATM    7  C   UNL     1     -10.668   8.736  69.085  1.00  0.00    -0.131 A  
HETATM    8  C   UNL     1     -10.752   7.484  68.476  1.00  0.00    -0.073 A  
HETATM    9 CL   UNL     1     -11.344   6.062  69.253  1.00  0.00    -0.394 Cl 
HETATM   10  C   UNL     1     -10.301   7.335  67.161  1.00  0.00    -0.367 A  
HETATM   11  C   UNL     1      -9.738   8.411  66.474  1.00  0.00    -0.330 A  
HETATM   12  C   UNL     1      -9.624   9.673  67.082  1.00  0.00    -0.210 A  
HETATM   13  C   UNL     1     -10.128   9.831  68.387  1.00  0.00    -0.189 A  
BRANCH  12  14
HETATM   14  C   UNL     1      -8.798  10.769  66.416  1.00  0.00    -0.165 C  
HETATM   15  O   UNL     1      -9.339  12.044  66.674  1.00  0.00    -0.207 OA 
HETATM   16  N   UNL     1      -7.434  10.818  66.846  1.00  0.00    -0.113 N  
HETATM   17  H   UNL     1      -8.824  12.727  66.259  1.00  0.00     0.000 HD 
HETATM   18  H   UNL     1      -7.146  11.065  67.793  1.00  0.00     0.000 HD 
HETATM   19  C   UNL     1      -6.555  10.497  65.840  1.00  0.00    -0.129 C  
HETATM   20  O   UNL     1      -5.353  10.346  65.943  1.00  0.00    -0.052 OA 
HETATM   21  C   UNL     1      -7.340  10.319  64.610  1.00  0.00    -0.085 A  
HETATM   22  C   UNL     1      -6.930   9.946  63.342  1.00  0.00    -0.124 A  
HETATM   23  C   UNL     1      -7.920   9.789  62.370  1.00  0.00    -0.130 A  
HETATM   24  C   UNL     1      -9.274  10.022  62.677  1.00  0.00    -0.317 A  
HETATM   25  C   UNL     1      -9.660  10.400  63.967  1.00  0.00    -0.376 A  
HETATM   26  C   UNL     1      -8.678  10.529  64.937  1.00  0.00    -0.192 A  
ENDBRANCH  12  14
ENDBRANCH   3   7
TORSDOF 2
ENDMDL
MODEL      174
REMARK 921   NORMALIZED FREE ENERGY PREDICTED BY IDOCK:   -3.95 KCAL/MOL
REMARK 922        TOTAL FREE ENERGY PREDICTED BY IDOCK:   -4.89 KCAL/MOL
REMARK 923 INTER-LIGAND FREE ENERGY PREDICTED BY IDOCK:   -4.82 KCAL/MOL
REMARK 924 INTRA-LIGAND FREE ENERGY PREDICTED BY IDOCK:   -0.07 KCAL/MOL
REMARK 927      BINDING AFFINITY PREDICTED BY RF-SCORE:    0.00 PKD
ROOT
HETATM    1  N   UNL     1      -6.816  19.620  68.958  1.00  0.00    -0.331 N  
HETATM    2  H2  UNL     1      -6.764  20.637  69.008  1.00  0.00     0.000 HD 
HETATM    3  S   UNL     1      -6.817  18.658  67.585  1.00  0.00    -0.205 S  
HETATM    4  H1  UNL     1      -6.880  18.960  69.734  1.00  0.00     0.000 HD 
HETATM    5  O   UNL     1      -5.827  17.629  67.789  1.00  0.00    -0.137 OA 
HETATM    6  O   UNL     1      -6.727  19.593  66.486  1.00  0.00    -0.185 OA 
ENDROOT
BRANCH   3   7
HETATM    7  C   UNL     1      -8.418  17.918  67.575  1.00  0.00    -0.232 A  
HETATM    8  C   UNL     1      -9.576  18.691  67.529  1.00  0.00    -0.294 A  
HETATM    9 CL   UNL     1      -9.594  20.411  67.387  1.00  0.00    -0.565 Cl 
HETATM   10  C   UNL     1     -10.820  18.062  67.636  1.00  0.00    -0.257 A  
HETATM   11  C   UNL     1     -10.907  16.682  67.827  1.00  0.00    -0.292 A  
HETATM   12  C   UNL     1      -9.748  15.891  67.901  1.00  0.00    -0.216 A  
HETATM   13  C   UNL     1      -8.501  16.523  67.737  1.00  0.00    -0.180 A  
BRANCH  12  14
HETATM   14  C   UNL     1      -9.844  14.435  68.344  1.00  0.00    -0.234 C  
HETATM   15  O   UNL     1     -10.639  14.305  69.500  1.00  0.00    -0.417 OA 
HETATM   16  N   UNL     1     -10.412  13.560  67.366  1.00  0.00    -0.247 N  
HETATM   17  H   UNL     1     -10.699  13.398  69.776  1.00  0.00     0.000 HD 
HETATM   18  H   UNL     1     -11.381  13.613  67.053  1.00  0.00     0.000 HD 
HETATM   19  C   UNL     1      -9.506  12.641  66.895  1.00  0.00    -0.229 C  
HETATM   20  O   UNL     1      -9.675  11.853  65.983  1.00  0.00    -0.228 OA 
HETATM   21  C   UNL     1      -8.266  12.811  67.665  1.00  0.00    -0.175 A  
HETATM   22  C   UNL     1      -7.050  12.162  67.543  1.00  0.00    -0.135 A  
HETATM   23  C   UNL     1      -6.013  12.584  68.377  1.00  0.00    -0.057 A  
HETATM   24  C   UNL     1      -6.217  13.615  69.313  1.00  0.00    -0.104 A  
HETATM   25  C   UNL     1      -7.457  14.252  69.417  1.00  0.00     0.026 A  
HETATM   26  C   UNL     1      -8.477  13.850  68.569  1.00  0.00    -0.127 A  
ENDBRANCH  12  14
ENDBRANCH   3   7
TORSDOF 2
ENDMDL
MODEL      175
REMARK 921   NORMALIZED FREE ENERGY PREDICTED BY IDOCK:   -3.94 KCAL/MOL
REMARK 922        TOTAL FREE ENERGY PREDICTED BY IDOCK:   -4.88 KCAL/MOL
REMARK 923 INTER-LIGAND FREE ENERGY PREDICTED BY IDOCK:   -5.18 KCAL/MOL
REMARK 924 INTRA-LIGAND FREE ENERGY PREDICTED BY IDOCK:    0.30 KCAL/MOL
REMARK 927      BINDING AFFINITY PREDICTED BY RF-SCORE:    0.00 PKD
ROOT
HETATM    1  N   UNL     1      -7.845  16.192  68.091  1.00  0.00    -0.143 N  
HETATM    2  H2  UNL     1      -7.608  16.666  68.962  1.00  0.00     0.000 HD 
HETATM    3  S   UNL     1      -9.211  16.410  67.144  1.00  0.00    -0.218 S  
HETATM    4  H1  UNL     1      -7.305  15.478  67.603  1.00  0.00     0.000 HD 
HETATM    5  O   UNL     1      -8.758  16.598  65.788  1.00  0.00    -0.482 OA 
HETATM    6  O   UNL     1      -9.977  17.421  67.837  1.00  0.00    -0.277 OA 
ENDROOT
BRANCH   3   7
HETATM    7  C   UNL     1     -10.065  14.871  67.253  1.00  0.00    -0.235 A  
HETATM    8  C   UNL     1     -11.095  14.675  68.172  1.00  0.00    -0.274 A  
HETATM    9 CL   UNL     1     -11.708  15.899  69.223  1.00  0.00    -0.373 Cl 
HETATM   10  C   UNL     1     -11.664  13.404  68.297  1.00  0.00    -0.391 A  
HETATM   11  C   UNL     1     -11.186  12.332  67.541  1.00  0.00    -0.354 A  
HETATM   12  C   UNL     1     -10.132  12.508  66.629  1.00  0.00    -0.241 A  
HETATM   13  C   UNL     1      -9.600  13.801  66.469  1.00  0.00    -0.295 A  
BRANCH  12  14
HETATM   14  C   UNL     1      -9.465  11.294  65.991  1.00  0.00    -0.216 C  
HETATM   15  O   UNL     1     -10.199  10.832  64.881  1.00  0.00    -0.295 OA 
HETATM   16  N   UNL     1      -8.135  11.536  65.520  1.00  0.00    -0.222 N  
HETATM   17  H   UNL     1      -9.783  10.075  64.484  1.00  0.00     0.000 HD 
HETATM   18  H   UNL     1      -7.913  12.165  64.749  1.00  0.00     0.000 HD 
HETATM   19  C   UNL     1      -7.192  10.826  66.223  1.00  0.00    -0.137 C  
HETATM   20  O   UNL     1      -5.984  10.919  66.121  1.00  0.00    -0.119 OA 
HETATM   21  C   UNL     1      -7.910   9.956  67.166  1.00  0.00    -0.099 A  
HETATM   22  C   UNL     1      -7.415   9.087  68.123  1.00  0.00    -0.084 A  
HETATM   23  C   UNL     1      -8.345   8.433  68.935  1.00  0.00    -0.119 A  
HETATM   24  C   UNL     1      -9.726   8.643  68.761  1.00  0.00    -0.171 A  
HETATM   25  C   UNL     1     -10.198   9.526  67.784  1.00  0.00    -0.265 A  
HETATM   26  C   UNL     1      -9.272  10.194  66.998  1.00  0.00    -0.166 A  
ENDBRANCH  12  14
ENDBRANCH   3   7
TORSDOF 2
ENDMDL
MODEL      176
REMARK 921   NORMALIZED FREE ENERGY PREDICTED BY IDOCK:   -3.93 KCAL/MOL
REMARK 922        TOTAL FREE ENERGY PREDICTED BY IDOCK:   -4.87 KCAL/MOL
REMARK 923 INTER-LIGAND FREE ENERGY PREDICTED BY IDOCK:   -4.38 KCAL/MOL
REMARK 924 INTRA-LIGAND FREE ENERGY PREDICTED BY IDOCK:   -0.49 KCAL/MOL
REMARK 927      BINDING AFFINITY PREDICTED BY RF-SCORE:    0.00 PKD
ROOT
HETATM    1  N   UNL     1     -11.178   6.009  69.277  1.00  0.00    -0.365 N  
HETATM    2  H2  UNL     1     -12.155   6.084  69.557  1.00  0.00     0.000 HD 
HETATM    3  S   UNL     1      -9.966   7.154  69.463  1.00  0.00    -0.167 S  
HETATM    4  H1  UNL     1     -10.718   5.221  68.821  1.00  0.00     0.000 HD 
HETATM    5  O   UNL     1      -8.839   6.482  70.062  1.00  0.00    -0.141 OA 
HETATM    6  O   UNL     1     -10.618   8.271  70.110  1.00  0.00    -0.225 OA 
ENDROOT
BRANCH   3   7
HETATM    7  C   UNL     1      -9.548   7.615  67.813  1.00  0.00    -0.144 A  
HETATM    8  C   UNL     1      -8.701   6.830  67.032  1.00  0.00    -0.114 A  
HETATM    9 CL   UNL     1      -8.048   5.311  67.527  1.00  0.00    -0.100 Cl 
HETATM   10  C   UNL     1      -8.311   7.295  65.772  1.00  0.00    -0.140 A  
HETATM   11  C   UNL     1      -8.729   8.545  65.314  1.00  0.00    -0.175 A  
HETATM   12  C   UNL     1      -9.563   9.359  66.099  1.00  0.00    -0.311 A  
HETATM   13  C   UNL     1      -9.996   8.862  67.343  1.00  0.00    -0.267 A  
BRANCH  12  14
HETATM   14  C   UNL     1      -9.815  10.808  65.696  1.00  0.00    -0.245 C  
HETATM   15  O   UNL     1      -9.489  11.026  64.344  1.00  0.00    -0.223 OA 
HETATM   16  N   UNL     1     -11.172  11.233  65.855  1.00  0.00    -0.111 N  
HETATM   17  H   UNL     1      -9.646  11.929  64.093  1.00  0.00     0.000 HD 
HETATM   18  H   UNL     1     -11.950  10.861  65.310  1.00  0.00     0.000 HD 
HETATM   19  C   UNL     1     -11.310  12.198  66.823  1.00  0.00    -0.342 C  
HETATM   20  O   UNL     1     -12.352  12.659  67.250  1.00  0.00    -0.352 OA 
HETATM   21  C   UNL     1      -9.961  12.547  67.292  1.00  0.00    -0.211 A  
HETATM   22  C   UNL     1      -9.567  13.425  68.285  1.00  0.00    -0.220 A  
HETATM   23  C   UNL     1      -8.201  13.504  68.565  1.00  0.00    -0.104 A  
HETATM   24  C   UNL     1      -7.273  12.729  67.844  1.00  0.00    -0.120 A  
HETATM   25  C   UNL     1      -7.699  11.850  66.844  1.00  0.00    -0.106 A  
HETATM   26  C   UNL     1      -9.058  11.754  66.587  1.00  0.00    -0.194 A  
ENDBRANCH  12  14
ENDBRANCH   3   7
TORSDOF 2
ENDMDL
MODEL      177
REMARK 921   NORMALIZED FREE ENERGY PREDICTED BY IDOCK:   -3.93 KCAL/MOL
REMARK 922        TOTAL FREE ENERGY PREDICTED BY IDOCK:   -4.87 KCAL/MOL
REMARK 923 INTER-LIGAND FREE ENERGY PREDICTED BY IDOCK:   -4.43 KCAL/MOL
REMARK 924 INTRA-LIGAND FREE ENERGY PREDICTED BY IDOCK:   -0.43 KCAL/MOL
REMARK 927      BINDING AFFINITY PREDICTED BY RF-SCORE:    0.00 PKD
ROOT
HETATM    1  N   UNL     1      -8.981   5.874  64.807  1.00  0.00    -0.356 N  
HETATM    2  H2  UNL     1      -8.966   4.906  64.489  1.00  0.00     0.000 HD 
HETATM    3  S   UNL     1      -7.820   6.673  65.716  1.00  0.00    -0.112 S  
HETATM    4  H1  UNL     1      -9.705   6.573  64.644  1.00  0.00     0.000 HD 
HETATM    5  O   UNL     1      -7.537   7.916  65.040  1.00  0.00    -0.086 OA 
HETATM    6  O   UNL     1      -6.793   5.681  65.947  1.00  0.00    -0.054 OA 
ENDROOT
BRANCH   3   7
HETATM    7  C   UNL     1      -8.630   7.023  67.243  1.00  0.00    -0.121 A  
HETATM    8  C   UNL     1      -9.406   6.064  67.891  1.00  0.00    -0.110 A  
HETATM    9 CL   UNL     1      -9.595   4.436  67.349  1.00  0.00    -0.203 Cl 
HETATM   10  C   UNL     1     -10.117   6.426  69.039  1.00  0.00    -0.193 A  
HETATM   11  C   UNL     1     -10.085   7.737  69.513  1.00  0.00    -0.194 A  
HETATM   12  C   UNL     1      -9.328   8.722  68.858  1.00  0.00    -0.145 A  
HETATM   13  C   UNL     1      -8.571   8.339  67.734  1.00  0.00    -0.131 A  
BRANCH  12  14
HETATM   14  C   UNL     1      -9.489  10.190  69.239  1.00  0.00    -0.218 C  
HETATM   15  O   UNL     1     -10.318  10.336  70.368  1.00  0.00    -0.423 OA 
HETATM   16  N   UNL     1      -8.260  10.852  69.556  1.00  0.00    -0.385 N  
HETATM   17  H   UNL     1     -10.418  11.250  70.606  1.00  0.00     0.000 HD 
HETATM   18  H   UNL     1      -7.684  10.621  70.365  1.00  0.00     0.000 HD 
HETATM   19  C   UNL     1      -7.944  11.833  68.648  1.00  0.00    -0.116 C  
HETATM   20  O   UNL     1      -6.913  12.476  68.599  1.00  0.00    -0.081 OA 
HETATM   21  C   UNL     1      -9.067  11.938  67.705  1.00  0.00    -0.179 A  
HETATM   22  C   UNL     1      -9.213  12.740  66.587  1.00  0.00    -0.212 A  
HETATM   23  C   UNL     1     -10.375  12.576  65.829  1.00  0.00    -0.288 A  
HETATM   24  C   UNL     1     -11.357  11.642  66.211  1.00  0.00    -0.293 A  
HETATM   25  C   UNL     1     -11.183  10.845  67.347  1.00  0.00    -0.345 A  
HETATM   26  C   UNL     1     -10.017  10.992  68.082  1.00  0.00    -0.190 A  
ENDBRANCH  12  14
ENDBRANCH   3   7
TORSDOF 2
ENDMDL
MODEL      178
REMARK 921   NORMALIZED FREE ENERGY PREDICTED BY IDOCK:   -3.85 KCAL/MOL
REMARK 922        TOTAL FREE ENERGY PREDICTED BY IDOCK:   -4.78 KCAL/MOL
REMARK 923 INTER-LIGAND FREE ENERGY PREDICTED BY IDOCK:   -4.30 KCAL/MOL
REMARK 924 INTRA-LIGAND FREE ENERGY PREDICTED BY IDOCK:   -0.48 KCAL/MOL
REMARK 927      BINDING AFFINITY PREDICTED BY RF-SCORE:    0.00 PKD
ROOT
HETATM    1  N   UNL     1     -11.544   4.814  73.356  1.00  0.00    -0.418 N  
HETATM    2  H2  UNL     1     -12.247   5.159  74.008  1.00  0.00     0.000 HD 
HETATM    3  S   UNL     1     -10.126   5.572  72.879  1.00  0.00    -0.183 S  
HETATM    4  H1  UNL     1     -11.546   3.930  72.847  1.00  0.00     0.000 HD 
HETATM    5  O   UNL     1      -9.063   4.609  73.026  1.00  0.00    -0.120 OA 
HETATM    6  O   UNL     1     -10.123   6.825  73.600  1.00  0.00    -0.231 OA 
ENDROOT
BRANCH   3   7
HETATM    7  C   UNL     1     -10.366   5.901  71.163  1.00  0.00    -0.221 A  
HETATM    8  C   UNL     1     -11.437   6.672  70.714  1.00  0.00    -0.353 A  
HETATM    9 CL   UNL     1     -12.576   7.453  71.749  1.00  0.00    -0.360 Cl 
HETATM   10  C   UNL     1     -11.647   6.810  69.338  1.00  0.00    -0.136 A  
HETATM   11  C   UNL     1     -10.822   6.156  68.423  1.00  0.00    -0.382 A  
HETATM   12  C   UNL     1      -9.753   5.356  68.859  1.00  0.00    -0.205 A  
HETATM   13  C   UNL     1      -9.514   5.264  70.244  1.00  0.00    -0.225 A  
BRANCH  12  14
HETATM   14  C   UNL     1      -9.013   4.463  67.869  1.00  0.00    -0.119 C  
HETATM   15  O   UNL     1      -8.229   3.501  68.536  1.00  0.00    -0.072 OA 
HETATM   16  N   UNL     1      -9.868   3.738  66.981  1.00  0.00    -0.327 N  
HETATM   17  H   UNL     1      -7.768   2.944  67.919  1.00  0.00     0.000 HD 
HETATM   18  H   UNL     1     -10.511   3.006  67.284  1.00  0.00     0.000 HD 
HETATM   19  C   UNL     1      -9.727   4.137  65.674  1.00  0.00    -0.204 C  
HETATM   20  O   UNL     1     -10.400   3.780  64.726  1.00  0.00    -0.187 OA 
HETATM   21  C   UNL     1      -8.634   5.119  65.630  1.00  0.00    -0.139 A  
HETATM   22  C   UNL     1      -8.139   5.847  64.562  1.00  0.00    -0.132 A  
HETATM   23  C   UNL     1      -7.127   6.771  64.833  1.00  0.00    -0.060 A  
HETATM   24  C   UNL     1      -6.628   6.930  66.139  1.00  0.00    -0.052 A  
HETATM   25  C   UNL     1      -7.146   6.179  67.199  1.00  0.00    -0.070 A  
HETATM   26  C   UNL     1      -8.169   5.282  66.933  1.00  0.00    -0.108 A  
ENDBRANCH  12  14
ENDBRANCH   3   7
TORSDOF 2
ENDMDL
MODEL      179
REMARK 921   NORMALIZED FREE ENERGY PREDICTED BY IDOCK:   -3.77 KCAL/MOL
REMARK 922        TOTAL FREE ENERGY PREDICTED BY IDOCK:   -4.69 KCAL/MOL
REMARK 923 INTER-LIGAND FREE ENERGY PREDICTED BY IDOCK:   -5.04 KCAL/MOL
REMARK 924 INTRA-LIGAND FREE ENERGY PREDICTED BY IDOCK:    0.35 KCAL/MOL
REMARK 927      BINDING AFFINITY PREDICTED BY RF-SCORE:    0.00 PKD
ROOT
HETATM    1  N   UNL     1     -13.831  10.024  70.310  1.00  0.00     0.038 N  
HETATM    2  H2  UNL     1     -14.401  10.517  69.622  1.00  0.00     0.000 HD 
HETATM    3  S   UNL     1     -12.727  10.681  71.387  1.00  0.00    -0.453 S  
HETATM    4  H1  UNL     1     -13.807   9.022  70.496  1.00  0.00     0.000 HD 
HETATM    5  O   UNL     1     -13.036  10.143  72.689  1.00  0.00    -0.059 OA 
HETATM    6  O   UNL     1     -12.761  12.102  71.122  1.00  0.00    -0.358 OA 
ENDROOT
BRANCH   3   7
HETATM    7  C   UNL     1     -11.171  10.039  70.857  1.00  0.00    -0.341 A  
HETATM    8  C   UNL     1     -10.497   9.067  71.594  1.00  0.00    -0.355 A  
HETATM    9 CL   UNL     1     -11.118   8.323  73.023  1.00  0.00    -0.201 Cl 
HETATM   10  C   UNL     1      -9.217   8.673  71.191  1.00  0.00    -0.269 A  
HETATM   11  C   UNL     1      -8.602   9.270  70.091  1.00  0.00    -0.215 A  
HETATM   12  C   UNL     1      -9.258  10.269  69.352  1.00  0.00    -0.206 A  
HETATM   13  C   UNL     1     -10.567  10.622  69.730  1.00  0.00    -0.233 A  
BRANCH  12  14
HETATM   14  C   UNL     1      -8.491  11.075  68.309  1.00  0.00    -0.138 C  
HETATM   15  O   UNL     1      -8.039  12.298  68.840  1.00  0.00    -0.334 OA 
HETATM   16  N   UNL     1      -7.335  10.412  67.789  1.00  0.00    -0.086 N  
HETATM   17  H   UNL     1      -7.562  12.801  68.190  1.00  0.00     0.000 HD 
HETATM   18  H   UNL     1      -6.509  10.194  68.345  1.00  0.00     0.000 HD 
HETATM   19  C   UNL     1      -7.463  10.102  66.456  1.00  0.00    -0.109 C  
HETATM   20  O   UNL     1      -6.693   9.442  65.784  1.00  0.00    -0.075 OA 
HETATM   21  C   UNL     1      -8.733  10.677  65.991  1.00  0.00    -0.186 A  
HETATM   22  C   UNL     1      -9.337  10.603  64.748  1.00  0.00    -0.276 A  
HETATM   23  C   UNL     1     -10.595  11.196  64.612  1.00  0.00    -0.386 A  
HETATM   24  C   UNL     1     -11.201  11.855  65.698  1.00  0.00    -0.360 A  
HETATM   25  C   UNL     1     -10.567  11.916  66.942  1.00  0.00    -0.264 A  
HETATM   26  C   UNL     1      -9.331  11.304  67.082  1.00  0.00    -0.172 A  
ENDBRANCH  12  14
ENDBRANCH   3   7
TORSDOF 2
ENDMDL
MODEL      180
REMARK 921   NORMALIZED FREE ENERGY PREDICTED BY IDOCK:   -3.77 KCAL/MOL
REMARK 922        TOTAL FREE ENERGY PREDICTED BY IDOCK:   -4.69 KCAL/MOL
REMARK 923 INTER-LIGAND FREE ENERGY PREDICTED BY IDOCK:   -4.76 KCAL/MOL
REMARK 924 INTRA-LIGAND FREE ENERGY PREDICTED BY IDOCK:    0.07 KCAL/MOL
REMARK 927      BINDING AFFINITY PREDICTED BY RF-SCORE:    0.00 PKD
ROOT
HETATM    1  N   UNL     1      -9.913   8.645  65.938  1.00  0.00    -0.442 N  
HETATM    2  H2  UNL     1      -9.820   7.703  66.318  1.00  0.00     0.000 HD 
HETATM    3  S   UNL     1      -8.755   9.857  65.902  1.00  0.00    -0.144 S  
HETATM    4  H1  UNL     1     -10.733   9.059  65.493  1.00  0.00     0.000 HD 
HETATM    5  O   UNL     1      -8.713  10.360  64.552  1.00  0.00    -0.180 OA 
HETATM    6  O   UNL     1      -7.594   9.269  66.533  1.00  0.00    -0.092 OA 
ENDROOT
BRANCH   3   7
HETATM    7  C   UNL     1      -9.406  11.109  66.960  1.00  0.00    -0.170 A  
HETATM    8  C   UNL     1     -10.258  10.796  68.019  1.00  0.00    -0.178 A  
HETATM    9 CL   UNL     1     -10.698   9.190  68.473  1.00  0.00    -0.202 Cl 
HETATM   10  C   UNL     1     -10.835  11.834  68.757  1.00  0.00    -0.268 A  
HETATM   11  C   UNL     1     -10.597  13.167  68.420  1.00  0.00    -0.264 A  
HETATM   12  C   UNL     1      -9.761  13.499  67.341  1.00  0.00    -0.229 A  
HETATM   13  C   UNL     1      -9.140  12.451  66.635  1.00  0.00    -0.204 A  
BRANCH  12  14
HETATM   14  C   UNL     1      -9.699  14.936  66.837  1.00  0.00    -0.240 C  
HETATM   15  O   UNL     1      -9.753  14.987  65.430  1.00  0.00    -0.383 OA 
HETATM   16  N   UNL     1     -10.762  15.770  67.310  1.00  0.00    -0.315 N  
HETATM   17  H   UNL     1      -9.715  15.883  65.116  1.00  0.00     0.000 HD 
HETATM   18  H   UNL     1     -11.741  15.638  67.057  1.00  0.00     0.000 HD 
HETATM   19  C   UNL     1     -10.315  16.768  68.142  1.00  0.00    -0.318 C  
HETATM   20  O   UNL     1     -10.999  17.547  68.777  1.00  0.00    -0.118 OA 
HETATM   21  C   UNL     1      -8.847  16.696  68.167  1.00  0.00    -0.206 A  
HETATM   22  C   UNL     1      -7.935  17.447  68.887  1.00  0.00    -0.187 A  
HETATM   23  C   UNL     1      -6.586  17.106  68.763  1.00  0.00    -0.191 A  
HETATM   24  C   UNL     1      -6.185  16.052  67.921  1.00  0.00    -0.147 A  
HETATM   25  C   UNL     1      -7.129  15.311  67.203  1.00  0.00    -0.090 A  
HETATM   26  C   UNL     1      -8.469  15.634  67.349  1.00  0.00    -0.191 A  
ENDBRANCH  12  14
ENDBRANCH   3   7
TORSDOF 2
ENDMDL
MODEL      181
REMARK 921   NORMALIZED FREE ENERGY PREDICTED BY IDOCK:   -3.75 KCAL/MOL
REMARK 922        TOTAL FREE ENERGY PREDICTED BY IDOCK:   -4.66 KCAL/MOL
REMARK 923 INTER-LIGAND FREE ENERGY PREDICTED BY IDOCK:   -4.05 KCAL/MOL
REMARK 924 INTRA-LIGAND FREE ENERGY PREDICTED BY IDOCK:   -0.61 KCAL/MOL
REMARK 927      BINDING AFFINITY PREDICTED BY RF-SCORE:    0.00 PKD
ROOT
HETATM    1  N   UNL     1      -6.065  10.984  67.160  1.00  0.00    -0.066 N  
HETATM    2  H2  UNL     1      -5.068  10.771  67.201  1.00  0.00     0.000 HD 
HETATM    3  S   UNL     1      -7.197  10.842  68.389  1.00  0.00    -0.092 S  
HETATM    4  H1  UNL     1      -6.595  11.330  66.361  1.00  0.00     0.000 HD 
HETATM    5  O   UNL     1      -7.921  12.088  68.441  1.00  0.00    -0.144 OA 
HETATM    6  O   UNL     1      -6.444  10.351  69.522  1.00  0.00    -0.050 OA 
ENDROOT
BRANCH   3   7
HETATM    7  C   UNL     1      -8.285   9.571  67.832  1.00  0.00    -0.114 A  
HETATM    8  C   UNL     1      -9.063   9.730  66.687  1.00  0.00    -0.147 A  
HETATM    9 CL   UNL     1      -8.999  11.108  65.649  1.00  0.00    -0.208 Cl 
HETATM   10  C   UNL     1      -9.991   8.739  66.351  1.00  0.00    -0.346 A  
HETATM   11  C   UNL     1     -10.168   7.622  67.168  1.00  0.00    -0.360 A  
HETATM   12  C   UNL     1      -9.408   7.459  68.339  1.00  0.00    -0.144 A  
HETATM   13  C   UNL     1      -8.438   8.432  68.642  1.00  0.00    -0.128 A  
BRANCH  12  14
HETATM   14  C   UNL     1      -9.773   6.367  69.339  1.00  0.00    -0.145 C  
HETATM   15  O   UNL     1     -10.561   5.366  68.739  1.00  0.00    -0.188 OA 
HETATM   16  N   UNL     1      -8.646   5.699  69.915  1.00  0.00    -0.123 N  
HETATM   17  H   UNL     1     -10.788   4.686  69.362  1.00  0.00     0.000 HD 
HETATM   18  H   UNL     1      -8.005   5.111  69.385  1.00  0.00     0.000 HD 
HETATM   19  C   UNL     1      -8.527   5.939  71.263  1.00  0.00    -0.128 C  
HETATM   20  O   UNL     1      -7.609   5.599  71.985  1.00  0.00    -0.096 OA 
HETATM   21  C   UNL     1      -9.695   6.730  71.674  1.00  0.00    -0.166 A  
HETATM   22  C   UNL     1     -10.015   7.262  72.911  1.00  0.00    -0.257 A  
HETATM   23  C   UNL     1     -11.172   8.040  72.993  1.00  0.00    -0.279 A  
HETATM   24  C   UNL     1     -11.981   8.248  71.860  1.00  0.00    -0.383 A  
HETATM   25  C   UNL     1     -11.635   7.697  70.623  1.00  0.00    -0.251 A  
HETATM   26  C   UNL     1     -10.471   6.948  70.538  1.00  0.00    -0.234 A  
ENDBRANCH  12  14
ENDBRANCH   3   7
TORSDOF 2
ENDMDL
MODEL      182
REMARK 921   NORMALIZED FREE ENERGY PREDICTED BY IDOCK:   -3.74 KCAL/MOL
REMARK 922        TOTAL FREE ENERGY PREDICTED BY IDOCK:   -4.66 KCAL/MOL
REMARK 923 INTER-LIGAND FREE ENERGY PREDICTED BY IDOCK:   -4.00 KCAL/MOL
REMARK 924 INTRA-LIGAND FREE ENERGY PREDICTED BY IDOCK:   -0.66 KCAL/MOL
REMARK 927      BINDING AFFINITY PREDICTED BY RF-SCORE:    0.00 PKD
ROOT
HETATM    1  N   UNL     1     -12.231   6.004  72.050  1.00  0.00    -0.227 N  
HETATM    2  H2  UNL     1     -13.200   6.281  71.898  1.00  0.00     0.000 HD 
HETATM    3  S   UNL     1     -11.007   6.900  72.764  1.00  0.00    -0.280 S  
HETATM    4  H1  UNL     1     -11.789   5.119  71.802  1.00  0.00     0.000 HD 
HETATM    5  O   UNL     1     -10.389   6.056  73.757  1.00  0.00    -0.226 OA 
HETATM    6  O   UNL     1     -11.634   8.155  73.116  1.00  0.00    -0.256 OA 
ENDROOT
BRANCH   3   7
HETATM    7  C   UNL     1      -9.857   7.183  71.457  1.00  0.00    -0.171 A  
HETATM    8  C   UNL     1      -8.697   7.928  71.659  1.00  0.00    -0.124 A  
HETATM    9 CL   UNL     1      -8.204   8.571  73.183  1.00  0.00    -0.163 Cl 
HETATM   10  C   UNL     1      -7.875   8.218  70.565  1.00  0.00    -0.087 A  
HETATM   11  C   UNL     1      -8.227   7.803  69.280  1.00  0.00    -0.129 A  
HETATM   12  C   UNL     1      -9.407   7.072  69.056  1.00  0.00    -0.136 A  
HETATM   13  C   UNL     1     -10.201   6.737  70.169  1.00  0.00    -0.215 A  
BRANCH  12  14
HETATM   14  C   UNL     1      -9.899   6.834  67.633  1.00  0.00    -0.128 C  
HETATM   15  O   UNL     1     -11.302   6.930  67.555  1.00  0.00    -0.597 OA 
HETATM   16  N   UNL     1      -9.379   7.756  66.670  1.00  0.00    -0.178 N  
HETATM   17  H   UNL     1     -11.609   6.782  66.668  1.00  0.00     0.000 HD 
HETATM   18  H   UNL     1      -9.597   8.752  66.664  1.00  0.00     0.000 HD 
HETATM   19  C   UNL     1      -8.554   7.148  65.754  1.00  0.00    -0.133 C  
HETATM   20  O   UNL     1      -7.887   7.697  64.898  1.00  0.00    -0.113 OA 
HETATM   21  C   UNL     1      -8.585   5.704  66.024  1.00  0.00    -0.137 A  
HETATM   22  C   UNL     1      -7.893   4.673  65.414  1.00  0.00    -0.090 A  
HETATM   23  C   UNL     1      -8.070   3.388  65.933  1.00  0.00    -0.093 A  
HETATM   24  C   UNL     1      -8.937   3.164  67.019  1.00  0.00    -0.181 A  
HETATM   25  C   UNL     1      -9.625   4.225  67.616  1.00  0.00    -0.215 A  
HETATM   26  C   UNL     1      -9.427   5.502  67.116  1.00  0.00    -0.122 A  
ENDBRANCH  12  14
ENDBRANCH   3   7
TORSDOF 2
ENDMDL
MODEL      183
REMARK 921   NORMALIZED FREE ENERGY PREDICTED BY IDOCK:   -3.71 KCAL/MOL
REMARK 922        TOTAL FREE ENERGY PREDICTED BY IDOCK:   -4.62 KCAL/MOL
REMARK 923 INTER-LIGAND FREE ENERGY PREDICTED BY IDOCK:   -4.37 KCAL/MOL
REMARK 924 INTRA-LIGAND FREE ENERGY PREDICTED BY IDOCK:   -0.24 KCAL/MOL
REMARK 927      BINDING AFFINITY PREDICTED BY RF-SCORE:    0.00 PKD
ROOT
HETATM    1  N   UNL     1     -10.224  13.009  65.080  1.00  0.00    -0.408 N  
HETATM    2  H2  UNL     1      -9.941  13.809  64.515  1.00  0.00     0.000 HD 
HETATM    3  S   UNL     1     -10.881  13.021  66.622  1.00  0.00    -0.279 S  
HETATM    4  H1  UNL     1     -10.170  12.021  64.832  1.00  0.00     0.000 HD 
HETATM    5  O   UNL     1     -12.054  12.182  66.588  1.00  0.00    -0.622 OA 
HETATM    6  O   UNL     1     -10.957  14.422  66.974  1.00  0.00    -0.292 OA 
ENDROOT
BRANCH   3   7
HETATM    7  C   UNL     1      -9.653  12.247  67.624  1.00  0.00    -0.191 A  
HETATM    8  C   UNL     1      -8.447  12.883  67.916  1.00  0.00    -0.181 A  
HETATM    9 CL   UNL     1      -8.051  14.491  67.430  1.00  0.00    -0.205 Cl 
HETATM   10  C   UNL     1      -7.462  12.183  68.620  1.00  0.00    -0.105 A  
HETATM   11  C   UNL     1      -7.661  10.854  68.993  1.00  0.00    -0.135 A  
HETATM   12  C   UNL     1      -8.861  10.191  68.684  1.00  0.00    -0.136 A  
HETATM   13  C   UNL     1      -9.870  10.917  68.024  1.00  0.00    -0.185 A  
BRANCH  12  14
HETATM   14  C   UNL     1      -8.973   8.683  68.882  1.00  0.00    -0.142 C  
HETATM   15  O   UNL     1      -8.738   8.326  70.224  1.00  0.00    -0.134 OA 
HETATM   16  N   UNL     1     -10.252   8.140  68.541  1.00  0.00    -0.204 N  
HETATM   17  H   UNL     1      -8.808   7.386  70.348  1.00  0.00     0.000 HD 
HETATM   18  H   UNL     1     -11.112   8.352  69.048  1.00  0.00     0.000 HD 
HETATM   19  C   UNL     1     -10.193   7.301  67.454  1.00  0.00    -0.236 C  
HETATM   20  O   UNL     1     -11.133   6.792  66.875  1.00  0.00    -0.397 OA 
HETATM   21  C   UNL     1      -8.778   7.163  67.082  1.00  0.00    -0.121 A  
HETATM   22  C   UNL     1      -8.201   6.469  66.033  1.00  0.00    -0.127 A  
HETATM   23  C   UNL     1      -6.816   6.574  65.882  1.00  0.00    -0.053 A  
HETATM   24  C   UNL     1      -6.051   7.342  66.778  1.00  0.00    -0.043 A  
HETATM   25  C   UNL     1      -6.660   8.032  67.831  1.00  0.00    -0.053 A  
HETATM   26  C   UNL     1      -8.037   7.948  67.963  1.00  0.00    -0.126 A  
ENDBRANCH  12  14
ENDBRANCH   3   7
TORSDOF 2
ENDMDL
MODEL      184
REMARK 921   NORMALIZED FREE ENERGY PREDICTED BY IDOCK:   -3.70 KCAL/MOL
REMARK 922        TOTAL FREE ENERGY PREDICTED BY IDOCK:   -4.61 KCAL/MOL
REMARK 923 INTER-LIGAND FREE ENERGY PREDICTED BY IDOCK:   -4.19 KCAL/MOL
REMARK 924 INTRA-LIGAND FREE ENERGY PREDICTED BY IDOCK:   -0.42 KCAL/MOL
REMARK 927      BINDING AFFINITY PREDICTED BY RF-SCORE:    0.00 PKD
ROOT
HETATM    1  N   UNL     1      -6.920   4.496  66.649  1.00  0.00    -0.061 N  
HETATM    2  H2  UNL     1      -6.971   3.758  65.948  1.00  0.00     0.000 HD 
HETATM    3  S   UNL     1      -7.743   4.587  68.108  1.00  0.00    -0.080 S  
HETATM    4  H1  UNL     1      -6.356   5.346  66.620  1.00  0.00     0.000 HD 
HETATM    5  O   UNL     1      -6.766   4.884  69.126  1.00  0.00    -0.046 OA 
HETATM    6  O   UNL     1      -8.542   3.382  68.149  1.00  0.00    -0.086 OA 
ENDROOT
BRANCH   3   7
HETATM    7  C   UNL     1      -8.812   5.976  67.917  1.00  0.00    -0.110 A  
HETATM    8  C   UNL     1      -9.819   5.991  66.952  1.00  0.00    -0.158 A  
HETATM    9 CL   UNL     1     -10.196   4.663  65.917  1.00  0.00    -0.282 Cl 
HETATM   10  C   UNL     1     -10.566   7.159  66.767  1.00  0.00    -0.291 A  
HETATM   11  C   UNL     1     -10.287   8.308  67.506  1.00  0.00    -0.333 A  
HETATM   12  C   UNL     1      -9.259   8.317  68.465  1.00  0.00    -0.136 A  
HETATM   13  C   UNL     1      -8.547   7.123  68.685  1.00  0.00    -0.124 A  
BRANCH  12  14
HETATM   14  C   UNL     1      -8.809   9.633  69.090  1.00  0.00    -0.157 C  
HETATM   15  O   UNL     1      -7.958   9.411  70.190  1.00  0.00    -0.112 OA 
HETATM   16  N   UNL     1      -8.094  10.492  68.197  1.00  0.00    -0.110 N  
HETATM   17  H   UNL     1      -7.677  10.231  70.580  1.00  0.00     0.000 HD 
HETATM   18  H   UNL     1      -7.178  10.270  67.809  1.00  0.00     0.000 HD 
HETATM   19  C   UNL     1      -8.781  11.650  67.922  1.00  0.00    -0.154 C  
HETATM   20  O   UNL     1      -8.472  12.506  67.114  1.00  0.00    -0.179 OA 
HETATM   21  C   UNL     1      -9.993  11.651  68.753  1.00  0.00    -0.147 A  
HETATM   22  C   UNL     1     -11.029  12.567  68.809  1.00  0.00    -0.294 A  
HETATM   23  C   UNL     1     -12.100  12.270  69.655  1.00  0.00    -0.277 A  
HETATM   24  C   UNL     1     -12.102  11.094  70.427  1.00  0.00    -0.475 A  
HETATM   25  C   UNL     1     -11.041  10.186  70.352  1.00  0.00    -0.393 A  
HETATM   26  C   UNL     1      -9.992  10.470  69.492  1.00  0.00    -0.187 A  
ENDBRANCH  12  14
ENDBRANCH   3   7
TORSDOF 2
ENDMDL
MODEL      185
REMARK 921   NORMALIZED FREE ENERGY PREDICTED BY IDOCK:   -3.67 KCAL/MOL
REMARK 922        TOTAL FREE ENERGY PREDICTED BY IDOCK:   -4.57 KCAL/MOL
REMARK 923 INTER-LIGAND FREE ENERGY PREDICTED BY IDOCK:   -4.11 KCAL/MOL
REMARK 924 INTRA-LIGAND FREE ENERGY PREDICTED BY IDOCK:   -0.47 KCAL/MOL
REMARK 927      BINDING AFFINITY PREDICTED BY RF-SCORE:    0.00 PKD
ROOT
HETATM    1  N   UNL     1      -9.273  10.340  69.858  1.00  0.00    -0.404 N  
HETATM    2  H2  UNL     1      -8.360  10.774  69.992  1.00  0.00     0.000 HD 
HETATM    3  S   UNL     1     -10.041   9.234  70.857  1.00  0.00    -0.303 S  
HETATM    4  H1  UNL     1      -9.922  10.483  69.085  1.00  0.00     0.000 HD 
HETATM    5  O   UNL     1     -11.381   9.720  71.072  1.00  0.00    -0.329 OA 
HETATM    6  O   UNL     1      -9.118   9.032  71.952  1.00  0.00    -0.365 OA 
ENDROOT
BRANCH   3   7
HETATM    7  C   UNL     1     -10.115   7.759  69.893  1.00  0.00    -0.203 A  
HETATM    8  C   UNL     1     -10.541   6.551  70.445  1.00  0.00    -0.233 A  
HETATM    9 CL   UNL     1     -11.119   6.369  72.060  1.00  0.00    -0.289 Cl 
HETATM   10  C   UNL     1     -10.475   5.389  69.670  1.00  0.00    -0.361 A  
HETATM   11  C   UNL     1      -9.954   5.423  68.377  1.00  0.00    -0.217 A  
HETATM   12  C   UNL     1      -9.497   6.627  67.815  1.00  0.00    -0.121 A  
HETATM   13  C   UNL     1      -9.616   7.803  68.579  1.00  0.00    -0.151 A  
BRANCH  12  14
HETATM   14  C   UNL     1      -8.717   6.611  66.505  1.00  0.00    -0.135 C  
HETATM   15  O   UNL     1      -8.964   7.774  65.749  1.00  0.00    -0.294 OA 
HETATM   16  N   UNL     1      -7.297   6.534  66.669  1.00  0.00    -0.077 N  
HETATM   17  H   UNL     1      -8.478   7.764  64.933  1.00  0.00     0.000 HD 
HETATM   18  H   UNL     1      -6.734   7.273  67.089  1.00  0.00     0.000 HD 
HETATM   19  C   UNL     1      -6.778   5.353  66.196  1.00  0.00    -0.057 C  
HETATM   20  O   UNL     1      -5.630   4.966  66.306  1.00  0.00    -0.016 OA 
HETATM   21  C   UNL     1      -7.879   4.609  65.568  1.00  0.00    -0.094 A  
HETATM   22  C   UNL     1      -7.883   3.351  64.990  1.00  0.00    -0.082 A  
HETATM   23  C   UNL     1      -9.108   2.863  64.529  1.00  0.00    -0.127 A  
HETATM   24  C   UNL     1     -10.278   3.638  64.637  1.00  0.00    -0.142 A  
HETATM   25  C   UNL     1     -10.244   4.907  65.224  1.00  0.00     0.053 A  
HETATM   26  C   UNL     1      -9.033   5.378  65.705  1.00  0.00    -0.161 A  
ENDBRANCH  12  14
ENDBRANCH   3   7
TORSDOF 2
ENDMDL
MODEL      186
REMARK 921   NORMALIZED FREE ENERGY PREDICTED BY IDOCK:   -3.62 KCAL/MOL
REMARK 922        TOTAL FREE ENERGY PREDICTED BY IDOCK:   -4.52 KCAL/MOL
REMARK 923 INTER-LIGAND FREE ENERGY PREDICTED BY IDOCK:   -4.56 KCAL/MOL
REMARK 924 INTRA-LIGAND FREE ENERGY PREDICTED BY IDOCK:    0.04 KCAL/MOL
REMARK 927      BINDING AFFINITY PREDICTED BY RF-SCORE:    0.00 PKD
ROOT
HETATM    1  N   UNL     1      -9.633   3.301  71.270  1.00  0.00    -0.153 N  
HETATM    2  H2  UNL     1     -10.168   2.511  71.631  1.00  0.00     0.000 HD 
HETATM    3  S   UNL     1      -8.643   4.348  72.127  1.00  0.00    -0.114 S  
HETATM    4  H1  UNL     1      -9.582   3.630  70.306  1.00  0.00     0.000 HD 
HETATM    5  O   UNL     1      -7.390   4.421  71.416  1.00  0.00    -0.052 OA 
HETATM    6  O   UNL     1      -8.716   3.881  73.494  1.00  0.00    -0.090 OA 
ENDROOT
BRANCH   3   7
HETATM    7  C   UNL     1      -9.458   5.908  72.012  1.00  0.00    -0.150 A  
HETATM    8  C   UNL     1     -10.778   6.071  72.430  1.00  0.00    -0.228 A  
HETATM    9 CL   UNL     1     -11.724   4.834  73.174  1.00  0.00    -0.322 Cl 
HETATM   10  C   UNL     1     -11.414   7.297  72.214  1.00  0.00    -0.316 A  
HETATM   11  C   UNL     1     -10.754   8.335  71.554  1.00  0.00    -0.295 A  
HETATM   12  C   UNL     1      -9.432   8.179  71.105  1.00  0.00    -0.192 A  
HETATM   13  C   UNL     1      -8.780   6.961  71.373  1.00  0.00    -0.126 A  
BRANCH  12  14
HETATM   14  C   UNL     1      -8.810   9.222  70.183  1.00  0.00    -0.213 C  
HETATM   15  O   UNL     1      -7.910  10.049  70.883  1.00  0.00    -0.364 OA 
HETATM   16  N   UNL     1      -8.078   8.673  69.084  1.00  0.00    -0.114 N  
HETATM   17  H   UNL     1      -7.522  10.700  70.309  1.00  0.00     0.000 HD 
HETATM   18  H   UNL     1      -7.218   8.134  69.188  1.00  0.00     0.000 HD 
HETATM   19  C   UNL     1      -8.663   8.951  67.872  1.00  0.00    -0.129 C  
HETATM   20  O   UNL     1      -8.329   8.520  66.786  1.00  0.00    -0.106 OA 
HETATM   21  C   UNL     1      -9.808   9.837  68.130  1.00  0.00    -0.170 A  
HETATM   22  C   UNL     1     -10.741  10.358  67.251  1.00  0.00    -0.331 A  
HETATM   23  C   UNL     1     -11.774  11.125  67.795  1.00  0.00    -0.220 A  
HETATM   24  C   UNL     1     -11.839  11.364  69.180  1.00  0.00    -0.413 A  
HETATM   25  C   UNL     1     -10.881  10.826  70.046  1.00  0.00    -0.218 A  
HETATM   26  C   UNL     1      -9.872  10.044  69.506  1.00  0.00    -0.249 A  
ENDBRANCH  12  14
ENDBRANCH   3   7
TORSDOF 2
ENDMDL
MODEL      187
REMARK 921   NORMALIZED FREE ENERGY PREDICTED BY IDOCK:   -3.58 KCAL/MOL
REMARK 922        TOTAL FREE ENERGY PREDICTED BY IDOCK:   -4.48 KCAL/MOL
REMARK 923 INTER-LIGAND FREE ENERGY PREDICTED BY IDOCK:   -4.10 KCAL/MOL
REMARK 924 INTRA-LIGAND FREE ENERGY PREDICTED BY IDOCK:   -0.38 KCAL/MOL
REMARK 927      BINDING AFFINITY PREDICTED BY RF-SCORE:    0.00 PKD
ROOT
HETATM    1  N   UNL     1      -7.823   2.827  64.849  1.00  0.00    -0.080 N  
HETATM    2  H2  UNL     1      -8.067   2.340  63.988  1.00  0.00     0.000 HD 
HETATM    3  S   UNL     1      -8.431   2.560  66.389  1.00  0.00    -0.105 S  
HETATM    4  H1  UNL     1      -7.152   3.587  64.966  1.00  0.00     0.000 HD 
HETATM    5  O   UNL     1      -7.300   2.444  67.275  1.00  0.00    -0.055 OA 
HETATM    6  O   UNL     1      -9.382   1.483  66.222  1.00  0.00    -0.017 OA 
ENDROOT
BRANCH   3   7
HETATM    7  C   UNL     1      -9.309   4.042  66.771  1.00  0.00    -0.183 A  
HETATM    8  C   UNL     1     -10.183   4.626  65.856  1.00  0.00    -0.276 A  
HETATM    9 CL   UNL     1     -10.577   3.950  64.317  1.00  0.00    -0.274 Cl 
HETATM   10  C   UNL     1     -10.768   5.858  66.164  1.00  0.00     0.107 A  
HETATM   11  C   UNL     1     -10.454   6.518  67.352  1.00  0.00    -0.314 A  
HETATM   12  C   UNL     1      -9.556   5.955  68.274  1.00  0.00    -0.134 A  
HETATM   13  C   UNL     1      -9.013   4.689  67.983  1.00  0.00    -0.131 A  
BRANCH  12  14
HETATM   14  C   UNL     1      -9.041   6.786  69.445  1.00  0.00    -0.144 C  
HETATM   15  O   UNL     1      -7.973   6.141  70.098  1.00  0.00    -0.103 OA 
HETATM   16  N   UNL     1      -8.562   8.083  69.077  1.00  0.00    -0.136 N  
HETATM   17  H   UNL     1      -7.653   6.658  70.828  1.00  0.00     0.000 HD 
HETATM   18  H   UNL     1      -7.737   8.239  68.499  1.00  0.00     0.000 HD 
HETATM   19  C   UNL     1      -9.338   9.094  69.592  1.00  0.00    -0.172 C  
HETATM   20  O   UNL     1      -9.238  10.282  69.352  1.00  0.00    -0.197 OA 
HETATM   21  C   UNL     1     -10.352   8.474  70.456  1.00  0.00    -0.226 A  
HETATM   22  C   UNL     1     -11.391   9.055  71.161  1.00  0.00    -0.375 A  
HETATM   23  C   UNL     1     -12.252   8.200  71.853  1.00  0.00    -0.373 A  
HETATM   24  C   UNL     1     -12.046   6.807  71.840  1.00  0.00    -0.375 A  
HETATM   25  C   UNL     1     -10.987   6.247  71.120  1.00  0.00    -0.336 A  
HETATM   26  C   UNL     1     -10.150   7.096  70.413  1.00  0.00    -0.199 A  
ENDBRANCH  12  14
ENDBRANCH   3   7
TORSDOF 2
ENDMDL
MODEL      188
REMARK 921   NORMALIZED FREE ENERGY PREDICTED BY IDOCK:   -3.58 KCAL/MOL
REMARK 922        TOTAL FREE ENERGY PREDICTED BY IDOCK:   -4.48 KCAL/MOL
REMARK 923 INTER-LIGAND FREE ENERGY PREDICTED BY IDOCK:   -4.48 KCAL/MOL
REMARK 924 INTRA-LIGAND FREE ENERGY PREDICTED BY IDOCK:   -0.00 KCAL/MOL
REMARK 927      BINDING AFFINITY PREDICTED BY RF-SCORE:    0.00 PKD
ROOT
HETATM    1  N   UNL     1     -12.303   7.162  70.849  1.00  0.00    -0.527 N  
HETATM    2  H2  UNL     1     -12.664   6.869  71.756  1.00  0.00     0.000 HD 
HETATM    3  S   UNL     1     -11.038   6.486  69.981  1.00  0.00    -0.395 S  
HETATM    4  H1  UNL     1     -12.632   7.931  70.266  1.00  0.00     0.000 HD 
HETATM    5  O   UNL     1     -11.516   6.270  68.637  1.00  0.00    -0.263 OA 
HETATM    6  O   UNL     1     -10.572   5.395  70.807  1.00  0.00    -0.256 OA 
ENDROOT
BRANCH   3   7
HETATM    7  C   UNL     1      -9.807   7.748  69.955  1.00  0.00    -0.177 A  
HETATM    8  C   UNL     1      -9.258   8.253  71.133  1.00  0.00    -0.162 A  
HETATM    9 CL   UNL     1      -9.633   7.665  72.712  1.00  0.00    -0.230 Cl 
HETATM   10  C   UNL     1      -8.369   9.330  71.063  1.00  0.00    -0.138 A  
HETATM   11  C   UNL     1      -8.061   9.921  69.837  1.00  0.00    -0.200 A  
HETATM   12  C   UNL     1      -8.624   9.440  68.643  1.00  0.00    -0.123 A  
HETATM   13  C   UNL     1      -9.476   8.322  68.714  1.00  0.00    -0.148 A  
BRANCH  12  14
HETATM   14  C   UNL     1      -8.470  10.235  67.351  1.00  0.00    -0.125 C  
HETATM   15  O   UNL     1      -7.336   9.819  66.627  1.00  0.00    -0.092 OA 
HETATM   16  N   UNL     1      -9.581  10.121  66.456  1.00  0.00    -0.179 N  
HETATM   17  H   UNL     1      -7.240  10.314  65.822  1.00  0.00     0.000 HD 
HETATM   18  H   UNL     1      -9.844   9.255  65.987  1.00  0.00     0.000 HD 
HETATM   19  C   UNL     1     -10.253  11.310  66.300  1.00  0.00    -0.236 C  
HETATM   20  O   UNL     1     -11.294  11.484  65.696  1.00  0.00    -0.217 OA 
HETATM   21  C   UNL     1      -9.507  12.337  67.041  1.00  0.00    -0.204 A  
HETATM   22  C   UNL     1      -9.795  13.677  67.232  1.00  0.00    -0.241 A  
HETATM   23  C   UNL     1      -8.930  14.407  68.051  1.00  0.00    -0.183 A  
HETATM   24  C   UNL     1      -7.805  13.796  68.634  1.00  0.00    -0.108 A  
HETATM   25  C   UNL     1      -7.536  12.440  68.422  1.00  0.00    -0.129 A  
HETATM   26  C   UNL     1      -8.411  11.711  67.631  1.00  0.00    -0.142 A  
ENDBRANCH  12  14
ENDBRANCH   3   7
TORSDOF 2
ENDMDL
MODEL      189
REMARK 921   NORMALIZED FREE ENERGY PREDICTED BY IDOCK:   -3.57 KCAL/MOL
REMARK 922        TOTAL FREE ENERGY PREDICTED BY IDOCK:   -4.47 KCAL/MOL
REMARK 923 INTER-LIGAND FREE ENERGY PREDICTED BY IDOCK:   -4.35 KCAL/MOL
REMARK 924 INTRA-LIGAND FREE ENERGY PREDICTED BY IDOCK:   -0.12 KCAL/MOL
REMARK 927      BINDING AFFINITY PREDICTED BY RF-SCORE:    0.00 PKD
ROOT
HETATM    1  N   UNL     1      -6.571  11.471  70.488  1.00  0.00    -0.070 N  
HETATM    2  H2  UNL     1      -5.887  11.814  71.162  1.00  0.00     0.000 HD 
HETATM    3  S   UNL     1      -6.438  11.439  68.817  1.00  0.00    -0.062 S  
HETATM    4  H1  UNL     1      -7.489  11.072  70.680  1.00  0.00     0.000 HD 
HETATM    5  O   UNL     1      -6.789  10.107  68.391  1.00  0.00    -0.061 OA 
HETATM    6  O   UNL     1      -5.135  12.006  68.545  1.00  0.00    -0.047 OA 
ENDROOT
BRANCH   3   7
HETATM    7  C   UNL     1      -7.677  12.563  68.261  1.00  0.00    -0.141 A  
HETATM    8  C   UNL     1      -7.717  13.882  68.711  1.00  0.00    -0.096 A  
HETATM    9 CL   UNL     1      -6.546  14.588  69.764  1.00  0.00    -0.153 Cl 
HETATM   10  C   UNL     1      -8.784  14.700  68.328  1.00  0.00    -0.173 A  
HETATM   11  C   UNL     1      -9.819  14.198  67.537  1.00  0.00    -0.235 A  
HETATM   12  C   UNL     1      -9.806  12.865  67.095  1.00  0.00    -0.225 A  
HETATM   13  C   UNL     1      -8.702  12.061  67.440  1.00  0.00    -0.170 A  
BRANCH  12  14
HETATM   14  C   UNL     1     -11.046  12.265  66.440  1.00  0.00    -0.303 C  
HETATM   15  O   UNL     1     -11.725  11.404  67.324  1.00  0.00    -0.577 OA 
HETATM   16  N   UNL     1     -12.006  13.233  66.006  1.00  0.00    -0.401 N  
HETATM   17  H   UNL     1     -12.497  11.031  66.916  1.00  0.00     0.000 HD 
HETATM   18  H   UNL     1     -12.532  13.833  66.641  1.00  0.00     0.000 HD 
HETATM   19  C   UNL     1     -12.139  13.264  64.639  1.00  0.00    -0.408 C  
HETATM   20  O   UNL     1     -12.791  14.058  63.988  1.00  0.00    -0.536 OA 
HETATM   21  C   UNL     1     -11.307  12.183  64.092  1.00  0.00    -0.449 A  
HETATM   22  C   UNL     1     -11.065  11.830  62.776  1.00  0.00     0.444 A  
HETATM   23  C   UNL     1     -10.163  10.787  62.549  1.00  0.00     0.308 A  
HETATM   24  C   UNL     1      -9.549  10.120  63.625  1.00  0.00    -0.268 A  
HETATM   25  C   UNL     1      -9.814  10.496  64.945  1.00  0.00    -0.379 A  
HETATM   26  C   UNL     1     -10.688  11.549  65.167  1.00  0.00    -0.348 A  
ENDBRANCH  12  14
ENDBRANCH   3   7
TORSDOF 2
ENDMDL
MODEL      190
REMARK 921   NORMALIZED FREE ENERGY PREDICTED BY IDOCK:   -3.56 KCAL/MOL
REMARK 922        TOTAL FREE ENERGY PREDICTED BY IDOCK:   -4.46 KCAL/MOL
REMARK 923 INTER-LIGAND FREE ENERGY PREDICTED BY IDOCK:   -4.37 KCAL/MOL
REMARK 924 INTRA-LIGAND FREE ENERGY PREDICTED BY IDOCK:   -0.09 KCAL/MOL
REMARK 927      BINDING AFFINITY PREDICTED BY RF-SCORE:    0.00 PKD
ROOT
HETATM    1  N   UNL     1     -10.814  10.553  66.910  1.00  0.00    -0.226 N  
HETATM    2  H2  UNL     1     -10.594   9.726  66.356  1.00  0.00     0.000 HD 
HETATM    3  S   UNL     1     -11.398  12.028  66.367  1.00  0.00    -0.338 S  
HETATM    4  H1  UNL     1     -10.728  10.667  67.920  1.00  0.00     0.000 HD 
HETATM    5  O   UNL     1     -12.532  12.362  67.193  1.00  0.00    -0.202 OA 
HETATM    6  O   UNL     1     -11.520  11.865  64.936  1.00  0.00    -0.312 OA 
ENDROOT
BRANCH   3   7
HETATM    7  C   UNL     1     -10.090  13.162  66.704  1.00  0.00    -0.264 A  
HETATM    8  C   UNL     1      -8.754  12.772  66.634  1.00  0.00    -0.058 A  
HETATM    9 CL   UNL     1      -8.220  11.208  66.137  1.00  0.00    -0.158 Cl 
HETATM   10  C   UNL     1      -7.759  13.677  67.018  1.00  0.00     0.159 A  
HETATM   11  C   UNL     1      -8.096  14.942  67.503  1.00  0.00    -0.200 A  
HETATM   12  C   UNL     1      -9.439  15.341  67.603  1.00  0.00    -0.205 A  
HETATM   13  C   UNL     1     -10.433  14.446  67.164  1.00  0.00    -0.263 A  
BRANCH  12  14
HETATM   14  C   UNL     1      -9.802  16.620  68.351  1.00  0.00    -0.252 C  
HETATM   15  O   UNL     1     -11.010  16.471  69.060  1.00  0.00    -0.309 OA 
HETATM   16  N   UNL     1      -8.824  17.037  69.308  1.00  0.00    -0.009 N  
HETATM   17  H   UNL     1     -11.236  17.268  69.526  1.00  0.00     0.000 HD 
HETATM   18  H   UNL     1      -8.597  16.512  70.152  1.00  0.00     0.000 HD 
HETATM   19  C   UNL     1      -8.226  18.225  68.963  1.00  0.00    -0.050 C  
HETATM   20  O   UNL     1      -7.287  18.757  69.523  1.00  0.00    -0.083 OA 
HETATM   21  C   UNL     1      -8.898  18.721  67.754  1.00  0.00    -0.313 A  
HETATM   22  C   UNL     1      -8.636  19.846  66.992  1.00  0.00    -0.389 A  
HETATM   23  C   UNL     1      -9.405  20.032  65.841  1.00  0.00    -0.243 A  
HETATM   24  C   UNL     1     -10.414  19.115  65.493  1.00  0.00    -0.082 A  
HETATM   25  C   UNL     1     -10.659  17.987  66.283  1.00  0.00    -0.262 A  
HETATM   26  C   UNL     1      -9.877  17.790  67.410  1.00  0.00    -0.311 A  
ENDBRANCH  12  14
ENDBRANCH   3   7
TORSDOF 2
ENDMDL
MODEL      191
REMARK 921   NORMALIZED FREE ENERGY PREDICTED BY IDOCK:   -3.55 KCAL/MOL
REMARK 922        TOTAL FREE ENERGY PREDICTED BY IDOCK:   -4.45 KCAL/MOL
REMARK 923 INTER-LIGAND FREE ENERGY PREDICTED BY IDOCK:   -4.11 KCAL/MOL
REMARK 924 INTRA-LIGAND FREE ENERGY PREDICTED BY IDOCK:   -0.34 KCAL/MOL
REMARK 927      BINDING AFFINITY PREDICTED BY RF-SCORE:    0.00 PKD
ROOT
HETATM    1  N   UNL     1     -11.710  10.619  67.932  1.00  0.00    -0.325 N  
HETATM    2  H2  UNL     1     -12.079  10.390  67.010  1.00  0.00     0.000 HD 
HETATM    3  S   UNL     1     -10.268  10.108  68.618  1.00  0.00    -0.187 S  
HETATM    4  H1  UNL     1     -12.137  11.212  68.644  1.00  0.00     0.000 HD 
HETATM    5  O   UNL     1      -9.603  11.281  69.127  1.00  0.00    -0.092 OA 
HETATM    6  O   UNL     1      -9.663   9.268  67.608  1.00  0.00    -0.148 OA 
ENDROOT
BRANCH   3   7
HETATM    7  C   UNL     1     -10.768   9.098  69.975  1.00  0.00    -0.232 A  
HETATM    8  C   UNL     1     -11.540   9.610  71.017  1.00  0.00    -0.359 A  
HETATM    9 CL   UNL     1     -12.163  11.219  71.067  1.00  0.00    -0.446 Cl 
HETATM   10  C   UNL     1     -11.814   8.800  72.123  1.00  0.00    -0.436 A  
HETATM   11  C   UNL     1     -11.293   7.509  72.207  1.00  0.00    -0.338 A  
HETATM   12  C   UNL     1     -10.492   6.986  71.177  1.00  0.00    -0.229 A  
HETATM   13  C   UNL     1     -10.264   7.787  70.042  1.00  0.00    -0.210 A  
BRANCH  12  14
HETATM   14  C   UNL     1      -9.738   5.677  71.385  1.00  0.00    -0.162 C  
HETATM   15  O   UNL     1     -10.616   4.631  71.726  1.00  0.00    -0.131 OA 
HETATM   16  N   UNL     1      -9.009   5.232  70.238  1.00  0.00    -0.124 N  
HETATM   17  H   UNL     1     -10.146   3.815  71.856  1.00  0.00     0.000 HD 
HETATM   18  H   UNL     1      -9.449   4.933  69.368  1.00  0.00     0.000 HD 
HETATM   19  C   UNL     1      -7.650   5.250  70.440  1.00  0.00    -0.075 C  
HETATM   20  O   UNL     1      -6.787   5.036  69.610  1.00  0.00    -0.049 OA 
HETATM   21  C   UNL     1      -7.419   5.626  71.842  1.00  0.00    -0.095 A  
HETATM   22  C   UNL     1      -6.231   5.828  72.521  1.00  0.00    -0.048 A  
HETATM   23  C   UNL     1      -6.317   6.252  73.849  1.00  0.00    -0.066 A  
HETATM   24  C   UNL     1      -7.569   6.443  74.464  1.00  0.00    -0.099 A  
HETATM   25  C   UNL     1      -8.754   6.230  73.754  1.00  0.00    -0.127 A  
HETATM   26  C   UNL     1      -8.665   5.835  72.428  1.00  0.00    -0.128 A  
ENDBRANCH  12  14
ENDBRANCH   3   7
TORSDOF 2
ENDMDL
MODEL      192
REMARK 921   NORMALIZED FREE ENERGY PREDICTED BY IDOCK:   -3.55 KCAL/MOL
REMARK 922        TOTAL FREE ENERGY PREDICTED BY IDOCK:   -4.45 KCAL/MOL
REMARK 923 INTER-LIGAND FREE ENERGY PREDICTED BY IDOCK:   -4.78 KCAL/MOL
REMARK 924 INTRA-LIGAND FREE ENERGY PREDICTED BY IDOCK:    0.34 KCAL/MOL
REMARK 927      BINDING AFFINITY PREDICTED BY RF-SCORE:    0.00 PKD
ROOT
HETATM    1  N   UNL     1     -10.385   8.879  72.089  1.00  0.00    -0.312 N  
HETATM    2  H2  UNL     1     -10.110   7.990  72.505  1.00  0.00     0.000 HD 
HETATM    3  S   UNL     1     -11.794   9.227  71.249  1.00  0.00    -0.368 S  
HETATM    4  H1  UNL     1      -9.865   9.756  72.092  1.00  0.00     0.000 HD 
HETATM    5  O   UNL     1     -12.341  10.431  71.823  1.00  0.00    -0.355 OA 
HETATM    6  O   UNL     1     -12.532   7.983  71.245  1.00  0.00    -0.304 OA 
ENDROOT
BRANCH   3   7
HETATM    7  C   UNL     1     -11.247   9.571  69.608  1.00  0.00    -0.108 A  
HETATM    8  C   UNL     1     -11.496  10.802  69.002  1.00  0.00    -0.298 A  
HETATM    9 CL   UNL     1     -12.265  12.135  69.784  1.00  0.00    -0.261 Cl 
HETATM   10  C   UNL     1     -11.141  10.985  67.662  1.00  0.00    -0.363 A  
HETATM   11  C   UNL     1     -10.580   9.942  66.925  1.00  0.00    -0.248 A  
HETATM   12  C   UNL     1     -10.345   8.688  67.514  1.00  0.00    -0.336 A  
HETATM   13  C   UNL     1     -10.655   8.526  68.878  1.00  0.00    -0.166 A  
BRANCH  12  14
HETATM   14  C   UNL     1      -9.959   7.496  66.645  1.00  0.00    -0.200 C  
HETATM   15  O   UNL     1     -11.073   6.679  66.374  1.00  0.00    -0.461 OA 
HETATM   16  N   UNL     1      -9.404   7.852  65.375  1.00  0.00    -0.286 N  
HETATM   17  H   UNL     1     -10.832   5.936  65.832  1.00  0.00     0.000 HD 
HETATM   18  H   UNL     1      -9.930   8.321  64.638  1.00  0.00     0.000 HD 
HETATM   19  C   UNL     1      -8.084   7.489  65.259  1.00  0.00    -0.130 C  
HETATM   20  O   UNL     1      -7.330   7.764  64.344  1.00  0.00    -0.076 OA 
HETATM   21  C   UNL     1      -7.725   6.742  66.472  1.00  0.00    -0.102 A  
HETATM   22  C   UNL     1      -6.508   6.207  66.856  1.00  0.00    -0.050 A  
HETATM   23  C   UNL     1      -6.444   5.600  68.113  1.00  0.00    -0.043 A  
HETATM   24  C   UNL     1      -7.584   5.526  68.935  1.00  0.00    -0.087 A  
HETATM   25  C   UNL     1      -8.802   6.073  68.520  1.00  0.00    -0.112 A  
HETATM   26  C   UNL     1      -8.856   6.699  67.285  1.00  0.00    -0.116 A  
ENDBRANCH  12  14
ENDBRANCH   3   7
TORSDOF 2
ENDMDL
MODEL      193
REMARK 921   NORMALIZED FREE ENERGY PREDICTED BY IDOCK:   -3.54 KCAL/MOL
REMARK 922        TOTAL FREE ENERGY PREDICTED BY IDOCK:   -4.43 KCAL/MOL
REMARK 923 INTER-LIGAND FREE ENERGY PREDICTED BY IDOCK:   -3.91 KCAL/MOL
REMARK 924 INTRA-LIGAND FREE ENERGY PREDICTED BY IDOCK:   -0.52 KCAL/MOL
REMARK 927      BINDING AFFINITY PREDICTED BY RF-SCORE:    0.00 PKD
ROOT
HETATM    1  N   UNL     1      -9.043   2.549  70.366  1.00  0.00    -0.097 N  
HETATM    2  H2  UNL     1      -9.222   1.566  70.569  1.00  0.00     0.000 HD 
HETATM    3  S   UNL     1      -8.146   3.638  71.272  1.00  0.00    -0.064 S  
HETATM    4  H1  UNL     1      -9.370   3.089  69.564  1.00  0.00     0.000 HD 
HETATM    5  O   UNL     1      -7.228   4.284  70.367  1.00  0.00    -0.040 OA 
HETATM    6  O   UNL     1      -7.684   2.872  72.408  1.00  0.00    -0.052 OA 
ENDROOT
BRANCH   3   7
HETATM    7  C   UNL     1      -9.332   4.820  71.826  1.00  0.00    -0.141 A  
HETATM    8  C   UNL     1     -10.418   4.446  72.615  1.00  0.00    -0.182 A  
HETATM    9 CL   UNL     1     -10.686   2.848  73.208  1.00  0.00    -0.261 Cl 
HETATM   10  C   UNL     1     -11.389   5.400  72.933  1.00  0.00    -0.365 A  
HETATM   11  C   UNL     1     -11.298   6.702  72.439  1.00  0.00    -0.309 A  
HETATM   12  C   UNL     1     -10.222   7.089  71.622  1.00  0.00    -0.208 A  
HETATM   13  C   UNL     1      -9.220   6.139  71.350  1.00  0.00    -0.149 A  
BRANCH  12  14
HETATM   14  C   UNL     1     -10.257   8.431  70.899  1.00  0.00    -0.194 C  
HETATM   15  O   UNL     1     -11.452   9.126  71.169  1.00  0.00    -0.272 OA 
HETATM   16  N   UNL     1      -9.190   9.316  71.254  1.00  0.00    -0.178 N  
HETATM   17  H   UNL     1     -11.474   9.962  70.718  1.00  0.00     0.000 HD 
HETATM   18  H   UNL     1      -9.078   9.727  72.180  1.00  0.00     0.000 HD 
HETATM   19  C   UNL     1      -8.332   9.550  70.206  1.00  0.00    -0.195 C  
HETATM   20  O   UNL     1      -7.284  10.164  70.246  1.00  0.00    -0.153 OA 
HETATM   21  C   UNL     1      -8.890   8.880  69.023  1.00  0.00    -0.136 A  
HETATM   22  C   UNL     1      -8.383   8.778  67.740  1.00  0.00    -0.118 A  
HETATM   23  C   UNL     1      -9.106   8.010  66.824  1.00  0.00    -0.189 A  
HETATM   24  C   UNL     1     -10.311   7.387  67.201  1.00  0.00    -0.377 A  
HETATM   25  C   UNL     1     -10.802   7.509  68.505  1.00  0.00    -0.032 A  
HETATM   26  C   UNL     1     -10.068   8.249  69.418  1.00  0.00    -0.198 A  
ENDBRANCH  12  14
ENDBRANCH   3   7
TORSDOF 2
ENDMDL
MODEL      194
REMARK 921   NORMALIZED FREE ENERGY PREDICTED BY IDOCK:   -3.50 KCAL/MOL
REMARK 922        TOTAL FREE ENERGY PREDICTED BY IDOCK:   -4.39 KCAL/MOL
REMARK 923 INTER-LIGAND FREE ENERGY PREDICTED BY IDOCK:   -3.81 KCAL/MOL
REMARK 924 INTRA-LIGAND FREE ENERGY PREDICTED BY IDOCK:   -0.58 KCAL/MOL
REMARK 927      BINDING AFFINITY PREDICTED BY RF-SCORE:    0.00 PKD
ROOT
HETATM    1  N   UNL     1     -12.063  12.426  66.416  1.00  0.00    -0.270 N  
HETATM    2  H2  UNL     1     -12.950  12.607  65.948  1.00  0.00     0.000 HD 
HETATM    3  S   UNL     1     -10.570  13.118  66.091  1.00  0.00    -0.283 S  
HETATM    4  H1  UNL     1     -11.885  11.783  67.187  1.00  0.00     0.000 HD 
HETATM    5  O   UNL     1     -10.033  13.573  67.349  1.00  0.00    -0.228 OA 
HETATM    6  O   UNL     1     -10.823  14.029  64.997  1.00  0.00    -0.346 OA 
ENDROOT
BRANCH   3   7
HETATM    7  C   UNL     1      -9.590  11.776  65.501  1.00  0.00    -0.201 A  
HETATM    8  C   UNL     1      -9.916  11.097  64.328  1.00  0.00    -0.306 A  
HETATM    9 CL   UNL     1     -11.225  11.525  63.287  1.00  0.00    -0.341 Cl 
HETATM   10  C   UNL     1      -9.172   9.971  63.964  1.00  0.00    -0.318 A  
HETATM   11  C   UNL     1      -8.141   9.504  64.779  1.00  0.00    -0.130 A  
HETATM   12  C   UNL     1      -7.815  10.162  65.977  1.00  0.00    -0.122 A  
HETATM   13  C   UNL     1      -8.532  11.327  66.311  1.00  0.00    -0.156 A  
BRANCH  12  14
HETATM   14  C   UNL     1      -6.856   9.512  66.969  1.00  0.00    -0.084 C  
HETATM   15  O   UNL     1      -6.177   8.425  66.385  1.00  0.00    -0.051 OA 
HETATM   16  N   UNL     1      -5.846  10.393  67.471  1.00  0.00    -0.045 N  
HETATM   17  H   UNL     1      -5.579   8.020  67.003  1.00  0.00     0.000 HD 
HETATM   18  H   UNL     1      -5.107  10.794  66.895  1.00  0.00     0.000 HD 
HETATM   19  C   UNL     1      -5.985  10.637  68.816  1.00  0.00    -0.040 C  
HETATM   20  O   UNL     1      -5.347  11.429  69.482  1.00  0.00    -0.047 OA 
HETATM   21  C   UNL     1      -7.086   9.795  69.305  1.00  0.00    -0.066 A  
HETATM   22  C   UNL     1      -7.644   9.710  70.568  1.00  0.00    -0.151 A  
HETATM   23  C   UNL     1      -8.742   8.861  70.727  1.00  0.00    -0.245 A  
HETATM   24  C   UNL     1      -9.237   8.114  69.641  1.00  0.00    -0.155 A  
HETATM   25  C   UNL     1      -8.653   8.218  68.375  1.00  0.00    -0.133 A  
HETATM   26  C   UNL     1      -7.580   9.082  68.214  1.00  0.00    -0.091 A  
ENDBRANCH  12  14
ENDBRANCH   3   7
TORSDOF 2
ENDMDL
MODEL      195
REMARK 921   NORMALIZED FREE ENERGY PREDICTED BY IDOCK:   -3.47 KCAL/MOL
REMARK 922        TOTAL FREE ENERGY PREDICTED BY IDOCK:   -4.36 KCAL/MOL
REMARK 923 INTER-LIGAND FREE ENERGY PREDICTED BY IDOCK:   -4.41 KCAL/MOL
REMARK 924 INTRA-LIGAND FREE ENERGY PREDICTED BY IDOCK:    0.06 KCAL/MOL
REMARK 927      BINDING AFFINITY PREDICTED BY RF-SCORE:    0.00 PKD
ROOT
HETATM    1  N   UNL     1     -11.030   4.860  70.059  1.00  0.00     0.596 N  
HETATM    2  H2  UNL     1     -10.988   4.062  70.693  1.00  0.00     0.000 HD 
HETATM    3  S   UNL     1      -9.769   5.851  69.571  1.00  0.00    -0.156 S  
HETATM    4  H1  UNL     1     -11.850   5.232  69.580  1.00  0.00     0.000 HD 
HETATM    5  O   UNL     1      -9.833   5.938  68.133  1.00  0.00    -0.122 OA 
HETATM    6  O   UNL     1      -8.607   5.322  70.251  1.00  0.00    -0.116 OA 
ENDROOT
BRANCH   3   7
HETATM    7  C   UNL     1     -10.165   7.426  70.258  1.00  0.00    -0.200 A  
HETATM    8  C   UNL     1     -10.417   7.583  71.620  1.00  0.00    -0.200 A  
HETATM    9 CL   UNL     1     -10.291   6.317  72.786  1.00  0.00    -0.205 Cl 
HETATM   10  C   UNL     1     -10.836   8.829  72.095  1.00  0.00    -0.400 A  
HETATM   11  C   UNL     1     -11.038   9.896  71.219  1.00  0.00    -0.302 A  
HETATM   12  C   UNL     1     -10.811   9.748  69.840  1.00  0.00    -0.306 A  
HETATM   13  C   UNL     1     -10.338   8.506  69.374  1.00  0.00    -0.218 A  
BRANCH  12  14
HETATM   14  C   UNL     1     -11.260  10.836  68.871  1.00  0.00    -0.268 C  
HETATM   15  O   UNL     1     -12.664  10.924  68.815  1.00  0.00    -0.545 OA 
HETATM   16  N   UNL     1     -10.789  12.146  69.202  1.00  0.00    -0.400 N  
HETATM   17  H   UNL     1     -12.944  11.602  68.212  1.00  0.00     0.000 HD 
HETATM   18  H   UNL     1     -11.076  12.658  70.036  1.00  0.00     0.000 HD 
HETATM   19  C   UNL     1      -9.907  12.638  68.270  1.00  0.00    -0.227 C  
HETATM   20  O   UNL     1      -9.265  13.668  68.347  1.00  0.00    -0.195 OA 
HETATM   21  C   UNL     1      -9.840  11.664  67.171  1.00  0.00    -0.205 A  
HETATM   22  C   UNL     1      -9.066  11.673  66.024  1.00  0.00    -0.188 A  
HETATM   23  C   UNL     1      -9.162  10.566  65.179  1.00  0.00    -0.243 A  
HETATM   24  C   UNL     1     -10.030   9.500  65.484  1.00  0.00    -0.209 A  
HETATM   25  C   UNL     1     -10.802   9.518  66.649  1.00  0.00     0.018 A  
HETATM   26  C   UNL     1     -10.685  10.607  67.500  1.00  0.00    -0.321 A  
ENDBRANCH  12  14
ENDBRANCH   3   7
TORSDOF 2
ENDMDL
MODEL      196
REMARK 921   NORMALIZED FREE ENERGY PREDICTED BY IDOCK:   -3.45 KCAL/MOL
REMARK 922        TOTAL FREE ENERGY PREDICTED BY IDOCK:   -4.34 KCAL/MOL
REMARK 923 INTER-LIGAND FREE ENERGY PREDICTED BY IDOCK:   -3.88 KCAL/MOL
REMARK 924 INTRA-LIGAND FREE ENERGY PREDICTED BY IDOCK:   -0.45 KCAL/MOL
REMARK 927      BINDING AFFINITY PREDICTED BY RF-SCORE:    0.00 PKD
ROOT
HETATM    1  N   UNL     1      -8.703   9.290  65.066  1.00  0.00    -0.180 N  
HETATM    2  H2  UNL     1      -8.477   8.578  64.371  1.00  0.00     0.000 HD 
HETATM    3  S   UNL     1      -7.797   9.743  66.402  1.00  0.00    -0.107 S  
HETATM    4  H1  UNL     1      -9.531   9.883  65.103  1.00  0.00     0.000 HD 
HETATM    5  O   UNL     1      -7.700  11.182  66.377  1.00  0.00    -0.152 OA 
HETATM    6  O   UNL     1      -6.623   8.900  66.348  1.00  0.00    -0.065 OA 
ENDROOT
BRANCH   3   7
HETATM    7  C   UNL     1      -8.785   9.259  67.780  1.00  0.00    -0.120 A  
HETATM    8  C   UNL     1     -10.045   9.813  68.002  1.00  0.00    -0.171 A  
HETATM    9 CL   UNL     1     -10.814  10.938  66.943  1.00  0.00    -0.319 Cl 
HETATM   10  C   UNL     1     -10.739   9.479  69.169  1.00  0.00    -0.228 A  
HETATM   11  C   UNL     1     -10.169   8.634  70.121  1.00  0.00    -0.204 A  
HETATM   12  C   UNL     1      -8.889   8.087  69.924  1.00  0.00    -0.144 A  
HETATM   13  C   UNL     1      -8.218   8.384  68.723  1.00  0.00    -0.119 A  
BRANCH  12  14
HETATM   14  C   UNL     1      -8.183   7.365  71.067  1.00  0.00    -0.110 C  
HETATM   15  O   UNL     1      -7.031   6.694  70.613  1.00  0.00    -0.061 OA 
HETATM   16  N   UNL     1      -7.755   8.225  72.127  1.00  0.00    -0.118 N  
HETATM   17  H   UNL     1      -6.591   6.245  71.325  1.00  0.00     0.000 HD 
HETATM   18  H   UNL     1      -7.032   8.937  72.023  1.00  0.00     0.000 HD 
HETATM   19  C   UNL     1      -8.426   7.983  73.302  1.00  0.00    -0.224 C  
HETATM   20  O   UNL     1      -8.352   8.630  74.329  1.00  0.00    -0.255 OA 
HETATM   21  C   UNL     1      -9.294   6.818  73.081  1.00  0.00    -0.153 A  
HETATM   22  C   UNL     1     -10.199   6.212  73.934  1.00  0.00    -0.289 A  
HETATM   23  C   UNL     1     -10.946   5.148  73.424  1.00  0.00    -0.381 A  
HETATM   24  C   UNL     1     -10.762   4.710  72.099  1.00  0.00    -0.111 A  
HETATM   25  C   UNL     1      -9.838   5.339  71.259  1.00  0.00    -0.232 A  
HETATM   26  C   UNL     1      -9.117   6.412  71.760  1.00  0.00    -0.143 A  
ENDBRANCH  12  14
ENDBRANCH   3   7
TORSDOF 2
ENDMDL
MODEL      197
REMARK 921   NORMALIZED FREE ENERGY PREDICTED BY IDOCK:   -3.45 KCAL/MOL
REMARK 922        TOTAL FREE ENERGY PREDICTED BY IDOCK:   -4.33 KCAL/MOL
REMARK 923 INTER-LIGAND FREE ENERGY PREDICTED BY IDOCK:   -3.75 KCAL/MOL
REMARK 924 INTRA-LIGAND FREE ENERGY PREDICTED BY IDOCK:   -0.58 KCAL/MOL
REMARK 927      BINDING AFFINITY PREDICTED BY RF-SCORE:    0.00 PKD
ROOT
HETATM    1  N   UNL     1      -7.466   3.366  71.975  1.00  0.00    -0.051 N  
HETATM    2  H2  UNL     1      -7.937   3.516  72.867  1.00  0.00     0.000 HD 
HETATM    3  S   UNL     1      -7.133   4.501  70.786  1.00  0.00    -0.042 S  
HETATM    4  H1  UNL     1      -7.092   2.492  71.607  1.00  0.00     0.000 HD 
HETATM    5  O   UNL     1      -5.740   4.357  70.443  1.00  0.00    -0.012 OA 
HETATM    6  O   UNL     1      -7.665   5.740  71.308  1.00  0.00    -0.104 OA 
ENDROOT
BRANCH   3   7
HETATM    7  C   UNL     1      -8.116   3.992  69.413  1.00  0.00    -0.055 A  
HETATM    8  C   UNL     1      -7.959   2.734  68.833  1.00  0.00    -0.052 A  
HETATM    9 CL   UNL     1      -6.883   1.519  69.420  1.00  0.00    -0.032 Cl 
HETATM   10  C   UNL     1      -8.683   2.422  67.678  1.00  0.00    -0.139 A  
HETATM   11  C   UNL     1      -9.524   3.365  67.088  1.00  0.00    -0.199 A  
HETATM   12  C   UNL     1      -9.675   4.646  67.646  1.00  0.00    -0.207 A  
HETATM   13  C   UNL     1      -8.985   4.936  68.838  1.00  0.00    -0.136 A  
BRANCH  12  14
HETATM   14  C   UNL     1     -10.402   5.737  66.868  1.00  0.00    -0.251 C  
HETATM   15  O   UNL     1     -11.307   5.186  65.940  1.00  0.00    -0.782 OA 
HETATM   16  N   UNL     1     -11.161   6.634  67.685  1.00  0.00    -0.637 N  
HETATM   17  H   UNL     1     -11.760   5.867  65.455  1.00  0.00     0.000 HD 
HETATM   18  H   UNL     1     -11.983   6.355  68.219  1.00  0.00     0.000 HD 
HETATM   19  C   UNL     1     -10.658   7.912  67.668  1.00  0.00    -0.206 C  
HETATM   20  O   UNL     1     -11.026   8.849  68.351  1.00  0.00    -0.046 OA 
HETATM   21  C   UNL     1      -9.552   7.937  66.701  1.00  0.00    -0.293 A  
HETATM   22  C   UNL     1      -8.697   8.970  66.358  1.00  0.00    -0.149 A  
HETATM   23  C   UNL     1      -7.680   8.682  65.445  1.00  0.00    -0.094 A  
HETATM   24  C   UNL     1      -7.553   7.394  64.891  1.00  0.00    -0.105 A  
HETATM   25  C   UNL     1      -8.432   6.369  65.255  1.00  0.00    -0.102 A  
HETATM   26  C   UNL     1      -9.424   6.651  66.181  1.00  0.00    -0.057 A  
ENDBRANCH  12  14
ENDBRANCH   3   7
TORSDOF 2
ENDMDL
MODEL      198
REMARK 921   NORMALIZED FREE ENERGY PREDICTED BY IDOCK:   -3.43 KCAL/MOL
REMARK 922        TOTAL FREE ENERGY PREDICTED BY IDOCK:   -4.31 KCAL/MOL
REMARK 923 INTER-LIGAND FREE ENERGY PREDICTED BY IDOCK:   -4.26 KCAL/MOL
REMARK 924 INTRA-LIGAND FREE ENERGY PREDICTED BY IDOCK:   -0.05 KCAL/MOL
REMARK 927      BINDING AFFINITY PREDICTED BY RF-SCORE:    0.00 PKD
ROOT
HETATM    1  N   UNL     1     -10.042  10.518  69.765  1.00  0.00    -0.419 N  
HETATM    2  H2  UNL     1     -10.313  11.184  69.042  1.00  0.00     0.000 HD 
HETATM    3  S   UNL     1      -8.758   9.441  69.738  1.00  0.00    -0.199 S  
HETATM    4  H1  UNL     1     -10.492  10.359  70.666  1.00  0.00     0.000 HD 
HETATM    5  O   UNL     1      -8.045   9.603  70.982  1.00  0.00    -0.287 OA 
HETATM    6  O   UNL     1      -8.120   9.667  68.460  1.00  0.00    -0.101 OA 
ENDROOT
BRANCH   3   7
HETATM    7  C   UNL     1      -9.525   7.853  69.721  1.00  0.00    -0.163 A  
HETATM    8  C   UNL     1     -10.320   7.418  70.780  1.00  0.00    -0.202 A  
HETATM    9 CL   UNL     1     -10.719   8.378  72.157  1.00  0.00    -0.382 Cl 
HETATM   10  C   UNL     1     -10.813   6.109  70.768  1.00  0.00    -0.350 A  
HETATM   11  C   UNL     1     -10.484   5.233  69.733  1.00  0.00    -0.340 A  
HETATM   12  C   UNL     1      -9.664   5.648  68.671  1.00  0.00    -0.175 A  
HETATM   13  C   UNL     1      -9.215   6.983  68.660  1.00  0.00    -0.131 A  
BRANCH  12  14
HETATM   14  C   UNL     1      -9.121   4.624  67.680  1.00  0.00    -0.118 C  
HETATM   15  O   UNL     1      -8.465   3.569  68.344  1.00  0.00    -0.083 OA 
HETATM   16  N   UNL     1     -10.120   4.019  66.855  1.00  0.00    -0.283 N  
HETATM   17  H   UNL     1      -8.127   2.931  67.726  1.00  0.00     0.000 HD 
HETATM   18  H   UNL     1     -10.854   3.406  67.210  1.00  0.00     0.000 HD 
HETATM   19  C   UNL     1      -9.982   4.357  65.530  1.00  0.00    -0.230 C  
HETATM   20  O   UNL     1     -10.748   4.085  64.625  1.00  0.00    -0.260 OA 
HETATM   21  C   UNL     1      -8.753   5.153  65.405  1.00  0.00    -0.149 A  
HETATM   22  C   UNL     1      -8.202   5.766  64.293  1.00  0.00    -0.106 A  
HETATM   23  C   UNL     1      -7.047   6.526  64.488  1.00  0.00    -0.060 A  
HETATM   24  C   UNL     1      -6.467   6.639  65.765  1.00  0.00    -0.046 A  
HETATM   25  C   UNL     1      -7.044   6.007  66.871  1.00  0.00    -0.070 A  
HETATM   26  C   UNL     1      -8.205   5.276  66.680  1.00  0.00    -0.108 A  
ENDBRANCH  12  14
ENDBRANCH   3   7
TORSDOF 2
ENDMDL
MODEL      199
REMARK 921   NORMALIZED FREE ENERGY PREDICTED BY IDOCK:   -3.38 KCAL/MOL
REMARK 922        TOTAL FREE ENERGY PREDICTED BY IDOCK:   -4.26 KCAL/MOL
REMARK 923 INTER-LIGAND FREE ENERGY PREDICTED BY IDOCK:   -3.86 KCAL/MOL
REMARK 924 INTRA-LIGAND FREE ENERGY PREDICTED BY IDOCK:   -0.40 KCAL/MOL
REMARK 927      BINDING AFFINITY PREDICTED BY RF-SCORE:    0.00 PKD
ROOT
HETATM    1  N   UNL     1      -8.315   4.731  68.457  1.00  0.00    -0.083 N  
HETATM    2  H2  UNL     1      -8.590   3.849  68.026  1.00  0.00     0.000 HD 
HETATM    3  S   UNL     1      -9.247   5.737  69.422  1.00  0.00    -0.127 S  
HETATM    4  H1  UNL     1      -7.410   5.199  68.397  1.00  0.00     0.000 HD 
HETATM    5  O   UNL     1      -8.467   6.035  70.598  1.00  0.00    -0.129 OA 
HETATM    6  O   UNL     1     -10.529   5.074  69.506  1.00  0.00    -0.223 OA 
ENDROOT
BRANCH   3   7
HETATM    7  C   UNL     1      -9.427   7.208  68.466  1.00  0.00    -0.139 A  
HETATM    8  C   UNL     1      -9.886   7.169  67.151  1.00  0.00    -0.181 A  
HETATM    9 CL   UNL     1     -10.406   5.735  66.343  1.00  0.00    -0.233 Cl 
HETATM   10  C   UNL     1      -9.905   8.349  66.401  1.00  0.00    -0.310 A  
HETATM   11  C   UNL     1      -9.436   9.546  66.944  1.00  0.00    -0.204 A  
HETATM   12  C   UNL     1      -8.947   9.597  68.260  1.00  0.00    -0.123 A  
HETATM   13  C   UNL     1      -8.981   8.418  69.028  1.00  0.00    -0.147 A  
BRANCH  12  14
HETATM   14  C   UNL     1      -8.222  10.843  68.758  1.00  0.00    -0.151 C  
HETATM   15  O   UNL     1      -8.021  10.795  70.151  1.00  0.00    -0.342 OA 
HETATM   16  N   UNL     1      -6.932  11.044  68.173  1.00  0.00    -0.067 N  
HETATM   17  H   UNL     1      -7.569  11.571  70.461  1.00  0.00     0.000 HD 
HETATM   18  H   UNL     1      -6.138  10.423  68.325  1.00  0.00     0.000 HD 
HETATM   19  C   UNL     1      -6.883  12.168  67.383  1.00  0.00    -0.147 C  
HETATM   20  O   UNL     1      -5.958  12.521  66.676  1.00  0.00    -0.095 OA 
HETATM   21  C   UNL     1      -8.178  12.851  67.510  1.00  0.00    -0.184 A  
HETATM   22  C   UNL     1      -8.643  13.993  66.882  1.00  0.00    -0.148 A  
HETATM   23  C   UNL     1      -9.959  14.378  67.146  1.00  0.00    -0.253 A  
HETATM   24  C   UNL     1     -10.762  13.635  68.032  1.00  0.00    -0.258 A  
HETATM   25  C   UNL     1     -10.266  12.485  68.654  1.00  0.00    -0.166 A  
HETATM   26  C   UNL     1      -8.967  12.091  68.369  1.00  0.00    -0.153 A  
ENDBRANCH  12  14
ENDBRANCH   3   7
TORSDOF 2
ENDMDL
MODEL      200
REMARK 921   NORMALIZED FREE ENERGY PREDICTED BY IDOCK:   -3.33 KCAL/MOL
REMARK 922        TOTAL FREE ENERGY PREDICTED BY IDOCK:   -4.20 KCAL/MOL
REMARK 923 INTER-LIGAND FREE ENERGY PREDICTED BY IDOCK:   -3.63 KCAL/MOL
REMARK 924 INTRA-LIGAND FREE ENERGY PREDICTED BY IDOCK:   -0.57 KCAL/MOL
REMARK 927      BINDING AFFINITY PREDICTED BY RF-SCORE:    0.00 PKD
ROOT
HETATM    1  N   UNL     1      -6.715   4.665  66.050  1.00  0.00    -0.052 N  
HETATM    2  H2  UNL     1      -6.562   3.998  65.294  1.00  0.00     0.000 HD 
HETATM    3  S   UNL     1      -7.325   4.358  67.581  1.00  0.00    -0.069 S  
HETATM    4  H1  UNL     1      -6.530   5.668  66.043  1.00  0.00     0.000 HD 
HETATM    5  O   UNL     1      -6.423   4.970  68.526  1.00  0.00    -0.035 OA 
HETATM    6  O   UNL     1      -7.587   2.936  67.590  1.00  0.00    -0.057 OA 
ENDROOT
BRANCH   3   7
HETATM    7  C   UNL     1      -8.863   5.222  67.616  1.00  0.00    -0.105 A  
HETATM    8  C   UNL     1      -9.862   4.965  66.679  1.00  0.00    -0.204 A  
HETATM    9 CL   UNL     1      -9.765   3.747  65.460  1.00  0.00    -0.172 Cl 
HETATM   10  C   UNL     1     -11.017   5.755  66.681  1.00  0.00    -0.208 A  
HETATM   11  C   UNL     1     -11.155   6.811  67.582  1.00  0.00    -0.309 A  
HETATM   12  C   UNL     1     -10.146   7.099  68.517  1.00  0.00    -0.177 A  
HETATM   13  C   UNL     1      -9.011   6.267  68.545  1.00  0.00    -0.123 A  
BRANCH  12  14
HETATM   14  C   UNL     1     -10.201   8.389  69.327  1.00  0.00    -0.208 C  
HETATM   15  O   UNL     1     -11.457   9.016  69.206  1.00  0.00    -0.387 OA 
HETATM   16  N   UNL     1      -9.976   8.212  70.729  1.00  0.00    -0.187 N  
HETATM   17  H   UNL     1     -11.491   9.820  69.711  1.00  0.00     0.000 HD 
HETATM   18  H   UNL     1     -10.609   7.703  71.345  1.00  0.00     0.000 HD 
HETATM   19  C   UNL     1      -8.810   8.804  71.152  1.00  0.00    -0.219 C  
HETATM   20  O   UNL     1      -8.309   8.719  72.256  1.00  0.00    -0.367 OA 
HETATM   21  C   UNL     1      -8.244   9.528  70.005  1.00  0.00    -0.181 A  
HETATM   22  C   UNL     1      -7.063  10.242  69.903  1.00  0.00    -0.152 A  
HETATM   23  C   UNL     1      -6.743  10.775  68.652  1.00  0.00    -0.058 A  
HETATM   24  C   UNL     1      -7.607  10.601  67.554  1.00  0.00    -0.093 A  
HETATM   25  C   UNL     1      -8.795   9.876  67.686  1.00  0.00    -0.126 A  
HETATM   26  C   UNL     1      -9.097   9.326  68.922  1.00  0.00    -0.139 A  
ENDBRANCH  12  14
ENDBRANCH   3   7
TORSDOF 2
ENDMDL
MODEL      201
REMARK 921   NORMALIZED FREE ENERGY PREDICTED BY IDOCK:   -3.33 KCAL/MOL
REMARK 922        TOTAL FREE ENERGY PREDICTED BY IDOCK:   -4.20 KCAL/MOL
REMARK 923 INTER-LIGAND FREE ENERGY PREDICTED BY IDOCK:   -3.94 KCAL/MOL
REMARK 924 INTRA-LIGAND FREE ENERGY PREDICTED BY IDOCK:   -0.26 KCAL/MOL
REMARK 927      BINDING AFFINITY PREDICTED BY RF-SCORE:    0.00 PKD
ROOT
HETATM    1  N   UNL     1     -10.900   5.117  72.344  1.00  0.00    -0.221 N  
HETATM    2  H2  UNL     1     -10.923   5.436  73.312  1.00  0.00     0.000 HD 
HETATM    3  S   UNL     1      -9.570   4.599  71.465  1.00  0.00    -0.172 S  
HETATM    4  H1  UNL     1     -11.682   5.042  71.694  1.00  0.00     0.000 HD 
HETATM    5  O   UNL     1      -9.930   3.344  70.854  1.00  0.00    -0.115 OA 
HETATM    6  O   UNL     1      -8.461   4.706  72.387  1.00  0.00    -0.112 OA 
ENDROOT
BRANCH   3   7
HETATM    7  C   UNL     1      -9.382   5.818  70.204  1.00  0.00    -0.155 A  
HETATM    8  C   UNL     1      -8.973   5.474  68.916  1.00  0.00    -0.114 A  
HETATM    9 CL   UNL     1      -8.694   3.857  68.382  1.00  0.00    -0.117 Cl 
HETATM   10  C   UNL     1      -8.732   6.490  67.985  1.00  0.00    -0.116 A  
HETATM   11  C   UNL     1      -8.860   7.832  68.345  1.00  0.00    -0.130 A  
HETATM   12  C   UNL     1      -9.248   8.195  69.645  1.00  0.00    -0.155 A  
HETATM   13  C   UNL     1      -9.541   7.168  70.562  1.00  0.00    -0.169 A  
BRANCH  12  14
HETATM   14  C   UNL     1      -9.153   9.650  70.092  1.00  0.00    -0.240 C  
HETATM   15  O   UNL     1      -9.532   9.796  71.441  1.00  0.00    -0.223 OA 
HETATM   16  N   UNL     1      -7.842  10.214  69.981  1.00  0.00    -0.287 N  
HETATM   17  H   UNL     1      -9.473  10.703  71.719  1.00  0.00     0.000 HD 
HETATM   18  H   UNL     1      -7.044   9.907  70.536  1.00  0.00     0.000 HD 
HETATM   19  C   UNL     1      -7.780  11.215  69.041  1.00  0.00    -0.114 C  
HETATM   20  O   UNL     1      -6.780  11.789  68.655  1.00  0.00    -0.062 OA 
HETATM   21  C   UNL     1      -9.145  11.439  68.546  1.00  0.00    -0.169 A  
HETATM   22  C   UNL     1      -9.602  12.301  67.565  1.00  0.00    -0.184 A  
HETATM   23  C   UNL     1     -10.962  12.250  67.251  1.00  0.00    -0.301 A  
HETATM   24  C   UNL     1     -11.824  11.366  67.926  1.00  0.00    -0.239 A  
HETATM   25  C   UNL     1     -11.335  10.506  68.915  1.00  0.00    -0.313 A  
HETATM   26  C   UNL     1      -9.980  10.540  69.206  1.00  0.00    -0.233 A  
ENDBRANCH  12  14
ENDBRANCH   3   7
TORSDOF 2
ENDMDL
MODEL      202
REMARK 921   NORMALIZED FREE ENERGY PREDICTED BY IDOCK:   -3.32 KCAL/MOL
REMARK 922        TOTAL FREE ENERGY PREDICTED BY IDOCK:   -4.18 KCAL/MOL
REMARK 923 INTER-LIGAND FREE ENERGY PREDICTED BY IDOCK:   -3.68 KCAL/MOL
REMARK 924 INTRA-LIGAND FREE ENERGY PREDICTED BY IDOCK:   -0.50 KCAL/MOL
REMARK 927      BINDING AFFINITY PREDICTED BY RF-SCORE:    0.00 PKD
ROOT
HETATM    1  N   UNL     1     -10.583   4.080  73.466  1.00  0.00    -0.181 N  
HETATM    2  H2  UNL     1     -11.352   3.477  73.176  1.00  0.00     0.000 HD 
HETATM    3  S   UNL     1     -10.380   5.712  73.142  1.00  0.00    -0.218 S  
HETATM    4  H1  UNL     1      -9.765   3.824  74.019  1.00  0.00     0.000 HD 
HETATM    5  O   UNL     1     -10.080   6.358  74.396  1.00  0.00    -0.310 OA 
HETATM    6  O   UNL     1     -11.540   6.074  72.358  1.00  0.00    -0.301 OA 
ENDROOT
BRANCH   3   7
HETATM    7  C   UNL     1      -8.951   5.774  72.110  1.00  0.00    -0.136 A  
HETATM    8  C   UNL     1      -7.665   5.689  72.642  1.00  0.00    -0.102 A  
HETATM    9 CL   UNL     1      -7.318   5.428  74.312  1.00  0.00    -0.086 Cl 
HETATM   10  C   UNL     1      -6.565   5.856  71.795  1.00  0.00    -0.054 A  
HETATM   11  C   UNL     1      -6.745   6.143  70.441  1.00  0.00    -0.053 A  
HETATM   12  C   UNL     1      -8.035   6.257  69.894  1.00  0.00    -0.115 A  
HETATM   13  C   UNL     1      -9.137   6.034  70.741  1.00  0.00    -0.161 A  
BRANCH  12  14
HETATM   14  C   UNL     1      -8.220   6.801  68.482  1.00  0.00    -0.120 C  
HETATM   15  O   UNL     1      -7.029   6.702  67.736  1.00  0.00    -0.077 OA 
HETATM   16  N   UNL     1      -9.227   6.128  67.721  1.00  0.00    -0.113 N  
HETATM   17  H   UNL     1      -7.144   7.041  66.856  1.00  0.00     0.000 HD 
HETATM   18  H   UNL     1      -9.157   5.156  67.423  1.00  0.00     0.000 HD 
HETATM   19  C   UNL     1     -10.299   6.940  67.436  1.00  0.00    -0.231 C  
HETATM   20  O   UNL     1     -11.343   6.609  66.908  1.00  0.00    -0.333 OA 
HETATM   21  C   UNL     1      -9.975   8.286  67.930  1.00  0.00    -0.227 A  
HETATM   22  C   UNL     1     -10.740   9.439  67.927  1.00  0.00    -0.269 A  
HETATM   23  C   UNL     1     -10.193  10.571  68.536  1.00  0.00    -0.190 A  
HETATM   24  C   UNL     1      -8.908  10.530  69.107  1.00  0.00    -0.161 A  
HETATM   25  C   UNL     1      -8.156   9.351  69.094  1.00  0.00    -0.107 A  
HETATM   26  C   UNL     1      -8.712   8.222  68.513  1.00  0.00    -0.133 A  
ENDBRANCH  12  14
ENDBRANCH   3   7
TORSDOF 2
ENDMDL
MODEL      203
REMARK 921   NORMALIZED FREE ENERGY PREDICTED BY IDOCK:   -3.30 KCAL/MOL
REMARK 922        TOTAL FREE ENERGY PREDICTED BY IDOCK:   -4.17 KCAL/MOL
REMARK 923 INTER-LIGAND FREE ENERGY PREDICTED BY IDOCK:   -3.73 KCAL/MOL
REMARK 924 INTRA-LIGAND FREE ENERGY PREDICTED BY IDOCK:   -0.44 KCAL/MOL
REMARK 927      BINDING AFFINITY PREDICTED BY RF-SCORE:    0.00 PKD
ROOT
HETATM    1  N   UNL     1     -10.877  10.972  66.877  1.00  0.00    -0.276 N  
HETATM    2  H2  UNL     1     -10.446  10.054  66.987  1.00  0.00     0.000 HD 
HETATM    3  S   UNL     1     -10.311  12.270  65.979  1.00  0.00    -0.253 S  
HETATM    4  H1  UNL     1     -11.748  11.304  67.288  1.00  0.00     0.000 HD 
HETATM    5  O   UNL     1     -11.408  12.729  65.164  1.00  0.00    -0.297 OA 
HETATM    6  O   UNL     1      -9.075  11.797  65.396  1.00  0.00    -0.089 OA 
ENDROOT
BRANCH   3   7
HETATM    7  C   UNL     1      -9.938  13.501  67.185  1.00  0.00    -0.246 A  
HETATM    8  C   UNL     1     -10.945  14.242  67.803  1.00  0.00    -0.264 A  
HETATM    9 CL   UNL     1     -12.634  13.995  67.544  1.00  0.00     0.118 Cl 
HETATM   10  C   UNL     1     -10.592  15.282  68.668  1.00  0.00    -0.236 A  
HETATM   11  C   UNL     1      -9.252  15.605  68.884  1.00  0.00    -0.226 A  
HETATM   12  C   UNL     1      -8.226  14.885  68.250  1.00  0.00    -0.145 A  
HETATM   13  C   UNL     1      -8.586  13.804  67.423  1.00  0.00    -0.208 A  
BRANCH  12  14
HETATM   14  C   UNL     1      -6.789  15.393  68.305  1.00  0.00    -0.117 C  
HETATM   15  O   UNL     1      -6.034  14.909  67.219  1.00  0.00    -0.312 OA 
HETATM   16  N   UNL     1      -6.670  16.819  68.272  1.00  0.00    -0.150 N  
HETATM   17  H   UNL     1      -5.139  15.226  67.253  1.00  0.00     0.000 HD 
HETATM   18  H   UNL     1      -6.927  17.391  67.468  1.00  0.00     0.000 HD 
HETATM   19  C   UNL     1      -6.170  17.330  69.445  1.00  0.00    -0.245 C  
HETATM   20  O   UNL     1      -6.069  18.505  69.743  1.00  0.00    -0.256 OA 
HETATM   21  C   UNL     1      -5.817  16.193  70.306  1.00  0.00    -0.117 A  
HETATM   22  C   UNL     1      -5.323  16.178  71.598  1.00  0.00     0.235 A  
HETATM   23  C   UNL     1      -5.143  14.931  72.201  1.00  0.00    -0.146 A  
HETATM   24  C   UNL     1      -5.439  13.746  71.503  1.00  0.00    -0.222 A  
HETATM   25  C   UNL     1      -5.936  13.789  70.197  1.00  0.00    -0.151 A  
HETATM   26  C   UNL     1      -6.138  15.029  69.611  1.00  0.00    -0.126 A  
ENDBRANCH  12  14
ENDBRANCH   3   7
TORSDOF 2
ENDMDL
MODEL      204
REMARK 921   NORMALIZED FREE ENERGY PREDICTED BY IDOCK:   -3.28 KCAL/MOL
REMARK 922        TOTAL FREE ENERGY PREDICTED BY IDOCK:   -4.14 KCAL/MOL
REMARK 923 INTER-LIGAND FREE ENERGY PREDICTED BY IDOCK:   -3.82 KCAL/MOL
REMARK 924 INTRA-LIGAND FREE ENERGY PREDICTED BY IDOCK:   -0.32 KCAL/MOL
REMARK 927      BINDING AFFINITY PREDICTED BY RF-SCORE:    0.00 PKD
ROOT
HETATM    1  N   UNL     1     -10.042  10.554  69.741  1.00  0.00    -0.419 N  
HETATM    2  H2  UNL     1     -10.247  11.398  69.206  1.00  0.00     0.000 HD 
HETATM    3  S   UNL     1      -8.853   9.411  69.442  1.00  0.00    -0.170 S  
HETATM    4  H1  UNL     1     -10.517  10.218  70.579  1.00  0.00     0.000 HD 
HETATM    5  O   UNL     1      -8.147   9.203  70.681  1.00  0.00    -0.139 OA 
HETATM    6  O   UNL     1      -8.181   9.889  68.254  1.00  0.00    -0.107 OA 
ENDROOT
BRANCH   3   7
HETATM    7  C   UNL     1      -9.750   7.947  69.040  1.00  0.00    -0.162 A  
HETATM    8  C   UNL     1     -10.597   7.337  69.964  1.00  0.00    -0.233 A  
HETATM    9 CL   UNL     1     -10.937   7.963  71.536  1.00  0.00    -0.258 Cl 
HETATM   10  C   UNL     1     -11.197   6.117  69.635  1.00  0.00    -0.488 A  
HETATM   11  C   UNL     1     -10.926   5.495  68.416  1.00  0.00     0.097 A  
HETATM   12  C   UNL     1     -10.056   6.085  67.484  1.00  0.00    -0.190 A  
HETATM   13  C   UNL     1      -9.497   7.339  67.798  1.00  0.00    -0.143 A  
BRANCH  12  14
HETATM   14  C   UNL     1      -9.584   5.292  66.270  1.00  0.00    -0.161 C  
HETATM   15  O   UNL     1     -10.670   4.893  65.467  1.00  0.00    -0.503 OA 
HETATM   16  N   UNL     1      -8.692   6.008  65.411  1.00  0.00    -0.275 N  
HETATM   17  H   UNL     1     -10.377   4.398  64.711  1.00  0.00     0.000 HD 
HETATM   18  H   UNL     1      -8.963   6.829  64.870  1.00  0.00     0.000 HD 
HETATM   19  C   UNL     1      -7.429   5.466  65.397  1.00  0.00    -0.077 C  
HETATM   20  O   UNL     1      -6.445   5.928  64.853  1.00  0.00    -0.036 OA 
HETATM   21  C   UNL     1      -7.468   4.239  66.205  1.00  0.00    -0.085 A  
HETATM   22  C   UNL     1      -6.450   3.363  66.537  1.00  0.00    -0.040 A  
HETATM   23  C   UNL     1      -6.769   2.304  67.389  1.00  0.00    -0.039 A  
HETATM   24  C   UNL     1      -8.082   2.136  67.868  1.00  0.00    -0.066 A  
HETATM   25  C   UNL     1      -9.092   3.035  67.515  1.00  0.00    -0.213 A  
HETATM   26  C   UNL     1      -8.767   4.101  66.690  1.00  0.00    -0.114 A  
ENDBRANCH  12  14
ENDBRANCH   3   7
TORSDOF 2
ENDMDL
MODEL      205
REMARK 921   NORMALIZED FREE ENERGY PREDICTED BY IDOCK:   -3.25 KCAL/MOL
REMARK 922        TOTAL FREE ENERGY PREDICTED BY IDOCK:   -4.10 KCAL/MOL
REMARK 923 INTER-LIGAND FREE ENERGY PREDICTED BY IDOCK:   -3.65 KCAL/MOL
REMARK 924 INTRA-LIGAND FREE ENERGY PREDICTED BY IDOCK:   -0.45 KCAL/MOL
REMARK 927      BINDING AFFINITY PREDICTED BY RF-SCORE:    0.00 PKD
ROOT
HETATM    1  N   UNL     1      -7.087   8.541  65.876  1.00  0.00    -0.075 N  
HETATM    2  H2  UNL     1      -6.278   9.137  66.047  1.00  0.00     0.000 HD 
HETATM    3  S   UNL     1      -8.446   8.352  66.840  1.00  0.00    -0.119 S  
HETATM    4  H1  UNL     1      -7.250   7.926  65.079  1.00  0.00     0.000 HD 
HETATM    5  O   UNL     1      -9.596   8.509  65.984  1.00  0.00    -0.227 OA 
HETATM    6  O   UNL     1      -8.213   9.224  67.970  1.00  0.00    -0.114 OA 
ENDROOT
BRANCH   3   7
HETATM    7  C   UNL     1      -8.361   6.677  67.385  1.00  0.00    -0.121 A  
HETATM    8  C   UNL     1      -8.354   5.618  66.479  1.00  0.00    -0.110 A  
HETATM    9 CL   UNL     1      -8.334   5.803  64.764  1.00  0.00    -0.134 Cl 
HETATM   10  C   UNL     1      -8.400   4.307  66.965  1.00  0.00    -0.101 A  
HETATM   11  C   UNL     1      -8.491   4.057  68.334  1.00  0.00    -0.106 A  
HETATM   12  C   UNL     1      -8.524   5.114  69.259  1.00  0.00    -0.093 A  
HETATM   13  C   UNL     1      -8.423   6.430  68.768  1.00  0.00    -0.121 A  
BRANCH  12  14
HETATM   14  C   UNL     1      -8.862   4.840  70.721  1.00  0.00    -0.121 C  
HETATM   15  O   UNL     1      -9.336   3.526  70.897  1.00  0.00    -0.119 OA 
HETATM   16  N   UNL     1      -7.756   4.991  71.616  1.00  0.00    -0.103 N  
HETATM   17  H   UNL     1      -9.547   3.355  71.808  1.00  0.00     0.000 HD 
HETATM   18  H   UNL     1      -6.934   4.388  71.609  1.00  0.00     0.000 HD 
HETATM   19  C   UNL     1      -7.927   6.040  72.487  1.00  0.00    -0.105 C  
HETATM   20  O   UNL     1      -7.108   6.472  73.277  1.00  0.00    -0.077 OA 
HETATM   21  C   UNL     1      -9.273   6.586  72.262  1.00  0.00    -0.138 A  
HETATM   22  C   UNL     1      -9.900   7.670  72.849  1.00  0.00    -0.299 A  
HETATM   23  C   UNL     1     -11.174   8.002  72.382  1.00  0.00    -0.432 A  
HETATM   24  C   UNL     1     -11.789   7.244  71.368  1.00  0.00    -0.338 A  
HETATM   25  C   UNL     1     -11.132   6.152  70.793  1.00  0.00    -0.375 A  
HETATM   26  C   UNL     1      -9.858   5.841  71.240  1.00  0.00    -0.223 A  
ENDBRANCH  12  14
ENDBRANCH   3   7
TORSDOF 2
ENDMDL
MODEL      206
REMARK 921   NORMALIZED FREE ENERGY PREDICTED BY IDOCK:   -3.18 KCAL/MOL
REMARK 922        TOTAL FREE ENERGY PREDICTED BY IDOCK:   -4.03 KCAL/MOL
REMARK 923 INTER-LIGAND FREE ENERGY PREDICTED BY IDOCK:   -3.47 KCAL/MOL
REMARK 924 INTRA-LIGAND FREE ENERGY PREDICTED BY IDOCK:   -0.56 KCAL/MOL
REMARK 927      BINDING AFFINITY PREDICTED BY RF-SCORE:    0.00 PKD
ROOT
HETATM    1  N   UNL     1     -10.139   4.451  67.823  1.00  0.00    -0.029 N  
HETATM    2  H2  UNL     1     -10.993   4.003  67.491  1.00  0.00     0.000 HD 
HETATM    3  S   UNL     1      -9.868   6.087  68.074  1.00  0.00    -0.132 S  
HETATM    4  H1  UNL     1      -9.258   4.003  68.077  1.00  0.00     0.000 HD 
HETATM    5  O   UNL     1      -9.300   6.223  69.393  1.00  0.00    -0.140 OA 
HETATM    6  O   UNL     1     -11.117   6.721  67.714  1.00  0.00    -0.255 OA 
ENDROOT
BRANCH   3   7
HETATM    7  C   UNL     1      -8.645   6.513  66.877  1.00  0.00    -0.114 A  
HETATM    8  C   UNL     1      -7.432   5.831  66.803  1.00  0.00    -0.084 A  
HETATM    9 CL   UNL     1      -7.019   4.469  67.779  1.00  0.00    -0.059 Cl 
HETATM   10  C   UNL     1      -6.452   6.280  65.911  1.00  0.00    -0.046 A  
HETATM   11  C   UNL     1      -6.666   7.417  65.131  1.00  0.00    -0.044 A  
HETATM   12  C   UNL     1      -7.874   8.130  65.212  1.00  0.00    -0.115 A  
HETATM   13  C   UNL     1      -8.877   7.642  66.071  1.00  0.00    -0.186 A  
BRANCH  12  14
HETATM   14  C   UNL     1      -8.003   9.493  64.541  1.00  0.00    -0.133 C  
HETATM   15  O   UNL     1      -7.007   9.676  63.562  1.00  0.00    -0.101 OA 
HETATM   16  N   UNL     1      -9.255   9.707  63.883  1.00  0.00    -0.410 N  
HETATM   17  H   UNL     1      -7.087  10.525  63.143  1.00  0.00     0.000 HD 
HETATM   18  H   UNL     1      -9.562   9.184  63.063  1.00  0.00     0.000 HD 
HETATM   19  C   UNL     1      -9.999  10.696  64.481  1.00  0.00    -0.345 C  
HETATM   20  O   UNL     1     -11.142  11.011  64.211  1.00  0.00    -0.242 OA 
HETATM   21  C   UNL     1      -9.176  11.281  65.548  1.00  0.00    -0.220 A  
HETATM   22  C   UNL     1      -9.485  12.270  66.465  1.00  0.00    -0.238 A  
HETATM   23  C   UNL     1      -8.517  12.581  67.422  1.00  0.00    -0.181 A  
HETATM   24  C   UNL     1      -7.274  11.920  67.429  1.00  0.00    -0.142 A  
HETATM   25  C   UNL     1      -6.988  10.925  66.490  1.00  0.00    -0.139 A  
HETATM   26  C   UNL     1      -7.961  10.600  65.558  1.00  0.00    -0.116 A  
ENDBRANCH  12  14
ENDBRANCH   3   7
TORSDOF 2
ENDMDL
MODEL      207
REMARK 921   NORMALIZED FREE ENERGY PREDICTED BY IDOCK:   -3.17 KCAL/MOL
REMARK 922        TOTAL FREE ENERGY PREDICTED BY IDOCK:   -4.02 KCAL/MOL
REMARK 923 INTER-LIGAND FREE ENERGY PREDICTED BY IDOCK:   -3.61 KCAL/MOL
REMARK 924 INTRA-LIGAND FREE ENERGY PREDICTED BY IDOCK:   -0.41 KCAL/MOL
REMARK 927      BINDING AFFINITY PREDICTED BY RF-SCORE:    0.00 PKD
ROOT
HETATM    1  N   UNL     1      -9.437   3.853  66.584  1.00  0.00    -0.191 N  
HETATM    2  H2  UNL     1      -9.644   2.903  66.277  1.00  0.00     0.000 HD 
HETATM    3  S   UNL     1      -8.082   4.392  67.411  1.00  0.00    -0.100 S  
HETATM    4  H1  UNL     1     -10.009   4.688  66.455  1.00  0.00     0.000 HD 
HETATM    5  O   UNL     1      -7.588   5.548  66.703  1.00  0.00    -0.086 OA 
HETATM    6  O   UNL     1      -7.272   3.208  67.593  1.00  0.00    -0.053 OA 
ENDROOT
BRANCH   3   7
HETATM    7  C   UNL     1      -8.706   4.904  68.979  1.00  0.00    -0.088 A  
HETATM    8  C   UNL     1      -9.374   4.015  69.820  1.00  0.00    -0.172 A  
HETATM    9 CL   UNL     1      -9.589   2.335  69.489  1.00  0.00    -0.104 Cl 
HETATM   10  C   UNL     1      -9.946   4.497  71.002  1.00  0.00    -0.257 A  
HETATM   11  C   UNL     1      -9.888   5.854  71.321  1.00  0.00    -0.215 A  
HETATM   12  C   UNL     1      -9.240   6.766  70.471  1.00  0.00    -0.156 A  
HETATM   13  C   UNL     1      -8.618   6.267  69.311  1.00  0.00    -0.124 A  
BRANCH  12  14
HETATM   14  C   UNL     1      -9.387   8.266  70.706  1.00  0.00    -0.161 C  
HETATM   15  O   UNL     1     -10.429   8.541  71.613  1.00  0.00    -0.229 OA 
HETATM   16  N   UNL     1      -8.217   8.894  71.237  1.00  0.00    -0.169 N  
HETATM   17  H   UNL     1     -10.521   9.475  71.759  1.00  0.00     0.000 HD 
HETATM   18  H   UNL     1      -7.843   8.703  72.167  1.00  0.00     0.000 HD 
HETATM   19  C   UNL     1      -7.652   9.783  70.355  1.00  0.00    -0.148 C  
HETATM   20  O   UNL     1      -6.596  10.372  70.489  1.00  0.00    -0.231 OA 
HETATM   21  C   UNL     1      -8.537   9.863  69.184  1.00  0.00    -0.157 A  
HETATM   22  C   UNL     1      -8.390  10.578  68.009  1.00  0.00    -0.116 A  
HETATM   23  C   UNL     1      -9.369  10.406  67.028  1.00  0.00    -0.176 A  
HETATM   24  C   UNL     1     -10.466   9.552  67.249  1.00  0.00    -0.328 A  
HETATM   25  C   UNL     1     -10.591   8.843  68.448  1.00  0.00    -0.190 A  
HETATM   26  C   UNL     1      -9.603   8.995  69.409  1.00  0.00    -0.160 A  
ENDBRANCH  12  14
ENDBRANCH   3   7
TORSDOF 2
ENDMDL
MODEL      208
REMARK 921   NORMALIZED FREE ENERGY PREDICTED BY IDOCK:   -3.16 KCAL/MOL
REMARK 922        TOTAL FREE ENERGY PREDICTED BY IDOCK:   -4.01 KCAL/MOL
REMARK 923 INTER-LIGAND FREE ENERGY PREDICTED BY IDOCK:   -3.68 KCAL/MOL
REMARK 924 INTRA-LIGAND FREE ENERGY PREDICTED BY IDOCK:   -0.33 KCAL/MOL
REMARK 927      BINDING AFFINITY PREDICTED BY RF-SCORE:    0.00 PKD
ROOT
HETATM    1  N   UNL     1     -13.866   9.544  70.355  1.00  0.00    -0.082 N  
HETATM    2  H2  UNL     1     -14.680  10.126  70.158  1.00  0.00     0.000 HD 
HETATM    3  S   UNL     1     -12.427  10.005  71.082  1.00  0.00    -0.411 S  
HETATM    4  H1  UNL     1     -13.745   8.552  70.152  1.00  0.00     0.000 HD 
HETATM    5  O   UNL     1     -12.155   9.046  72.124  1.00  0.00    -0.363 OA 
HETATM    6  O   UNL     1     -12.599  11.412  71.368  1.00  0.00    -0.372 OA 
ENDROOT
BRANCH   3   7
HETATM    7  C   UNL     1     -11.220   9.825  69.808  1.00  0.00    -0.202 A  
HETATM    8  C   UNL     1     -11.129  10.738  68.759  1.00  0.00    -0.259 A  
HETATM    9 CL   UNL     1     -12.090  12.165  68.623  1.00  0.00    -0.264 Cl 
HETATM   10  C   UNL     1     -10.231  10.489  67.716  1.00  0.00    -0.223 A  
HETATM   11  C   UNL     1      -9.462   9.324  67.701  1.00  0.00    -0.156 A  
HETATM   12  C   UNL     1      -9.560   8.382  68.739  1.00  0.00    -0.150 A  
HETATM   13  C   UNL     1     -10.426   8.665  69.812  1.00  0.00    -0.220 A  
BRANCH  12  14
HETATM   14  C   UNL     1      -8.901   7.015  68.594  1.00  0.00    -0.128 C  
HETATM   15  O   UNL     1      -8.952   6.293  69.802  1.00  0.00    -0.138 OA 
HETATM   16  N   UNL     1      -9.500   6.177  67.601  1.00  0.00    -0.112 N  
HETATM   17  H   UNL     1      -8.541   5.441  69.712  1.00  0.00     0.000 HD 
HETATM   18  H   UNL     1     -10.446   5.803  67.670  1.00  0.00     0.000 HD 
HETATM   19  C   UNL     1      -8.657   5.933  66.543  1.00  0.00    -0.123 C  
HETATM   20  O   UNL     1      -8.934   5.354  65.510  1.00  0.00    -0.159 OA 
HETATM   21  C   UNL     1      -7.359   6.543  66.865  1.00  0.00    -0.079 A  
HETATM   22  C   UNL     1      -6.202   6.615  66.110  1.00  0.00    -0.041 A  
HETATM   23  C   UNL     1      -5.129   7.327  66.650  1.00  0.00    -0.022 A  
HETATM   24  C   UNL     1      -5.228   7.925  67.920  1.00  0.00    -0.032 A  
HETATM   25  C   UNL     1      -6.410   7.834  68.663  1.00  0.00    -0.044 A  
HETATM   26  C   UNL     1      -7.482   7.150  68.113  1.00  0.00    -0.099 A  
ENDBRANCH  12  14
ENDBRANCH   3   7
TORSDOF 2
ENDMDL
MODEL      209
REMARK 921   NORMALIZED FREE ENERGY PREDICTED BY IDOCK:   -3.14 KCAL/MOL
REMARK 922        TOTAL FREE ENERGY PREDICTED BY IDOCK:   -3.99 KCAL/MOL
REMARK 923 INTER-LIGAND FREE ENERGY PREDICTED BY IDOCK:   -4.19 KCAL/MOL
REMARK 924 INTRA-LIGAND FREE ENERGY PREDICTED BY IDOCK:    0.21 KCAL/MOL
REMARK 927      BINDING AFFINITY PREDICTED BY RF-SCORE:    0.00 PKD
ROOT
HETATM    1  N   UNL     1      -7.444  10.538  63.579  1.00  0.00    -0.341 N  
HETATM    2  H2  UNL     1      -7.201  11.389  63.074  1.00  0.00     0.000 HD 
HETATM    3  S   UNL     1      -8.877   9.670  63.498  1.00  0.00    -0.213 S  
HETATM    4  H1  UNL     1      -6.870  10.024  64.247  1.00  0.00     0.000 HD 
HETATM    5  O   UNL     1      -8.522   8.288  63.288  1.00  0.00    -0.092 OA 
HETATM    6  O   UNL     1      -9.691  10.400  62.551  1.00  0.00    -0.267 OA 
ENDROOT
BRANCH   3   7
HETATM    7  C   UNL     1      -9.580   9.842  65.106  1.00  0.00    -0.300 A  
HETATM    8  C   UNL     1     -10.356  10.949  65.446  1.00  0.00    -0.261 A  
HETATM    9 CL   UNL     1     -10.792  12.207  64.347  1.00  0.00    -0.347 Cl 
HETATM   10  C   UNL     1     -10.796  11.093  66.765  1.00  0.00    -0.322 A  
HETATM   11  C   UNL     1     -10.434  10.166  67.742  1.00  0.00    -0.277 A  
HETATM   12  C   UNL     1      -9.632   9.058  67.422  1.00  0.00    -0.195 A  
HETATM   13  C   UNL     1      -9.237   8.889  66.081  1.00  0.00    -0.273 A  
BRANCH  12  14
HETATM   14  C   UNL     1      -9.049   8.190  68.533  1.00  0.00    -0.136 C  
HETATM   15  O   UNL     1      -8.431   8.977  69.524  1.00  0.00    -0.117 OA 
HETATM   16  N   UNL     1     -10.013   7.377  69.209  1.00  0.00    -0.169 N  
HETATM   17  H   UNL     1      -8.068   8.436  70.216  1.00  0.00     0.000 HD 
HETATM   18  H   UNL     1     -10.765   7.752  69.786  1.00  0.00     0.000 HD 
HETATM   19  C   UNL     1      -9.811   6.035  68.993  1.00  0.00    -0.148 C  
HETATM   20  O   UNL     1     -10.535   5.124  69.345  1.00  0.00    -0.230 OA 
HETATM   21  C   UNL     1      -8.573   5.896  68.213  1.00  0.00    -0.113 A  
HETATM   22  C   UNL     1      -7.968   4.760  67.705  1.00  0.00    -0.094 A  
HETATM   23  C   UNL     1      -6.819   4.939  66.932  1.00  0.00    -0.056 A  
HETATM   24  C   UNL     1      -6.298   6.227  66.704  1.00  0.00    -0.041 A  
HETATM   25  C   UNL     1      -6.929   7.357  67.231  1.00  0.00    -0.083 A  
HETATM   26  C   UNL     1      -8.084   7.179  67.976  1.00  0.00    -0.120 A  
ENDBRANCH  12  14
ENDBRANCH   3   7
TORSDOF 2
ENDMDL
MODEL      210
REMARK 921   NORMALIZED FREE ENERGY PREDICTED BY IDOCK:   -3.14 KCAL/MOL
REMARK 922        TOTAL FREE ENERGY PREDICTED BY IDOCK:   -3.99 KCAL/MOL
REMARK 923 INTER-LIGAND FREE ENERGY PREDICTED BY IDOCK:   -3.82 KCAL/MOL
REMARK 924 INTRA-LIGAND FREE ENERGY PREDICTED BY IDOCK:   -0.17 KCAL/MOL
REMARK 927      BINDING AFFINITY PREDICTED BY RF-SCORE:    0.00 PKD
ROOT
HETATM    1  N   UNL     1      -7.340   9.701  63.966  1.00  0.00    -0.116 N  
HETATM    2  H2  UNL     1      -7.314  10.108  63.031  1.00  0.00     0.000 HD 
HETATM    3  S   UNL     1      -8.446  10.007  65.188  1.00  0.00    -0.163 S  
HETATM    4  H1  UNL     1      -6.699   9.016  64.365  1.00  0.00     0.000 HD 
HETATM    5  O   UNL     1      -8.906   8.728  65.671  1.00  0.00    -0.178 OA 
HETATM    6  O   UNL     1      -9.355  10.978  64.622  1.00  0.00    -0.212 OA 
ENDROOT
BRANCH   3   7
HETATM    7  C   UNL     1      -7.492  10.786  66.451  1.00  0.00    -0.142 A  
HETATM    8  C   UNL     1      -6.640  10.053  67.275  1.00  0.00    -0.069 A  
HETATM    9 CL   UNL     1      -6.347   8.360  67.114  1.00  0.00    -0.056 Cl 
HETATM   10  C   UNL     1      -5.992  10.701  68.332  1.00  0.00    -0.046 A  
HETATM   11  C   UNL     1      -6.221  12.053  68.587  1.00  0.00    -0.055 A  
HETATM   12  C   UNL     1      -7.097  12.800  67.781  1.00  0.00    -0.132 A  
HETATM   13  C   UNL     1      -7.704  12.156  66.686  1.00  0.00     0.122 A  
BRANCH  12  14
HETATM   14  C   UNL     1      -7.521  14.201  68.208  1.00  0.00    -0.125 C  
HETATM   15  O   UNL     1      -7.599  14.305  69.611  1.00  0.00    -0.358 OA 
HETATM   16  N   UNL     1      -6.635  15.239  67.778  1.00  0.00    -0.149 N  
HETATM   17  H   UNL     1      -7.864  15.178  69.877  1.00  0.00     0.000 HD 
HETATM   18  H   UNL     1      -5.677  15.340  68.111  1.00  0.00     0.000 HD 
HETATM   19  C   UNL     1      -7.221  16.084  66.867  1.00  0.00    -0.177 C  
HETATM   20  O   UNL     1      -6.677  16.979  66.249  1.00  0.00    -0.222 OA 
HETATM   21  C   UNL     1      -8.628  15.681  66.734  1.00  0.00    -0.309 A  
HETATM   22  C   UNL     1      -9.621  16.184  65.912  1.00  0.00    -0.359 A  
HETATM   23  C   UNL     1     -10.865  15.550  65.949  1.00  0.00    -0.317 A  
HETATM   24  C   UNL     1     -11.090  14.458  66.808  1.00  0.00    -0.323 A  
HETATM   25  C   UNL     1     -10.069  13.972  67.630  1.00  0.00    -0.241 A  
HETATM   26  C   UNL     1      -8.828  14.586  67.571  1.00  0.00    -0.193 A  
ENDBRANCH  12  14
ENDBRANCH   3   7
TORSDOF 2
ENDMDL
MODEL      211
REMARK 921   NORMALIZED FREE ENERGY PREDICTED BY IDOCK:   -3.12 KCAL/MOL
REMARK 922        TOTAL FREE ENERGY PREDICTED BY IDOCK:   -3.96 KCAL/MOL
REMARK 923 INTER-LIGAND FREE ENERGY PREDICTED BY IDOCK:   -4.01 KCAL/MOL
REMARK 924 INTRA-LIGAND FREE ENERGY PREDICTED BY IDOCK:    0.05 KCAL/MOL
REMARK 927      BINDING AFFINITY PREDICTED BY RF-SCORE:    0.00 PKD
ROOT
HETATM    1  N   UNL     1     -11.300   4.864  73.548  1.00  0.00    -0.425 N  
HETATM    2  H2  UNL     1     -12.163   5.018  74.069  1.00  0.00     0.000 HD 
HETATM    3  S   UNL     1     -10.107   5.984  73.182  1.00  0.00    -0.197 S  
HETATM    4  H1  UNL     1     -10.970   3.993  73.133  1.00  0.00     0.000 HD 
HETATM    5  O   UNL     1      -8.846   5.394  73.558  1.00  0.00    -0.120 OA 
HETATM    6  O   UNL     1     -10.575   7.219  73.771  1.00  0.00    -0.364 OA 
ENDROOT
BRANCH   3   7
HETATM    7  C   UNL     1     -10.171   6.128  71.426  1.00  0.00    -0.205 A  
HETATM    8  C   UNL     1     -11.356   6.452  70.766  1.00  0.00    -0.350 A  
HETATM    9 CL   UNL     1     -12.841   6.830  71.560  1.00  0.00    -0.365 Cl 
HETATM   10  C   UNL     1     -11.380   6.444  69.368  1.00  0.00    -0.443 A  
HETATM   11  C   UNL     1     -10.248   6.080  68.637  1.00  0.00    -0.233 A  
HETATM   12  C   UNL     1      -9.054   5.727  69.288  1.00  0.00    -0.128 A  
HETATM   13  C   UNL     1      -9.020   5.789  70.694  1.00  0.00    -0.149 A  
BRANCH  12  14
HETATM   14  C   UNL     1      -7.908   5.106  68.496  1.00  0.00    -0.079 C  
HETATM   15  O   UNL     1      -6.892   6.049  68.244  1.00  0.00    -0.065 OA 
HETATM   16  N   UNL     1      -7.276   4.000  69.148  1.00  0.00    -0.053 N  
HETATM   17  H   UNL     1      -6.178   5.662  67.751  1.00  0.00     0.000 HD 
HETATM   18  H   UNL     1      -6.742   4.082  70.013  1.00  0.00     0.000 HD 
HETATM   19  C   UNL     1      -7.470   2.816  68.479  1.00  0.00    -0.048 C  
HETATM   20  O   UNL     1      -7.149   1.705  68.856  1.00  0.00    -0.036 OA 
HETATM   21  C   UNL     1      -8.184   3.127  67.233  1.00  0.00    -0.083 A  
HETATM   22  C   UNL     1      -8.651   2.280  66.243  1.00  0.00    -0.112 A  
HETATM   23  C   UNL     1      -9.365   2.858  65.191  1.00  0.00    -0.124 A  
HETATM   24  C   UNL     1      -9.576   4.248  65.142  1.00  0.00    -0.185 A  
HETATM   25  C   UNL     1      -9.091   5.081  66.155  1.00  0.00    -0.138 A  
HETATM   26  C   UNL     1      -8.406   4.502  67.212  1.00  0.00    -0.104 A  
ENDBRANCH  12  14
ENDBRANCH   3   7
TORSDOF 2
ENDMDL
MODEL      212
REMARK 921   NORMALIZED FREE ENERGY PREDICTED BY IDOCK:   -3.11 KCAL/MOL
REMARK 922        TOTAL FREE ENERGY PREDICTED BY IDOCK:   -3.95 KCAL/MOL
REMARK 923 INTER-LIGAND FREE ENERGY PREDICTED BY IDOCK:   -4.13 KCAL/MOL
REMARK 924 INTRA-LIGAND FREE ENERGY PREDICTED BY IDOCK:    0.18 KCAL/MOL
REMARK 927      BINDING AFFINITY PREDICTED BY RF-SCORE:    0.00 PKD
ROOT
HETATM    1  N   UNL     1     -10.491  13.439  65.084  1.00  0.00    -0.330 N  
HETATM    2  H2  UNL     1     -10.116  14.387  65.095  1.00  0.00     0.000 HD 
HETATM    3  S   UNL     1     -11.082  12.554  66.380  1.00  0.00    -0.305 S  
HETATM    4  H1  UNL     1     -10.590  12.817  64.282  1.00  0.00     0.000 HD 
HETATM    5  O   UNL     1     -12.364  12.028  65.982  1.00  0.00    -0.462 OA 
HETATM    6  O   UNL     1     -10.941  13.437  67.517  1.00  0.00    -0.259 OA 
ENDROOT
BRANCH   3   7
HETATM    7  C   UNL     1      -9.942  11.219  66.550  1.00  0.00    -0.212 A  
HETATM    8  C   UNL     1      -9.374  10.603  65.436  1.00  0.00    -0.210 A  
HETATM    9 CL   UNL     1      -9.631  11.108  63.806  1.00  0.00    -0.275 Cl 
HETATM   10  C   UNL     1      -8.564   9.478  65.620  1.00  0.00    -0.154 A  
HETATM   11  C   UNL     1      -8.355   8.951  66.895  1.00  0.00    -0.112 A  
HETATM   12  C   UNL     1      -8.941   9.545  68.025  1.00  0.00    -0.123 A  
HETATM   13  C   UNL     1      -9.711  10.709  67.840  1.00  0.00    -0.177 A  
BRANCH  12  14
HETATM   14  C   UNL     1      -8.904   8.829  69.371  1.00  0.00    -0.143 C  
HETATM   15  O   UNL     1      -8.638   9.729  70.421  1.00  0.00    -0.253 OA 
HETATM   16  N   UNL     1     -10.122   8.161  69.714  1.00  0.00    -0.193 N  
HETATM   17  H   UNL     1      -8.615   9.283  71.260  1.00  0.00     0.000 HD 
HETATM   18  H   UNL     1     -10.999   8.644  69.905  1.00  0.00     0.000 HD 
HETATM   19  C   UNL     1      -9.976   6.795  69.758  1.00  0.00    -0.177 C  
HETATM   20  O   UNL     1     -10.859   5.973  69.909  1.00  0.00    -0.296 OA 
HETATM   21  C   UNL     1      -8.553   6.497  69.541  1.00  0.00    -0.134 A  
HETATM   22  C   UNL     1      -7.907   5.277  69.449  1.00  0.00    -0.088 A  
HETATM   23  C   UNL     1      -6.539   5.297  69.166  1.00  0.00    -0.051 A  
HETATM   24  C   UNL     1      -5.856   6.517  69.003  1.00  0.00    -0.021 A  
HETATM   25  C   UNL     1      -6.534   7.736  69.104  1.00  0.00    -0.036 A  
HETATM   26  C   UNL     1      -7.897   7.712  69.358  1.00  0.00    -0.123 A  
ENDBRANCH  12  14
ENDBRANCH   3   7
TORSDOF 2
ENDMDL
MODEL      213
REMARK 921   NORMALIZED FREE ENERGY PREDICTED BY IDOCK:   -3.07 KCAL/MOL
REMARK 922        TOTAL FREE ENERGY PREDICTED BY IDOCK:   -3.91 KCAL/MOL
REMARK 923 INTER-LIGAND FREE ENERGY PREDICTED BY IDOCK:   -3.43 KCAL/MOL
REMARK 924 INTRA-LIGAND FREE ENERGY PREDICTED BY IDOCK:   -0.48 KCAL/MOL
REMARK 927      BINDING AFFINITY PREDICTED BY RF-SCORE:    0.00 PKD
ROOT
HETATM    1  N   UNL     1      -9.778   4.286  73.196  1.00  0.00    -0.126 N  
HETATM    2  H2  UNL     1     -10.194   3.420  72.855  1.00  0.00     0.000 HD 
HETATM    3  S   UNL     1     -10.468   5.814  73.228  1.00  0.00    -0.249 S  
HETATM    4  H1  UNL     1      -8.848   4.415  73.594  1.00  0.00     0.000 HD 
HETATM    5  O   UNL     1     -10.279   6.334  74.559  1.00  0.00    -0.330 OA 
HETATM    6  O   UNL     1     -11.786   5.629  72.662  1.00  0.00    -0.303 OA 
ENDROOT
BRANCH   3   7
HETATM    7  C   UNL     1      -9.490   6.754  72.101  1.00  0.00    -0.139 A  
HETATM    8  C   UNL     1      -8.185   7.133  72.411  1.00  0.00    -0.104 A  
HETATM    9 CL   UNL     1      -7.352   6.668  73.850  1.00  0.00    -0.083 Cl 
HETATM   10  C   UNL     1      -7.492   7.972  71.533  1.00  0.00    -0.076 A  
HETATM   11  C   UNL     1      -8.107   8.459  70.379  1.00  0.00    -0.109 A  
HETATM   12  C   UNL     1      -9.430   8.107  70.064  1.00  0.00    -0.167 A  
HETATM   13  C   UNL     1     -10.104   7.219  70.924  1.00  0.00    -0.192 A  
BRANCH  12  14
HETATM   14  C   UNL     1     -10.165   8.828  68.939  1.00  0.00    -0.207 C  
HETATM   15  O   UNL     1     -11.562   8.739  69.102  1.00  0.00    -0.096 OA 
HETATM   16  N   UNL     1      -9.862  10.222  68.839  1.00  0.00    -0.185 N  
HETATM   17  H   UNL     1     -12.020   9.188  68.401  1.00  0.00     0.000 HD 
HETATM   18  H   UNL     1     -10.110  10.909  69.551  1.00  0.00     0.000 HD 
HETATM   19  C   UNL     1      -9.197  10.532  67.677  1.00  0.00    -0.145 C  
HETATM   20  O   UNL     1      -8.716  11.608  67.378  1.00  0.00    -0.146 OA 
HETATM   21  C   UNL     1      -9.129   9.307  66.869  1.00  0.00    -0.158 A  
HETATM   22  C   UNL     1      -8.525   9.084  65.644  1.00  0.00    -0.163 A  
HETATM   23  C   UNL     1      -8.561   7.783  65.139  1.00  0.00    -0.023 A  
HETATM   24  C   UNL     1      -9.207   6.753  65.850  1.00  0.00    -0.001 A  
HETATM   25  C   UNL     1      -9.811   7.006  67.085  1.00  0.00    -0.225 A  
HETATM   26  C   UNL     1      -9.750   8.293  67.596  1.00  0.00    -0.201 A  
ENDBRANCH  12  14
ENDBRANCH   3   7
TORSDOF 2
ENDMDL
MODEL      214
REMARK 921   NORMALIZED FREE ENERGY PREDICTED BY IDOCK:   -3.04 KCAL/MOL
REMARK 922        TOTAL FREE ENERGY PREDICTED BY IDOCK:   -3.87 KCAL/MOL
REMARK 923 INTER-LIGAND FREE ENERGY PREDICTED BY IDOCK:   -3.59 KCAL/MOL
REMARK 924 INTRA-LIGAND FREE ENERGY PREDICTED BY IDOCK:   -0.28 KCAL/MOL
REMARK 927      BINDING AFFINITY PREDICTED BY RF-SCORE:    0.00 PKD
ROOT
HETATM    1  N   UNL     1      -7.980  10.708  69.815  1.00  0.00    -0.370 N  
HETATM    2  H2  UNL     1      -7.070  11.169  69.805  1.00  0.00     0.000 HD 
HETATM    3  S   UNL     1      -8.332   9.143  70.301  1.00  0.00    -0.193 S  
HETATM    4  H1  UNL     1      -8.879  11.098  69.532  1.00  0.00     0.000 HD 
HETATM    5  O   UNL     1      -9.445   9.225  71.215  1.00  0.00    -0.262 OA 
HETATM    6  O   UNL     1      -7.057   8.591  70.702  1.00  0.00    -0.041 OA 
ENDROOT
BRANCH   3   7
HETATM    7  C   UNL     1      -8.863   8.339  68.824  1.00  0.00    -0.137 A  
HETATM    8  C   UNL     1     -10.051   8.697  68.188  1.00  0.00    -0.197 A  
HETATM    9 CL   UNL     1     -11.075   9.990  68.695  1.00  0.00    -0.250 Cl 
HETATM   10  C   UNL     1     -10.483   7.955  67.084  1.00  0.00    -0.414 A  
HETATM   11  C   UNL     1      -9.759   6.846  66.644  1.00  0.00    -0.221 A  
HETATM   12  C   UNL     1      -8.573   6.457  67.289  1.00  0.00    -0.110 A  
HETATM   13  C   UNL     1      -8.115   7.240  68.365  1.00  0.00    -0.125 A  
BRANCH  12  14
HETATM   14  C   UNL     1      -7.925   5.118  66.954  1.00  0.00    -0.104 C  
HETATM   15  O   UNL     1      -6.523   5.186  67.069  1.00  0.00    -0.042 OA 
HETATM   16  N   UNL     1      -8.345   4.037  67.792  1.00  0.00    -0.093 N  
HETATM   17  H   UNL     1      -6.119   4.351  66.861  1.00  0.00     0.000 HD 
HETATM   18  H   UNL     1      -8.138   3.980  68.789  1.00  0.00     0.000 HD 
HETATM   19  C   UNL     1      -9.058   3.086  67.104  1.00  0.00    -0.175 C  
HETATM   20  O   UNL     1      -9.633   2.123  67.575  1.00  0.00    -0.081 OA 
HETATM   21  C   UNL     1      -9.043   3.467  65.684  1.00  0.00    -0.151 A  
HETATM   22  C   UNL     1      -9.654   2.865  64.599  1.00  0.00    -0.126 A  
HETATM   23  C   UNL     1      -9.522   3.495  63.359  1.00  0.00    -0.113 A  
HETATM   24  C   UNL     1      -8.779   4.684  63.232  1.00  0.00    -0.132 A  
HETATM   25  C   UNL     1      -8.170   5.269  64.346  1.00  0.00    -0.135 A  
HETATM   26  C   UNL     1      -8.325   4.656  65.580  1.00  0.00    -0.118 A  
ENDBRANCH  12  14
ENDBRANCH   3   7
TORSDOF 2
ENDMDL
MODEL      215
REMARK 921   NORMALIZED FREE ENERGY PREDICTED BY IDOCK:   -2.99 KCAL/MOL
REMARK 922        TOTAL FREE ENERGY PREDICTED BY IDOCK:   -3.82 KCAL/MOL
REMARK 923 INTER-LIGAND FREE ENERGY PREDICTED BY IDOCK:   -3.25 KCAL/MOL
REMARK 924 INTRA-LIGAND FREE ENERGY PREDICTED BY IDOCK:   -0.56 KCAL/MOL
REMARK 927      BINDING AFFINITY PREDICTED BY RF-SCORE:    0.00 PKD
ROOT
HETATM    1  N   UNL     1     -11.134  10.197  67.718  1.00  0.00    -0.423 N  
HETATM    2  H2  UNL     1     -11.511   9.474  67.107  1.00  0.00     0.000 HD 
HETATM    3  S   UNL     1      -9.771  11.143  67.469  1.00  0.00    -0.178 S  
HETATM    4  H1  UNL     1     -11.501  10.508  68.618  1.00  0.00     0.000 HD 
HETATM    5  O   UNL     1     -10.161  12.512  67.699  1.00  0.00    -0.210 OA 
HETATM    6  O   UNL     1      -9.251  10.702  66.194  1.00  0.00    -0.163 OA 
ENDROOT
BRANCH   3   7
HETATM    7  C   UNL     1      -8.658  10.643  68.743  1.00  0.00    -0.150 A  
HETATM    8  C   UNL     1      -7.380  11.189  68.846  1.00  0.00    -0.110 A  
HETATM    9 CL   UNL     1      -6.773  12.448  67.833  1.00  0.00    -0.087 Cl 
HETATM   10  C   UNL     1      -6.497  10.679  69.804  1.00  0.00    -0.110 A  
HETATM   11  C   UNL     1      -6.871   9.612  70.621  1.00  0.00    -0.119 A  
HETATM   12  C   UNL     1      -8.148   9.034  70.512  1.00  0.00    -0.169 A  
HETATM   13  C   UNL     1      -9.050   9.587  69.584  1.00  0.00    -0.207 A  
BRANCH  12  14
HETATM   14  C   UNL     1      -8.459   7.728  71.235  1.00  0.00    -0.119 C  
HETATM   15  O   UNL     1      -8.187   7.830  72.614  1.00  0.00    -0.111 OA 
HETATM   16  N   UNL     1      -9.822   7.307  71.125  1.00  0.00    -0.182 N  
HETATM   17  H   UNL     1      -8.381   7.016  73.064  1.00  0.00     0.000 HD 
HETATM   18  H   UNL     1     -10.606   7.814  71.534  1.00  0.00     0.000 HD 
HETATM   19  C   UNL     1      -9.954   6.142  70.407  1.00  0.00    -0.181 C  
HETATM   20  O   UNL     1     -10.994   5.616  70.059  1.00  0.00    -0.328 OA 
HETATM   21  C   UNL     1      -8.601   5.664  70.091  1.00  0.00    -0.127 A  
HETATM   22  C   UNL     1      -8.199   4.566  69.351  1.00  0.00    -0.071 A  
HETATM   23  C   UNL     1      -6.827   4.394  69.155  1.00  0.00    -0.046 A  
HETATM   24  C   UNL     1      -5.902   5.298  69.710  1.00  0.00    -0.017 A  
HETATM   25  C   UNL     1      -6.336   6.398  70.456  1.00  0.00    -0.040 A  
HETATM   26  C   UNL     1      -7.700   6.581  70.626  1.00  0.00    -0.105 A  
ENDBRANCH  12  14
ENDBRANCH   3   7
TORSDOF 2
ENDMDL
MODEL      216
REMARK 921   NORMALIZED FREE ENERGY PREDICTED BY IDOCK:   -2.98 KCAL/MOL
REMARK 922        TOTAL FREE ENERGY PREDICTED BY IDOCK:   -3.81 KCAL/MOL
REMARK 923 INTER-LIGAND FREE ENERGY PREDICTED BY IDOCK:   -3.25 KCAL/MOL
REMARK 924 INTRA-LIGAND FREE ENERGY PREDICTED BY IDOCK:   -0.56 KCAL/MOL
REMARK 927      BINDING AFFINITY PREDICTED BY RF-SCORE:    0.00 PKD
ROOT
HETATM    1  N   UNL     1     -13.768   8.636  72.933  1.00  0.00    -0.806 N  
HETATM    2  H2  UNL     1     -13.895   8.576  73.943  1.00  0.00     0.000 HD 
HETATM    3  S   UNL     1     -12.911   7.589  71.943  1.00  0.00    -0.217 S  
HETATM    4  H1  UNL     1     -14.135   9.346  72.300  1.00  0.00     0.000 HD 
HETATM    5  O   UNL     1     -13.776   7.248  70.840  1.00  0.00    -0.144 OA 
HETATM    6  O   UNL     1     -12.390   6.583  72.842  1.00  0.00     0.360 OA 
ENDROOT
BRANCH   3   7
HETATM    7  C   UNL     1     -11.571   8.563  71.339  1.00  0.00    -0.289 A  
HETATM    8  C   UNL     1     -11.791   9.711  70.579  1.00  0.00    -0.215 A  
HETATM    9 CL   UNL     1     -13.350  10.357  70.220  1.00  0.00     0.032 Cl 
HETATM   10  C   UNL     1     -10.695  10.385  70.030  1.00  0.00    -0.321 A  
HETATM   11  C   UNL     1      -9.399   9.898  70.205  1.00  0.00    -0.200 A  
HETATM   12  C   UNL     1      -9.162   8.729  70.947  1.00  0.00    -0.261 A  
HETATM   13  C   UNL     1     -10.264   8.085  71.542  1.00  0.00    -0.243 A  
BRANCH  12  14
HETATM   14  C   UNL     1      -7.783   8.080  70.930  1.00  0.00    -0.084 C  
HETATM   15  O   UNL     1      -6.767   9.043  70.771  1.00  0.00    -0.051 OA 
HETATM   16  N   UNL     1      -7.462   7.351  72.119  1.00  0.00    -0.078 N  
HETATM   17  H   UNL     1      -5.907   8.638  70.761  1.00  0.00     0.000 HD 
HETATM   18  H   UNL     1      -7.336   7.786  73.033  1.00  0.00     0.000 HD 
HETATM   19  C   UNL     1      -7.344   6.001  71.892  1.00  0.00    -0.094 C  
HETATM   20  O   UNL     1      -7.193   5.132  72.729  1.00  0.00    -0.084 OA 
HETATM   21  C   UNL     1      -7.482   5.785  70.445  1.00  0.00    -0.088 A  
HETATM   22  C   UNL     1      -7.485   4.606  69.721  1.00  0.00    -0.055 A  
HETATM   23  C   UNL     1      -7.706   4.701  68.345  1.00  0.00    -0.080 A  
HETATM   24  C   UNL     1      -7.898   5.953  67.731  1.00  0.00    -0.098 A  
HETATM   25  C   UNL     1      -7.888   7.129  68.487  1.00  0.00    -0.122 A  
HETATM   26  C   UNL     1      -7.695   7.030  69.856  1.00  0.00    -0.108 A  
ENDBRANCH  12  14
ENDBRANCH   3   7
TORSDOF 2
ENDMDL
MODEL      217
REMARK 921   NORMALIZED FREE ENERGY PREDICTED BY IDOCK:   -2.98 KCAL/MOL
REMARK 922        TOTAL FREE ENERGY PREDICTED BY IDOCK:   -3.81 KCAL/MOL
REMARK 923 INTER-LIGAND FREE ENERGY PREDICTED BY IDOCK:   -3.46 KCAL/MOL
REMARK 924 INTRA-LIGAND FREE ENERGY PREDICTED BY IDOCK:   -0.35 KCAL/MOL
REMARK 927      BINDING AFFINITY PREDICTED BY RF-SCORE:    0.00 PKD
ROOT
HETATM    1  N   UNL     1      -6.491  11.848  66.959  1.00  0.00    -0.220 N  
HETATM    2  H2  UNL     1      -5.490  11.811  66.765  1.00  0.00     0.000 HD 
HETATM    3  S   UNL     1      -7.243  11.999  68.450  1.00  0.00    -0.098 S  
HETATM    4  H1  UNL     1      -7.257  11.802  66.288  1.00  0.00     0.000 HD 
HETATM    5  O   UNL     1      -8.211  13.061  68.329  1.00  0.00    -0.146 OA 
HETATM    6  O   UNL     1      -6.156  12.064  69.401  1.00  0.00    -0.079 OA 
ENDROOT
BRANCH   3   7
HETATM    7  C   UNL     1      -8.096  10.470  68.662  1.00  0.00    -0.127 A  
HETATM    8  C   UNL     1      -9.186  10.129  67.863  1.00  0.00    -0.138 A  
HETATM    9 CL   UNL     1      -9.767  11.084  66.548  1.00  0.00    -0.221 Cl 
HETATM   10  C   UNL     1      -9.896   8.957  68.145  1.00  0.00    -0.193 A  
HETATM   11  C   UNL     1      -9.547   8.156  69.233  1.00  0.00    -0.164 A  
HETATM   12  C   UNL     1      -8.466   8.499  70.062  1.00  0.00    -0.125 A  
HETATM   13  C   UNL     1      -7.721   9.650  69.741  1.00  0.00    -0.133 A  
BRANCH  12  14
HETATM   14  C   UNL     1      -8.244   7.755  71.375  1.00  0.00    -0.100 C  
HETATM   15  O   UNL     1      -6.898   7.830  71.783  1.00  0.00    -0.055 OA 
HETATM   16  N   UNL     1      -9.023   8.250  72.468  1.00  0.00    -0.216 N  
HETATM   17  H   UNL     1      -6.760   7.366  72.601  1.00  0.00     0.000 HD 
HETATM   18  H   UNL     1      -8.900   9.175  72.878  1.00  0.00     0.000 HD 
HETATM   19  C   UNL     1      -9.955   7.338  72.903  1.00  0.00    -0.213 C  
HETATM   20  O   UNL     1     -10.823   7.524  73.733  1.00  0.00    -0.316 OA 
HETATM   21  C   UNL     1      -9.743   6.097  72.145  1.00  0.00    -0.168 A  
HETATM   22  C   UNL     1     -10.447   4.906  72.178  1.00  0.00    -0.257 A  
HETATM   23  C   UNL     1     -10.057   3.907  71.284  1.00  0.00    -0.098 A  
HETATM   24  C   UNL     1      -8.978   4.110  70.404  1.00  0.00    -0.152 A  
HETATM   25  C   UNL     1      -8.282   5.323  70.393  1.00  0.00    -0.103 A  
HETATM   26  C   UNL     1      -8.688   6.323  71.263  1.00  0.00    -0.135 A  
ENDBRANCH  12  14
ENDBRANCH   3   7
TORSDOF 2
ENDMDL
MODEL      218
REMARK 921   NORMALIZED FREE ENERGY PREDICTED BY IDOCK:   -2.97 KCAL/MOL
REMARK 922        TOTAL FREE ENERGY PREDICTED BY IDOCK:   -3.80 KCAL/MOL
REMARK 923 INTER-LIGAND FREE ENERGY PREDICTED BY IDOCK:   -3.33 KCAL/MOL
REMARK 924 INTRA-LIGAND FREE ENERGY PREDICTED BY IDOCK:   -0.47 KCAL/MOL
REMARK 927      BINDING AFFINITY PREDICTED BY RF-SCORE:    0.00 PKD
ROOT
HETATM    1  N   UNL     1      -8.715   7.312  65.154  1.00  0.00    -0.357 N  
HETATM    2  H2  UNL     1      -7.815   7.283  64.673  1.00  0.00     0.000 HD 
HETATM    3  S   UNL     1      -9.204   8.377  66.353  1.00  0.00    -0.214 S  
HETATM    4  H1  UNL     1      -9.517   6.699  65.011  1.00  0.00     0.000 HD 
HETATM    5  O   UNL     1     -10.491   8.893  65.960  1.00  0.00     0.042 OA 
HETATM    6  O   UNL     1      -8.065   9.245  66.555  1.00  0.00    -0.103 OA 
ENDROOT
BRANCH   3   7
HETATM    7  C   UNL     1      -9.406   7.359  67.780  1.00  0.00    -0.136 A  
HETATM    8  C   UNL     1     -10.249   6.249  67.767  1.00  0.00    -0.170 A  
HETATM    9 CL   UNL     1     -11.104   5.691  66.376  1.00  0.00    -0.120 Cl 
HETATM   10  C   UNL     1     -10.461   5.542  68.955  1.00  0.00    -0.296 A  
HETATM   11  C   UNL     1      -9.870   5.960  70.148  1.00  0.00    -0.226 A  
HETATM   12  C   UNL     1      -9.037   7.091  70.182  1.00  0.00    -0.149 A  
HETATM   13  C   UNL     1      -8.785   7.767  68.973  1.00  0.00    -0.135 A  
BRANCH  12  14
HETATM   14  C   UNL     1      -8.595   7.674  71.520  1.00  0.00    -0.116 C  
HETATM   15  O   UNL     1      -8.124   8.993  71.373  1.00  0.00    -0.266 OA 
HETATM   16  N   UNL     1      -9.628   7.725  72.509  1.00  0.00    -0.174 N  
HETATM   17  H   UNL     1      -7.848   9.356  72.206  1.00  0.00     0.000 HD 
HETATM   18  H   UNL     1     -10.455   8.316  72.433  1.00  0.00     0.000 HD 
HETATM   19  C   UNL     1      -9.381   6.888  73.570  1.00  0.00    -0.169 C  
HETATM   20  O   UNL     1     -10.132   6.641  74.493  1.00  0.00    -0.352 OA 
HETATM   21  C   UNL     1      -8.049   6.301  73.366  1.00  0.00    -0.111 A  
HETATM   22  C   UNL     1      -7.366   5.367  74.125  1.00  0.00    -0.090 A  
HETATM   23  C   UNL     1      -6.127   4.935  73.646  1.00  0.00    -0.038 A  
HETATM   24  C   UNL     1      -5.599   5.453  72.448  1.00  0.00    -0.018 A  
HETATM   25  C   UNL     1      -6.310   6.398  71.702  1.00  0.00    -0.042 A  
HETATM   26  C   UNL     1      -7.551   6.805  72.166  1.00  0.00    -0.094 A  
ENDBRANCH  12  14
ENDBRANCH   3   7
TORSDOF 2
ENDMDL
MODEL      219
REMARK 921   NORMALIZED FREE ENERGY PREDICTED BY IDOCK:   -2.96 KCAL/MOL
REMARK 922        TOTAL FREE ENERGY PREDICTED BY IDOCK:   -3.79 KCAL/MOL
REMARK 923 INTER-LIGAND FREE ENERGY PREDICTED BY IDOCK:   -3.52 KCAL/MOL
REMARK 924 INTRA-LIGAND FREE ENERGY PREDICTED BY IDOCK:   -0.27 KCAL/MOL
REMARK 927      BINDING AFFINITY PREDICTED BY RF-SCORE:    0.00 PKD
ROOT
HETATM    1  N   UNL     1     -11.766  11.922  66.352  1.00  0.00    -0.258 N  
HETATM    2  H2  UNL     1     -12.426  12.615  66.000  1.00  0.00     0.000 HD 
HETATM    3  S   UNL     1     -10.111  12.095  66.559  1.00  0.00    -0.213 S  
HETATM    4  H1  UNL     1     -11.965  10.970  66.657  1.00  0.00     0.000 HD 
HETATM    5  O   UNL     1      -9.804  11.646  67.894  1.00  0.00    -0.175 OA 
HETATM    6  O   UNL     1      -9.829  13.445  66.125  1.00  0.00    -0.284 OA 
ENDROOT
BRANCH   3   7
HETATM    7  C   UNL     1      -9.409  10.965  65.399  1.00  0.00    -0.208 A  
HETATM    8  C   UNL     1      -9.617  11.109  64.028  1.00  0.00    -0.254 A  
HETATM    9 CL   UNL     1     -10.481  12.416  63.305  1.00  0.00    -0.350 Cl 
HETATM   10  C   UNL     1      -9.133  10.124  63.160  1.00  0.00    -0.296 A  
HETATM   11  C   UNL     1      -8.485   8.993  63.656  1.00  0.00    -0.173 A  
HETATM   12  C   UNL     1      -8.290   8.821  65.037  1.00  0.00    -0.180 A  
HETATM   13  C   UNL     1      -8.731   9.841  65.902  1.00  0.00    -0.156 A  
BRANCH  12  14
HETATM   14  C   UNL     1      -7.800   7.483  65.579  1.00  0.00    -0.114 C  
HETATM   15  O   UNL     1      -7.040   7.654  66.753  1.00  0.00    -0.079 OA 
HETATM   16  N   UNL     1      -8.847   6.565  65.909  1.00  0.00    -0.230 N  
HETATM   17  H   UNL     1      -6.735   6.820  67.091  1.00  0.00     0.000 HD 
HETATM   18  H   UNL     1      -9.517   6.717  66.663  1.00  0.00     0.000 HD 
HETATM   19  C   UNL     1      -8.848   5.457  65.097  1.00  0.00    -0.108 C  
HETATM   20  O   UNL     1      -9.684   4.574  65.071  1.00  0.00    -0.165 OA 
HETATM   21  C   UNL     1      -7.672   5.552  64.222  1.00  0.00    -0.092 A  
HETATM   22  C   UNL     1      -7.255   4.714  63.202  1.00  0.00    -0.048 A  
HETATM   23  C   UNL     1      -6.120   5.095  62.484  1.00  0.00    -0.014 A  
HETATM   24  C   UNL     1      -5.427   6.277  62.808  1.00  0.00    -0.022 A  
HETATM   25  C   UNL     1      -5.869   7.104  63.844  1.00  0.00    -0.040 A  
HETATM   26  C   UNL     1      -7.012   6.737  64.538  1.00  0.00    -0.058 A  
ENDBRANCH  12  14
ENDBRANCH   3   7
TORSDOF 2
ENDMDL
MODEL      220
REMARK 921   NORMALIZED FREE ENERGY PREDICTED BY IDOCK:   -2.95 KCAL/MOL
REMARK 922        TOTAL FREE ENERGY PREDICTED BY IDOCK:   -3.77 KCAL/MOL
REMARK 923 INTER-LIGAND FREE ENERGY PREDICTED BY IDOCK:   -3.66 KCAL/MOL
REMARK 924 INTRA-LIGAND FREE ENERGY PREDICTED BY IDOCK:   -0.12 KCAL/MOL
REMARK 927      BINDING AFFINITY PREDICTED BY RF-SCORE:    0.00 PKD
ROOT
HETATM    1  N   UNL     1      -8.325   6.213  64.723  1.00  0.00    -0.266 N  
HETATM    2  H2  UNL     1      -7.949   5.474  64.130  1.00  0.00     0.000 HD 
HETATM    3  S   UNL     1      -7.534   7.580  65.285  1.00  0.00    -0.090 S  
HETATM    4  H1  UNL     1      -9.267   6.285  65.106  1.00  0.00     0.000 HD 
HETATM    5  O   UNL     1      -8.386   8.708  64.998  1.00  0.00    -0.155 OA 
HETATM    6  O   UNL     1      -6.198   7.477  64.741  1.00  0.00    -0.038 OA 
ENDROOT
BRANCH   3   7
HETATM    7  C   UNL     1      -7.459   7.349  67.032  1.00  0.00    -0.098 A  
HETATM    8  C   UNL     1      -6.974   6.167  67.589  1.00  0.00    -0.069 A  
HETATM    9 CL   UNL     1      -6.322   4.856  66.675  1.00  0.00    -0.039 Cl 
HETATM   10  C   UNL     1      -7.039   5.990  68.975  1.00  0.00    -0.073 A  
HETATM   11  C   UNL     1      -7.616   6.964  69.791  1.00  0.00    -0.104 A  
HETATM   12  C   UNL     1      -8.131   8.150  69.243  1.00  0.00    -0.117 A  
HETATM   13  C   UNL     1      -8.014   8.346  67.854  1.00  0.00    -0.115 A  
BRANCH  12  14
HETATM   14  C   UNL     1      -8.966   9.091  70.106  1.00  0.00    -0.184 C  
HETATM   15  O   UNL     1      -8.164   9.774  71.040  1.00  0.00    -0.357 OA 
HETATM   16  N   UNL     1      -9.667  10.096  69.368  1.00  0.00    -0.219 N  
HETATM   17  H   UNL     1      -8.684  10.360  71.578  1.00  0.00     0.000 HD 
HETATM   18  H   UNL     1      -9.206  10.847  68.854  1.00  0.00     0.000 HD 
HETATM   19  C   UNL     1     -11.031   9.938  69.430  1.00  0.00    -0.230 C  
HETATM   20  O   UNL     1     -11.866  10.570  68.813  1.00  0.00    -0.277 OA 
HETATM   21  C   UNL     1     -11.303   8.825  70.351  1.00  0.00    -0.213 A  
HETATM   22  C   UNL     1     -12.507   8.247  70.712  1.00  0.00     0.123 A  
HETATM   23  C   UNL     1     -12.456   7.143  71.566  1.00  0.00    -0.418 A  
HETATM   24  C   UNL     1     -11.224   6.661  72.047  1.00  0.00    -0.301 A  
HETATM   25  C   UNL     1     -10.022   7.266  71.667  1.00  0.00    -0.192 A  
HETATM   26  C   UNL     1     -10.073   8.345  70.798  1.00  0.00    -0.226 A  
ENDBRANCH  12  14
ENDBRANCH   3   7
TORSDOF 2
ENDMDL
MODEL      221
REMARK 921   NORMALIZED FREE ENERGY PREDICTED BY IDOCK:   -2.94 KCAL/MOL
REMARK 922        TOTAL FREE ENERGY PREDICTED BY IDOCK:   -3.76 KCAL/MOL
REMARK 923 INTER-LIGAND FREE ENERGY PREDICTED BY IDOCK:   -3.37 KCAL/MOL
REMARK 924 INTRA-LIGAND FREE ENERGY PREDICTED BY IDOCK:   -0.39 KCAL/MOL
REMARK 927      BINDING AFFINITY PREDICTED BY RF-SCORE:    0.00 PKD
ROOT
HETATM    1  N   UNL     1     -11.205   4.692  73.344  1.00  0.00    -0.334 N  
HETATM    2  H2  UNL     1     -12.051   4.672  73.913  1.00  0.00     0.000 HD 
HETATM    3  S   UNL     1     -10.069   5.921  73.236  1.00  0.00    -0.203 S  
HETATM    4  H1  UNL     1     -10.862   3.969  72.713  1.00  0.00     0.000 HD 
HETATM    5  O   UNL     1      -8.773   5.314  73.412  1.00  0.00    -0.115 OA 
HETATM    6  O   UNL     1     -10.557   6.947  74.131  1.00  0.00    -0.299 OA 
ENDROOT
BRANCH   3   7
HETATM    7  C   UNL     1     -10.211   6.498  71.575  1.00  0.00    -0.192 A  
HETATM    8  C   UNL     1     -11.453   6.762  71.001  1.00  0.00    -0.324 A  
HETATM    9 CL   UNL     1     -12.957   6.650  71.839  1.00  0.00    -0.275 Cl 
HETATM   10  C   UNL     1     -11.517   7.109  69.648  1.00  0.00    -0.047 A  
HETATM   11  C   UNL     1     -10.361   7.154  68.868  1.00  0.00    -0.202 A  
HETATM   12  C   UNL     1      -9.104   6.867  69.426  1.00  0.00    -0.141 A  
HETATM   13  C   UNL     1      -9.040   6.571  70.801  1.00  0.00    -0.154 A  
BRANCH  12  14
HETATM   14  C   UNL     1      -7.890   6.686  68.521  1.00  0.00    -0.110 C  
HETATM   15  O   UNL     1      -6.783   6.200  69.243  1.00  0.00    -0.055 OA 
HETATM   16  N   UNL     1      -8.096   5.773  67.439  1.00  0.00    -0.102 N  
HETATM   17  H   UNL     1      -6.026   6.087  68.679  1.00  0.00     0.000 HD 
HETATM   18  H   UNL     1      -8.253   4.773  67.563  1.00  0.00     0.000 HD 
HETATM   19  C   UNL     1      -8.057   6.395  66.214  1.00  0.00    -0.114 C  
HETATM   20  O   UNL     1      -8.311   5.894  65.135  1.00  0.00    -0.141 OA 
HETATM   21  C   UNL     1      -7.697   7.801  66.445  1.00  0.00    -0.093 A  
HETATM   22  C   UNL     1      -7.575   8.844  65.545  1.00  0.00    -0.087 A  
HETATM   23  C   UNL     1      -7.283  10.107  66.065  1.00  0.00    -0.118 A  
HETATM   24  C   UNL     1      -7.103  10.291  67.449  1.00  0.00    -0.083 A  
HETATM   25  C   UNL     1      -7.230   9.218  68.336  1.00  0.00    -0.076 A  
HETATM   26  C   UNL     1      -7.546   7.971  67.819  1.00  0.00    -0.102 A  
ENDBRANCH  12  14
ENDBRANCH   3   7
TORSDOF 2
ENDMDL
MODEL      222
REMARK 921   NORMALIZED FREE ENERGY PREDICTED BY IDOCK:   -2.92 KCAL/MOL
REMARK 922        TOTAL FREE ENERGY PREDICTED BY IDOCK:   -3.74 KCAL/MOL
REMARK 923 INTER-LIGAND FREE ENERGY PREDICTED BY IDOCK:   -4.08 KCAL/MOL
REMARK 924 INTRA-LIGAND FREE ENERGY PREDICTED BY IDOCK:    0.33 KCAL/MOL
REMARK 927      BINDING AFFINITY PREDICTED BY RF-SCORE:    0.00 PKD
ROOT
HETATM    1  N   UNL     1     -11.079   5.200  65.849  1.00  0.00    -0.803 N  
HETATM    2  H2  UNL     1     -11.884   4.802  65.367  1.00  0.00     0.000 HD 
HETATM    3  S   UNL     1      -9.462   4.809  65.642  1.00  0.00    -0.166 S  
HETATM    4  H1  UNL     1     -11.077   5.927  66.565  1.00  0.00     0.000 HD 
HETATM    5  O   UNL     1      -8.747   6.049  65.463  1.00  0.00    -0.154 OA 
HETATM    6  O   UNL     1      -9.464   3.778  64.627  1.00  0.00    -0.143 OA 
ENDROOT
BRANCH   3   7
HETATM    7  C   UNL     1      -8.988   4.092  67.182  1.00  0.00    -0.133 A  
HETATM    8  C   UNL     1      -8.895   2.710  67.343  1.00  0.00    -0.139 A  
HETATM    9 CL   UNL     1      -9.134   1.564  66.075  1.00  0.00    -0.089 Cl 
HETATM   10  C   UNL     1      -8.626   2.189  68.612  1.00  0.00    -0.103 A  
HETATM   11  C   UNL     1      -8.489   3.033  69.715  1.00  0.00    -0.097 A  
HETATM   12  C   UNL     1      -8.605   4.427  69.574  1.00  0.00    -0.104 A  
HETATM   13  C   UNL     1      -8.822   4.948  68.285  1.00  0.00    -0.114 A  
BRANCH  12  14
HETATM   14  C   UNL     1      -8.692   5.314  70.811  1.00  0.00    -0.131 C  
HETATM   15  O   UNL     1      -7.415   5.562  71.352  1.00  0.00    -0.091 OA 
HETATM   16  N   UNL     1      -9.282   6.596  70.573  1.00  0.00    -0.155 N  
HETATM   17  H   UNL     1      -7.470   6.116  72.123  1.00  0.00     0.000 HD 
HETATM   18  H   UNL     1      -8.858   7.315  69.987  1.00  0.00     0.000 HD 
HETATM   19  C   UNL     1     -10.484   6.749  71.221  1.00  0.00    -0.213 C  
HETATM   20  O   UNL     1     -11.257   7.680  71.112  1.00  0.00    -0.252 OA 
HETATM   21  C   UNL     1     -10.693   5.551  72.047  1.00  0.00    -0.293 A  
HETATM   22  C   UNL     1     -11.767   5.202  72.847  1.00  0.00    -0.220 A  
HETATM   23  C   UNL     1     -11.722   3.952  73.469  1.00  0.00    -0.002 A  
HETATM   24  C   UNL     1     -10.615   3.102  73.296  1.00  0.00    -0.269 A  
HETATM   25  C   UNL     1      -9.542   3.480  72.482  1.00  0.00    -0.194 A  
HETATM   26  C   UNL     1      -9.601   4.710  71.845  1.00  0.00    -0.210 A  
ENDBRANCH  12  14
ENDBRANCH   3   7
TORSDOF 2
ENDMDL
MODEL      223
REMARK 921   NORMALIZED FREE ENERGY PREDICTED BY IDOCK:   -2.92 KCAL/MOL
REMARK 922        TOTAL FREE ENERGY PREDICTED BY IDOCK:   -3.74 KCAL/MOL
REMARK 923 INTER-LIGAND FREE ENERGY PREDICTED BY IDOCK:   -3.16 KCAL/MOL
REMARK 924 INTRA-LIGAND FREE ENERGY PREDICTED BY IDOCK:   -0.58 KCAL/MOL
REMARK 927      BINDING AFFINITY PREDICTED BY RF-SCORE:    0.00 PKD
ROOT
HETATM    1  N   UNL     1      -8.825   2.259  64.826  1.00  0.00    -0.112 N  
HETATM    2  H2  UNL     1      -9.604   1.607  64.918  1.00  0.00     0.000 HD 
HETATM    3  S   UNL     1      -8.058   3.121  66.042  1.00  0.00    -0.090 S  
HETATM    4  H1  UNL     1      -8.339   2.532  63.972  1.00  0.00     0.000 HD 
HETATM    5  O   UNL     1      -6.641   2.915  65.876  1.00  0.00    -0.034 OA 
HETATM    6  O   UNL     1      -8.748   2.734  67.253  1.00  0.00    -0.102 OA 
ENDROOT
BRANCH   3   7
HETATM    7  C   UNL     1      -8.437   4.806  65.684  1.00  0.00    -0.121 A  
HETATM    8  C   UNL     1      -7.889   5.456  64.579  1.00  0.00    -0.102 A  
HETATM    9 CL   UNL     1      -6.876   4.696  63.406  1.00  0.00    -0.042 Cl 
HETATM   10  C   UNL     1      -8.132   6.821  64.402  1.00  0.00    -0.058 A  
HETATM   11  C   UNL     1      -8.880   7.539  65.336  1.00  0.00     0.052 A  
HETATM   12  C   UNL     1      -9.419   6.904  66.469  1.00  0.00    -0.199 A  
HETATM   13  C   UNL     1      -9.216   5.519  66.612  1.00  0.00    -0.137 A  
BRANCH  12  14
HETATM   14  C   UNL     1     -10.024   7.736  67.594  1.00  0.00    -0.178 C  
HETATM   15  O   UNL     1     -10.514   8.966  67.114  1.00  0.00    -0.275 OA 
HETATM   16  N   UNL     1     -11.117   7.104  68.267  1.00  0.00    -0.479 N  
HETATM   17  H   UNL     1     -10.891   9.484  67.815  1.00  0.00     0.000 HD 
HETATM   18  H   UNL     1     -12.014   6.902  67.826  1.00  0.00     0.000 HD 
HETATM   19  C   UNL     1     -10.824   6.802  69.575  1.00  0.00    -0.273 C  
HETATM   20  O   UNL     1     -11.514   6.165  70.348  1.00  0.00    -0.356 OA 
HETATM   21  C   UNL     1      -9.491   7.350  69.865  1.00  0.00    -0.153 A  
HETATM   22  C   UNL     1      -8.732   7.271  71.019  1.00  0.00    -0.140 A  
HETATM   23  C   UNL     1      -7.454   7.835  70.984  1.00  0.00    -0.074 A  
HETATM   24  C   UNL     1      -6.980   8.471  69.822  1.00  0.00    -0.047 A  
HETATM   25  C   UNL     1      -7.770   8.538  68.670  1.00  0.00    -0.103 A  
HETATM   26  C   UNL     1      -9.027   7.954  68.699  1.00  0.00    -0.134 A  
ENDBRANCH  12  14
ENDBRANCH   3   7
TORSDOF 2
ENDMDL
MODEL      224
REMARK 921   NORMALIZED FREE ENERGY PREDICTED BY IDOCK:   -2.92 KCAL/MOL
REMARK 922        TOTAL FREE ENERGY PREDICTED BY IDOCK:   -3.74 KCAL/MOL
REMARK 923 INTER-LIGAND FREE ENERGY PREDICTED BY IDOCK:   -3.32 KCAL/MOL
REMARK 924 INTRA-LIGAND FREE ENERGY PREDICTED BY IDOCK:   -0.42 KCAL/MOL
REMARK 927      BINDING AFFINITY PREDICTED BY RF-SCORE:    0.00 PKD
ROOT
HETATM    1  N   UNL     1      -6.415   8.228  65.186  1.00  0.00    -0.052 N  
HETATM    2  H2  UNL     1      -6.147   8.315  64.206  1.00  0.00     0.000 HD 
HETATM    3  S   UNL     1      -6.120   6.942  66.221  1.00  0.00    -0.036 S  
HETATM    4  H1  UNL     1      -6.923   8.905  65.756  1.00  0.00     0.000 HD 
HETATM    5  O   UNL     1      -5.556   7.493  67.428  1.00  0.00    -0.031 OA 
HETATM    6  O   UNL     1      -5.400   5.983  65.413  1.00  0.00    -0.013 OA 
ENDROOT
BRANCH   3   7
HETATM    7  C   UNL     1      -7.722   6.298  66.580  1.00  0.00    -0.099 A  
HETATM    8  C   UNL     1      -8.395   5.478  65.676  1.00  0.00    -0.133 A  
HETATM    9 CL   UNL     1      -7.733   4.929  64.179  1.00  0.00    -0.077 Cl 
HETATM   10  C   UNL     1      -9.707   5.085  65.959  1.00  0.00    -0.194 A  
HETATM   11  C   UNL     1     -10.354   5.538  67.109  1.00  0.00    -0.301 A  
HETATM   12  C   UNL     1      -9.698   6.385  68.018  1.00  0.00    -0.122 A  
HETATM   13  C   UNL     1      -8.360   6.733  67.755  1.00  0.00    -0.119 A  
BRANCH  12  14
HETATM   14  C   UNL     1     -10.485   7.060  69.137  1.00  0.00    -0.207 C  
HETATM   15  O   UNL     1     -11.763   6.485  69.281  1.00  0.00    -0.644 OA 
HETATM   16  N   UNL     1      -9.862   6.980  70.423  1.00  0.00    -0.179 N  
HETATM   17  H   UNL     1     -12.253   6.906  69.978  1.00  0.00     0.000 HD 
HETATM   18  H   UNL     1      -9.727   6.107  70.934  1.00  0.00     0.000 HD 
HETATM   19  C   UNL     1      -9.466   8.209  70.892  1.00  0.00    -0.162 C  
HETATM   20  O   UNL     1      -8.815   8.431  71.894  1.00  0.00    -0.164 OA 
HETATM   21  C   UNL     1      -9.936   9.218  69.931  1.00  0.00    -0.226 A  
HETATM   22  C   UNL     1      -9.752  10.589  69.925  1.00  0.00     0.098 A  
HETATM   23  C   UNL     1     -10.260  11.298  68.834  1.00  0.00    -0.195 A  
HETATM   24  C   UNL     1     -10.945  10.633  67.800  1.00  0.00    -0.364 A  
HETATM   25  C   UNL     1     -11.118   9.246  67.833  1.00  0.00     0.068 A  
HETATM   26  C   UNL     1     -10.590   8.542  68.903  1.00  0.00    -0.166 A  
ENDBRANCH  12  14
ENDBRANCH   3   7
TORSDOF 2
ENDMDL
MODEL      225
REMARK 921   NORMALIZED FREE ENERGY PREDICTED BY IDOCK:   -2.88 KCAL/MOL
REMARK 922        TOTAL FREE ENERGY PREDICTED BY IDOCK:   -3.69 KCAL/MOL
REMARK 923 INTER-LIGAND FREE ENERGY PREDICTED BY IDOCK:   -3.54 KCAL/MOL
REMARK 924 INTRA-LIGAND FREE ENERGY PREDICTED BY IDOCK:   -0.15 KCAL/MOL
REMARK 927      BINDING AFFINITY PREDICTED BY RF-SCORE:    0.00 PKD
ROOT
HETATM    1  N   UNL     1      -9.732  10.730  69.681  1.00  0.00    -0.432 N  
HETATM    2  H2  UNL     1      -9.993  11.411  68.968  1.00  0.00     0.000 HD 
HETATM    3  S   UNL     1      -8.426   9.679  69.667  1.00  0.00    -0.191 S  
HETATM    4  H1  UNL     1     -10.208  10.538  70.562  1.00  0.00     0.000 HD 
HETATM    5  O   UNL     1      -7.757   9.819  70.937  1.00  0.00    -0.312 OA 
HETATM    6  O   UNL     1      -7.752   9.952  68.417  1.00  0.00    -0.083 OA 
ENDROOT
BRANCH   3   7
HETATM    7  C   UNL     1      -9.160   8.077  69.581  1.00  0.00    -0.152 A  
HETATM    8  C   UNL     1     -10.236   7.815  68.734  1.00  0.00    -0.201 A  
HETATM    9 CL   UNL     1     -10.908   8.960  67.631  1.00  0.00    -0.210 Cl 
HETATM   10  C   UNL     1     -10.853   6.562  68.785  1.00  0.00    -0.357 A  
HETATM   11  C   UNL     1     -10.428   5.595  69.697  1.00  0.00    -0.374 A  
HETATM   12  C   UNL     1      -9.361   5.851  70.574  1.00  0.00    -0.185 A  
HETATM   13  C   UNL     1      -8.709   7.096  70.481  1.00  0.00    -0.149 A  
BRANCH  12  14
HETATM   14  C   UNL     1      -9.063   4.887  71.717  1.00  0.00    -0.139 C  
HETATM   15  O   UNL     1      -9.116   5.541  72.964  1.00  0.00    -0.126 OA 
HETATM   16  N   UNL     1      -9.968   3.783  71.804  1.00  0.00    -0.179 N  
HETATM   17  H   UNL     1      -8.931   4.940  73.676  1.00  0.00     0.000 HD 
HETATM   18  H   UNL     1     -10.957   3.877  72.034  1.00  0.00     0.000 HD 
HETATM   19  C   UNL     1      -9.357   2.581  71.543  1.00  0.00    -0.124 C  
HETATM   20  O   UNL     1      -9.897   1.497  71.433  1.00  0.00    -0.133 OA 
HETATM   21  C   UNL     1      -7.921   2.846  71.371  1.00  0.00    -0.051 A  
HETATM   22  C   UNL     1      -6.892   1.979  71.048  1.00  0.00    -0.032 A  
HETATM   23  C   UNL     1      -5.619   2.531  70.881  1.00  0.00    -0.013 A  
HETATM   24  C   UNL     1      -5.405   3.911  71.056  1.00  0.00    -0.004 A  
HETATM   25  C   UNL     1      -6.464   4.764  71.384  1.00  0.00    -0.023 A  
HETATM   26  C   UNL     1      -7.730   4.218  71.523  1.00  0.00    -0.073 A  
ENDBRANCH  12  14
ENDBRANCH   3   7
TORSDOF 2
ENDMDL
MODEL      226
REMARK 921   NORMALIZED FREE ENERGY PREDICTED BY IDOCK:   -2.81 KCAL/MOL
REMARK 922        TOTAL FREE ENERGY PREDICTED BY IDOCK:   -3.61 KCAL/MOL
REMARK 923 INTER-LIGAND FREE ENERGY PREDICTED BY IDOCK:   -3.16 KCAL/MOL
REMARK 924 INTRA-LIGAND FREE ENERGY PREDICTED BY IDOCK:   -0.46 KCAL/MOL
REMARK 927      BINDING AFFINITY PREDICTED BY RF-SCORE:    0.00 PKD
ROOT
HETATM    1  N   UNL     1      -8.769  11.489  65.880  1.00  0.00    -0.370 N  
HETATM    2  H2  UNL     1      -8.524  12.033  65.053  1.00  0.00     0.000 HD 
HETATM    3  S   UNL     1      -7.816  10.377  66.697  1.00  0.00    -0.125 S  
HETATM    4  H1  UNL     1      -9.649  11.501  66.396  1.00  0.00     0.000 HD 
HETATM    5  O   UNL     1      -7.871  10.722  68.096  1.00  0.00    -0.105 OA 
HETATM    6  O   UNL     1      -6.569  10.361  65.965  1.00  0.00    -0.103 OA 
ENDROOT
BRANCH   3   7
HETATM    7  C   UNL     1      -8.641   8.838  66.453  1.00  0.00    -0.128 A  
HETATM    8  C   UNL     1      -9.921   8.611  66.957  1.00  0.00    -0.249 A  
HETATM    9 CL   UNL     1     -10.869   9.798  67.776  1.00  0.00    -0.330 Cl 
HETATM   10  C   UNL     1     -10.486   7.338  66.834  1.00  0.00    -0.369 A  
HETATM   11  C   UNL     1      -9.767   6.293  66.250  1.00  0.00    -0.090 A  
HETATM   12  C   UNL     1      -8.467   6.499  65.760  1.00  0.00    -0.149 A  
HETATM   13  C   UNL     1      -7.925   7.796  65.838  1.00  0.00    -0.107 A  
BRANCH  12  14
HETATM   14  C   UNL     1      -7.609   5.308  65.347  1.00  0.00    -0.082 C  
HETATM   15  O   UNL     1      -6.447   5.725  64.671  1.00  0.00    -0.035 OA 
HETATM   16  N   UNL     1      -7.168   4.496  66.440  1.00  0.00    -0.075 N  
HETATM   17  H   UNL     1      -5.912   4.983  64.413  1.00  0.00     0.000 HD 
HETATM   18  H   UNL     1      -6.519   4.817  67.158  1.00  0.00     0.000 HD 
HETATM   19  C   UNL     1      -7.715   3.236  66.412  1.00  0.00    -0.077 C  
HETATM   20  O   UNL     1      -7.611   2.378  67.267  1.00  0.00    -0.060 OA 
HETATM   21  C   UNL     1      -8.497   3.123  65.173  1.00  0.00    -0.097 A  
HETATM   22  C   UNL     1      -9.273   2.077  64.706  1.00  0.00    -0.128 A  
HETATM   23  C   UNL     1      -9.969   2.279  63.512  1.00  0.00    -0.132 A  
HETATM   24  C   UNL     1      -9.859   3.496  62.812  1.00  0.00    -0.118 A  
HETATM   25  C   UNL     1      -9.066   4.536  63.306  1.00  0.00    -0.117 A  
HETATM   26  C   UNL     1      -8.398   4.343  64.506  1.00  0.00    -0.111 A  
ENDBRANCH  12  14
ENDBRANCH   3   7
TORSDOF 2
ENDMDL
MODEL      227
REMARK 921   NORMALIZED FREE ENERGY PREDICTED BY IDOCK:   -2.80 KCAL/MOL
REMARK 922        TOTAL FREE ENERGY PREDICTED BY IDOCK:   -3.61 KCAL/MOL
REMARK 923 INTER-LIGAND FREE ENERGY PREDICTED BY IDOCK:   -3.57 KCAL/MOL
REMARK 924 INTRA-LIGAND FREE ENERGY PREDICTED BY IDOCK:   -0.03 KCAL/MOL
REMARK 927      BINDING AFFINITY PREDICTED BY RF-SCORE:    0.00 PKD
ROOT
HETATM    1  N   UNL     1     -12.433  13.013  68.469  1.00  0.00     0.246 N  
HETATM    2  H2  UNL     1     -12.600  13.976  68.178  1.00  0.00     0.000 HD 
HETATM    3  S   UNL     1     -11.006  12.349  69.049  1.00  0.00    -0.155 S  
HETATM    4  H1  UNL     1     -13.096  12.239  68.473  1.00  0.00     0.000 HD 
HETATM    5  O   UNL     1     -11.334  11.637  70.259  1.00  0.00    -0.137 OA 
HETATM    6  O   UNL     1     -10.065  13.448  69.043  1.00  0.00    -0.059 OA 
ENDROOT
BRANCH   3   7
HETATM    7  C   UNL     1     -10.534  11.187  67.809  1.00  0.00    -0.193 A  
HETATM    8  C   UNL     1     -10.828  11.399  66.463  1.00  0.00    -0.283 A  
HETATM    9 CL   UNL     1     -11.585  12.821  65.845  1.00  0.00    -0.403 Cl 
HETATM   10  C   UNL     1     -10.532  10.396  65.535  1.00  0.00    -0.192 A  
HETATM   11  C   UNL     1      -9.985   9.181  65.949  1.00  0.00    -0.232 A  
HETATM   12  C   UNL     1      -9.705   8.942  67.305  1.00  0.00    -0.235 A  
HETATM   13  C   UNL     1      -9.955   9.976  68.228  1.00  0.00    -0.173 A  
BRANCH  12  14
HETATM   14  C   UNL     1      -9.335   7.538  67.773  1.00  0.00    -0.141 C  
HETATM   15  O   UNL     1      -9.599   6.581  66.773  1.00  0.00    -0.151 OA 
HETATM   16  N   UNL     1      -7.958   7.381  68.125  1.00  0.00    -0.121 N  
HETATM   17  H   UNL     1      -9.369   5.707  67.065  1.00  0.00     0.000 HD 
HETATM   18  H   UNL     1      -7.191   7.448  67.456  1.00  0.00     0.000 HD 
HETATM   19  C   UNL     1      -7.784   7.130  69.464  1.00  0.00    -0.113 C  
HETATM   20  O   UNL     1      -6.727   7.067  70.063  1.00  0.00    -0.052 OA 
HETATM   21  C   UNL     1      -9.119   6.995  70.064  1.00  0.00    -0.145 A  
HETATM   22  C   UNL     1      -9.482   6.788  71.382  1.00  0.00    -0.160 A  
HETATM   23  C   UNL     1     -10.848   6.770  71.675  1.00  0.00    -0.259 A  
HETATM   24  C   UNL     1     -11.804   6.939  70.656  1.00  0.00    -0.418 A  
HETATM   25  C   UNL     1     -11.409   7.146  69.331  1.00  0.00    -0.011 A  
HETATM   26  C   UNL     1     -10.053   7.189  69.048  1.00  0.00    -0.183 A  
ENDBRANCH  12  14
ENDBRANCH   3   7
TORSDOF 2
ENDMDL
MODEL      228
REMARK 921   NORMALIZED FREE ENERGY PREDICTED BY IDOCK:   -2.80 KCAL/MOL
REMARK 922        TOTAL FREE ENERGY PREDICTED BY IDOCK:   -3.60 KCAL/MOL
REMARK 923 INTER-LIGAND FREE ENERGY PREDICTED BY IDOCK:   -3.11 KCAL/MOL
REMARK 924 INTRA-LIGAND FREE ENERGY PREDICTED BY IDOCK:   -0.49 KCAL/MOL
REMARK 927      BINDING AFFINITY PREDICTED BY RF-SCORE:    0.00 PKD
ROOT
HETATM    1  N   UNL     1     -13.665   9.894  70.431  1.00  0.00    -0.255 N  
HETATM    2  H2  UNL     1     -13.800  10.600  69.708  1.00  0.00     0.000 HD 
HETATM    3  S   UNL     1     -12.472   9.846  71.609  1.00  0.00    -0.416 S  
HETATM    4  H1  UNL     1     -14.226   9.058  70.599  1.00  0.00     0.000 HD 
HETATM    5  O   UNL     1     -13.133   9.617  72.870  1.00  0.00     0.003 OA 
HETATM    6  O   UNL     1     -11.677  11.030  71.369  1.00  0.00     0.047 OA 
ENDROOT
BRANCH   3   7
HETATM    7  C   UNL     1     -11.514   8.423  71.198  1.00  0.00    -0.274 A  
HETATM    8  C   UNL     1     -12.023   7.135  71.355  1.00  0.00    -0.328 A  
HETATM    9 CL   UNL     1     -13.632   6.778  71.866  1.00  0.00    -0.226 Cl 
HETATM   10  C   UNL     1     -11.185   6.039  71.122  1.00  0.00    -0.328 A  
HETATM   11  C   UNL     1      -9.847   6.227  70.775  1.00  0.00    -0.213 A  
HETATM   12  C   UNL     1      -9.312   7.519  70.637  1.00  0.00    -0.163 A  
HETATM   13  C   UNL     1     -10.174   8.617  70.820  1.00  0.00    -0.250 A  
BRANCH  12  14
HETATM   14  C   UNL     1      -7.806   7.712  70.495  1.00  0.00    -0.095 C  
HETATM   15  O   UNL     1      -7.424   9.023  70.839  1.00  0.00    -0.093 OA 
HETATM   16  N   UNL     1      -7.023   6.838  71.314  1.00  0.00    -0.072 N  
HETATM   17  H   UNL     1      -6.486   9.143  70.751  1.00  0.00     0.000 HD 
HETATM   18  H   UNL     1      -7.013   6.874  72.333  1.00  0.00     0.000 HD 
HETATM   19  C   UNL     1      -6.287   5.945  70.574  1.00  0.00    -0.032 C  
HETATM   20  O   UNL     1      -5.624   5.018  70.999  1.00  0.00    -0.011 OA 
HETATM   21  C   UNL     1      -6.480   6.284  69.157  1.00  0.00    -0.043 A  
HETATM   22  C   UNL     1      -5.994   5.659  68.022  1.00  0.00    -0.017 A  
HETATM   23  C   UNL     1      -6.404   6.167  66.787  1.00  0.00    -0.045 A  
HETATM   24  C   UNL     1      -7.261   7.281  66.716  1.00  0.00    -0.083 A  
HETATM   25  C   UNL     1      -7.736   7.894  67.879  1.00  0.00    -0.125 A  
HETATM   26  C   UNL     1      -7.349   7.371  69.103  1.00  0.00    -0.090 A  
ENDBRANCH  12  14
ENDBRANCH   3   7
TORSDOF 2
ENDMDL
MODEL      229
REMARK 921   NORMALIZED FREE ENERGY PREDICTED BY IDOCK:   -2.72 KCAL/MOL
REMARK 922        TOTAL FREE ENERGY PREDICTED BY IDOCK:   -3.52 KCAL/MOL
REMARK 923 INTER-LIGAND FREE ENERGY PREDICTED BY IDOCK:   -3.06 KCAL/MOL
REMARK 924 INTRA-LIGAND FREE ENERGY PREDICTED BY IDOCK:   -0.46 KCAL/MOL
REMARK 927      BINDING AFFINITY PREDICTED BY RF-SCORE:    0.00 PKD
ROOT
HETATM    1  N   UNL     1      -7.026   8.736  66.468  1.00  0.00    -0.078 N  
HETATM    2  H2  UNL     1      -6.526   9.621  66.546  1.00  0.00     0.000 HD 
HETATM    3  S   UNL     1      -8.302   8.191  67.409  1.00  0.00    -0.123 S  
HETATM    4  H1  UNL     1      -6.861   7.984  65.799  1.00  0.00     0.000 HD 
HETATM    5  O   UNL     1      -9.331   7.740  66.505  1.00  0.00    -0.172 OA 
HETATM    6  O   UNL     1      -8.535   9.257  68.358  1.00  0.00    -0.119 OA 
ENDROOT
BRANCH   3   7
HETATM    7  C   UNL     1      -7.643   6.798  68.267  1.00  0.00    -0.107 A  
HETATM    8  C   UNL     1      -7.429   5.581  67.621  1.00  0.00    -0.081 A  
HETATM    9 CL   UNL     1      -7.686   5.314  65.936  1.00  0.00    -0.090 Cl 
HETATM   10  C   UNL     1      -7.012   4.477  68.371  1.00  0.00    -0.052 A  
HETATM   11  C   UNL     1      -6.847   4.575  69.753  1.00  0.00    -0.041 A  
HETATM   12  C   UNL     1      -7.083   5.787  70.423  1.00  0.00    -0.070 A  
HETATM   13  C   UNL     1      -7.450   6.909  69.655  1.00  0.00    -0.099 A  
BRANCH  12  14
HETATM   14  C   UNL     1      -7.132   5.822  71.946  1.00  0.00    -0.082 C  
HETATM   15  O   UNL     1      -6.137   4.998  72.508  1.00  0.00    -0.027 OA 
HETATM   16  N   UNL     1      -6.941   7.123  72.510  1.00  0.00    -0.067 N  
HETATM   17  H   UNL     1      -6.167   5.020  73.457  1.00  0.00     0.000 HD 
HETATM   18  H   UNL     1      -6.069   7.646  72.446  1.00  0.00     0.000 HD 
HETATM   19  C   UNL     1      -8.066   7.588  73.148  1.00  0.00    -0.116 C  
HETATM   20  O   UNL     1      -8.232   8.698  73.615  1.00  0.00    -0.395 OA 
HETATM   21  C   UNL     1      -9.064   6.509  73.123  1.00  0.00    -0.137 A  
HETATM   22  C   UNL     1     -10.366   6.495  73.589  1.00  0.00    -0.323 A  
HETATM   23  C   UNL     1     -11.114   5.336  73.365  1.00  0.00    -0.362 A  
HETATM   24  C   UNL     1     -10.545   4.229  72.709  1.00  0.00    -0.240 A  
HETATM   25  C   UNL     1      -9.225   4.270  72.250  1.00  0.00    -0.155 A  
HETATM   26  C   UNL     1      -8.494   5.431  72.449  1.00  0.00    -0.119 A  
ENDBRANCH  12  14
ENDBRANCH   3   7
TORSDOF 2
ENDMDL
MODEL      230
REMARK 921   NORMALIZED FREE ENERGY PREDICTED BY IDOCK:   -2.66 KCAL/MOL
REMARK 922        TOTAL FREE ENERGY PREDICTED BY IDOCK:   -3.44 KCAL/MOL
REMARK 923 INTER-LIGAND FREE ENERGY PREDICTED BY IDOCK:   -2.87 KCAL/MOL
REMARK 924 INTRA-LIGAND FREE ENERGY PREDICTED BY IDOCK:   -0.57 KCAL/MOL
REMARK 927      BINDING AFFINITY PREDICTED BY RF-SCORE:    0.00 PKD
ROOT
HETATM    1  N   UNL     1      -9.923   4.773  72.346  1.00  0.00    -0.167 N  
HETATM    2  H2  UNL     1     -10.114   3.838  71.987  1.00  0.00     0.000 HD 
HETATM    3  S   UNL     1     -10.336   6.243  71.653  1.00  0.00    -0.217 S  
HETATM    4  H1  UNL     1      -9.438   5.022  73.208  1.00  0.00     0.000 HD 
HETATM    5  O   UNL     1     -10.971   7.030  72.680  1.00  0.00    -0.248 OA 
HETATM    6  O   UNL     1     -11.023   5.888  70.431  1.00  0.00    -0.303 OA 
ENDROOT
BRANCH   3   7
HETATM    7  C   UNL     1      -8.786   6.979  71.243  1.00  0.00    -0.130 A  
HETATM    8  C   UNL     1      -7.895   7.394  72.231  1.00  0.00    -0.096 A  
HETATM    9 CL   UNL     1      -8.142   7.167  73.924  1.00  0.00    -0.133 Cl 
HETATM   10  C   UNL     1      -6.731   8.073  71.857  1.00  0.00    -0.067 A  
HETATM   11  C   UNL     1      -6.478   8.367  70.517  1.00  0.00    -0.036 A  
HETATM   12  C   UNL     1      -7.378   7.977  69.511  1.00  0.00    -0.086 A  
HETATM   13  C   UNL     1      -8.521   7.247  69.889  1.00  0.00    -0.140 A  
BRANCH  12  14
HETATM   14  C   UNL     1      -7.214   8.508  68.091  1.00  0.00    -0.087 C  
HETATM   15  O   UNL     1      -6.057   9.303  67.973  1.00  0.00    -0.049 OA 
HETATM   16  N   UNL     1      -7.103   7.489  67.093  1.00  0.00    -0.082 N  
HETATM   17  H   UNL     1      -5.954   9.633  67.088  1.00  0.00     0.000 HD 
HETATM   18  H   UNL     1      -6.318   6.842  67.028  1.00  0.00     0.000 HD 
HETATM   19  C   UNL     1      -8.174   7.480  66.231  1.00  0.00    -0.125 C  
HETATM   20  O   UNL     1      -8.404   6.660  65.363  1.00  0.00    -0.139 OA 
HETATM   21  C   UNL     1      -9.027   8.626  66.578  1.00  0.00    -0.187 A  
HETATM   22  C   UNL     1     -10.239   9.023  66.041  1.00  0.00    -0.013 A  
HETATM   23  C   UNL     1     -10.865  10.128  66.624  1.00  0.00    -0.084 A  
HETATM   24  C   UNL     1     -10.266  10.810  67.699  1.00  0.00    -0.221 A  
HETATM   25  C   UNL     1      -9.040  10.387  68.221  1.00  0.00    -0.145 A  
HETATM   26  C   UNL     1      -8.433   9.275  67.658  1.00  0.00    -0.116 A  
ENDBRANCH  12  14
ENDBRANCH   3   7
TORSDOF 2
ENDMDL
MODEL      231
REMARK 921   NORMALIZED FREE ENERGY PREDICTED BY IDOCK:   -2.59 KCAL/MOL
REMARK 922        TOTAL FREE ENERGY PREDICTED BY IDOCK:   -3.38 KCAL/MOL
REMARK 923 INTER-LIGAND FREE ENERGY PREDICTED BY IDOCK:   -2.94 KCAL/MOL
REMARK 924 INTRA-LIGAND FREE ENERGY PREDICTED BY IDOCK:   -0.44 KCAL/MOL
REMARK 927      BINDING AFFINITY PREDICTED BY RF-SCORE:    0.00 PKD
ROOT
HETATM    1  N   UNL     1      -9.237   2.333  64.939  1.00  0.00    -0.140 N  
HETATM    2  H2  UNL     1     -10.157   1.939  64.745  1.00  0.00     0.000 HD 
HETATM    3  S   UNL     1      -8.589   2.740  66.431  1.00  0.00    -0.116 S  
HETATM    4  H1  UNL     1      -8.506   2.569  64.269  1.00  0.00     0.000 HD 
HETATM    5  O   UNL     1      -7.277   2.143  66.498  1.00  0.00    -0.054 OA 
HETATM    6  O   UNL     1      -9.626   2.406  67.382  1.00  0.00    -0.077 OA 
ENDROOT
BRANCH   3   7
HETATM    7  C   UNL     1      -8.417   4.494  66.366  1.00  0.00    -0.112 A  
HETATM    8  C   UNL     1      -7.579   5.108  65.437  1.00  0.00    -0.085 A  
HETATM    9 CL   UNL     1      -6.701   4.267  64.212  1.00  0.00    -0.043 Cl 
HETATM   10  C   UNL     1      -7.391   6.492  65.500  1.00  0.00    -0.076 A  
HETATM   11  C   UNL     1      -8.002   7.249  66.501  1.00  0.00    -0.115 A  
HETATM   12  C   UNL     1      -8.830   6.642  67.460  1.00  0.00    -0.116 A  
HETATM   13  C   UNL     1      -9.058   5.256  67.359  1.00  0.00    -0.112 A  
BRANCH  12  14
HETATM   14  C   UNL     1      -9.294   7.432  68.678  1.00  0.00    -0.139 C  
HETATM   15  O   UNL     1     -10.334   6.764  69.354  1.00  0.00    -0.183 OA 
HETATM   16  N   UNL     1      -8.271   7.667  69.650  1.00  0.00    -0.126 N  
HETATM   17  H   UNL     1     -10.624   7.257  70.113  1.00  0.00     0.000 HD 
HETATM   18  H   UNL     1      -7.828   6.928  70.197  1.00  0.00     0.000 HD 
HETATM   19  C   UNL     1      -7.951   8.998  69.764  1.00  0.00    -0.099 C  
HETATM   20  O   UNL     1      -7.046   9.476  70.422  1.00  0.00    -0.089 OA 
HETATM   21  C   UNL     1      -8.877   9.748  68.905  1.00  0.00    -0.140 A  
HETATM   22  C   UNL     1      -8.937  11.104  68.637  1.00  0.00    -0.162 A  
HETATM   23  C   UNL     1      -9.894  11.533  67.713  1.00  0.00    -0.186 A  
HETATM   24  C   UNL     1     -10.766  10.612  67.102  1.00  0.00    -0.327 A  
HETATM   25  C   UNL     1     -10.684   9.247  67.393  1.00  0.00    -0.263 A  
HETATM   26  C   UNL     1      -9.717   8.822  68.290  1.00  0.00    -0.175 A  
ENDBRANCH  12  14
ENDBRANCH   3   7
TORSDOF 2
ENDMDL
MODEL      232
REMARK 921   NORMALIZED FREE ENERGY PREDICTED BY IDOCK:   -2.43 KCAL/MOL
REMARK 922        TOTAL FREE ENERGY PREDICTED BY IDOCK:   -3.19 KCAL/MOL
REMARK 923 INTER-LIGAND FREE ENERGY PREDICTED BY IDOCK:   -3.19 KCAL/MOL
REMARK 924 INTRA-LIGAND FREE ENERGY PREDICTED BY IDOCK:   -0.00 KCAL/MOL
REMARK 927      BINDING AFFINITY PREDICTED BY RF-SCORE:    0.00 PKD
ROOT
HETATM    1  N   UNL     1      -7.959   4.607  72.020  1.00  0.00    -0.098 N  
HETATM    2  H2  UNL     1      -8.476   5.132  72.725  1.00  0.00     0.000 HD 
HETATM    3  S   UNL     1      -7.455   5.136  70.511  1.00  0.00    -0.071 S  
HETATM    4  H1  UNL     1      -7.635   3.641  72.075  1.00  0.00     0.000 HD 
HETATM    5  O   UNL     1      -6.058   4.797  70.390  1.00  0.00    -0.017 OA 
HETATM    6  O   UNL     1      -7.916   6.504  70.432  1.00  0.00    -0.111 OA 
ENDROOT
BRANCH   3   7
HETATM    7  C   UNL     1      -8.382   4.155  69.375  1.00  0.00    -0.065 A  
HETATM    8  C   UNL     1      -8.476   2.772  69.517  1.00  0.00    -0.062 A  
HETATM    9 CL   UNL     1      -7.798   1.879  70.829  1.00  0.00    -0.039 Cl 
HETATM   10  C   UNL     1      -9.129   2.029  68.529  1.00  0.00    -0.204 A  
HETATM   11  C   UNL     1      -9.647   2.653  67.394  1.00  0.00     0.048 A  
HETATM   12  C   UNL     1      -9.539   4.044  67.223  1.00  0.00    -0.229 A  
HETATM   13  C   UNL     1      -8.929   4.793  68.247  1.00  0.00    -0.132 A  
BRANCH  12  14
HETATM   14  C   UNL     1      -9.891   4.679  65.882  1.00  0.00    -0.220 C  
HETATM   15  O   UNL     1     -11.286   4.734  65.694  1.00  0.00    -0.900 OA 
HETATM   16  N   UNL     1      -9.411   6.017  65.723  1.00  0.00    -0.369 N  
HETATM   17  H   UNL     1     -11.506   5.130  64.859  1.00  0.00     0.000 HD 
HETATM   18  H   UNL     1      -9.742   6.808  66.276  1.00  0.00     0.000 HD 
HETATM   19  C   UNL     1      -8.455   6.118  64.742  1.00  0.00    -0.005 C  
HETATM   20  O   UNL     1      -7.793   7.101  64.468  1.00  0.00    -0.114 OA 
HETATM   21  C   UNL     1      -8.337   4.799  64.105  1.00  0.00    -0.124 A  
HETATM   22  C   UNL     1      -7.485   4.372  63.102  1.00  0.00    -0.054 A  
HETATM   23  C   UNL     1      -7.551   3.025  62.737  1.00  0.00    -0.054 A  
HETATM   24  C   UNL     1      -8.464   2.154  63.361  1.00  0.00    -0.084 A  
HETATM   25  C   UNL     1      -9.315   2.614  64.371  1.00  0.00    -0.135 A  
HETATM   26  C   UNL     1      -9.229   3.945  64.749  1.00  0.00    -0.149 A  
ENDBRANCH  12  14
ENDBRANCH   3   7
TORSDOF 2
ENDMDL
MODEL      233
REMARK 921   NORMALIZED FREE ENERGY PREDICTED BY IDOCK:   -2.33 KCAL/MOL
REMARK 922        TOTAL FREE ENERGY PREDICTED BY IDOCK:   -3.08 KCAL/MOL
REMARK 923 INTER-LIGAND FREE ENERGY PREDICTED BY IDOCK:   -2.85 KCAL/MOL
REMARK 924 INTRA-LIGAND FREE ENERGY PREDICTED BY IDOCK:   -0.23 KCAL/MOL
REMARK 927      BINDING AFFINITY PREDICTED BY RF-SCORE:    0.00 PKD
ROOT
HETATM    1  N   UNL     1      -8.988  10.339  69.916  1.00  0.00    -0.390 N  
HETATM    2  H2  UNL     1      -8.419  10.990  69.375  1.00  0.00     0.000 HD 
HETATM    3  S   UNL     1      -8.462   9.162  70.988  1.00  0.00    -0.095 S  
HETATM    4  H1  UNL     1     -10.005  10.260  69.925  1.00  0.00     0.000 HD 
HETATM    5  O   UNL     1      -9.225   9.325  72.201  1.00  0.00    -0.185 OA 
HETATM    6  O   UNL     1      -7.021   9.275  70.974  1.00  0.00    -0.099 OA 
ENDROOT
BRANCH   3   7
HETATM    7  C   UNL     1      -8.923   7.641  70.222  1.00  0.00    -0.146 A  
HETATM    8  C   UNL     1     -10.191   7.090  70.404  1.00  0.00    -0.196 A  
HETATM    9 CL   UNL     1     -11.461   7.844  71.296  1.00  0.00    -0.278 Cl 
HETATM   10  C   UNL     1     -10.468   5.829  69.867  1.00  0.00    -0.360 A  
HETATM   11  C   UNL     1      -9.482   5.110  69.191  1.00  0.00    -0.188 A  
HETATM   12  C   UNL     1      -8.192   5.640  69.020  1.00  0.00    -0.100 A  
HETATM   13  C   UNL     1      -7.935   6.933  69.516  1.00  0.00    -0.125 A  
BRANCH  12  14
HETATM   14  C   UNL     1      -7.066   4.756  68.496  1.00  0.00    -0.057 C  
HETATM   15  O   UNL     1      -5.954   5.526  68.101  1.00  0.00    -0.016 OA 
HETATM   16  N   UNL     1      -6.578   3.804  69.446  1.00  0.00    -0.033 N  
HETATM   17  H   UNL     1      -5.253   4.975  67.775  1.00  0.00     0.000 HD 
HETATM   18  H   UNL     1      -6.088   4.058  70.303  1.00  0.00     0.000 HD 
HETATM   19  C   UNL     1      -6.843   2.508  69.073  1.00  0.00    -0.036 C  
HETATM   20  O   UNL     1      -6.649   1.506  69.734  1.00  0.00    -0.028 OA 
HETATM   21  C   UNL     1      -7.453   2.551  67.736  1.00  0.00    -0.056 A  
HETATM   22  C   UNL     1      -7.940   1.521  66.951  1.00  0.00    -0.067 A  
HETATM   23  C   UNL     1      -8.537   1.870  65.737  1.00  0.00    -0.111 A  
HETATM   24  C   UNL     1      -8.614   3.216  65.334  1.00  0.00    -0.110 A  
HETATM   25  C   UNL     1      -8.112   4.237  66.147  1.00  0.00    -0.102 A  
HETATM   26  C   UNL     1      -7.545   3.890  67.363  1.00  0.00    -0.072 A  
ENDBRANCH  12  14
ENDBRANCH   3   7
TORSDOF 2
ENDMDL
MODEL      234
REMARK 921   NORMALIZED FREE ENERGY PREDICTED BY IDOCK:   -2.32 KCAL/MOL
REMARK 922        TOTAL FREE ENERGY PREDICTED BY IDOCK:   -3.07 KCAL/MOL
REMARK 923 INTER-LIGAND FREE ENERGY PREDICTED BY IDOCK:   -3.11 KCAL/MOL
REMARK 924 INTRA-LIGAND FREE ENERGY PREDICTED BY IDOCK:    0.04 KCAL/MOL
REMARK 927      BINDING AFFINITY PREDICTED BY RF-SCORE:    0.00 PKD
ROOT
HETATM    1  N   UNL     1      -7.184   5.570  65.381  1.00  0.00    -0.066 N  
HETATM    2  H2  UNL     1      -7.639   4.706  65.678  1.00  0.00     0.000 HD 
HETATM    3  S   UNL     1      -6.541   6.777  66.350  1.00  0.00    -0.049 S  
HETATM    4  H1  UNL     1      -7.020   5.891  64.427  1.00  0.00     0.000 HD 
HETATM    5  O   UNL     1      -5.212   7.049  65.860  1.00  0.00    -0.022 OA 
HETATM    6  O   UNL     1      -6.775   6.320  67.703  1.00  0.00    -0.056 OA 
ENDROOT
BRANCH   3   7
HETATM    7  C   UNL     1      -7.565   8.177  66.036  1.00  0.00    -0.082 A  
HETATM    8  C   UNL     1      -8.142   8.390  64.785  1.00  0.00    -0.155 A  
HETATM    9 CL   UNL     1      -8.008   7.301  63.453  1.00  0.00    -0.105 Cl 
HETATM   10  C   UNL     1      -8.853   9.572  64.555  1.00  0.00    -0.249 A  
HETATM   11  C   UNL     1      -8.954  10.547  65.548  1.00  0.00    -0.203 A  
HETATM   12  C   UNL     1      -8.358  10.359  66.807  1.00  0.00    -0.126 A  
HETATM   13  C   UNL     1      -7.690   9.144  67.050  1.00  0.00    -0.098 A  
BRANCH  12  14
HETATM   14  C   UNL     1      -8.271  11.519  67.792  1.00  0.00    -0.135 C  
HETATM   15  O   UNL     1      -7.890  11.074  69.073  1.00  0.00    -0.138 OA 
HETATM   16  N   UNL     1      -7.332  12.533  67.423  1.00  0.00    -0.167 N  
HETATM   17  H   UNL     1      -7.836  11.798  69.687  1.00  0.00     0.000 HD 
HETATM   18  H   UNL     1      -6.323  12.385  67.385  1.00  0.00     0.000 HD 
HETATM   19  C   UNL     1      -7.940  13.729  67.126  1.00  0.00    -0.044 C  
HETATM   20  O   UNL     1      -7.407  14.725  66.676  1.00  0.00     0.260 OA 
HETATM   21  C   UNL     1      -9.374  13.575  67.408  1.00  0.00    -0.228 A  
HETATM   22  C   UNL     1     -10.413  14.471  67.230  1.00  0.00    -0.266 A  
HETATM   23  C   UNL     1     -11.703  14.021  67.524  1.00  0.00    -0.421 A  
HETATM   24  C   UNL     1     -11.918  12.714  68.000  1.00  0.00    -0.300 A  
HETATM   25  C   UNL     1     -10.848  11.830  68.172  1.00  0.00    -0.258 A  
HETATM   26  C   UNL     1      -9.573  12.271  67.854  1.00  0.00    -0.203 A  
ENDBRANCH  12  14
ENDBRANCH   3   7
TORSDOF 2
ENDMDL
MODEL      235
REMARK 921   NORMALIZED FREE ENERGY PREDICTED BY IDOCK:   -2.30 KCAL/MOL
REMARK 922        TOTAL FREE ENERGY PREDICTED BY IDOCK:   -3.05 KCAL/MOL
REMARK 923 INTER-LIGAND FREE ENERGY PREDICTED BY IDOCK:   -2.48 KCAL/MOL
REMARK 924 INTRA-LIGAND FREE ENERGY PREDICTED BY IDOCK:   -0.57 KCAL/MOL
REMARK 927      BINDING AFFINITY PREDICTED BY RF-SCORE:    0.00 PKD
ROOT
HETATM    1  N   UNL     1      -9.721  11.474  69.489  1.00  0.00    -0.111 N  
HETATM    2  H2  UNL     1      -9.073  11.886  70.161  1.00  0.00     0.000 HD 
HETATM    3  S   UNL     1     -10.152   9.861  69.334  1.00  0.00    -0.227 S  
HETATM    4  H1  UNL     1     -10.252  11.953  68.762  1.00  0.00     0.000 HD 
HETATM    5  O   UNL     1     -11.592   9.812  69.289  1.00  0.00    -0.018 OA 
HETATM    6  O   UNL     1      -9.399   9.183  70.366  1.00  0.00    -0.194 OA 
ENDROOT
BRANCH   3   7
HETATM    7  C   UNL     1      -9.513   9.391  67.759  1.00  0.00    -0.132 A  
HETATM    8  C   UNL     1      -9.917  10.034  66.590  1.00  0.00    -0.216 A  
HETATM    9 CL   UNL     1     -10.987  11.386  66.542  1.00  0.00    -0.336 Cl 
HETATM   10  C   UNL     1      -9.467   9.550  65.357  1.00  0.00    -0.336 A  
HETATM   11  C   UNL     1      -8.656   8.417  65.289  1.00  0.00    -0.177 A  
HETATM   12  C   UNL     1      -8.260   7.743  66.457  1.00  0.00    -0.124 A  
HETATM   13  C   UNL     1      -8.672   8.266  67.698  1.00  0.00    -0.133 A  
BRANCH  12  14
HETATM   14  C   UNL     1      -7.580   6.382  66.360  1.00  0.00    -0.090 C  
HETATM   15  O   UNL     1      -7.325   6.033  65.020  1.00  0.00    -0.067 OA 
HETATM   16  N   UNL     1      -6.324   6.304  67.040  1.00  0.00    -0.039 N  
HETATM   17  H   UNL     1      -6.901   5.184  64.959  1.00  0.00     0.000 HD 
HETATM   18  H   UNL     1      -5.494   6.828  66.762  1.00  0.00     0.000 HD 
HETATM   19  C   UNL     1      -6.359   5.444  68.111  1.00  0.00    -0.039 C  
HETATM   20  O   UNL     1      -5.481   5.267  68.933  1.00  0.00    -0.004 OA 
HETATM   21  C   UNL     1      -7.681   4.801  68.115  1.00  0.00    -0.082 A  
HETATM   22  C   UNL     1      -8.225   3.898  69.011  1.00  0.00    -0.079 A  
HETATM   23  C   UNL     1      -9.548   3.504  68.799  1.00  0.00    -0.137 A  
HETATM   24  C   UNL     1     -10.280   4.000  67.704  1.00  0.00     0.359 A  
HETATM   25  C   UNL     1      -9.704   4.911  66.813  1.00  0.00    -0.195 A  
HETATM   26  C   UNL     1      -8.400   5.321  67.041  1.00  0.00    -0.107 A  
ENDBRANCH  12  14
ENDBRANCH   3   7
TORSDOF 2
ENDMDL
MODEL      236
REMARK 921   NORMALIZED FREE ENERGY PREDICTED BY IDOCK:   -2.25 KCAL/MOL
REMARK 922        TOTAL FREE ENERGY PREDICTED BY IDOCK:   -2.99 KCAL/MOL
REMARK 923 INTER-LIGAND FREE ENERGY PREDICTED BY IDOCK:   -2.93 KCAL/MOL
REMARK 924 INTRA-LIGAND FREE ENERGY PREDICTED BY IDOCK:   -0.06 KCAL/MOL
REMARK 927      BINDING AFFINITY PREDICTED BY RF-SCORE:    0.00 PKD
ROOT
HETATM    1  N   UNL     1      -9.694   4.267  73.154  1.00  0.00    -0.126 N  
HETATM    2  H2  UNL     1     -10.238   3.473  72.816  1.00  0.00     0.000 HD 
HETATM    3  S   UNL     1     -10.031   5.898  72.964  1.00  0.00    -0.180 S  
HETATM    4  H1  UNL     1      -8.823   4.245  73.683  1.00  0.00     0.000 HD 
HETATM    5  O   UNL     1      -9.920   6.507  74.266  1.00  0.00    -0.276 OA 
HETATM    6  O   UNL     1     -11.266   5.929  72.212  1.00  0.00    -0.264 OA 
ENDROOT
BRANCH   3   7
HETATM    7  C   UNL     1      -8.725   6.495  71.939  1.00  0.00    -0.130 A  
HETATM    8  C   UNL     1      -7.452   6.739  72.453  1.00  0.00    -0.088 A  
HETATM    9 CL   UNL     1      -6.980   6.413  74.080  1.00  0.00    -0.082 Cl 
HETATM   10  C   UNL     1      -6.484   7.316  71.626  1.00  0.00    -0.040 A  
HETATM   11  C   UNL     1      -6.793   7.682  70.315  1.00  0.00    -0.047 A  
HETATM   12  C   UNL     1      -8.078   7.465  69.790  1.00  0.00    -0.127 A  
HETATM   13  C   UNL     1      -9.032   6.834  70.610  1.00  0.00    -0.151 A  
BRANCH  12  14
HETATM   14  C   UNL     1      -8.469   8.080  68.451  1.00  0.00    -0.127 C  
HETATM   15  O   UNL     1      -9.247   9.241  68.630  1.00  0.00    -0.135 OA 
HETATM   16  N   UNL     1      -7.359   8.463  67.634  1.00  0.00    -0.091 N  
HETATM   17  H   UNL     1      -9.491   9.624  67.795  1.00  0.00     0.000 HD 
HETATM   18  H   UNL     1      -6.707   9.208  67.877  1.00  0.00     0.000 HD 
HETATM   19  C   UNL     1      -7.270   7.714  66.485  1.00  0.00    -0.082 C  
HETATM   20  O   UNL     1      -6.370   7.739  65.667  1.00  0.00    -0.041 OA 
HETATM   21  C   UNL     1      -8.445   6.833  66.443  1.00  0.00    -0.126 A  
HETATM   22  C   UNL     1      -8.791   5.861  65.520  1.00  0.00    -0.100 A  
HETATM   23  C   UNL     1      -9.948   5.120  65.775  1.00  0.00    -0.095 A  
HETATM   24  C   UNL     1     -10.729   5.376  66.917  1.00  0.00    -0.264 A  
HETATM   25  C   UNL     1     -10.356   6.366  67.832  1.00  0.00    -0.234 A  
HETATM   26  C   UNL     1      -9.194   7.081  67.591  1.00  0.00    -0.120 A  
ENDBRANCH  12  14
ENDBRANCH   3   7
TORSDOF 2
ENDMDL
MODEL      237
REMARK 921   NORMALIZED FREE ENERGY PREDICTED BY IDOCK:   -2.20 KCAL/MOL
REMARK 922        TOTAL FREE ENERGY PREDICTED BY IDOCK:   -2.94 KCAL/MOL
REMARK 923 INTER-LIGAND FREE ENERGY PREDICTED BY IDOCK:   -2.49 KCAL/MOL
REMARK 924 INTRA-LIGAND FREE ENERGY PREDICTED BY IDOCK:   -0.45 KCAL/MOL
REMARK 927      BINDING AFFINITY PREDICTED BY RF-SCORE:    0.00 PKD
ROOT
HETATM    1  N   UNL     1      -8.153   9.925  68.766  1.00  0.00    -0.098 N  
HETATM    2  H2  UNL     1      -7.423   9.909  69.478  1.00  0.00     0.000 HD 
HETATM    3  S   UNL     1      -9.023   8.627  68.158  1.00  0.00    -0.141 S  
HETATM    4  H1  UNL     1      -8.516  10.736  68.264  1.00  0.00     0.000 HD 
HETATM    5  O   UNL     1     -10.418   8.992  68.213  1.00  0.00    -0.212 OA 
HETATM    6  O   UNL     1      -8.508   7.479  68.869  1.00  0.00    -0.128 OA 
ENDROOT
BRANCH   3   7
HETATM    7  C   UNL     1      -8.525   8.524  66.469  1.00  0.00    -0.115 A  
HETATM    8  C   UNL     1      -8.939   9.467  65.530  1.00  0.00    -0.204 A  
HETATM    9 CL   UNL     1      -9.885  10.861  65.902  1.00  0.00    -0.270 Cl 
HETATM   10  C   UNL     1      -8.608   9.278  64.184  1.00  0.00    -0.207 A  
HETATM   11  C   UNL     1      -7.907   8.143  63.775  1.00  0.00    -0.147 A  
HETATM   12  C   UNL     1      -7.504   7.171  64.706  1.00  0.00    -0.096 A  
HETATM   13  C   UNL     1      -7.792   7.393  66.066  1.00  0.00    -0.102 A  
BRANCH  12  14
HETATM   14  C   UNL     1      -6.955   5.832  64.224  1.00  0.00    -0.051 C  
HETATM   15  O   UNL     1      -6.033   6.007  63.173  1.00  0.00    -0.021 OA 
HETATM   16  N   UNL     1      -6.275   5.079  65.232  1.00  0.00    -0.033 N  
HETATM   17  H   UNL     1      -5.691   5.173  62.872  1.00  0.00     0.000 HD 
HETATM   18  H   UNL     1      -5.401   5.373  65.666  1.00  0.00     0.000 HD 
HETATM   19  C   UNL     1      -6.933   3.915  65.551  1.00  0.00    -0.061 C  
HETATM   20  O   UNL     1      -6.652   3.141  66.445  1.00  0.00    -0.038 OA 
HETATM   21  C   UNL     1      -8.078   3.793  64.638  1.00  0.00    -0.090 A  
HETATM   22  C   UNL     1      -9.069   2.829  64.582  1.00  0.00    -0.132 A  
HETATM   23  C   UNL     1     -10.085   3.009  63.640  1.00  0.00    -0.170 A  
HETATM   24  C   UNL     1     -10.077   4.121  62.777  1.00  0.00    -0.116 A  
HETATM   25  C   UNL     1      -9.062   5.079  62.854  1.00  0.00     0.050 A  
HETATM   26  C   UNL     1      -8.070   4.912  63.807  1.00  0.00    -0.112 A  
ENDBRANCH  12  14
ENDBRANCH   3   7
TORSDOF 2
ENDMDL
MODEL      238
REMARK 921   NORMALIZED FREE ENERGY PREDICTED BY IDOCK:   -2.09 KCAL/MOL
REMARK 922        TOTAL FREE ENERGY PREDICTED BY IDOCK:   -2.81 KCAL/MOL
REMARK 923 INTER-LIGAND FREE ENERGY PREDICTED BY IDOCK:   -2.90 KCAL/MOL
REMARK 924 INTRA-LIGAND FREE ENERGY PREDICTED BY IDOCK:    0.09 KCAL/MOL
REMARK 927      BINDING AFFINITY PREDICTED BY RF-SCORE:    0.00 PKD
ROOT
HETATM    1  N   UNL     1     -10.660   9.843  69.818  1.00  0.00    -0.245 N  
HETATM    2  H2  UNL     1     -11.572  10.016  69.396  1.00  0.00     0.000 HD 
HETATM    3  S   UNL     1      -9.269   9.288  69.064  1.00  0.00    -0.146 S  
HETATM    4  H1  UNL     1     -10.390   9.970  70.793  1.00  0.00     0.000 HD 
HETATM    5  O   UNL     1      -8.199  10.176  69.446  1.00  0.00    -0.140 OA 
HETATM    6  O   UNL     1      -9.652   9.108  67.681  1.00  0.00    -0.144 OA 
ENDROOT
BRANCH   3   7
HETATM    7  C   UNL     1      -8.986   7.705  69.789  1.00  0.00    -0.140 A  
HETATM    8  C   UNL     1      -8.928   7.538  71.171  1.00  0.00    -0.142 A  
HETATM    9 CL   UNL     1      -9.206   8.799  72.317  1.00  0.00    -0.295 Cl 
HETATM   10  C   UNL     1      -8.590   6.285  71.692  1.00  0.00    -0.133 A  
HETATM   11  C   UNL     1      -8.276   5.222  70.845  1.00  0.00    -0.112 A  
HETATM   12  C   UNL     1      -8.306   5.380  69.449  1.00  0.00    -0.096 A  
HETATM   13  C   UNL     1      -8.700   6.629  68.930  1.00  0.00    -0.128 A  
BRANCH  12  14
HETATM   14  C   UNL     1      -7.736   4.293  68.545  1.00  0.00    -0.070 C  
HETATM   15  O   UNL     1      -6.337   4.197  68.682  1.00  0.00    -0.034 OA 
HETATM   16  N   UNL     1      -8.254   2.985  68.801  1.00  0.00    -0.059 N  
HETATM   17  H   UNL     1      -5.981   3.520  68.118  1.00  0.00     0.000 HD 
HETATM   18  H   UNL     1      -8.087   2.468  69.664  1.00  0.00     0.000 HD 
HETATM   19  C   UNL     1      -9.003   2.503  67.754  1.00  0.00    -0.155 C  
HETATM   20  O   UNL     1      -9.656   1.477  67.737  1.00  0.00    -0.124 OA 
HETATM   21  C   UNL     1      -8.913   3.482  66.662  1.00  0.00    -0.158 A  
HETATM   22  C   UNL     1      -9.523   3.483  65.420  1.00  0.00    -0.152 A  
HETATM   23  C   UNL     1      -9.306   4.594  64.601  1.00  0.00    -0.090 A  
HETATM   24  C   UNL     1      -8.483   5.653  65.029  1.00  0.00    -0.135 A  
HETATM   25  C   UNL     1      -7.877   5.624  66.289  1.00  0.00    -0.100 A  
HETATM   26  C   UNL     1      -8.115   4.533  67.109  1.00  0.00    -0.102 A  
ENDBRANCH  12  14
ENDBRANCH   3   7
TORSDOF 2
ENDMDL
MODEL      239
REMARK 921   NORMALIZED FREE ENERGY PREDICTED BY IDOCK:   -1.95 KCAL/MOL
REMARK 922        TOTAL FREE ENERGY PREDICTED BY IDOCK:   -2.65 KCAL/MOL
REMARK 923 INTER-LIGAND FREE ENERGY PREDICTED BY IDOCK:   -2.13 KCAL/MOL
REMARK 924 INTRA-LIGAND FREE ENERGY PREDICTED BY IDOCK:   -0.52 KCAL/MOL
REMARK 927      BINDING AFFINITY PREDICTED BY RF-SCORE:    0.00 PKD
ROOT
HETATM    1  N   UNL     1     -10.619  11.490  66.837  1.00  0.00    -0.235 N  
HETATM    2  H2  UNL     1     -10.744  12.497  66.736  1.00  0.00     0.000 HD 
HETATM    3  S   UNL     1     -10.436  10.616  68.256  1.00  0.00    -0.202 S  
HETATM    4  H1  UNL     1     -10.577  10.790  66.097  1.00  0.00     0.000 HD 
HETATM    5  O   UNL     1     -11.369   9.517  68.198  1.00  0.00     0.020 OA 
HETATM    6  O   UNL     1     -10.495  11.609  69.306  1.00  0.00    -0.126 OA 
ENDROOT
BRANCH   3   7
HETATM    7  C   UNL     1      -8.794   9.979  68.165  1.00  0.00    -0.122 A  
HETATM    8  C   UNL     1      -7.710  10.803  67.868  1.00  0.00    -0.100 A  
HETATM    9 CL   UNL     1      -7.817  12.512  67.650  1.00  0.00    -0.149 Cl 
HETATM   10  C   UNL     1      -6.446  10.230  67.697  1.00  0.00    -0.058 A  
HETATM   11  C   UNL     1      -6.273   8.848  67.783  1.00  0.00    -0.055 A  
HETATM   12  C   UNL     1      -7.360   8.001  68.057  1.00  0.00    -0.096 A  
HETATM   13  C   UNL     1      -8.619   8.589  68.281  1.00  0.00    -0.139 A  
BRANCH  12  14
HETATM   14  C   UNL     1      -7.206   6.491  67.912  1.00  0.00    -0.087 C  
HETATM   15  O   UNL     1      -5.858   6.101  68.030  1.00  0.00    -0.014 OA 
HETATM   16  N   UNL     1      -7.930   5.732  68.885  1.00  0.00    -0.097 N  
HETATM   17  H   UNL     1      -5.763   5.160  67.940  1.00  0.00     0.000 HD 
HETATM   18  H   UNL     1      -7.718   5.739  69.882  1.00  0.00     0.000 HD 
HETATM   19  C   UNL     1      -8.944   4.992  68.325  1.00  0.00    -0.108 C  
HETATM   20  O   UNL     1      -9.788   4.347  68.917  1.00  0.00    -0.160 OA 
HETATM   21  C   UNL     1      -8.856   5.157  66.867  1.00  0.00    -0.110 A  
HETATM   22  C   UNL     1      -9.671   4.658  65.867  1.00  0.00    -0.208 A  
HETATM   23  C   UNL     1      -9.383   5.041  64.555  1.00  0.00     0.128 A  
HETATM   24  C   UNL     1      -8.291   5.885  64.275  1.00  0.00    -0.032 A  
HETATM   25  C   UNL     1      -7.482   6.373  65.306  1.00  0.00    -0.081 A  
HETATM   26  C   UNL     1      -7.787   6.014  66.609  1.00  0.00    -0.101 A  
ENDBRANCH  12  14
ENDBRANCH   3   7
TORSDOF 2
ENDMDL
MODEL      240
REMARK 921   NORMALIZED FREE ENERGY PREDICTED BY IDOCK:   -1.66 KCAL/MOL
REMARK 922        TOTAL FREE ENERGY PREDICTED BY IDOCK:   -2.34 KCAL/MOL
REMARK 923 INTER-LIGAND FREE ENERGY PREDICTED BY IDOCK:   -2.41 KCAL/MOL
REMARK 924 INTRA-LIGAND FREE ENERGY PREDICTED BY IDOCK:    0.07 KCAL/MOL
REMARK 927      BINDING AFFINITY PREDICTED BY RF-SCORE:    0.00 PKD
ROOT
HETATM    1  N   UNL     1      -7.575  16.820  67.366  1.00  0.00    -0.156 N  
HETATM    2  H2  UNL     1      -7.520  17.729  67.824  1.00  0.00     0.000 HD 
HETATM    3  S   UNL     1      -8.731  15.626  67.587  1.00  0.00    -0.179 S  
HETATM    4  H1  UNL     1      -6.937  16.434  66.670  1.00  0.00     0.000 HD 
HETATM    5  O   UNL     1      -9.187  15.232  66.277  1.00  0.00    -0.281 OA 
HETATM    6  O   UNL     1      -9.635  16.174  68.575  1.00  0.00    -0.203 OA 
ENDROOT
BRANCH   3   7
HETATM    7  C   UNL     1      -7.839  14.287  68.310  1.00  0.00    -0.141 A  
HETATM    8  C   UNL     1      -6.941  14.493  69.357  1.00  0.00    -0.151 A  
HETATM    9 CL   UNL     1      -6.663  16.018  70.116  1.00  0.00     0.088 Cl 
HETATM   10  C   UNL     1      -6.177  13.417  69.819  1.00  0.00    -0.113 A  
HETATM   11  C   UNL     1      -6.279  12.161  69.220  1.00  0.00    -0.097 A  
HETATM   12  C   UNL     1      -7.161  11.943  68.148  1.00  0.00    -0.081 A  
HETATM   13  C   UNL     1      -7.967  13.016  67.723  1.00  0.00    -0.164 A  
BRANCH  12  14
HETATM   14  C   UNL     1      -7.090  10.644  67.353  1.00  0.00    -0.090 C  
HETATM   15  O   UNL     1      -6.254  10.779  66.228  1.00  0.00    -0.105 OA 
HETATM   16  N   UNL     1      -6.588   9.529  68.095  1.00  0.00    -0.061 N  
HETATM   17  H   UNL     1      -6.210   9.969  65.732  1.00  0.00     0.000 HD 
HETATM   18  H   UNL     1      -5.631   9.463  68.442  1.00  0.00     0.000 HD 
HETATM   19  C   UNL     1      -7.540   8.556  68.288  1.00  0.00    -0.097 C  
HETATM   20  O   UNL     1      -7.432   7.558  68.975  1.00  0.00    -0.091 OA 
HETATM   21  C   UNL     1      -8.742   8.964  67.548  1.00  0.00    -0.124 A  
HETATM   22  C   UNL     1      -9.980   8.353  67.463  1.00  0.00    -0.259 A  
HETATM   23  C   UNL     1     -10.970   9.012  66.731  1.00  0.00     0.286 A  
HETATM   24  C   UNL     1     -10.698  10.237  66.094  1.00  0.00    -0.042 A  
HETATM   25  C   UNL     1      -9.436  10.831  66.195  1.00  0.00    -0.221 A  
HETATM   26  C   UNL     1      -8.464  10.188  66.944  1.00  0.00    -0.126 A  
ENDBRANCH  12  14
ENDBRANCH   3   7
TORSDOF 2
ENDMDL
MODEL      241
REMARK 921   NORMALIZED FREE ENERGY PREDICTED BY IDOCK:   -0.94 KCAL/MOL
REMARK 922        TOTAL FREE ENERGY PREDICTED BY IDOCK:   -1.53 KCAL/MOL
REMARK 923 INTER-LIGAND FREE ENERGY PREDICTED BY IDOCK:   -1.88 KCAL/MOL
REMARK 924 INTRA-LIGAND FREE ENERGY PREDICTED BY IDOCK:    0.35 KCAL/MOL
REMARK 927      BINDING AFFINITY PREDICTED BY RF-SCORE:    0.00 PKD
ROOT
HETATM    1  N   UNL     1     -13.153  12.353  68.969  1.00  0.00     1.980 N  
HETATM    2  H2  UNL     1     -13.336  13.200  68.431  1.00  0.00     0.000 HD 
HETATM    3  S   UNL     1     -12.105  12.166  70.264  1.00  0.00    -0.228 S  
HETATM    4  H1  UNL     1     -13.567  11.431  68.838  1.00  0.00     0.000 HD 
HETATM    5  O   UNL     1     -12.845  11.510  71.314  1.00  0.00    -0.404 OA 
HETATM    6  O   UNL     1     -11.518  13.474  70.449  1.00  0.00    -0.080 OA 
ENDROOT
BRANCH   3   7
HETATM    7  C   UNL     1     -10.866  11.064  69.663  1.00  0.00    -0.183 A  
HETATM    8  C   UNL     1     -10.450  11.094  68.333  1.00  0.00    -0.188 A  
HETATM    9 CL   UNL     1     -11.007  12.234  67.164  1.00  0.00    -0.289 Cl 
HETATM   10  C   UNL     1      -9.547  10.126  67.881  1.00  0.00    -0.166 A  
HETATM   11  C   UNL     1      -9.095   9.119  68.734  1.00  0.00    -0.136 A  
HETATM   12  C   UNL     1      -9.524   9.060  70.071  1.00  0.00    -0.202 A  
HETATM   13  C   UNL     1     -10.390  10.068  70.535  1.00  0.00    -0.215 A  
BRANCH  12  14
HETATM   14  C   UNL     1      -9.216   7.831  70.919  1.00  0.00    -0.152 C  
HETATM   15  O   UNL     1      -8.111   8.056  71.763  1.00  0.00    -0.100 OA 
HETATM   16  N   UNL     1     -10.292   7.419  71.768  1.00  0.00    -0.192 N  
HETATM   17  H   UNL     1      -7.919   7.290  72.291  1.00  0.00     0.000 HD 
HETATM   18  H   UNL     1     -10.639   7.972  72.551  1.00  0.00     0.000 HD 
HETATM   19  C   UNL     1     -10.804   6.196  71.410  1.00  0.00    -0.265 C  
HETATM   20  O   UNL     1     -11.788   5.653  71.875  1.00  0.00    -0.082 OA 
HETATM   21  C   UNL     1      -9.970   5.672  70.318  1.00  0.00    -0.269 A  
HETATM   22  C   UNL     1     -10.099   4.505  69.586  1.00  0.00    -0.161 A  
HETATM   23  C   UNL     1      -9.187   4.298  68.548  1.00  0.00    -0.194 A  
HETATM   24  C   UNL     1      -8.173   5.237  68.283  1.00  0.00    -0.094 A  
HETATM   25  C   UNL     1      -8.065   6.407  69.040  1.00  0.00    -0.111 A  
HETATM   26  C   UNL     1      -8.987   6.623  70.052  1.00  0.00    -0.144 A  
ENDBRANCH  12  14
ENDBRANCH   3   7
TORSDOF 2
ENDMDL
MODEL      242
REMARK 921   NORMALIZED FREE ENERGY PREDICTED BY IDOCK:    3.54 KCAL/MOL
REMARK 922        TOTAL FREE ENERGY PREDICTED BY IDOCK:    3.48 KCAL/MOL
REMARK 923 INTER-LIGAND FREE ENERGY PREDICTED BY IDOCK:    4.24 KCAL/MOL
REMARK 924 INTRA-LIGAND FREE ENERGY PREDICTED BY IDOCK:   -0.76 KCAL/MOL
REMARK 927      BINDING AFFINITY PREDICTED BY RF-SCORE:    0.00 PKD
ROOT
HETATM    1  N   UNL     1      -6.532  14.723  66.504  1.00  0.00     1.661 N  
HETATM    2  H2  UNL     1      -6.569  15.071  65.546  1.00  0.00     0.000 HD 
HETATM    3  S   UNL     1      -7.555  13.611  67.232  1.00  0.00     0.045 S  
HETATM    4  H1  UNL     1      -5.865  14.974  67.233  1.00  0.00     0.000 HD 
HETATM    5  O   UNL     1      -6.720  12.623  67.868  1.00  0.00    -0.082 OA 
HETATM    6  O   UNL     1      -8.502  13.256  66.198  1.00  0.00     0.481 OA 
ENDROOT
BRANCH   3   7
HETATM    7  C   UNL     1      -8.391  14.541  68.476  1.00  0.00    -0.160 A  
HETATM    8  C   UNL     1      -9.482  14.016  69.166  1.00  0.00     0.236 A  
HETATM    9 CL   UNL     1     -10.079  12.409  68.966  1.00  0.00     0.038 Cl 
HETATM   10  C   UNL     1     -10.178  14.833  70.062  1.00  0.00     0.147 A  
HETATM   11  C   UNL     1      -9.815  16.169  70.238  1.00  0.00     0.619 A  
HETATM   12  C   UNL     1      -8.734  16.721  69.531  1.00  0.00     0.395 A  
HETATM   13  C   UNL     1      -8.003  15.878  68.672  1.00  0.00    -0.156 A  
BRANCH  12  14
HETATM   14  C   UNL     1      -8.498  18.227  69.550  1.00  0.00     0.669 C  
HETATM   15  O   UNL     1      -9.344  18.865  70.478  1.00  0.00     1.819 OA 
HETATM   16  N   UNL     1      -7.163  18.607  69.898  1.00  0.00     0.366 N  
HETATM   17  H   UNL     1      -9.197  19.804  70.489  1.00  0.00     0.000 HD 
HETATM   18  H   UNL     1      -6.750  18.450  70.817  1.00  0.00     0.000 HD 
HETATM   19  C   UNL     1      -6.500  19.209  68.855  1.00  0.00    -0.268 C  
HETATM   20  O   UNL     1      -5.327  19.529  68.825  1.00  0.00    -0.194 OA 
HETATM   21  C   UNL     1      -7.459  19.356  67.751  1.00  0.00    -0.296 A  
HETATM   22  C   UNL     1      -7.272  19.857  66.475  1.00  0.00    -0.275 A  
HETATM   23  C   UNL     1      -8.362  19.810  65.603  1.00  0.00     0.105 A  
HETATM   24  C   UNL     1      -9.600  19.291  66.026  1.00  0.00    -0.239 A  
HETATM   25  C   UNL     1      -9.762  18.793  67.322  1.00  0.00    -0.335 A  
HETATM   26  C   UNL     1      -8.671  18.816  68.177  1.00  0.00    -0.335 A  
ENDBRANCH  12  14
ENDBRANCH   3   7
TORSDOF 2
ENDMDL
MODEL      243
REMARK 921   NORMALIZED FREE ENERGY PREDICTED BY IDOCK:    8.00 KCAL/MOL
REMARK 922        TOTAL FREE ENERGY PREDICTED BY IDOCK:    8.45 KCAL/MOL
REMARK 923 INTER-LIGAND FREE ENERGY PREDICTED BY IDOCK:    8.09 KCAL/MOL
REMARK 924 INTRA-LIGAND FREE ENERGY PREDICTED BY IDOCK:    0.37 KCAL/MOL
REMARK 927      BINDING AFFINITY PREDICTED BY RF-SCORE:    0.00 PKD
ROOT
HETATM    1  N   UNL     1      -7.344  20.910  68.367  1.00  0.00     0.203 N  
HETATM    2  H2  UNL     1      -7.634  21.870  68.182  1.00  0.00     0.000 HD 
HETATM    3  S   UNL     1      -5.918  20.160  67.902  1.00  0.00    -0.232 S  
HETATM    4  H1  UNL     1      -7.857  20.192  68.877  1.00  0.00     0.000 HD 
HETATM    5  O   UNL     1      -5.372  19.527  69.077  1.00  0.00    -0.189 OA 
HETATM    6  O   UNL     1      -5.191  21.179  67.179  1.00  0.00    -0.195 OA 
ENDROOT
BRANCH   3   7
HETATM    7  C   UNL     1      -6.435  18.912  66.767  1.00  0.00    -0.188 A  
HETATM    8  C   UNL     1      -6.126  18.991  65.410  1.00  0.00    -0.248 A  
HETATM    9 CL   UNL     1      -5.153  20.229  64.703  1.00  0.00    -0.188 Cl 
HETATM   10  C   UNL     1      -6.654  18.036  64.536  1.00  0.00     2.187 A  
HETATM   11  C   UNL     1      -7.510  17.038  65.002  1.00  0.00     3.799 A  
HETATM   12  C   UNL     1      -7.851  16.960  66.363  1.00  0.00    -0.348 A  
HETATM   13  C   UNL     1      -7.273  17.891  67.247  1.00  0.00    -0.202 A  
BRANCH  12  14
HETATM   14  C   UNL     1      -8.964  16.023  66.819  1.00  0.00    -0.246 C  
HETATM   15  O   UNL     1     -10.100  16.142  65.995  1.00  0.00    -0.308 OA 
HETATM   16  N   UNL     1      -8.605  14.638  66.809  1.00  0.00    -0.385 N  
HETATM   17  H   UNL     1     -10.794  15.558  66.279  1.00  0.00     0.000 HD 
HETATM   18  H   UNL     1      -8.399  14.111  65.961  1.00  0.00     0.000 HD 
HETATM   19  C   UNL     1      -8.570  14.096  68.072  1.00  0.00    -0.172 C  
HETATM   20  O   UNL     1      -8.189  12.982  68.376  1.00  0.00    -0.151 OA 
HETATM   21  C   UNL     1      -9.035  15.130  69.007  1.00  0.00    -0.219 A  
HETATM   22  C   UNL     1      -9.137  15.097  70.386  1.00  0.00     0.957 A  
HETATM   23  C   UNL     1      -9.552  16.267  71.026  1.00  0.00     3.005 A  
HETATM   24  C   UNL     1      -9.869  17.420  70.282  1.00  0.00     1.663 A  
HETATM   25  C   UNL     1      -9.758  17.425  68.889  1.00  0.00    -0.251 A  
HETATM   26  C   UNL     1      -9.320  16.270  68.259  1.00  0.00    -0.204 A  
ENDBRANCH  12  14
ENDBRANCH   3   7
TORSDOF 2
ENDMDL
MODEL      244
REMARK 921   NORMALIZED FREE ENERGY PREDICTED BY IDOCK:   12.42 KCAL/MOL
REMARK 922        TOTAL FREE ENERGY PREDICTED BY IDOCK:   13.39 KCAL/MOL
REMARK 923 INTER-LIGAND FREE ENERGY PREDICTED BY IDOCK:   13.87 KCAL/MOL
REMARK 924 INTRA-LIGAND FREE ENERGY PREDICTED BY IDOCK:   -0.48 KCAL/MOL
REMARK 927      BINDING AFFINITY PREDICTED BY RF-SCORE:    0.00 PKD
ROOT
HETATM    1  N   UNL     1     -11.894  18.844  71.712  1.00  0.00     6.669 N  
HETATM    2  H2  UNL     1     -11.673  19.774  72.068  1.00  0.00     0.000 HD 
HETATM    3  S   UNL     1     -10.952  17.460  71.803  1.00  0.00     2.643 S  
HETATM    4  H1  UNL     1     -12.737  18.549  71.221  1.00  0.00     0.000 HD 
HETATM    5  O   UNL     1     -11.797  16.407  72.312  1.00  0.00    -0.534 OA 
HETATM    6  O   UNL     1      -9.756  17.878  72.500  1.00  0.00     7.930 OA 
ENDROOT
BRANCH   3   7
HETATM    7  C   UNL     1     -10.541  17.104  70.126  1.00  0.00     0.434 A  
HETATM    8  C   UNL     1      -9.869  18.030  69.330  1.00  0.00    -0.041 A  
HETATM    9 CL   UNL     1      -9.289  19.556  69.890  1.00  0.00     0.361 Cl 
HETATM   10  C   UNL     1      -9.666  17.744  67.976  1.00  0.00    -0.304 A  
HETATM   11  C   UNL     1     -10.162  16.567  67.414  1.00  0.00    -0.287 A  
HETATM   12  C   UNL     1     -10.863  15.635  68.197  1.00  0.00    -0.301 A  
HETATM   13  C   UNL     1     -11.017  15.903  69.571  1.00  0.00    -0.311 A  
BRANCH  12  14
HETATM   14  C   UNL     1     -11.601  14.479  67.530  1.00  0.00    -0.381 C  
HETATM   15  O   UNL     1     -12.381  13.766  68.461  1.00  0.00    -0.441 OA 
HETATM   16  N   UNL     1     -12.491  14.877  66.483  1.00  0.00    -0.079 N  
HETATM   17  H   UNL     1     -12.841  13.045  68.046  1.00  0.00     0.000 HD 
HETATM   18  H   UNL     1     -13.332  15.432  66.634  1.00  0.00     0.000 HD 
HETATM   19  C   UNL     1     -12.084  14.427  65.250  1.00  0.00    -0.380 C  
HETATM   20  O   UNL     1     -12.577  14.706  64.174  1.00  0.00    -0.766 OA 
HETATM   21  C   UNL     1     -10.905  13.575  65.459  1.00  0.00    -0.293 A  
HETATM   22  C   UNL     1     -10.104  12.927  64.536  1.00  0.00    -0.259 A  
HETATM   23  C   UNL     1      -8.994  12.234  65.026  1.00  0.00     0.754 A  
HETATM   24  C   UNL     1      -8.726  12.189  66.407  1.00  0.00    -0.052 A  
HETATM   25  C   UNL     1      -9.554  12.851  67.318  1.00  0.00    -0.220 A  
HETATM   26  C   UNL     1     -10.639  13.561  66.827  1.00  0.00    -0.272 A  
ENDBRANCH  12  14
ENDBRANCH   3   7
TORSDOF 2
ENDMDL
MODEL      245
REMARK 921   NORMALIZED FREE ENERGY PREDICTED BY IDOCK:   13.59 KCAL/MOL
REMARK 922        TOTAL FREE ENERGY PREDICTED BY IDOCK:   14.70 KCAL/MOL
REMARK 923 INTER-LIGAND FREE ENERGY PREDICTED BY IDOCK:   15.15 KCAL/MOL
REMARK 924 INTRA-LIGAND FREE ENERGY PREDICTED BY IDOCK:   -0.45 KCAL/MOL
REMARK 927      BINDING AFFINITY PREDICTED BY RF-SCORE:    0.00 PKD
ROOT
HETATM    1  N   UNL     1      -9.397  11.911  66.903  1.00  0.00    -0.191 N  
HETATM    2  H2  UNL     1      -8.722  11.163  66.747  1.00  0.00     0.000 HD 
HETATM    3  S   UNL     1      -9.672  13.262  65.948  1.00  0.00    -0.111 S  
HETATM    4  H1  UNL     1     -10.056  12.005  67.676  1.00  0.00     0.000 HD 
HETATM    5  O   UNL     1     -11.095  13.340  65.727  1.00  0.00    -0.279 OA 
HETATM    6  O   UNL     1      -8.738  13.128  64.852  1.00  0.00     1.875 OA 
ENDROOT
BRANCH   3   7
HETATM    7  C   UNL     1      -9.175  14.618  66.960  1.00  0.00    -0.239 A  
HETATM    8  C   UNL     1      -7.837  14.822  67.295  1.00  0.00    -0.194 A  
HETATM    9 CL   UNL     1      -6.528  13.863  66.709  1.00  0.00     1.456 Cl 
HETATM   10  C   UNL     1      -7.509  15.845  68.191  1.00  0.00    -0.132 A  
HETATM   11  C   UNL     1      -8.505  16.628  68.775  1.00  0.00    -0.255 A  
HETATM   12  C   UNL     1      -9.860  16.418  68.467  1.00  0.00    -0.231 A  
HETATM   13  C   UNL     1     -10.180  15.423  67.524  1.00  0.00    -0.244 A  
BRANCH  12  14
HETATM   14  C   UNL     1     -10.945  17.111  69.283  1.00  0.00     0.107 C  
HETATM   15  O   UNL     1     -12.226  16.646  68.930  1.00  0.00     0.066 OA 
HETATM   16  N   UNL     1     -10.826  16.923  70.697  1.00  0.00    -0.019 N  
HETATM   17  H   UNL     1     -12.903  17.078  69.438  1.00  0.00     0.000 HD 
HETATM   18  H   UNL     1     -10.940  16.022  71.160  1.00  0.00     0.000 HD 
HETATM   19  C   UNL     1     -10.541  18.092  71.360  1.00  0.00     3.042 C  
HETATM   20  O   UNL     1     -10.275  18.214  72.540  1.00  0.00     4.403 OA 
HETATM   21  C   UNL     1     -10.570  19.178  70.369  1.00  0.00     1.865 A  
HETATM   22  C   UNL     1     -10.304  20.527  70.524  1.00  0.00     1.493 A  
HETATM   23  C   UNL     1     -10.343  21.323  69.377  1.00  0.00     1.297 A  
HETATM   24  C   UNL     1     -10.659  20.764  68.124  1.00  0.00     0.427 A  
HETATM   25  C   UNL     1     -10.925  19.397  67.997  1.00  0.00    -0.035 A  
HETATM   26  C   UNL     1     -10.860  18.605  69.133  1.00  0.00     1.051 A  
ENDBRANCH  12  14
ENDBRANCH   3   7
TORSDOF 2
ENDMDL
MODEL      246
REMARK 921   NORMALIZED FREE ENERGY PREDICTED BY IDOCK:   14.23 KCAL/MOL
REMARK 922        TOTAL FREE ENERGY PREDICTED BY IDOCK:   15.42 KCAL/MOL
REMARK 923 INTER-LIGAND FREE ENERGY PREDICTED BY IDOCK:   15.81 KCAL/MOL
REMARK 924 INTRA-LIGAND FREE ENERGY PREDICTED BY IDOCK:   -0.39 KCAL/MOL
REMARK 927      BINDING AFFINITY PREDICTED BY RF-SCORE:    0.00 PKD
ROOT
HETATM    1  N   UNL     1     -10.765  11.468  66.963  1.00  0.00    -0.245 N  
HETATM    2  H2  UNL     1     -10.686  12.313  66.397  1.00  0.00     0.000 HD 
HETATM    3  S   UNL     1     -11.442  11.315  68.490  1.00  0.00    -0.324 S  
HETATM    4  H1  UNL     1     -10.450  10.528  66.727  1.00  0.00     0.000 HD 
HETATM    5  O   UNL     1     -12.354  10.199  68.437  1.00  0.00     0.526 OA 
HETATM    6  O   UNL     1     -11.888  12.649  68.825  1.00  0.00    -0.302 OA 
ENDROOT
BRANCH   3   7
HETATM    7  C   UNL     1     -10.079  10.892  69.527  1.00  0.00    -0.020 A  
HETATM    8  C   UNL     1     -10.234  10.038  70.619  1.00  0.00    -0.010 A  
HETATM    9 CL   UNL     1     -11.708   9.240  71.029  1.00  0.00    -0.355 Cl 
HETATM   10  C   UNL     1      -9.149   9.824  71.474  1.00  0.00     1.408 A  
HETATM   11  C   UNL     1      -7.937  10.482  71.266  1.00  0.00     3.457 A  
HETATM   12  C   UNL     1      -7.772  11.364  70.185  1.00  0.00     1.561 A  
HETATM   13  C   UNL     1      -8.850  11.534  69.296  1.00  0.00     0.423 A  
BRANCH  12  14
HETATM   14  C   UNL     1      -6.535  12.252  70.106  1.00  0.00     0.167 C  
HETATM   15  O   UNL     1      -5.514  11.783  70.956  1.00  0.00    -0.247 OA 
HETATM   16  N   UNL     1      -5.959  12.341  68.799  1.00  0.00    -0.062 N  
HETATM   17  H   UNL     1      -4.743  12.336  70.906  1.00  0.00     0.000 HD 
HETATM   18  H   UNL     1      -5.525  11.555  68.316  1.00  0.00     0.000 HD 
HETATM   19  C   UNL     1      -6.057  13.604  68.267  1.00  0.00    -0.108 C  
HETATM   20  O   UNL     1      -5.760  13.944  67.138  1.00  0.00    -0.218 OA 
HETATM   21  C   UNL     1      -6.635  14.473  69.302  1.00  0.00    -0.125 A  
HETATM   22  C   UNL     1      -6.975  15.813  69.246  1.00  0.00    -0.186 A  
HETATM   23  C   UNL     1      -7.579  16.368  70.377  1.00  0.00     2.006 A  
HETATM   24  C   UNL     1      -7.807  15.588  71.526  1.00  0.00     4.381 A  
HETATM   25  C   UNL     1      -7.452  14.237  71.556  1.00  0.00     3.490 A  
HETATM   26  C   UNL     1      -6.877  13.682  70.423  1.00  0.00     0.595 A  
ENDBRANCH  12  14
ENDBRANCH   3   7
TORSDOF 2
ENDMDL
MODEL      247
REMARK 921   NORMALIZED FREE ENERGY PREDICTED BY IDOCK:   16.36 KCAL/MOL
REMARK 922        TOTAL FREE ENERGY PREDICTED BY IDOCK:   17.80 KCAL/MOL
REMARK 923 INTER-LIGAND FREE ENERGY PREDICTED BY IDOCK:   18.14 KCAL/MOL
REMARK 924 INTRA-LIGAND FREE ENERGY PREDICTED BY IDOCK:   -0.34 KCAL/MOL
REMARK 927      BINDING AFFINITY PREDICTED BY RF-SCORE:    0.00 PKD
ROOT
HETATM    1  N   UNL     1      -9.393  12.014  66.851  1.00  0.00    -0.194 N  
HETATM    2  H2  UNL     1      -8.652  11.358  66.609  1.00  0.00     0.000 HD 
HETATM    3  S   UNL     1      -9.887  13.368  65.994  1.00  0.00    -0.226 S  
HETATM    4  H1  UNL     1     -10.000  11.994  67.671  1.00  0.00     0.000 HD 
HETATM    5  O   UNL     1     -11.322  13.290  65.874  1.00  0.00    -0.302 OA 
HETATM    6  O   UNL     1      -9.026  13.396  64.832  1.00  0.00     1.316 OA 
ENDROOT
BRANCH   3   7
HETATM    7  C   UNL     1      -9.472  14.722  67.045  1.00  0.00    -0.231 A  
HETATM    8  C   UNL     1      -8.167  15.203  67.130  1.00  0.00    -0.221 A  
HETATM    9 CL   UNL     1      -6.849  14.615  66.183  1.00  0.00     3.771 Cl 
HETATM   10  C   UNL     1      -7.869  16.203  68.060  1.00  0.00    -0.150 A  
HETATM   11  C   UNL     1      -8.853  16.691  68.921  1.00  0.00    -0.238 A  
HETATM   12  C   UNL     1     -10.168  16.200  68.865  1.00  0.00    -0.245 A  
HETATM   13  C   UNL     1     -10.474  15.231  67.889  1.00  0.00    -0.253 A  
BRANCH  12  14
HETATM   14  C   UNL     1     -11.167  16.563  69.958  1.00  0.00    -0.148 C  
HETATM   15  O   UNL     1     -10.980  17.887  70.401  1.00  0.00     0.583 OA 
HETATM   16  N   UNL     1     -12.537  16.464  69.558  1.00  0.00    -0.155 N  
HETATM   17  H   UNL     1     -11.603  18.113  71.082  1.00  0.00     0.000 HD 
HETATM   18  H   UNL     1     -12.967  17.064  68.854  1.00  0.00     0.000 HD 
HETATM   19  C   UNL     1     -13.209  15.470  70.228  1.00  0.00     0.134 C  
HETATM   20  O   UNL     1     -14.342  15.085  70.014  1.00  0.00     1.602 OA 
HETATM   21  C   UNL     1     -12.288  14.916  71.231  1.00  0.00    -0.385 A  
HETATM   22  C   UNL     1     -12.469  13.871  72.119  1.00  0.00    -0.159 A  
HETATM   23  C   UNL     1     -11.381  13.514  72.918  1.00  0.00     4.641 A  
HETATM   24  C   UNL     1     -10.161  14.210  72.825  1.00  0.00     6.604 A  
HETATM   25  C   UNL     1     -10.006  15.264  71.919  1.00  0.00     2.737 A  
HETATM   26  C   UNL     1     -11.080  15.599  71.109  1.00  0.00    -0.345 A  
ENDBRANCH  12  14
ENDBRANCH   3   7
TORSDOF 2
ENDMDL
MODEL      248
REMARK 921   NORMALIZED FREE ENERGY PREDICTED BY IDOCK:   22.76 KCAL/MOL
REMARK 922        TOTAL FREE ENERGY PREDICTED BY IDOCK:   24.94 KCAL/MOL
REMARK 923 INTER-LIGAND FREE ENERGY PREDICTED BY IDOCK:   25.19 KCAL/MOL
REMARK 924 INTRA-LIGAND FREE ENERGY PREDICTED BY IDOCK:   -0.25 KCAL/MOL
REMARK 927      BINDING AFFINITY PREDICTED BY RF-SCORE:    0.00 PKD
ROOT
HETATM    1  N   UNL     1      -8.564  15.269  67.445  1.00  0.00    -0.169 N  
HETATM    2  H2  UNL     1      -7.928  15.206  66.650  1.00  0.00     0.000 HD 
HETATM    3  S   UNL     1      -9.937  14.352  67.736  1.00  0.00    -0.228 S  
HETATM    4  H1  UNL     1      -8.505  15.903  68.241  1.00  0.00     0.000 HD 
HETATM    5  O   UNL     1      -9.840  13.864  69.089  1.00  0.00    -0.016 OA 
HETATM    6  O   UNL     1     -10.021  13.453  66.607  1.00  0.00    -0.262 OA 
ENDROOT
BRANCH   3   7
HETATM    7  C   UNL     1     -11.261  15.513  67.640  1.00  0.00    -0.291 A  
HETATM    8  C   UNL     1     -12.471  15.188  67.027  1.00  0.00     0.895 A  
HETATM    9 CL   UNL     1     -12.850  13.631  66.387  1.00  0.00    -0.120 Cl 
HETATM   10  C   UNL     1     -13.446  16.179  66.878  1.00  0.00     6.457 A  
HETATM   11  C   UNL     1     -13.204  17.487  67.299  1.00  0.00     8.160 A  
HETATM   12  C   UNL     1     -11.981  17.837  67.896  1.00  0.00     2.300 A  
HETATM   13  C   UNL     1     -11.024  16.823  68.092  1.00  0.00    -0.309 A  
BRANCH  12  14
HETATM   14  C   UNL     1     -11.638  19.304  68.131  1.00  0.00     1.734 C  
HETATM   15  O   UNL     1     -12.525  20.153  67.439  1.00  0.00     2.469 OA 
HETATM   16  N   UNL     1     -11.688  19.705  69.503  1.00  0.00     4.055 N  
HETATM   17  H   UNL     1     -12.311  21.067  67.586  1.00  0.00     0.000 HD 
HETATM   18  H   UNL     1     -12.544  19.733  70.055  1.00  0.00     0.000 HD 
HETATM   19  C   UNL     1     -10.451  20.048  69.994  1.00  0.00     0.783 C  
HETATM   20  O   UNL     1     -10.174  20.316  71.148  1.00  0.00     1.336 OA 
HETATM   21  C   UNL     1      -9.501  19.989  68.874  1.00  0.00    -0.110 A  
HETATM   22  C   UNL     1      -8.134  20.199  68.859  1.00  0.00     0.185 A  
HETATM   23  C   UNL     1      -7.469  20.004  67.646  1.00  0.00    -0.327 A  
HETATM   24  C   UNL     1      -8.179  19.628  66.490  1.00  0.00    -0.350 A  
HETATM   25  C   UNL     1      -9.561  19.424  66.533  1.00  0.00    -0.440 A  
HETATM   26  C   UNL     1     -10.214  19.592  67.744  1.00  0.00    -0.565 A  
ENDBRANCH  12  14
ENDBRANCH   3   7
TORSDOF 2
ENDMDL
