MODEL        1
REMARK 921   NORMALIZED FREE ENERGY PREDICTED BY IDOCK:   -5.58 KCAL/MOL
REMARK 922        TOTAL FREE ENERGY PREDICTED BY IDOCK:   -8.26 KCAL/MOL
REMARK 923 INTER-LIGAND FREE ENERGY PREDICTED BY IDOCK:   -7.87 KCAL/MOL
REMARK 924 INTRA-LIGAND FREE ENERGY PREDICTED BY IDOCK:   -0.39 KCAL/MOL
REMARK 927      BINDING AFFINITY PREDICTED BY RF-SCORE:    0.00 PKD
ROOT
HETATM    1  C   UNL     1     -13.850   8.973  72.232  1.00  0.00    -0.547 C  
HETATM    2  C   UNL     1     -13.223  10.011  71.310  1.00  0.00    -0.383 C  
ENDROOT
BRANCH   2   3
HETATM    3  N   UNL     1     -11.750   9.955  71.217  1.00  0.00    -0.381 NA 
BRANCH   3   4
HETATM    4  C   UNL     1     -11.169   8.698  71.719  1.00  0.00    -0.326 C  
HETATM    5  C   UNL     1      -9.672   8.713  72.017  1.00  0.00    -0.391 C  
ENDBRANCH   3   4
BRANCH   3   6
HETATM    6  C   UNL     1     -11.358  10.261  69.831  1.00  0.00    -0.290 C  
BRANCH   6   7
HETATM    7  C   UNL     1     -11.675  11.668  69.292  1.00  0.00    -0.331 C  
BRANCH   7   8
HETATM    8  O   UNL     1     -12.161  11.487  67.946  1.00  0.00    -0.630 OA 
BRANCH   8   9
HETATM    9  C   UNL     1     -11.196  11.572  66.990  1.00  0.00    -0.300 C  
HETATM   10  O   UNL     1     -10.455  10.654  66.684  1.00  0.00    -0.237 OA 
BRANCH   9  11
HETATM   11  C   UNL     1     -11.325  12.880  66.273  1.00  0.00    -0.364 A  
HETATM   12  C   UNL     1     -10.369  13.897  66.398  1.00  0.00    -0.289 A  
HETATM   13  C   UNL     1     -10.475  15.064  65.621  1.00  0.00    -0.368 A  
HETATM   14 CL   UNL     1      -8.998  13.820  67.449  1.00  0.00    -0.213 Cl 
HETATM   15  C   UNL     1     -11.540  15.259  64.743  1.00  0.00    -0.322 A  
HETATM   16  C   UNL     1     -12.456  14.224  64.571  1.00  0.00    -0.357 A  
HETATM   17  N   UNL     1     -11.559  16.359  63.883  1.00  0.00    -1.602 NA 
HETATM   18  H1  UNL     1     -12.338  16.502  63.240  1.00  0.00     0.000 HD 
HETATM   19  C   UNL     1     -12.367  13.061  65.342  1.00  0.00    -0.538 A  
HETATM   20  H2  UNL     1     -10.695  16.356  63.340  1.00  0.00     0.000 HD 
ENDBRANCH   9  11
ENDBRANCH   8   9
ENDBRANCH   7   8
ENDBRANCH   6   7
ENDBRANCH   3   6
ENDBRANCH   2   3
TORSDOF 7
ENDMDL
MODEL        2
REMARK 921   NORMALIZED FREE ENERGY PREDICTED BY IDOCK:   -5.58 KCAL/MOL
REMARK 922        TOTAL FREE ENERGY PREDICTED BY IDOCK:   -8.25 KCAL/MOL
REMARK 923 INTER-LIGAND FREE ENERGY PREDICTED BY IDOCK:   -7.78 KCAL/MOL
REMARK 924 INTRA-LIGAND FREE ENERGY PREDICTED BY IDOCK:   -0.47 KCAL/MOL
REMARK 927      BINDING AFFINITY PREDICTED BY RF-SCORE:    0.00 PKD
ROOT
HETATM    1  C   UNL     1     -13.570  12.625  72.094  1.00  0.00    -0.510 C  
HETATM    2  C   UNL     1     -14.180  14.009  72.278  1.00  0.00    -0.504 C  
ENDROOT
BRANCH   2   3
HETATM    3  N   UNL     1     -13.291  15.134  71.925  1.00  0.00    -0.364 NA 
BRANCH   3   4
HETATM    4  C   UNL     1     -12.971  16.018  73.059  1.00  0.00    -0.490 C  
HETATM    5  C   UNL     1     -12.295  15.364  74.261  1.00  0.00    -0.807 C  
ENDBRANCH   3   4
BRANCH   3   6
HETATM    6  C   UNL     1     -12.095  14.593  71.259  1.00  0.00    -0.350 C  
BRANCH   6   7
HETATM    7  C   UNL     1     -11.958  14.818  69.741  1.00  0.00    -0.321 C  
BRANCH   7   8
HETATM    8  O   UNL     1     -11.250  13.673  69.223  1.00  0.00    -0.255 OA 
BRANCH   8   9
HETATM    9  C   UNL     1     -10.307  13.976  68.291  1.00  0.00    -0.247 C  
HETATM   10  O   UNL     1      -9.115  14.059  68.527  1.00  0.00    -0.192 OA 
BRANCH   9  11
HETATM   11  C   UNL     1     -10.943  14.003  66.936  1.00  0.00    -0.301 A  
HETATM   12  C   UNL     1     -10.854  15.117  66.090  1.00  0.00    -0.330 A  
HETATM   13  C   UNL     1     -11.372  15.056  64.785  1.00  0.00    -0.409 A  
HETATM   14 CL   UNL     1     -10.104  16.613  66.528  1.00  0.00    -0.297 Cl 
HETATM   15  C   UNL     1     -12.016  13.914  64.310  1.00  0.00    -0.444 A  
HETATM   16  C   UNL     1     -12.049  12.785  65.125  1.00  0.00    -0.498 A  
HETATM   17  N   UNL     1     -12.404  13.822  62.972  1.00  0.00    -1.030 NA 
HETATM   18  H1  UNL     1     -12.874  12.986  62.624  1.00  0.00     0.000 HD 
HETATM   19  C   UNL     1     -11.544  12.833  66.428  1.00  0.00    -0.435 A  
HETATM   20  H2  UNL     1     -11.584  13.992  62.389  1.00  0.00     0.000 HD 
ENDBRANCH   9  11
ENDBRANCH   8   9
ENDBRANCH   7   8
ENDBRANCH   6   7
ENDBRANCH   3   6
ENDBRANCH   2   3
TORSDOF 7
ENDMDL
MODEL        3
REMARK 921   NORMALIZED FREE ENERGY PREDICTED BY IDOCK:   -5.52 KCAL/MOL
REMARK 922        TOTAL FREE ENERGY PREDICTED BY IDOCK:   -8.17 KCAL/MOL
REMARK 923 INTER-LIGAND FREE ENERGY PREDICTED BY IDOCK:   -7.61 KCAL/MOL
REMARK 924 INTRA-LIGAND FREE ENERGY PREDICTED BY IDOCK:   -0.56 KCAL/MOL
REMARK 927      BINDING AFFINITY PREDICTED BY RF-SCORE:    0.00 PKD
ROOT
HETATM    1  C   UNL     1     -10.748  16.066  65.181  1.00  0.00    -0.429 C  
HETATM    2  C   UNL     1     -10.785  14.582  64.837  1.00  0.00    -0.429 C  
ENDROOT
BRANCH   2   3
HETATM    3  N   UNL     1     -12.113  14.064  64.450  1.00  0.00    -0.477 NA 
BRANCH   3   4
HETATM    4  C   UNL     1     -12.060  12.950  63.487  1.00  0.00    -0.555 C  
HETATM    5  C   UNL     1     -10.723  12.224  63.363  1.00  0.00    -0.438 C  
ENDBRANCH   3   4
BRANCH   3   6
HETATM    6  C   UNL     1     -12.860  13.735  65.675  1.00  0.00    -0.408 C  
BRANCH   6   7
HETATM    7  C   UNL     1     -12.105  13.003  66.799  1.00  0.00    -0.300 C  
BRANCH   7   8
HETATM    8  O   UNL     1     -12.323  13.770  68.001  1.00  0.00    -0.241 OA 
BRANCH   8   9
HETATM    9  C   UNL     1     -11.357  13.613  68.946  1.00  0.00    -0.290 C  
HETATM   10  O   UNL     1     -10.255  13.141  68.724  1.00  0.00    -0.200 OA 
BRANCH   9  11
HETATM   11  C   UNL     1     -11.797  14.270  70.217  1.00  0.00    -0.377 A  
HETATM   12  C   UNL     1     -11.483  15.603  70.516  1.00  0.00    -0.360 A  
HETATM   13  C   UNL     1     -12.011  16.211  71.668  1.00  0.00    -0.528 A  
HETATM   14 CL   UNL     1     -10.484  16.613  69.528  1.00  0.00    -0.304 Cl 
HETATM   15  C   UNL     1     -12.820  15.505  72.558  1.00  0.00    -0.420 A  
HETATM   16  C   UNL     1     -13.184  14.201  72.230  1.00  0.00    -0.540 A  
HETATM   17  N   UNL     1     -13.443  16.158  73.623  1.00  0.00    -0.894 NA 
HETATM   18  H1  UNL     1     -14.035  15.642  74.273  1.00  0.00     0.000 HD 
HETATM   19  C   UNL     1     -12.661  13.581  71.091  1.00  0.00    -0.425 A  
HETATM   20  H2  UNL     1     -13.985  16.937  73.248  1.00  0.00     0.000 HD 
ENDBRANCH   9  11
ENDBRANCH   8   9
ENDBRANCH   7   8
ENDBRANCH   6   7
ENDBRANCH   3   6
ENDBRANCH   2   3
TORSDOF 7
ENDMDL
MODEL        4
REMARK 921   NORMALIZED FREE ENERGY PREDICTED BY IDOCK:   -5.50 KCAL/MOL
REMARK 922        TOTAL FREE ENERGY PREDICTED BY IDOCK:   -8.15 KCAL/MOL
REMARK 923 INTER-LIGAND FREE ENERGY PREDICTED BY IDOCK:   -7.66 KCAL/MOL
REMARK 924 INTRA-LIGAND FREE ENERGY PREDICTED BY IDOCK:   -0.48 KCAL/MOL
REMARK 927      BINDING AFFINITY PREDICTED BY RF-SCORE:    0.00 PKD
ROOT
HETATM    1  C   UNL     1      -9.670   8.790  71.574  1.00  0.00    -0.361 C  
HETATM    2  C   UNL     1     -11.033   8.453  70.984  1.00  0.00    -0.246 C  
ENDROOT
BRANCH   2   3
HETATM    3  N   UNL     1     -11.792   9.609  70.464  1.00  0.00    -0.247 NA 
BRANCH   3   4
HETATM    4  C   UNL     1     -12.651  10.258  71.469  1.00  0.00    -0.440 C  
HETATM    5  C   UNL     1     -13.575   9.340  72.266  1.00  0.00    -0.544 C  
ENDBRANCH   3   4
BRANCH   3   6
HETATM    6  C   UNL     1     -10.846  10.539  69.825  1.00  0.00    -0.281 C  
BRANCH   6   7
HETATM    7  C   UNL     1     -11.417  11.831  69.212  1.00  0.00    -0.306 C  
BRANCH   7   8
HETATM    8  O   UNL     1     -12.005  11.456  67.949  1.00  0.00    -0.626 OA 
BRANCH   8   9
HETATM    9  C   UNL     1     -11.144  11.508  66.897  1.00  0.00    -0.307 C  
HETATM   10  O   UNL     1     -10.491  10.558  66.501  1.00  0.00    -0.241 OA 
BRANCH   9  11
HETATM   11  C   UNL     1     -11.275  12.835  66.217  1.00  0.00    -0.339 A  
HETATM   12  C   UNL     1     -10.227  13.766  66.186  1.00  0.00    -0.301 A  
HETATM   13  C   UNL     1     -10.358  14.951  65.442  1.00  0.00    -0.413 A  
HETATM   14 CL   UNL     1      -8.714  13.554  66.997  1.00  0.00    -0.218 Cl 
HETATM   15  C   UNL     1     -11.532  15.252  64.753  1.00  0.00    -0.363 A  
HETATM   16  C   UNL     1     -12.549  14.301  64.730  1.00  0.00    -0.310 A  
HETATM   17  N   UNL     1     -11.596  16.365  63.912  1.00  0.00    -1.602 NA 
HETATM   18  H1  UNL     1     -12.454  16.585  63.407  1.00  0.00     0.000 HD 
HETATM   19  C   UNL     1     -12.436  13.121  65.471  1.00  0.00    -0.516 A  
HETATM   20  H2  UNL     1     -10.836  16.299  63.235  1.00  0.00     0.000 HD 
ENDBRANCH   9  11
ENDBRANCH   8   9
ENDBRANCH   7   8
ENDBRANCH   6   7
ENDBRANCH   3   6
ENDBRANCH   2   3
TORSDOF 7
ENDMDL
MODEL        5
REMARK 921   NORMALIZED FREE ENERGY PREDICTED BY IDOCK:   -5.50 KCAL/MOL
REMARK 922        TOTAL FREE ENERGY PREDICTED BY IDOCK:   -8.14 KCAL/MOL
REMARK 923 INTER-LIGAND FREE ENERGY PREDICTED BY IDOCK:   -7.55 KCAL/MOL
REMARK 924 INTRA-LIGAND FREE ENERGY PREDICTED BY IDOCK:   -0.59 KCAL/MOL
REMARK 927      BINDING AFFINITY PREDICTED BY RF-SCORE:    0.00 PKD
ROOT
HETATM    1  C   UNL     1     -11.372  14.739  66.004  1.00  0.00    -0.332 C  
HETATM    2  C   UNL     1     -12.490  13.715  65.852  1.00  0.00    -0.452 C  
ENDROOT
BRANCH   2   3
HETATM    3  N   UNL     1     -12.045  12.350  65.506  1.00  0.00    -0.559 NA 
BRANCH   3   4
HETATM    4  C   UNL     1     -11.731  12.171  64.078  1.00  0.00    -0.430 C  
HETATM    5  C   UNL     1     -10.392  11.513  63.754  1.00  0.00    -0.450 C  
ENDBRANCH   3   4
BRANCH   3   6
HETATM    6  C   UNL     1     -10.929  11.984  66.394  1.00  0.00    -0.296 C  
BRANCH   6   7
HETATM    7  C   UNL     1     -11.140  10.800  67.356  1.00  0.00    -0.296 C  
BRANCH   7   8
HETATM    8  O   UNL     1     -12.071  11.253  68.360  1.00  0.00    -0.598 OA 
BRANCH   8   9
HETATM    9  C   UNL     1     -11.594  11.186  69.632  1.00  0.00    -0.326 C  
HETATM   10  O   UNL     1     -10.651  10.493  69.973  1.00  0.00    -0.256 OA 
BRANCH   9  11
HETATM   11  C   UNL     1     -12.283  12.216  70.473  1.00  0.00    -0.392 A  
HETATM   12  C   UNL     1     -13.063  11.873  71.585  1.00  0.00    -0.328 A  
HETATM   13  C   UNL     1     -13.599  12.878  72.408  1.00  0.00    -0.577 A  
HETATM   14 CL   UNL     1     -13.412  10.248  72.065  1.00  0.00    -0.457 Cl 
HETATM   15  C   UNL     1     -13.405  14.230  72.126  1.00  0.00    -0.416 A  
HETATM   16  C   UNL     1     -12.578  14.572  71.060  1.00  0.00    -0.410 A  
HETATM   17  N   UNL     1     -13.829  15.211  73.025  1.00  0.00    -0.548 NA 
HETATM   18  H1  UNL     1     -13.687  16.199  72.820  1.00  0.00     0.000 HD 
HETATM   19  C   UNL     1     -12.044  13.583  70.227  1.00  0.00    -0.425 A  
HETATM   20  H2  UNL     1     -13.413  15.012  73.936  1.00  0.00     0.000 HD 
ENDBRANCH   9  11
ENDBRANCH   8   9
ENDBRANCH   7   8
ENDBRANCH   6   7
ENDBRANCH   3   6
ENDBRANCH   2   3
TORSDOF 7
ENDMDL
MODEL        6
REMARK 921   NORMALIZED FREE ENERGY PREDICTED BY IDOCK:   -5.47 KCAL/MOL
REMARK 922        TOTAL FREE ENERGY PREDICTED BY IDOCK:   -8.10 KCAL/MOL
REMARK 923 INTER-LIGAND FREE ENERGY PREDICTED BY IDOCK:   -7.63 KCAL/MOL
REMARK 924 INTRA-LIGAND FREE ENERGY PREDICTED BY IDOCK:   -0.47 KCAL/MOL
REMARK 927      BINDING AFFINITY PREDICTED BY RF-SCORE:    0.00 PKD
ROOT
HETATM    1  C   UNL     1     -13.235  13.121  71.671  1.00  0.00    -0.435 C  
HETATM    2  C   UNL     1     -13.140  11.614  71.871  1.00  0.00    -0.385 C  
ENDROOT
BRANCH   2   3
HETATM    3  N   UNL     1     -12.076  10.946  71.095  1.00  0.00    -0.317 NA 
BRANCH   3   4
HETATM    4  C   UNL     1     -11.835   9.549  71.494  1.00  0.00    -0.405 C  
HETATM    5  C   UNL     1     -13.013   8.809  72.122  1.00  0.00    -0.457 C  
ENDBRANCH   3   4
BRANCH   3   6
HETATM    6  C   UNL     1     -12.380  11.095  69.662  1.00  0.00    -0.218 C  
BRANCH   6   7
HETATM    7  C   UNL     1     -11.196  11.287  68.696  1.00  0.00    -0.250 C  
BRANCH   7   8
HETATM    8  O   UNL     1     -11.740  11.186  67.363  1.00  0.00    -0.564 OA 
BRANCH   8   9
HETATM    9  C   UNL     1     -10.830  11.396  66.373  1.00  0.00    -0.271 C  
HETATM   10  O   UNL     1     -10.101  10.531  65.921  1.00  0.00    -0.242 OA 
BRANCH   9  11
HETATM   11  C   UNL     1     -11.007  12.778  65.825  1.00  0.00    -0.306 A  
HETATM   12  C   UNL     1     -10.060  13.790  66.032  1.00  0.00    -0.311 A  
HETATM   13  C   UNL     1     -10.215  15.040  65.407  1.00  0.00    -0.411 A  
HETATM   14 CL   UNL     1      -8.644  13.613  67.011  1.00  0.00    -0.204 Cl 
HETATM   15  C   UNL     1     -11.319  15.319  64.603  1.00  0.00    -0.358 A  
HETATM   16  C   UNL     1     -12.227  14.295  64.345  1.00  0.00    -0.471 A  
HETATM   17  N   UNL     1     -11.389  16.514  63.883  1.00  0.00    -1.559 NA 
HETATM   18  H1  UNL     1     -12.196  16.718  63.294  1.00  0.00     0.000 HD 
HETATM   19  C   UNL     1     -12.090  13.050  64.966  1.00  0.00    -0.470 A  
HETATM   20  H2  UNL     1     -10.549  16.592  63.309  1.00  0.00     0.000 HD 
ENDBRANCH   9  11
ENDBRANCH   8   9
ENDBRANCH   7   8
ENDBRANCH   6   7
ENDBRANCH   3   6
ENDBRANCH   2   3
TORSDOF 7
ENDMDL
MODEL        7
REMARK 921   NORMALIZED FREE ENERGY PREDICTED BY IDOCK:   -5.46 KCAL/MOL
REMARK 922        TOTAL FREE ENERGY PREDICTED BY IDOCK:   -8.08 KCAL/MOL
REMARK 923 INTER-LIGAND FREE ENERGY PREDICTED BY IDOCK:   -7.55 KCAL/MOL
REMARK 924 INTRA-LIGAND FREE ENERGY PREDICTED BY IDOCK:   -0.53 KCAL/MOL
REMARK 927      BINDING AFFINITY PREDICTED BY RF-SCORE:    0.00 PKD
ROOT
HETATM    1  C   UNL     1     -12.430  12.013  63.525  1.00  0.00    -0.654 C  
HETATM    2  C   UNL     1     -12.529  13.030  64.656  1.00  0.00    -0.400 C  
ENDROOT
BRANCH   2   3
HETATM    3  N   UNL     1     -12.146  12.522  65.988  1.00  0.00    -0.612 NA 
BRANCH   3   4
HETATM    4  C   UNL     1     -11.003  11.593  65.965  1.00  0.00    -0.286 C  
HETATM    5  C   UNL     1     -10.793  10.743  67.216  1.00  0.00    -0.344 C  
ENDBRANCH   3   4
BRANCH   3   6
HETATM    6  C   UNL     1     -11.938  13.672  66.885  1.00  0.00    -0.410 C  
BRANCH   6   7
HETATM    7  C   UNL     1     -10.605  14.435  66.773  1.00  0.00    -0.282 C  
BRANCH   7   8
HETATM    8  O   UNL     1     -10.929  15.836  66.878  1.00  0.00    -0.300 OA 
BRANCH   8   9
HETATM    9  C   UNL     1     -10.578  16.573  65.790  1.00  0.00    -0.296 C  
HETATM   10  O   UNL     1     -10.967  16.347  64.657  1.00  0.00    -0.707 OA 
BRANCH   9  11
HETATM   11  C   UNL     1      -9.810  17.778  66.236  1.00  0.00    -0.301 A  
HETATM   12  C   UNL     1      -8.452  17.714  66.575  1.00  0.00    -0.264 A  
HETATM   13  C   UNL     1      -7.745  18.890  66.882  1.00  0.00    -0.250 A  
HETATM   14 CL   UNL     1      -7.528  16.253  66.622  1.00  0.00    -0.266 Cl 
HETATM   15  C   UNL     1      -8.374  20.135  66.895  1.00  0.00    -0.315 A  
HETATM   16  C   UNL     1      -9.707  20.208  66.496  1.00  0.00    -0.553 A  
HETATM   17  N   UNL     1      -7.631  21.304  67.069  1.00  0.00    -0.768 NA 
HETATM   18  H1  UNL     1      -8.091  22.214  67.078  1.00  0.00     0.000 HD 
HETATM   19  C   UNL     1     -10.424  19.046  66.196  1.00  0.00    -0.541 A  
HETATM   20  H2  UNL     1      -6.897  21.325  66.361  1.00  0.00     0.000 HD 
ENDBRANCH   9  11
ENDBRANCH   8   9
ENDBRANCH   7   8
ENDBRANCH   6   7
ENDBRANCH   3   6
ENDBRANCH   2   3
TORSDOF 7
ENDMDL
MODEL        8
REMARK 921   NORMALIZED FREE ENERGY PREDICTED BY IDOCK:   -5.42 KCAL/MOL
REMARK 922        TOTAL FREE ENERGY PREDICTED BY IDOCK:   -8.03 KCAL/MOL
REMARK 923 INTER-LIGAND FREE ENERGY PREDICTED BY IDOCK:   -7.43 KCAL/MOL
REMARK 924 INTRA-LIGAND FREE ENERGY PREDICTED BY IDOCK:   -0.60 KCAL/MOL
REMARK 927      BINDING AFFINITY PREDICTED BY RF-SCORE:    0.00 PKD
ROOT
HETATM    1  C   UNL     1     -12.378  12.050  63.469  1.00  0.00    -0.661 C  
HETATM    2  C   UNL     1     -11.835  13.362  64.020  1.00  0.00    -0.445 C  
ENDROOT
BRANCH   2   3
HETATM    3  N   UNL     1     -11.005  13.234  65.235  1.00  0.00    -0.286 NA 
BRANCH   3   4
HETATM    4  C   UNL     1     -10.328  14.482  65.627  1.00  0.00    -0.349 C  
HETATM    5  C   UNL     1     -10.931  15.239  66.808  1.00  0.00    -0.306 C  
ENDBRANCH   3   4
BRANCH   3   6
HETATM    6  C   UNL     1     -11.834  12.663  66.309  1.00  0.00    -0.410 C  
BRANCH   6   7
HETATM    7  C   UNL     1     -11.234  11.514  67.141  1.00  0.00    -0.301 C  
BRANCH   7   8
HETATM    8  O   UNL     1     -12.153  11.277  68.227  1.00  0.00    -0.619 OA 
BRANCH   8   9
HETATM    9  C   UNL     1     -11.582  11.325  69.461  1.00  0.00    -0.328 C  
HETATM   10  O   UNL     1     -10.595  10.685  69.782  1.00  0.00    -0.238 OA 
BRANCH   9  11
HETATM   11  C   UNL     1     -12.237  12.402  70.267  1.00  0.00    -0.345 A  
HETATM   12  C   UNL     1     -12.997  12.122  71.411  1.00  0.00    -0.257 A  
HETATM   13  C   UNL     1     -13.501  13.171  72.198  1.00  0.00    -0.653 A  
HETATM   14 CL   UNL     1     -13.357  10.526  71.973  1.00  0.00    -0.506 Cl 
HETATM   15  C   UNL     1     -13.295  14.506  71.850  1.00  0.00    -0.365 A  
HETATM   16  C   UNL     1     -12.487  14.787  70.751  1.00  0.00    -0.402 A  
HETATM   17  N   UNL     1     -13.685  15.533  72.712  1.00  0.00    -0.548 NA 
HETATM   18  H1  UNL     1     -13.534  16.509  72.458  1.00  0.00     0.000 HD 
HETATM   19  C   UNL     1     -11.985  13.753  69.954  1.00  0.00    -0.412 A  
HETATM   20  H2  UNL     1     -13.251  15.370  73.621  1.00  0.00     0.000 HD 
ENDBRANCH   9  11
ENDBRANCH   8   9
ENDBRANCH   7   8
ENDBRANCH   6   7
ENDBRANCH   3   6
ENDBRANCH   2   3
TORSDOF 7
ENDMDL
MODEL        9
REMARK 921   NORMALIZED FREE ENERGY PREDICTED BY IDOCK:   -5.40 KCAL/MOL
REMARK 922        TOTAL FREE ENERGY PREDICTED BY IDOCK:   -8.01 KCAL/MOL
REMARK 923 INTER-LIGAND FREE ENERGY PREDICTED BY IDOCK:   -7.76 KCAL/MOL
REMARK 924 INTRA-LIGAND FREE ENERGY PREDICTED BY IDOCK:   -0.25 KCAL/MOL
REMARK 927      BINDING AFFINITY PREDICTED BY RF-SCORE:    0.00 PKD
ROOT
HETATM    1  C   UNL     1     -12.222  12.512  63.348  1.00  0.00    -0.613 C  
HETATM    2  C   UNL     1     -12.240  13.264  64.673  1.00  0.00    -0.407 C  
ENDROOT
BRANCH   2   3
HETATM    3  N   UNL     1     -10.994  13.988  64.998  1.00  0.00    -0.353 NA 
BRANCH   3   4
HETATM    4  C   UNL     1     -11.040  15.425  64.677  1.00  0.00    -0.347 C  
HETATM    5  C   UNL     1     -10.309  16.359  65.638  1.00  0.00    -0.371 C  
ENDBRANCH   3   4
BRANCH   3   6
HETATM    6  C   UNL     1     -10.651  13.720  66.404  1.00  0.00    -0.284 C  
BRANCH   6   7
HETATM    7  C   UNL     1     -11.773  13.214  67.330  1.00  0.00    -0.370 C  
BRANCH   7   8
HETATM    8  O   UNL     1     -11.620  13.922  68.578  1.00  0.00    -0.288 OA 
BRANCH   8   9
HETATM    9  C   UNL     1     -11.800  13.149  69.683  1.00  0.00    -0.324 C  
HETATM   10  O   UNL     1     -11.552  11.957  69.730  1.00  0.00    -0.297 OA 
BRANCH   9  11
HETATM   11  C   UNL     1     -12.163  14.022  70.843  1.00  0.00    -0.436 A  
HETATM   12  C   UNL     1     -12.871  13.536  71.951  1.00  0.00    -0.272 A  
HETATM   13  C   UNL     1     -13.093  14.364  73.065  1.00  0.00    -0.581 A  
HETATM   14 CL   UNL     1     -13.494  11.928  72.078  1.00  0.00    -0.473 Cl 
HETATM   15  C   UNL     1     -12.655  15.688  73.086  1.00  0.00    -0.476 A  
HETATM   16  C   UNL     1     -11.897  16.153  72.015  1.00  0.00    -0.615 A  
HETATM   17  N   UNL     1     -12.764  16.454  74.249  1.00  0.00    -0.860 NA 
HETATM   18  H1  UNL     1     -12.444  17.421  74.265  1.00  0.00     0.000 HD 
HETATM   19  C   UNL     1     -11.674  15.343  70.896  1.00  0.00    -0.395 A  
HETATM   20  H2  UNL     1     -12.301  15.952  75.007  1.00  0.00     0.000 HD 
ENDBRANCH   9  11
ENDBRANCH   8   9
ENDBRANCH   7   8
ENDBRANCH   6   7
ENDBRANCH   3   6
ENDBRANCH   2   3
TORSDOF 7
ENDMDL
MODEL       10
REMARK 921   NORMALIZED FREE ENERGY PREDICTED BY IDOCK:   -5.40 KCAL/MOL
REMARK 922        TOTAL FREE ENERGY PREDICTED BY IDOCK:   -8.00 KCAL/MOL
REMARK 923 INTER-LIGAND FREE ENERGY PREDICTED BY IDOCK:   -7.72 KCAL/MOL
REMARK 924 INTRA-LIGAND FREE ENERGY PREDICTED BY IDOCK:   -0.28 KCAL/MOL
REMARK 927      BINDING AFFINITY PREDICTED BY RF-SCORE:    0.00 PKD
ROOT
HETATM    1  C   UNL     1     -12.465  11.968  63.564  1.00  0.00    -0.654 C  
HETATM    2  C   UNL     1     -11.041  12.472  63.765  1.00  0.00    -0.448 C  
ENDROOT
BRANCH   2   3
HETATM    3  N   UNL     1     -10.721  12.908  65.139  1.00  0.00    -0.296 NA 
BRANCH   3   4
HETATM    4  C   UNL     1     -10.225  14.292  65.224  1.00  0.00    -0.382 C  
HETATM    5  C   UNL     1     -11.200  15.390  64.808  1.00  0.00    -0.404 C  
ENDBRANCH   3   4
BRANCH   3   6
HETATM    6  C   UNL     1     -11.895  12.660  65.993  1.00  0.00    -0.436 C  
BRANCH   6   7
HETATM    7  C   UNL     1     -11.675  12.618  67.516  1.00  0.00    -0.368 C  
BRANCH   7   8
HETATM    8  O   UNL     1     -11.719  11.226  67.894  1.00  0.00    -0.534 OA 
BRANCH   8   9
HETATM    9  C   UNL     1     -10.855  10.893  68.891  1.00  0.00    -0.219 C  
HETATM   10  O   UNL     1      -9.655  11.099  68.853  1.00  0.00    -0.198 OA 
BRANCH   9  11
HETATM   11  C   UNL     1     -11.633  10.420  70.080  1.00  0.00    -0.392 A  
HETATM   12  C   UNL     1     -12.406  11.290  70.861  1.00  0.00    -0.388 A  
HETATM   13  C   UNL     1     -13.206  10.784  71.900  1.00  0.00    -0.524 A  
HETATM   14 CL   UNL     1     -12.482  13.002  70.625  1.00  0.00    -0.384 Cl 
HETATM   15  C   UNL     1     -13.226   9.423  72.206  1.00  0.00    -0.446 A  
HETATM   16  C   UNL     1     -12.509   8.551  71.391  1.00  0.00    -0.327 A  
HETATM   17  N   UNL     1     -14.125   8.921  73.149  1.00  0.00    -1.225 NA 
HETATM   18  H1  UNL     1     -14.141   7.926  73.372  1.00  0.00     0.000 HD 
HETATM   19  C   UNL     1     -11.703   9.041  70.359  1.00  0.00    -0.090 A  
HETATM   20  H2  UNL     1     -15.067   9.200  72.873  1.00  0.00     0.000 HD 
ENDBRANCH   9  11
ENDBRANCH   8   9
ENDBRANCH   7   8
ENDBRANCH   6   7
ENDBRANCH   3   6
ENDBRANCH   2   3
TORSDOF 7
ENDMDL
MODEL       11
REMARK 921   NORMALIZED FREE ENERGY PREDICTED BY IDOCK:   -5.39 KCAL/MOL
REMARK 922        TOTAL FREE ENERGY PREDICTED BY IDOCK:   -7.98 KCAL/MOL
REMARK 923 INTER-LIGAND FREE ENERGY PREDICTED BY IDOCK:   -7.30 KCAL/MOL
REMARK 924 INTRA-LIGAND FREE ENERGY PREDICTED BY IDOCK:   -0.68 KCAL/MOL
REMARK 927      BINDING AFFINITY PREDICTED BY RF-SCORE:    0.00 PKD
ROOT
HETATM    1  C   UNL     1     -12.931   9.903  71.985  1.00  0.00    -0.518 C  
HETATM    2  C   UNL     1     -12.023   9.004  71.155  1.00  0.00    -0.298 C  
ENDROOT
BRANCH   2   3
HETATM    3  N   UNL     1     -10.846   9.677  70.568  1.00  0.00    -0.284 NA 
BRANCH   3   4
HETATM    4  C   UNL     1      -9.564   9.034  70.905  1.00  0.00    -0.262 C  
HETATM    5  C   UNL     1      -9.398   8.565  72.348  1.00  0.00    -0.349 C  
ENDBRANCH   3   4
BRANCH   3   6
HETATM    6  C   UNL     1     -11.061   9.814  69.118  1.00  0.00    -0.123 C  
BRANCH   6   7
HETATM    7  C   UNL     1     -11.679  11.128  68.608  1.00  0.00    -0.320 C  
BRANCH   7   8
HETATM    8  O   UNL     1     -11.458  12.109  69.642  1.00  0.00    -0.280 OA 
BRANCH   8   9
HETATM    9  C   UNL     1     -11.951  13.344  69.353  1.00  0.00    -0.315 C  
HETATM   10  O   UNL     1     -12.280  13.704  68.236  1.00  0.00    -0.329 OA 
BRANCH   9  11
HETATM   11  C   UNL     1     -12.189  14.092  70.628  1.00  0.00    -0.442 A  
HETATM   12  C   UNL     1     -11.690  15.384  70.840  1.00  0.00    -0.354 A  
HETATM   13  C   UNL     1     -12.031  16.090  72.007  1.00  0.00    -0.622 A  
HETATM   14 CL   UNL     1     -10.672  16.229  69.726  1.00  0.00    -0.339 Cl 
HETATM   15  C   UNL     1     -12.834  15.519  72.994  1.00  0.00    -0.472 A  
HETATM   16  C   UNL     1     -13.382  14.261  72.756  1.00  0.00    -0.621 A  
HETATM   17  N   UNL     1     -13.273  16.279  74.080  1.00  0.00    -0.916 NA 
HETATM   18  H1  UNL     1     -13.860  15.862  74.802  1.00  0.00     0.000 HD 
HETATM   19  C   UNL     1     -13.046  13.544  71.604  1.00  0.00    -0.459 A  
HETATM   20  H2  UNL     1     -13.749  17.106  73.720  1.00  0.00     0.000 HD 
ENDBRANCH   9  11
ENDBRANCH   8   9
ENDBRANCH   7   8
ENDBRANCH   6   7
ENDBRANCH   3   6
ENDBRANCH   2   3
TORSDOF 7
ENDMDL
MODEL       12
REMARK 921   NORMALIZED FREE ENERGY PREDICTED BY IDOCK:   -5.37 KCAL/MOL
REMARK 922        TOTAL FREE ENERGY PREDICTED BY IDOCK:   -7.96 KCAL/MOL
REMARK 923 INTER-LIGAND FREE ENERGY PREDICTED BY IDOCK:   -7.52 KCAL/MOL
REMARK 924 INTRA-LIGAND FREE ENERGY PREDICTED BY IDOCK:   -0.44 KCAL/MOL
REMARK 927      BINDING AFFINITY PREDICTED BY RF-SCORE:    0.00 PKD
ROOT
HETATM    1  C   UNL     1     -13.089  11.643  71.903  1.00  0.00    -0.490 C  
HETATM    2  C   UNL     1     -13.771  12.897  72.436  1.00  0.00    -0.431 C  
ENDROOT
BRANCH   2   3
HETATM    3  N   UNL     1     -13.642  14.091  71.576  1.00  0.00    -0.331 NA 
BRANCH   3   4
HETATM    4  C   UNL     1     -13.971  15.354  72.259  1.00  0.00    -0.562 C  
HETATM    5  C   UNL     1     -13.069  15.750  73.425  1.00  0.00    -0.690 C  
ENDBRANCH   3   4
BRANCH   3   6
HETATM    6  C   UNL     1     -12.298  14.091  70.975  1.00  0.00    -0.369 C  
BRANCH   6   7
HETATM    7  C   UNL     1     -12.017  15.106  69.851  1.00  0.00    -0.337 C  
BRANCH   7   8
HETATM    8  O   UNL     1     -11.839  14.336  68.644  1.00  0.00    -0.323 OA 
BRANCH   8   9
HETATM    9  C   UNL     1     -11.403  15.063  67.580  1.00  0.00    -0.333 C  
HETATM   10  O   UNL     1     -11.017  16.216  67.652  1.00  0.00    -0.324 OA 
BRANCH   9  11
HETATM   11  C   UNL     1     -11.303  14.171  66.381  1.00  0.00    -0.342 A  
HETATM   12  C   UNL     1     -10.205  13.328  66.166  1.00  0.00    -0.296 A  
HETATM   13  C   UNL     1     -10.205  12.429  65.086  1.00  0.00    -0.305 A  
HETATM   14 CL   UNL     1      -8.803  13.280  67.179  1.00  0.00    -0.216 Cl 
HETATM   15  C   UNL     1     -11.268  12.376  64.185  1.00  0.00    -0.376 A  
HETATM   16  C   UNL     1     -12.387  13.166  64.432  1.00  0.00    -0.426 A  
HETATM   17  N   UNL     1     -11.314  11.388  63.199  1.00  0.00    -0.864 NA 
HETATM   18  H1  UNL     1     -12.091  11.348  62.540  1.00  0.00     0.000 HD 
HETATM   19  C   UNL     1     -12.398  14.071  65.499  1.00  0.00    -0.503 A  
HETATM   20  H2  UNL     1     -11.236  10.478  63.654  1.00  0.00     0.000 HD 
ENDBRANCH   9  11
ENDBRANCH   8   9
ENDBRANCH   7   8
ENDBRANCH   6   7
ENDBRANCH   3   6
ENDBRANCH   2   3
TORSDOF 7
ENDMDL
MODEL       13
REMARK 921   NORMALIZED FREE ENERGY PREDICTED BY IDOCK:   -5.36 KCAL/MOL
REMARK 922        TOTAL FREE ENERGY PREDICTED BY IDOCK:   -7.94 KCAL/MOL
REMARK 923 INTER-LIGAND FREE ENERGY PREDICTED BY IDOCK:   -7.46 KCAL/MOL
REMARK 924 INTRA-LIGAND FREE ENERGY PREDICTED BY IDOCK:   -0.49 KCAL/MOL
REMARK 927      BINDING AFFINITY PREDICTED BY RF-SCORE:    0.00 PKD
ROOT
HETATM    1  C   UNL     1     -12.530  11.992  63.397  1.00  0.00    -0.625 C  
HETATM    2  C   UNL     1     -11.066  12.348  63.622  1.00  0.00    -0.473 C  
ENDROOT
BRANCH   2   3
HETATM    3  N   UNL     1     -10.772  12.992  64.919  1.00  0.00    -0.315 NA 
BRANCH   3   4
HETATM    4  C   UNL     1     -10.745  14.463  64.861  1.00  0.00    -0.426 C  
HETATM    5  C   UNL     1     -10.871  15.198  66.193  1.00  0.00    -0.330 C  
ENDBRANCH   3   4
BRANCH   3   6
HETATM    6  C   UNL     1     -11.714  12.470  65.923  1.00  0.00    -0.426 C  
BRANCH   6   7
HETATM    7  C   UNL     1     -11.164  11.495  66.981  1.00  0.00    -0.300 C  
BRANCH   7   8
HETATM    8  O   UNL     1     -12.205  11.334  67.966  1.00  0.00    -0.621 OA 
BRANCH   8   9
HETATM    9  C   UNL     1     -11.874  11.785  69.206  1.00  0.00    -0.326 C  
HETATM   10  O   UNL     1     -11.764  12.962  69.498  1.00  0.00    -0.303 OA 
BRANCH   9  11
HETATM   11  C   UNL     1     -11.854  10.632  70.161  1.00  0.00    -0.421 A  
HETATM   12  C   UNL     1     -10.688   9.898  70.422  1.00  0.00    -0.318 A  
HETATM   13  C   UNL     1     -10.692   8.896  71.408  1.00  0.00    -0.382 A  
HETATM   14 CL   UNL     1      -9.177  10.155  69.621  1.00  0.00    -0.227 Cl 
HETATM   15  C   UNL     1     -11.848   8.579  72.119  1.00  0.00    -0.379 A  
HETATM   16  C   UNL     1     -12.989   9.348  71.906  1.00  0.00    -0.502 A  
HETATM   17  N   UNL     1     -11.802   7.677  73.185  1.00  0.00    -0.610 NA 
HETATM   18  H1  UNL     1     -12.647   7.445  73.705  1.00  0.00     0.000 HD 
HETATM   19  C   UNL     1     -13.003  10.344  70.924  1.00  0.00    -0.475 A  
HETATM   20  H2  UNL     1     -11.098   8.002  73.848  1.00  0.00     0.000 HD 
ENDBRANCH   9  11
ENDBRANCH   8   9
ENDBRANCH   7   8
ENDBRANCH   6   7
ENDBRANCH   3   6
ENDBRANCH   2   3
TORSDOF 7
ENDMDL
MODEL       14
REMARK 921   NORMALIZED FREE ENERGY PREDICTED BY IDOCK:   -5.34 KCAL/MOL
REMARK 922        TOTAL FREE ENERGY PREDICTED BY IDOCK:   -7.91 KCAL/MOL
REMARK 923 INTER-LIGAND FREE ENERGY PREDICTED BY IDOCK:   -7.91 KCAL/MOL
REMARK 924 INTRA-LIGAND FREE ENERGY PREDICTED BY IDOCK:   -0.01 KCAL/MOL
REMARK 927      BINDING AFFINITY PREDICTED BY RF-SCORE:    0.00 PKD
ROOT
HETATM    1  C   UNL     1     -13.878  13.290  72.345  1.00  0.00    -0.630 C  
HETATM    2  C   UNL     1     -14.177  14.676  71.787  1.00  0.00    -0.530 C  
ENDROOT
BRANCH   2   3
HETATM    3  N   UNL     1     -13.028  15.604  71.773  1.00  0.00    -0.449 NA 
BRANCH   3   4
HETATM    4  C   UNL     1     -12.047  15.353  72.843  1.00  0.00    -0.437 C  
HETATM    5  C   UNL     1     -12.411  15.870  74.233  1.00  0.00    -0.773 C  
ENDBRANCH   3   4
BRANCH   3   6
HETATM    6  C   UNL     1     -12.432  15.591  70.427  1.00  0.00    -0.402 C  
BRANCH   6   7
HETATM    7  C   UNL     1     -11.430  14.468  70.100  1.00  0.00    -0.242 C  
BRANCH   7   8
HETATM    8  O   UNL     1     -12.120  13.551  69.225  1.00  0.00    -0.322 OA 
BRANCH   8   9
HETATM    9  C   UNL     1     -11.301  12.679  68.576  1.00  0.00    -0.296 C  
HETATM   10  O   UNL     1     -10.699  11.772  69.123  1.00  0.00    -0.202 OA 
BRANCH   9  11
HETATM   11  C   UNL     1     -11.414  12.901  67.100  1.00  0.00    -0.388 A  
HETATM   12  C   UNL     1     -11.002  11.940  66.166  1.00  0.00    -0.308 A  
HETATM   13  C   UNL     1     -11.229  12.147  64.794  1.00  0.00    -0.373 A  
HETATM   14 CL   UNL     1     -10.234  10.447  66.581  1.00  0.00    -0.281 Cl 
HETATM   15  C   UNL     1     -11.827  13.315  64.323  1.00  0.00    -0.417 A  
HETATM   16  C   UNL     1     -12.294  14.241  65.252  1.00  0.00    -0.427 A  
HETATM   17  N   UNL     1     -12.166  13.446  62.975  1.00  0.00    -0.941 NA 
HETATM   18  H1  UNL     1     -12.604  14.300  62.630  1.00  0.00     0.000 HD 
HETATM   19  C   UNL     1     -12.069  14.053  66.620  1.00  0.00    -0.487 A  
HETATM   20  H2  UNL     1     -12.759  12.657  62.716  1.00  0.00     0.000 HD 
ENDBRANCH   9  11
ENDBRANCH   8   9
ENDBRANCH   7   8
ENDBRANCH   6   7
ENDBRANCH   3   6
ENDBRANCH   2   3
TORSDOF 7
ENDMDL
MODEL       15
REMARK 921   NORMALIZED FREE ENERGY PREDICTED BY IDOCK:   -5.33 KCAL/MOL
REMARK 922        TOTAL FREE ENERGY PREDICTED BY IDOCK:   -7.90 KCAL/MOL
REMARK 923 INTER-LIGAND FREE ENERGY PREDICTED BY IDOCK:   -7.50 KCAL/MOL
REMARK 924 INTRA-LIGAND FREE ENERGY PREDICTED BY IDOCK:   -0.41 KCAL/MOL
REMARK 927      BINDING AFFINITY PREDICTED BY RF-SCORE:    0.00 PKD
ROOT
HETATM    1  C   UNL     1     -13.511   9.306  72.406  1.00  0.00    -0.526 C  
HETATM    2  C   UNL     1     -13.081  10.599  71.724  1.00  0.00    -0.466 C  
ENDROOT
BRANCH   2   3
HETATM    3  N   UNL     1     -11.848  10.500  70.917  1.00  0.00    -0.351 NA 
BRANCH   3   4
HETATM    4  C   UNL     1     -11.387   9.117  70.702  1.00  0.00    -0.273 C  
HETATM    5  C   UNL     1     -10.044   8.744  71.325  1.00  0.00    -0.336 C  
ENDBRANCH   3   4
BRANCH   3   6
HETATM    6  C   UNL     1     -12.049  11.244  69.663  1.00  0.00    -0.322 C  
BRANCH   6   7
HETATM    7  C   UNL     1     -11.317  10.740  68.406  1.00  0.00    -0.302 C  
BRANCH   7   8
HETATM    8  O   UNL     1     -11.785  11.552  67.310  1.00  0.00    -0.576 OA 
BRANCH   8   9
HETATM    9  C   UNL     1     -10.960  11.558  66.228  1.00  0.00    -0.275 C  
HETATM   10  O   UNL     1     -10.386  10.571  65.802  1.00  0.00    -0.249 OA 
BRANCH   9  11
HETATM   11  C   UNL     1     -11.025  12.899  65.565  1.00  0.00    -0.301 A  
HETATM   12  C   UNL     1     -11.936  13.180  64.537  1.00  0.00    -0.389 A  
HETATM   13  C   UNL     1     -12.037  14.483  64.021  1.00  0.00    -0.271 A  
HETATM   14 CL   UNL     1     -13.011  12.015  63.845  1.00  0.00    -0.427 Cl 
HETATM   15  C   UNL     1     -11.218  15.513  64.481  1.00  0.00    -0.315 A  
HETATM   16  C   UNL     1     -10.358  15.251  65.544  1.00  0.00    -0.408 A  
HETATM   17  N   UNL     1     -11.422  16.827  64.054  1.00  0.00    -1.396 NA 
HETATM   18  H1  UNL     1     -10.824  17.581  64.391  1.00  0.00     0.000 HD 
HETATM   19  C   UNL     1     -10.242  13.958  66.064  1.00  0.00    -0.317 A  
HETATM   20  H2  UNL     1     -12.392  17.079  64.247  1.00  0.00     0.000 HD 
ENDBRANCH   9  11
ENDBRANCH   8   9
ENDBRANCH   7   8
ENDBRANCH   6   7
ENDBRANCH   3   6
ENDBRANCH   2   3
TORSDOF 7
ENDMDL
MODEL       16
REMARK 921   NORMALIZED FREE ENERGY PREDICTED BY IDOCK:   -5.32 KCAL/MOL
REMARK 922        TOTAL FREE ENERGY PREDICTED BY IDOCK:   -7.89 KCAL/MOL
REMARK 923 INTER-LIGAND FREE ENERGY PREDICTED BY IDOCK:   -7.28 KCAL/MOL
REMARK 924 INTRA-LIGAND FREE ENERGY PREDICTED BY IDOCK:   -0.61 KCAL/MOL
REMARK 927      BINDING AFFINITY PREDICTED BY RF-SCORE:    0.00 PKD
ROOT
HETATM    1  C   UNL     1     -10.497  19.625  66.023  1.00  0.00    -0.622 C  
HETATM    2  C   UNL     1     -10.231  18.240  66.599  1.00  0.00    -0.384 C  
ENDROOT
BRANCH   2   3
HETATM    3  N   UNL     1      -9.139  17.490  65.945  1.00  0.00    -0.516 NA 
BRANCH   3   4
HETATM    4  C   UNL     1      -7.825  17.675  66.583  1.00  0.00    -0.248 C  
HETATM    5  C   UNL     1      -6.821  18.546  65.831  1.00  0.00    -0.318 C  
ENDBRANCH   3   4
BRANCH   3   6
HETATM    6  C   UNL     1      -9.539  16.077  65.842  1.00  0.00    -0.335 C  
BRANCH   6   7
HETATM    7  C   UNL     1     -10.820  15.751  65.052  1.00  0.00    -0.443 C  
BRANCH   7   8
HETATM    8  O   UNL     1     -10.968  14.317  65.093  1.00  0.00    -0.324 OA 
BRANCH   8   9
HETATM    9  C   UNL     1     -12.102  13.892  65.714  1.00  0.00    -0.425 C  
HETATM   10  O   UNL     1     -13.220  13.995  65.240  1.00  0.00    -0.782 OA 
BRANCH   9  11
HETATM   11  C   UNL     1     -11.732  13.132  66.949  1.00  0.00    -0.441 A  
HETATM   12  C   UNL     1     -11.666  13.742  68.209  1.00  0.00    -0.359 A  
HETATM   13  C   UNL     1     -11.423  12.966  69.357  1.00  0.00    -0.323 A  
HETATM   14 CL   UNL     1     -11.896  15.434  68.485  1.00  0.00    -0.342 Cl 
HETATM   15  C   UNL     1     -11.206  11.591  69.273  1.00  0.00    -0.272 A  
HETATM   16  C   UNL     1     -11.334  10.975  68.032  1.00  0.00    -0.374 A  
HETATM   17  N   UNL     1     -11.100  10.818  70.431  1.00  0.00    -0.462 NA 
HETATM   18  H1  UNL     1     -10.942   9.812  70.370  1.00  0.00     0.000 HD 
HETATM   19  C   UNL     1     -11.568  11.734  66.881  1.00  0.00    -0.310 A  
HETATM   20  H2  UNL     1     -11.933  10.975  70.998  1.00  0.00     0.000 HD 
ENDBRANCH   9  11
ENDBRANCH   8   9
ENDBRANCH   7   8
ENDBRANCH   6   7
ENDBRANCH   3   6
ENDBRANCH   2   3
TORSDOF 7
ENDMDL
MODEL       17
REMARK 921   NORMALIZED FREE ENERGY PREDICTED BY IDOCK:   -5.32 KCAL/MOL
REMARK 922        TOTAL FREE ENERGY PREDICTED BY IDOCK:   -7.88 KCAL/MOL
REMARK 923 INTER-LIGAND FREE ENERGY PREDICTED BY IDOCK:   -7.46 KCAL/MOL
REMARK 924 INTRA-LIGAND FREE ENERGY PREDICTED BY IDOCK:   -0.43 KCAL/MOL
REMARK 927      BINDING AFFINITY PREDICTED BY RF-SCORE:    0.00 PKD
ROOT
HETATM    1  C   UNL     1     -14.405   8.166  71.392  1.00  0.00    -0.472 C  
HETATM    2  C   UNL     1     -13.777   9.159  72.362  1.00  0.00    -0.480 C  
ENDROOT
BRANCH   2   3
HETATM    3  N   UNL     1     -12.442   9.656  71.971  1.00  0.00    -0.358 NA 
BRANCH   3   4
HETATM    4  C   UNL     1     -11.481   8.588  71.650  1.00  0.00    -0.298 C  
HETATM    5  C   UNL     1     -11.035   7.703  72.811  1.00  0.00    -0.432 C  
ENDBRANCH   3   4
BRANCH   3   6
HETATM    6  C   UNL     1     -12.608  10.632  70.882  1.00  0.00    -0.407 C  
BRANCH   6   7
HETATM    7  C   UNL     1     -11.562  10.629  69.752  1.00  0.00    -0.309 C  
BRANCH   7   8
HETATM    8  O   UNL     1     -12.235  11.115  68.573  1.00  0.00    -0.600 OA 
BRANCH   8   9
HETATM    9  C   UNL     1     -11.597  12.142  67.950  1.00  0.00    -0.347 C  
HETATM   10  O   UNL     1     -11.196  13.142  68.520  1.00  0.00    -0.241 OA 
BRANCH   9  11
HETATM   11  C   UNL     1     -11.316  11.761  66.530  1.00  0.00    -0.370 A  
HETATM   12  C   UNL     1     -11.827  12.488  65.446  1.00  0.00    -0.428 A  
HETATM   13  C   UNL     1     -11.446  12.160  64.134  1.00  0.00    -0.460 A  
HETATM   14 CL   UNL     1     -12.909  13.830  65.598  1.00  0.00    -0.519 Cl 
HETATM   15  C   UNL     1     -10.590  11.091  63.871  1.00  0.00    -0.312 A  
HETATM   16  C   UNL     1     -10.031  10.409  64.948  1.00  0.00    -0.409 A  
HETATM   17  N   UNL     1     -10.116  10.863  62.577  1.00  0.00    -0.710 NA 
HETATM   18  H1  UNL     1      -9.490  10.081  62.384  1.00  0.00     0.000 HD 
HETATM   19  C   UNL     1     -10.406  10.720  66.259  1.00  0.00    -0.303 A  
HETATM   20  H2  UNL     1      -9.671  11.718  62.243  1.00  0.00     0.000 HD 
ENDBRANCH   9  11
ENDBRANCH   8   9
ENDBRANCH   7   8
ENDBRANCH   6   7
ENDBRANCH   3   6
ENDBRANCH   2   3
TORSDOF 7
ENDMDL
MODEL       18
REMARK 921   NORMALIZED FREE ENERGY PREDICTED BY IDOCK:   -5.30 KCAL/MOL
REMARK 922        TOTAL FREE ENERGY PREDICTED BY IDOCK:   -7.86 KCAL/MOL
REMARK 923 INTER-LIGAND FREE ENERGY PREDICTED BY IDOCK:   -7.33 KCAL/MOL
REMARK 924 INTRA-LIGAND FREE ENERGY PREDICTED BY IDOCK:   -0.53 KCAL/MOL
REMARK 927      BINDING AFFINITY PREDICTED BY RF-SCORE:    0.00 PKD
ROOT
HETATM    1  C   UNL     1      -9.993  10.178  65.761  1.00  0.00    -0.339 C  
HETATM    2  C   UNL     1      -9.789  11.687  65.818  1.00  0.00    -0.239 C  
ENDROOT
BRANCH   2   3
HETATM    3  N   UNL     1     -10.763  12.478  65.040  1.00  0.00    -0.285 NA 
BRANCH   3   4
HETATM    4  C   UNL     1     -11.297  11.773  63.862  1.00  0.00    -0.411 C  
HETATM    5  C   UNL     1     -12.730  12.112  63.459  1.00  0.00    -0.553 C  
ENDBRANCH   3   4
BRANCH   3   6
HETATM    6  C   UNL     1     -11.815  12.954  65.954  1.00  0.00    -0.424 C  
BRANCH   6   7
HETATM    7  C   UNL     1     -11.408  13.955  67.052  1.00  0.00    -0.326 C  
BRANCH   7   8
HETATM    8  O   UNL     1     -12.281  13.703  68.173  1.00  0.00    -0.322 OA 
BRANCH   8   9
HETATM    9  C   UNL     1     -11.661  13.144  69.247  1.00  0.00    -0.314 C  
HETATM   10  O   UNL     1     -10.843  12.244  69.172  1.00  0.00    -0.194 OA 
BRANCH   9  11
HETATM   11  C   UNL     1     -12.003  13.927  70.477  1.00  0.00    -0.384 A  
HETATM   12  C   UNL     1     -11.442  15.183  70.743  1.00  0.00    -0.309 A  
HETATM   13  C   UNL     1     -11.875  15.929  71.853  1.00  0.00    -0.595 A  
HETATM   14 CL   UNL     1     -10.232  15.936  69.763  1.00  0.00    -0.278 Cl 
HETATM   15  C   UNL     1     -12.836  15.432  72.733  1.00  0.00    -0.427 A  
HETATM   16  C   UNL     1     -13.440  14.213  72.435  1.00  0.00    -0.616 A  
HETATM   17  N   UNL     1     -13.352  16.238  73.750  1.00  0.00    -0.901 NA 
HETATM   18  H1  UNL     1     -14.055  15.875  74.394  1.00  0.00     0.000 HD 
HETATM   19  C   UNL     1     -13.014  13.457  71.339  1.00  0.00    -0.412 A  
HETATM   20  H2  UNL     1     -13.717  17.092  73.328  1.00  0.00     0.000 HD 
ENDBRANCH   9  11
ENDBRANCH   8   9
ENDBRANCH   7   8
ENDBRANCH   6   7
ENDBRANCH   3   6
ENDBRANCH   2   3
TORSDOF 7
ENDMDL
MODEL       19
REMARK 921   NORMALIZED FREE ENERGY PREDICTED BY IDOCK:   -5.28 KCAL/MOL
REMARK 922        TOTAL FREE ENERGY PREDICTED BY IDOCK:   -7.83 KCAL/MOL
REMARK 923 INTER-LIGAND FREE ENERGY PREDICTED BY IDOCK:   -7.40 KCAL/MOL
REMARK 924 INTRA-LIGAND FREE ENERGY PREDICTED BY IDOCK:   -0.43 KCAL/MOL
REMARK 927      BINDING AFFINITY PREDICTED BY RF-SCORE:    0.00 PKD
ROOT
HETATM    1  C   UNL     1     -14.374   7.988  71.626  1.00  0.00    -0.581 C  
HETATM    2  C   UNL     1     -13.510   8.805  72.578  1.00  0.00    -0.356 C  
ENDROOT
BRANCH   2   3
HETATM    3  N   UNL     1     -12.500   9.662  71.925  1.00  0.00    -0.384 NA 
BRANCH   3   4
HETATM    4  C   UNL     1     -11.229   8.974  71.641  1.00  0.00    -0.361 C  
HETATM    5  C   UNL     1     -10.687   8.067  72.743  1.00  0.00    -0.431 C  
ENDBRANCH   3   4
BRANCH   3   6
HETATM    6  C   UNL     1     -13.107  10.273  70.731  1.00  0.00    -0.287 C  
BRANCH   6   7
HETATM    7  C   UNL     1     -12.366  11.453  70.075  1.00  0.00    -0.237 C  
BRANCH   7   8
HETATM    8  O   UNL     1     -12.266  11.139  68.671  1.00  0.00    -0.582 OA 
BRANCH   8   9
HETATM    9  C   UNL     1     -11.060  11.438  68.118  1.00  0.00    -0.248 C  
HETATM   10  O   UNL     1     -10.001  10.965  68.492  1.00  0.00    -0.168 OA 
BRANCH   9  11
HETATM   11  C   UNL     1     -11.271  12.273  66.893  1.00  0.00    -0.367 A  
HETATM   12  C   UNL     1     -10.971  11.801  65.607  1.00  0.00    -0.295 A  
HETATM   13  C   UNL     1     -11.289  12.577  64.479  1.00  0.00    -0.379 A  
HETATM   14 CL   UNL     1     -10.239  10.269  65.279  1.00  0.00    -0.359 Cl 
HETATM   15  C   UNL     1     -11.869  13.839  64.604  1.00  0.00    -0.402 A  
HETATM   16  C   UNL     1     -12.226  14.281  65.875  1.00  0.00    -0.422 A  
HETATM   17  N   UNL     1     -12.300  14.537  63.474  1.00  0.00    -1.090 NA 
HETATM   18  H1  UNL     1     -12.725  15.460  63.565  1.00  0.00     0.000 HD 
HETATM   19  C   UNL     1     -11.910  13.524  67.007  1.00  0.00    -0.447 A  
HETATM   20  H2  UNL     1     -12.944  13.939  62.955  1.00  0.00     0.000 HD 
ENDBRANCH   9  11
ENDBRANCH   8   9
ENDBRANCH   7   8
ENDBRANCH   6   7
ENDBRANCH   3   6
ENDBRANCH   2   3
TORSDOF 7
ENDMDL
MODEL       20
REMARK 921   NORMALIZED FREE ENERGY PREDICTED BY IDOCK:   -5.26 KCAL/MOL
REMARK 922        TOTAL FREE ENERGY PREDICTED BY IDOCK:   -7.80 KCAL/MOL
REMARK 923 INTER-LIGAND FREE ENERGY PREDICTED BY IDOCK:   -7.10 KCAL/MOL
REMARK 924 INTRA-LIGAND FREE ENERGY PREDICTED BY IDOCK:   -0.70 KCAL/MOL
REMARK 927      BINDING AFFINITY PREDICTED BY RF-SCORE:    0.00 PKD
ROOT
HETATM    1  C   UNL     1     -12.695  15.136  73.361  1.00  0.00    -0.661 C  
HETATM    2  C   UNL     1     -11.754  15.163  72.164  1.00  0.00    -0.414 C  
ENDROOT
BRANCH   2   3
HETATM    3  N   UNL     1     -12.343  14.689  70.895  1.00  0.00    -0.311 NA 
BRANCH   3   4
HETATM    4  C   UNL     1     -12.040  15.550  69.739  1.00  0.00    -0.349 C  
HETATM    5  C   UNL     1     -10.696  16.275  69.766  1.00  0.00    -0.345 C  
ENDBRANCH   3   4
BRANCH   3   6
HETATM    6  C   UNL     1     -11.945  13.286  70.691  1.00  0.00    -0.185 C  
BRANCH   6   7
HETATM    7  C   UNL     1     -12.029  12.719  69.262  1.00  0.00    -0.246 C  
BRANCH   7   8
HETATM    8  O   UNL     1     -10.669  12.542  68.815  1.00  0.00    -0.228 OA 
BRANCH   8   9
HETATM    9  C   UNL     1     -10.554  12.193  67.505  1.00  0.00    -0.214 C  
HETATM   10  O   UNL     1     -10.436  11.046  67.111  1.00  0.00    -0.209 OA 
BRANCH   9  11
HETATM   11  C   UNL     1     -10.780  13.402  66.651  1.00  0.00    -0.282 A  
HETATM   12  C   UNL     1      -9.849  14.447  66.574  1.00  0.00    -0.287 A  
HETATM   13  C   UNL     1     -10.052  15.508  65.675  1.00  0.00    -0.406 A  
HETATM   14 CL   UNL     1      -8.396  14.526  67.510  1.00  0.00    -0.184 Cl 
HETATM   15  C   UNL     1     -11.190  15.574  64.872  1.00  0.00    -0.389 A  
HETATM   16  C   UNL     1     -12.084  14.506  64.901  1.00  0.00    -0.421 A  
HETATM   17  N   UNL     1     -11.311  16.561  63.892  1.00  0.00    -1.559 NA 
HETATM   18  H1  UNL     1     -12.143  16.609  63.304  1.00  0.00     0.000 HD 
HETATM   19  C   UNL     1     -11.898  13.447  65.795  1.00  0.00    -0.412 A  
HETATM   20  H2  UNL     1     -10.494  16.510  63.284  1.00  0.00     0.000 HD 
ENDBRANCH   9  11
ENDBRANCH   8   9
ENDBRANCH   7   8
ENDBRANCH   6   7
ENDBRANCH   3   6
ENDBRANCH   2   3
TORSDOF 7
ENDMDL
MODEL       21
REMARK 921   NORMALIZED FREE ENERGY PREDICTED BY IDOCK:   -5.25 KCAL/MOL
REMARK 922        TOTAL FREE ENERGY PREDICTED BY IDOCK:   -7.79 KCAL/MOL
REMARK 923 INTER-LIGAND FREE ENERGY PREDICTED BY IDOCK:   -7.38 KCAL/MOL
REMARK 924 INTRA-LIGAND FREE ENERGY PREDICTED BY IDOCK:   -0.41 KCAL/MOL
REMARK 927      BINDING AFFINITY PREDICTED BY RF-SCORE:    0.00 PKD
ROOT
HETATM    1  C   UNL     1     -10.550  19.581  67.451  1.00  0.00    -0.607 C  
HETATM    2  C   UNL     1     -10.465  19.017  66.039  1.00  0.00    -0.458 C  
ENDROOT
BRANCH   2   3
HETATM    3  N   UNL     1      -9.681  17.771  65.910  1.00  0.00    -0.546 NA 
BRANCH   3   4
HETATM    4  C   UNL     1      -8.451  17.756  66.720  1.00  0.00    -0.248 C  
HETATM    5  C   UNL     1      -7.150  17.470  65.974  1.00  0.00    -0.299 C  
ENDBRANCH   3   4
BRANCH   3   6
HETATM    6  C   UNL     1     -10.570  16.630  66.184  1.00  0.00    -0.215 C  
BRANCH   6   7
HETATM    7  C   UNL     1     -10.244  15.289  65.501  1.00  0.00    -0.388 C  
BRANCH   7   8
HETATM    8  O   UNL     1     -11.351  15.001  64.622  1.00  0.00    -0.384 OA 
BRANCH   8   9
HETATM    9  C   UNL     1     -12.070  13.901  64.975  1.00  0.00    -0.406 C  
HETATM   10  O   UNL     1     -13.269  13.910  65.193  1.00  0.00    -0.768 OA 
BRANCH   9  11
HETATM   11  C   UNL     1     -11.201  12.687  64.866  1.00  0.00    -0.332 A  
HETATM   12  C   UNL     1     -10.985  11.824  65.949  1.00  0.00    -0.304 A  
HETATM   13  C   UNL     1     -10.251  10.638  65.771  1.00  0.00    -0.317 A  
HETATM   14 CL   UNL     1     -11.595  12.094  67.545  1.00  0.00    -0.412 Cl 
HETATM   15  C   UNL     1      -9.691  10.307  64.538  1.00  0.00    -0.329 A  
HETATM   16  C   UNL     1      -9.958  11.130  63.447  1.00  0.00    -0.430 A  
HETATM   17  N   UNL     1      -9.083   9.065  64.345  1.00  0.00    -0.420 NA 
HETATM   18  H1  UNL     1      -8.674   8.823  63.443  1.00  0.00     0.000 HD 
HETATM   19  C   UNL     1     -10.680  12.317  63.610  1.00  0.00    -0.513 A  
HETATM   20  H2  UNL     1      -9.753   8.338  64.596  1.00  0.00     0.000 HD 
ENDBRANCH   9  11
ENDBRANCH   8   9
ENDBRANCH   7   8
ENDBRANCH   6   7
ENDBRANCH   3   6
ENDBRANCH   2   3
TORSDOF 7
ENDMDL
MODEL       22
REMARK 921   NORMALIZED FREE ENERGY PREDICTED BY IDOCK:   -5.22 KCAL/MOL
REMARK 922        TOTAL FREE ENERGY PREDICTED BY IDOCK:   -7.74 KCAL/MOL
REMARK 923 INTER-LIGAND FREE ENERGY PREDICTED BY IDOCK:   -7.30 KCAL/MOL
REMARK 924 INTRA-LIGAND FREE ENERGY PREDICTED BY IDOCK:   -0.45 KCAL/MOL
REMARK 927      BINDING AFFINITY PREDICTED BY RF-SCORE:    0.00 PKD
ROOT
HETATM    1  C   UNL     1     -10.769  15.963  65.063  1.00  0.00    -0.426 C  
HETATM    2  C   UNL     1     -10.741  14.470  64.763  1.00  0.00    -0.393 C  
ENDROOT
BRANCH   2   3
HETATM    3  N   UNL     1     -12.040  13.889  64.364  1.00  0.00    -0.465 NA 
BRANCH   3   4
HETATM    4  C   UNL     1     -11.934  12.854  63.321  1.00  0.00    -0.440 C  
HETATM    5  C   UNL     1     -10.709  11.946  63.388  1.00  0.00    -0.476 C  
ENDBRANCH   3   4
BRANCH   3   6
HETATM    6  C   UNL     1     -12.733  13.420  65.575  1.00  0.00    -0.410 C  
BRANCH   6   7
HETATM    7  C   UNL     1     -11.871  12.863  66.723  1.00  0.00    -0.385 C  
BRANCH   7   8
HETATM    8  O   UNL     1     -12.243  13.601  67.906  1.00  0.00    -0.320 OA 
BRANCH   8   9
HETATM    9  C   UNL     1     -11.336  13.527  68.917  1.00  0.00    -0.289 C  
HETATM   10  O   UNL     1     -10.345  14.232  68.998  1.00  0.00    -0.231 OA 
BRANCH   9  11
HETATM   11  C   UNL     1     -11.846  12.595  69.971  1.00  0.00    -0.358 A  
HETATM   12  C   UNL     1     -12.664  13.032  71.022  1.00  0.00    -0.262 A  
HETATM   13  C   UNL     1     -13.208  12.103  71.925  1.00  0.00    -0.474 A  
HETATM   14 CL   UNL     1     -13.099  14.684  71.295  1.00  0.00    -0.403 Cl 
HETATM   15  C   UNL     1     -12.926  10.740  71.827  1.00  0.00    -0.463 A  
HETATM   16  C   UNL     1     -12.166  10.298  70.747  1.00  0.00    -0.447 A  
HETATM   17  N   UNL     1     -13.580   9.819  72.647  1.00  0.00    -0.638 NA 
HETATM   18  H1  UNL     1     -13.374   8.823  72.575  1.00  0.00     0.000 HD 
HETATM   19  C   UNL     1     -11.611  11.211  69.845  1.00  0.00    -0.416 A  
HETATM   20  H2  UNL     1     -14.586   9.945  72.531  1.00  0.00     0.000 HD 
ENDBRANCH   9  11
ENDBRANCH   8   9
ENDBRANCH   7   8
ENDBRANCH   6   7
ENDBRANCH   3   6
ENDBRANCH   2   3
TORSDOF 7
ENDMDL
MODEL       23
REMARK 921   NORMALIZED FREE ENERGY PREDICTED BY IDOCK:   -5.21 KCAL/MOL
REMARK 922        TOTAL FREE ENERGY PREDICTED BY IDOCK:   -7.74 KCAL/MOL
REMARK 923 INTER-LIGAND FREE ENERGY PREDICTED BY IDOCK:   -7.21 KCAL/MOL
REMARK 924 INTRA-LIGAND FREE ENERGY PREDICTED BY IDOCK:   -0.53 KCAL/MOL
REMARK 927      BINDING AFFINITY PREDICTED BY RF-SCORE:    0.00 PKD
ROOT
HETATM    1  C   UNL     1      -9.895  10.144  65.780  1.00  0.00    -0.331 C  
HETATM    2  C   UNL     1      -9.747  11.660  65.805  1.00  0.00    -0.236 C  
ENDROOT
BRANCH   2   3
HETATM    3  N   UNL     1     -10.739  12.397  64.996  1.00  0.00    -0.284 NA 
BRANCH   3   4
HETATM    4  C   UNL     1     -11.141  11.698  63.764  1.00  0.00    -0.420 C  
HETATM    5  C   UNL     1     -12.598  11.856  63.338  1.00  0.00    -0.555 C  
ENDBRANCH   3   4
BRANCH   3   6
HETATM    6  C   UNL     1     -11.878  12.748  65.861  1.00  0.00    -0.437 C  
BRANCH   6   7
HETATM    7  C   UNL     1     -11.667  13.859  66.906  1.00  0.00    -0.399 C  
BRANCH   7   8
HETATM    8  O   UNL     1     -12.371  13.438  68.093  1.00  0.00    -0.190 OA 
BRANCH   8   9
HETATM    9  C   UNL     1     -11.570  13.243  69.175  1.00  0.00    -0.319 C  
HETATM   10  O   UNL     1     -10.477  12.706  69.128  1.00  0.00    -0.058 OA 
BRANCH   9  11
HETATM   11  C   UNL     1     -12.160  13.946  70.359  1.00  0.00    -0.421 A  
HETATM   12  C   UNL     1     -12.727  13.249  71.435  1.00  0.00    -0.309 A  
HETATM   13  C   UNL     1     -13.167  13.946  72.573  1.00  0.00    -0.601 A  
HETATM   14 CL   UNL     1     -12.911  11.530  71.493  1.00  0.00    -0.515 Cl 
HETATM   15  C   UNL     1     -13.090  15.337  72.650  1.00  0.00    -0.427 A  
HETATM   16  C   UNL     1     -12.469  16.024  71.610  1.00  0.00    -0.428 A  
HETATM   17  N   UNL     1     -13.406  16.001  73.837  1.00  0.00    -0.885 NA 
HETATM   18  H1  UNL     1     -13.349  17.017  73.894  1.00  0.00     0.000 HD 
HETATM   19  C   UNL     1     -12.032  15.345  70.469  1.00  0.00    -0.394 A  
HETATM   20  H2  UNL     1     -12.835  15.607  74.586  1.00  0.00     0.000 HD 
ENDBRANCH   9  11
ENDBRANCH   8   9
ENDBRANCH   7   8
ENDBRANCH   6   7
ENDBRANCH   3   6
ENDBRANCH   2   3
TORSDOF 7
ENDMDL
MODEL       24
REMARK 921   NORMALIZED FREE ENERGY PREDICTED BY IDOCK:   -5.19 KCAL/MOL
REMARK 922        TOTAL FREE ENERGY PREDICTED BY IDOCK:   -7.71 KCAL/MOL
REMARK 923 INTER-LIGAND FREE ENERGY PREDICTED BY IDOCK:   -7.06 KCAL/MOL
REMARK 924 INTRA-LIGAND FREE ENERGY PREDICTED BY IDOCK:   -0.65 KCAL/MOL
REMARK 927      BINDING AFFINITY PREDICTED BY RF-SCORE:    0.00 PKD
ROOT
HETATM    1  C   UNL     1     -11.135  14.589  67.337  1.00  0.00    -0.320 C  
HETATM    2  C   UNL     1     -12.386  13.830  66.913  1.00  0.00    -0.285 C  
ENDROOT
BRANCH   2   3
HETATM    3  N   UNL     1     -12.135  12.593  66.145  1.00  0.00    -0.579 NA 
BRANCH   3   4
HETATM    4  C   UNL     1     -12.694  12.615  64.782  1.00  0.00    -0.379 C  
HETATM    5  C   UNL     1     -11.722  12.312  63.645  1.00  0.00    -0.591 C  
ENDBRANCH   3   4
BRANCH   3   6
HETATM    6  C   UNL     1     -10.690  12.311  66.173  1.00  0.00    -0.261 C  
BRANCH   6   7
HETATM    7  C   UNL     1     -10.242  10.922  66.663  1.00  0.00    -0.234 C  
BRANCH   7   8
HETATM    8  O   UNL     1     -11.044  10.622  67.824  1.00  0.00    -0.284 OA 
BRANCH   8   9
HETATM    9  C   UNL     1     -10.461  10.963  69.005  1.00  0.00    -0.219 C  
HETATM   10  O   UNL     1      -9.466  11.661  69.100  1.00  0.00     0.057 OA 
BRANCH   9  11
HETATM   11  C   UNL     1     -11.331  10.507  70.135  1.00  0.00    -0.400 A  
HETATM   12  C   UNL     1     -12.205  11.377  70.803  1.00  0.00    -0.376 A  
HETATM   13  C   UNL     1     -13.082  10.880  71.782  1.00  0.00    -0.564 A  
HETATM   14 CL   UNL     1     -12.318  13.074  70.488  1.00  0.00    -0.397 Cl 
HETATM   15  C   UNL     1     -13.084   9.533  72.143  1.00  0.00    -0.436 A  
HETATM   16  C   UNL     1     -12.262   8.658  71.436  1.00  0.00    -0.348 A  
HETATM   17  N   UNL     1     -14.050   9.033  73.018  1.00  0.00    -1.146 NA 
HETATM   18  H1  UNL     1     -14.052   8.048  73.281  1.00  0.00     0.000 HD 
HETATM   19  C   UNL     1     -11.379   9.138  70.464  1.00  0.00    -0.300 A  
HETATM   20  H2  UNL     1     -14.971   9.264  72.644  1.00  0.00     0.000 HD 
ENDBRANCH   9  11
ENDBRANCH   8   9
ENDBRANCH   7   8
ENDBRANCH   6   7
ENDBRANCH   3   6
ENDBRANCH   2   3
TORSDOF 7
ENDMDL
MODEL       25
REMARK 921   NORMALIZED FREE ENERGY PREDICTED BY IDOCK:   -5.15 KCAL/MOL
REMARK 922        TOTAL FREE ENERGY PREDICTED BY IDOCK:   -7.65 KCAL/MOL
REMARK 923 INTER-LIGAND FREE ENERGY PREDICTED BY IDOCK:   -7.07 KCAL/MOL
REMARK 924 INTRA-LIGAND FREE ENERGY PREDICTED BY IDOCK:   -0.58 KCAL/MOL
REMARK 927      BINDING AFFINITY PREDICTED BY RF-SCORE:    0.00 PKD
ROOT
HETATM    1  C   UNL     1      -9.888   9.690  65.729  1.00  0.00    -0.373 C  
HETATM    2  C   UNL     1      -9.299  11.013  65.255  1.00  0.00    -0.216 C  
ENDROOT
BRANCH   2   3
HETATM    3  N   UNL     1     -10.226  12.162  65.303  1.00  0.00    -0.269 NA 
BRANCH   3   4
HETATM    4  C   UNL     1     -10.590  12.689  63.977  1.00  0.00    -0.427 C  
HETATM    5  C   UNL     1     -11.979  12.321  63.458  1.00  0.00    -0.625 C  
ENDBRANCH   3   4
BRANCH   3   6
HETATM    6  C   UNL     1     -11.394  11.786  66.117  1.00  0.00    -0.280 C  
BRANCH   6   7
HETATM    7  C   UNL     1     -11.707  12.643  67.358  1.00  0.00    -0.369 C  
BRANCH   7   8
HETATM    8  O   UNL     1     -12.251  11.743  68.346  1.00  0.00    -0.467 OA 
BRANCH   8   9
HETATM    9  C   UNL     1     -11.909  12.049  69.626  1.00  0.00    -0.333 C  
HETATM   10  O   UNL     1     -11.795  13.187  70.049  1.00  0.00    -0.321 OA 
BRANCH   9  11
HETATM   11  C   UNL     1     -11.885  10.796  70.444  1.00  0.00    -0.450 A  
HETATM   12  C   UNL     1     -10.770   9.948  70.480  1.00  0.00    -0.317 A  
HETATM   13  C   UNL     1     -10.751   8.842  71.347  1.00  0.00    -0.382 A  
HETATM   14 CL   UNL     1      -9.344  10.177  69.527  1.00  0.00    -0.235 Cl 
HETATM   15  C   UNL     1     -11.842   8.536  72.159  1.00  0.00    -0.379 A  
HETATM   16  C   UNL     1     -12.925   9.412  72.172  1.00  0.00    -0.503 A  
HETATM   17  N   UNL     1     -11.756   7.516  73.109  1.00  0.00    -0.596 NA 
HETATM   18  H1  UNL     1     -12.553   7.293  73.704  1.00  0.00     0.000 HD 
HETATM   19  C   UNL     1     -12.960  10.512  71.310  1.00  0.00    -0.532 A  
HETATM   20  H2  UNL     1     -10.953   7.706  73.711  1.00  0.00     0.000 HD 
ENDBRANCH   9  11
ENDBRANCH   8   9
ENDBRANCH   7   8
ENDBRANCH   6   7
ENDBRANCH   3   6
ENDBRANCH   2   3
TORSDOF 7
ENDMDL
MODEL       26
REMARK 921   NORMALIZED FREE ENERGY PREDICTED BY IDOCK:   -5.12 KCAL/MOL
REMARK 922        TOTAL FREE ENERGY PREDICTED BY IDOCK:   -7.61 KCAL/MOL
REMARK 923 INTER-LIGAND FREE ENERGY PREDICTED BY IDOCK:   -7.09 KCAL/MOL
REMARK 924 INTRA-LIGAND FREE ENERGY PREDICTED BY IDOCK:   -0.51 KCAL/MOL
REMARK 927      BINDING AFFINITY PREDICTED BY RF-SCORE:    0.00 PKD
ROOT
HETATM    1  C   UNL     1      -9.437  16.637  68.668  1.00  0.00    -0.249 C  
HETATM    2  C   UNL     1     -10.415  17.693  68.169  1.00  0.00    -0.385 C  
ENDROOT
BRANCH   2   3
HETATM    3  N   UNL     1     -10.534  17.789  66.700  1.00  0.00    -0.331 NA 
BRANCH   3   4
HETATM    4  C   UNL     1     -10.057  19.068  66.146  1.00  0.00    -0.406 C  
HETATM    5  C   UNL     1      -9.668  20.143  67.159  1.00  0.00    -0.576 C  
ENDBRANCH   3   4
BRANCH   3   6
HETATM    6  C   UNL     1      -9.873  16.617  66.100  1.00  0.00    -0.318 C  
BRANCH   6   7
HETATM    7  C   UNL     1     -10.745  15.642  65.288  1.00  0.00    -0.425 C  
BRANCH   7   8
HETATM    8  O   UNL     1     -11.453  14.833  66.250  1.00  0.00    -0.350 OA 
BRANCH   8   9
HETATM    9  C   UNL     1     -12.207  13.844  65.698  1.00  0.00    -0.452 C  
HETATM   10  O   UNL     1     -13.292  14.024  65.173  1.00  0.00    -0.703 OA 
BRANCH   9  11
HETATM   11  C   UNL     1     -11.417  12.572  65.680  1.00  0.00    -0.400 A  
HETATM   12  C   UNL     1     -11.182  11.822  66.841  1.00  0.00    -0.327 A  
HETATM   13  C   UNL     1     -10.530  10.580  66.758  1.00  0.00    -0.302 A  
HETATM   14 CL   UNL     1     -11.674  12.304  68.427  1.00  0.00    -0.373 Cl 
HETATM   15  C   UNL     1     -10.069  10.079  65.540  1.00  0.00    -0.255 A  
HETATM   16  C   UNL     1     -10.357  10.792  64.379  1.00  0.00    -0.405 A  
HETATM   17  N   UNL     1      -9.546   8.787  65.456  1.00  0.00    -0.453 NA 
HETATM   18  H1  UNL     1      -9.209   8.421  64.566  1.00  0.00     0.000 HD 
HETATM   19  C   UNL     1     -10.999  12.033  64.447  1.00  0.00    -0.385 A  
HETATM   20  H2  UNL     1     -10.239   8.137  65.826  1.00  0.00     0.000 HD 
ENDBRANCH   9  11
ENDBRANCH   8   9
ENDBRANCH   7   8
ENDBRANCH   6   7
ENDBRANCH   3   6
ENDBRANCH   2   3
TORSDOF 7
ENDMDL
MODEL       27
REMARK 921   NORMALIZED FREE ENERGY PREDICTED BY IDOCK:   -5.11 KCAL/MOL
REMARK 922        TOTAL FREE ENERGY PREDICTED BY IDOCK:   -7.59 KCAL/MOL
REMARK 923 INTER-LIGAND FREE ENERGY PREDICTED BY IDOCK:   -7.02 KCAL/MOL
REMARK 924 INTRA-LIGAND FREE ENERGY PREDICTED BY IDOCK:   -0.57 KCAL/MOL
REMARK 927      BINDING AFFINITY PREDICTED BY RF-SCORE:    0.00 PKD
ROOT
HETATM    1  C   UNL     1     -10.481  19.558  67.570  1.00  0.00    -0.596 C  
HETATM    2  C   UNL     1     -10.409  19.134  66.108  1.00  0.00    -0.484 C  
ENDROOT
BRANCH   2   3
HETATM    3  N   UNL     1      -9.597  17.928  65.847  1.00  0.00    -0.530 NA 
BRANCH   3   4
HETATM    4  C   UNL     1      -8.330  17.889  66.598  1.00  0.00    -0.261 C  
HETATM    5  C   UNL     1      -8.011  16.584  67.323  1.00  0.00    -0.191 C  
ENDBRANCH   3   4
BRANCH   3   6
HETATM    6  C   UNL     1     -10.439  16.741  66.069  1.00  0.00    -0.293 C  
BRANCH   6   7
HETATM    7  C   UNL     1     -10.819  15.893  64.841  1.00  0.00    -0.400 C  
BRANCH   7   8
HETATM    8  O   UNL     1     -10.808  14.519  65.278  1.00  0.00    -0.322 OA 
BRANCH   8   9
HETATM    9  C   UNL     1     -12.019  14.056  65.692  1.00  0.00    -0.397 C  
HETATM   10  O   UNL     1     -13.066  14.262  65.104  1.00  0.00    -0.704 OA 
BRANCH   9  11
HETATM   11  C   UNL     1     -11.824  13.128  66.850  1.00  0.00    -0.444 A  
HETATM   12  C   UNL     1     -11.321  11.829  66.689  1.00  0.00    -0.316 A  
HETATM   13  C   UNL     1     -11.050  11.033  67.815  1.00  0.00    -0.356 A  
HETATM   14 CL   UNL     1     -10.963  11.107  65.159  1.00  0.00    -0.220 Cl 
HETATM   15  C   UNL     1     -11.306  11.489  69.108  1.00  0.00    -0.286 A  
HETATM   16  C   UNL     1     -11.745  12.800  69.273  1.00  0.00    -0.376 A  
HETATM   17  N   UNL     1     -10.908  10.741  70.217  1.00  0.00    -0.454 NA 
HETATM   18  H1  UNL     1     -11.094  11.074  71.163  1.00  0.00     0.000 HD 
HETATM   19  C   UNL     1     -12.026  13.602  68.162  1.00  0.00    -0.390 A  
HETATM   20  H2  UNL     1      -9.907  10.556  70.136  1.00  0.00     0.000 HD 
ENDBRANCH   9  11
ENDBRANCH   8   9
ENDBRANCH   7   8
ENDBRANCH   6   7
ENDBRANCH   3   6
ENDBRANCH   2   3
TORSDOF 7
ENDMDL
MODEL       28
REMARK 921   NORMALIZED FREE ENERGY PREDICTED BY IDOCK:   -5.10 KCAL/MOL
REMARK 922        TOTAL FREE ENERGY PREDICTED BY IDOCK:   -7.58 KCAL/MOL
REMARK 923 INTER-LIGAND FREE ENERGY PREDICTED BY IDOCK:   -7.14 KCAL/MOL
REMARK 924 INTRA-LIGAND FREE ENERGY PREDICTED BY IDOCK:   -0.43 KCAL/MOL
REMARK 927      BINDING AFFINITY PREDICTED BY RF-SCORE:    0.00 PKD
ROOT
HETATM    1  C   UNL     1     -12.344  12.452  64.113  1.00  0.00    -0.558 C  
HETATM    2  C   UNL     1     -11.422  11.967  65.225  1.00  0.00    -0.302 C  
ENDROOT
BRANCH   2   3
HETATM    3  N   UNL     1     -11.927  12.187  66.596  1.00  0.00    -0.629 NA 
BRANCH   3   4
HETATM    4  C   UNL     1     -11.169  11.465  67.632  1.00  0.00    -0.283 C  
HETATM    5  C   UNL     1     -11.863  11.287  68.980  1.00  0.00    -0.421 C  
ENDBRANCH   3   4
BRANCH   3   6
HETATM    6  C   UNL     1     -12.003  13.637  66.838  1.00  0.00    -0.410 C  
BRANCH   6   7
HETATM    7  C   UNL     1     -10.690  14.381  67.141  1.00  0.00    -0.283 C  
BRANCH   7   8
HETATM    8  O   UNL     1     -10.950  15.779  66.897  1.00  0.00    -0.300 OA 
BRANCH   8   9
HETATM    9  C   UNL     1     -11.033  16.536  68.025  1.00  0.00    -0.320 C  
HETATM   10  O   UNL     1     -11.584  16.175  69.050  1.00  0.00    -0.353 OA 
BRANCH   9  11
HETATM   11  C   UNL     1     -10.197  17.766  67.857  1.00  0.00    -0.362 A  
HETATM   12  C   UNL     1      -8.853  17.816  68.252  1.00  0.00    -0.277 A  
HETATM   13  C   UNL     1      -8.078  18.955  67.974  1.00  0.00    -0.321 A  
HETATM   14 CL   UNL     1      -8.029  16.529  69.061  1.00  0.00    -0.241 Cl 
HETATM   15  C   UNL     1      -8.624  20.070  67.339  1.00  0.00    -0.341 A  
HETATM   16  C   UNL     1      -9.940  19.998  66.889  1.00  0.00    -0.584 A  
HETATM   17  N   UNL     1      -7.810  21.136  66.951  1.00  0.00    -0.651 NA 
HETATM   18  H1  UNL     1      -8.209  21.951  66.486  1.00  0.00     0.000 HD 
HETATM   19  C   UNL     1     -10.726  18.874  67.165  1.00  0.00    -0.506 A  
HETATM   20  H2  UNL     1      -7.061  20.769  66.363  1.00  0.00     0.000 HD 
ENDBRANCH   9  11
ENDBRANCH   8   9
ENDBRANCH   7   8
ENDBRANCH   6   7
ENDBRANCH   3   6
ENDBRANCH   2   3
TORSDOF 7
ENDMDL
MODEL       29
REMARK 921   NORMALIZED FREE ENERGY PREDICTED BY IDOCK:   -5.10 KCAL/MOL
REMARK 922        TOTAL FREE ENERGY PREDICTED BY IDOCK:   -7.57 KCAL/MOL
REMARK 923 INTER-LIGAND FREE ENERGY PREDICTED BY IDOCK:   -7.19 KCAL/MOL
REMARK 924 INTRA-LIGAND FREE ENERGY PREDICTED BY IDOCK:   -0.39 KCAL/MOL
REMARK 927      BINDING AFFINITY PREDICTED BY RF-SCORE:    0.00 PKD
ROOT
HETATM    1  C   UNL     1      -9.950  10.633  65.952  1.00  0.00    -0.312 C  
HETATM    2  C   UNL     1     -10.754  11.887  66.267  1.00  0.00    -0.271 C  
ENDROOT
BRANCH   2   3
HETATM    3  N   UNL     1     -10.582  12.997  65.308  1.00  0.00    -0.297 NA 
BRANCH   3   4
HETATM    4  C   UNL     1     -10.821  12.614  63.906  1.00  0.00    -0.429 C  
HETATM    5  C   UNL     1     -12.280  12.469  63.481  1.00  0.00    -0.652 C  
ENDBRANCH   3   4
BRANCH   3   6
HETATM    6  C   UNL     1     -11.414  14.129  65.749  1.00  0.00    -0.327 C  
BRANCH   6   7
HETATM    7  C   UNL     1     -11.041  14.818  67.075  1.00  0.00    -0.333 C  
BRANCH   7   8
HETATM    8  O   UNL     1     -12.128  14.558  67.986  1.00  0.00    -0.297 OA 
BRANCH   8   9
HETATM    9  C   UNL     1     -11.856  14.874  69.282  1.00  0.00    -0.318 C  
HETATM   10  O   UNL     1     -11.512  15.981  69.657  1.00  0.00    -0.326 OA 
BRANCH   9  11
HETATM   11  C   UNL     1     -12.221  13.717  70.159  1.00  0.00    -0.413 A  
HETATM   12  C   UNL     1     -13.042  13.863  71.285  1.00  0.00    -0.315 A  
HETATM   13  C   UNL     1     -13.447  12.732  72.015  1.00  0.00    -0.540 A  
HETATM   14 CL   UNL     1     -13.646  15.380  71.859  1.00  0.00    -0.540 Cl 
HETATM   15  C   UNL     1     -13.020  11.451  71.668  1.00  0.00    -0.418 A  
HETATM   16  C   UNL     1     -12.258  11.297  70.513  1.00  0.00    -0.474 A  
HETATM   17  N   UNL     1     -13.538  10.329  72.319  1.00  0.00    -0.537 NA 
HETATM   18  H1  UNL     1     -13.227   9.392  72.065  1.00  0.00     0.000 HD 
HETATM   19  C   UNL     1     -11.840  12.413  69.781  1.00  0.00    -0.387 A  
HETATM   20  H2  UNL     1     -14.556  10.358  72.244  1.00  0.00     0.000 HD 
ENDBRANCH   9  11
ENDBRANCH   8   9
ENDBRANCH   7   8
ENDBRANCH   6   7
ENDBRANCH   3   6
ENDBRANCH   2   3
TORSDOF 7
ENDMDL
MODEL       30
REMARK 921   NORMALIZED FREE ENERGY PREDICTED BY IDOCK:   -5.09 KCAL/MOL
REMARK 922        TOTAL FREE ENERGY PREDICTED BY IDOCK:   -7.56 KCAL/MOL
REMARK 923 INTER-LIGAND FREE ENERGY PREDICTED BY IDOCK:   -6.83 KCAL/MOL
REMARK 924 INTRA-LIGAND FREE ENERGY PREDICTED BY IDOCK:   -0.74 KCAL/MOL
REMARK 927      BINDING AFFINITY PREDICTED BY RF-SCORE:    0.00 PKD
ROOT
HETATM    1  C   UNL     1      -9.105  15.828  69.217  1.00  0.00    -0.263 C  
HETATM    2  C   UNL     1     -10.416  16.576  69.008  1.00  0.00    -0.303 C  
ENDROOT
BRANCH   2   3
HETATM    3  N   UNL     1     -10.532  17.284  67.716  1.00  0.00    -0.359 NA 
BRANCH   3   4
HETATM    4  C   UNL     1     -10.063  18.680  67.758  1.00  0.00    -0.371 C  
HETATM    5  C   UNL     1     -10.625  19.617  66.692  1.00  0.00    -0.599 C  
ENDBRANCH   3   4
BRANCH   3   6
HETATM    6  C   UNL     1      -9.861  16.480  66.681  1.00  0.00    -0.268 C  
BRANCH   6   7
HETATM    7  C   UNL     1     -10.677  16.097  65.432  1.00  0.00    -0.358 C  
BRANCH   7   8
HETATM    8  O   UNL     1     -10.713  14.656  65.397  1.00  0.00    -0.322 OA 
BRANCH   8   9
HETATM    9  C   UNL     1     -11.919  14.121  65.732  1.00  0.00    -0.402 C  
HETATM   10  O   UNL     1     -12.947  14.309  65.106  1.00  0.00    -0.692 OA 
BRANCH   9  11
HETATM   11  C   UNL     1     -11.732  13.145  66.852  1.00  0.00    -0.441 A  
HETATM   12  C   UNL     1     -11.177  11.874  66.650  1.00  0.00    -0.328 A  
HETATM   13  C   UNL     1     -10.919  11.034  67.747  1.00  0.00    -0.323 A  
HETATM   14 CL   UNL     1     -10.739  11.238  65.102  1.00  0.00    -0.336 Cl 
HETATM   15  C   UNL     1     -11.237  11.419  69.049  1.00  0.00    -0.256 A  
HETATM   16  C   UNL     1     -11.729  12.705  69.258  1.00  0.00    -0.379 A  
HETATM   17  N   UNL     1     -10.852  10.632  70.137  1.00  0.00    -0.451 NA 
HETATM   18  H1  UNL     1     -11.084  10.914  71.089  1.00  0.00     0.000 HD 
HETATM   19  C   UNL     1     -11.997  13.549  68.176  1.00  0.00    -0.376 A  
HETATM   20  H2  UNL     1      -9.843  10.486  70.085  1.00  0.00     0.000 HD 
ENDBRANCH   9  11
ENDBRANCH   8   9
ENDBRANCH   7   8
ENDBRANCH   6   7
ENDBRANCH   3   6
ENDBRANCH   2   3
TORSDOF 7
ENDMDL
MODEL       31
REMARK 921   NORMALIZED FREE ENERGY PREDICTED BY IDOCK:   -5.08 KCAL/MOL
REMARK 922        TOTAL FREE ENERGY PREDICTED BY IDOCK:   -7.55 KCAL/MOL
REMARK 923 INTER-LIGAND FREE ENERGY PREDICTED BY IDOCK:   -6.89 KCAL/MOL
REMARK 924 INTRA-LIGAND FREE ENERGY PREDICTED BY IDOCK:   -0.66 KCAL/MOL
REMARK 927      BINDING AFFINITY PREDICTED BY RF-SCORE:    0.00 PKD
ROOT
HETATM    1  C   UNL     1     -10.342  20.066  66.261  1.00  0.00    -0.570 C  
HETATM    2  C   UNL     1     -10.447  19.288  67.566  1.00  0.00    -0.459 C  
ENDROOT
BRANCH   2   3
HETATM    3  N   UNL     1     -10.765  17.853  67.413  1.00  0.00    -0.343 NA 
BRANCH   3   4
HETATM    4  C   UNL     1     -10.226  17.252  66.182  1.00  0.00    -0.331 C  
HETATM    5  C   UNL     1      -8.875  16.550  66.303  1.00  0.00    -0.364 C  
ENDBRANCH   3   4
BRANCH   3   6
HETATM    6  C   UNL     1     -10.341  17.149  68.635  1.00  0.00    -0.359 C  
BRANCH   6   7
HETATM    7  C   UNL     1     -11.229  15.998  69.142  1.00  0.00    -0.342 C  
BRANCH   7   8
HETATM    8  O   UNL     1     -10.589  14.775  68.720  1.00  0.00    -0.236 OA 
BRANCH   8   9
HETATM    9  C   UNL     1     -11.426  13.705  68.650  1.00  0.00    -0.307 C  
HETATM   10  O   UNL     1     -12.116  13.315  69.575  1.00  0.00    -0.303 OA 
BRANCH   9  11
HETATM   11  C   UNL     1     -11.491  13.221  67.234  1.00  0.00    -0.378 A  
HETATM   12  C   UNL     1     -10.821  12.066  66.808  1.00  0.00    -0.266 A  
HETATM   13  C   UNL     1     -11.000  11.589  65.498  1.00  0.00    -0.290 A  
HETATM   14 CL   UNL     1      -9.772  11.124  67.810  1.00  0.00    -0.178 Cl 
HETATM   15  C   UNL     1     -11.809  12.262  64.583  1.00  0.00    -0.367 A  
HETATM   16  C   UNL     1     -12.525  13.373  65.023  1.00  0.00    -0.479 A  
HETATM   17  N   UNL     1     -12.083  11.705  63.332  1.00  0.00    -0.829 NA 
HETATM   18  H1  UNL     1     -12.675  12.196  62.663  1.00  0.00     0.000 HD 
HETATM   19  C   UNL     1     -12.351  13.863  66.321  1.00  0.00    -0.489 A  
HETATM   20  H2  UNL     1     -12.471  10.772  63.476  1.00  0.00     0.000 HD 
ENDBRANCH   9  11
ENDBRANCH   8   9
ENDBRANCH   7   8
ENDBRANCH   6   7
ENDBRANCH   3   6
ENDBRANCH   2   3
TORSDOF 7
ENDMDL
MODEL       32
REMARK 921   NORMALIZED FREE ENERGY PREDICTED BY IDOCK:   -5.07 KCAL/MOL
REMARK 922        TOTAL FREE ENERGY PREDICTED BY IDOCK:   -7.53 KCAL/MOL
REMARK 923 INTER-LIGAND FREE ENERGY PREDICTED BY IDOCK:   -6.92 KCAL/MOL
REMARK 924 INTRA-LIGAND FREE ENERGY PREDICTED BY IDOCK:   -0.61 KCAL/MOL
REMARK 927      BINDING AFFINITY PREDICTED BY RF-SCORE:    0.00 PKD
ROOT
HETATM    1  C   UNL     1      -9.560   7.712  73.306  1.00  0.00    -0.326 C  
HETATM    2  C   UNL     1     -11.076   7.580  73.222  1.00  0.00    -0.241 C  
ENDROOT
BRANCH   2   3
HETATM    3  N   UNL     1     -11.691   8.195  72.028  1.00  0.00    -0.310 NA 
BRANCH   3   4
HETATM    4  C   UNL     1     -13.050   8.713  72.259  1.00  0.00    -0.372 C  
HETATM    5  C   UNL     1     -14.190   7.958  71.580  1.00  0.00    -0.564 C  
ENDBRANCH   3   4
BRANCH   3   6
HETATM    6  C   UNL     1     -10.767   9.210  71.498  1.00  0.00    -0.367 C  
BRANCH   6   7
HETATM    7  C   UNL     1     -10.884   9.575  70.006  1.00  0.00    -0.252 C  
BRANCH   7   8
HETATM    8  O   UNL     1     -10.752  11.009  69.927  1.00  0.00    -0.164 OA 
BRANCH   8   9
HETATM    9  C   UNL     1     -11.837  11.640  69.402  1.00  0.00    -0.342 C  
HETATM   10  O   UNL     1     -12.411  11.282  68.388  1.00  0.00    -0.545 OA 
BRANCH   9  11
HETATM   11  C   UNL     1     -12.302  12.698  70.354  1.00  0.00    -0.315 A  
HETATM   12  C   UNL     1     -12.176  14.065  70.070  1.00  0.00    -0.352 A  
HETATM   13  C   UNL     1     -12.726  15.020  70.943  1.00  0.00    -0.437 A  
HETATM   14 CL   UNL     1     -11.395  14.699  68.663  1.00  0.00    -0.287 Cl 
HETATM   15  C   UNL     1     -13.371  14.644  72.121  1.00  0.00    -0.375 A  
HETATM   16  C   UNL     1     -13.552  13.286  72.372  1.00  0.00    -0.694 A  
HETATM   17  N   UNL     1     -14.027  15.594  72.906  1.00  0.00    -0.593 NA 
HETATM   18  H1  UNL     1     -14.498  15.319  73.767  1.00  0.00     0.000 HD 
HETATM   19  C   UNL     1     -13.004  12.325  71.517  1.00  0.00    -0.390 A  
HETATM   20  H2  UNL     1     -14.699  16.086  72.317  1.00  0.00     0.000 HD 
ENDBRANCH   9  11
ENDBRANCH   8   9
ENDBRANCH   7   8
ENDBRANCH   6   7
ENDBRANCH   3   6
ENDBRANCH   2   3
TORSDOF 7
ENDMDL
MODEL       33
REMARK 921   NORMALIZED FREE ENERGY PREDICTED BY IDOCK:   -5.06 KCAL/MOL
REMARK 922        TOTAL FREE ENERGY PREDICTED BY IDOCK:   -7.53 KCAL/MOL
REMARK 923 INTER-LIGAND FREE ENERGY PREDICTED BY IDOCK:   -7.02 KCAL/MOL
REMARK 924 INTRA-LIGAND FREE ENERGY PREDICTED BY IDOCK:   -0.51 KCAL/MOL
REMARK 927      BINDING AFFINITY PREDICTED BY RF-SCORE:    0.00 PKD
ROOT
HETATM    1  C   UNL     1     -11.202   6.230  70.097  1.00  0.00    -0.470 C  
HETATM    2  C   UNL     1     -10.795   7.678  70.335  1.00  0.00    -0.244 C  
ENDROOT
BRANCH   2   3
HETATM    3  N   UNL     1     -11.898   8.582  70.720  1.00  0.00    -0.222 NA 
BRANCH   3   4
HETATM    4  C   UNL     1     -12.727   8.072  71.825  1.00  0.00    -0.329 C  
HETATM    5  C   UNL     1     -13.919   8.934  72.234  1.00  0.00    -0.531 C  
ENDBRANCH   3   4
BRANCH   3   6
HETATM    6  C   UNL     1     -11.337   9.917  70.985  1.00  0.00    -0.386 C  
BRANCH   6   7
HETATM    7  C   UNL     1     -11.832  11.087  70.115  1.00  0.00    -0.357 C  
BRANCH   7   8
HETATM    8  O   UNL     1     -11.489  10.753  68.754  1.00  0.00    -0.269 OA 
BRANCH   8   9
HETATM    9  C   UNL     1     -10.574  11.587  68.190  1.00  0.00    -0.196 C  
HETATM   10  O   UNL     1      -9.413  11.672  68.552  1.00  0.00    -0.195 OA 
BRANCH   9  11
HETATM   11  C   UNL     1     -11.167  12.218  66.969  1.00  0.00    -0.367 A  
HETATM   12  C   UNL     1     -11.759  13.488  66.998  1.00  0.00    -0.383 A  
HETATM   13  C   UNL     1     -12.203  14.087  65.806  1.00  0.00    -0.475 A  
HETATM   14 CL   UNL     1     -11.972  14.430  68.433  1.00  0.00    -0.356 Cl 
HETATM   15  C   UNL     1     -12.104  13.429  64.580  1.00  0.00    -0.410 A  
HETATM   16  C   UNL     1     -11.459  12.196  64.540  1.00  0.00    -0.397 A  
HETATM   17  N   UNL     1     -12.425  14.089  63.392  1.00  0.00    -1.123 NA 
HETATM   18  H1  UNL     1     -12.352  13.609  62.496  1.00  0.00     0.000 HD 
HETATM   19  C   UNL     1     -11.018  11.585  65.719  1.00  0.00    -0.305 A  
HETATM   20  H2  UNL     1     -11.871  14.944  63.342  1.00  0.00     0.000 HD 
ENDBRANCH   9  11
ENDBRANCH   8   9
ENDBRANCH   7   8
ENDBRANCH   6   7
ENDBRANCH   3   6
ENDBRANCH   2   3
TORSDOF 7
ENDMDL
MODEL       34
REMARK 921   NORMALIZED FREE ENERGY PREDICTED BY IDOCK:   -5.06 KCAL/MOL
REMARK 922        TOTAL FREE ENERGY PREDICTED BY IDOCK:   -7.53 KCAL/MOL
REMARK 923 INTER-LIGAND FREE ENERGY PREDICTED BY IDOCK:   -6.90 KCAL/MOL
REMARK 924 INTRA-LIGAND FREE ENERGY PREDICTED BY IDOCK:   -0.63 KCAL/MOL
REMARK 927      BINDING AFFINITY PREDICTED BY RF-SCORE:    0.00 PKD
ROOT
HETATM    1  C   UNL     1      -9.924  11.422  65.564  1.00  0.00    -0.282 C  
HETATM    2  C   UNL     1     -10.867  11.339  66.757  1.00  0.00    -0.282 C  
ENDROOT
BRANCH   2   3
HETATM    3  N   UNL     1     -12.031  12.247  66.698  1.00  0.00    -0.622 NA 
BRANCH   3   4
HETATM    4  C   UNL     1     -11.976  13.349  67.673  1.00  0.00    -0.322 C  
HETATM    5  C   UNL     1     -11.051  13.152  68.871  1.00  0.00    -0.310 C  
ENDBRANCH   3   4
BRANCH   3   6
HETATM    6  C   UNL     1     -12.192  12.709  65.310  1.00  0.00    -0.475 C  
BRANCH   6   7
HETATM    7  C   UNL     1     -12.325  14.225  65.071  1.00  0.00    -0.428 C  
BRANCH   7   8
HETATM    8  O   UNL     1     -11.043  14.674  64.586  1.00  0.00    -0.376 OA 
BRANCH   8   9
HETATM    9  C   UNL     1     -10.815  16.004  64.764  1.00  0.00    -0.294 C  
HETATM   10  O   UNL     1     -11.443  16.885  64.202  1.00  0.00    -1.174 OA 
BRANCH   9  11
HETATM   11  C   UNL     1      -9.824  16.192  65.870  1.00  0.00    -0.384 A  
HETATM   12  C   UNL     1      -9.681  17.412  66.544  1.00  0.00    -0.293 A  
HETATM   13  C   UNL     1      -8.817  17.511  67.648  1.00  0.00    -0.228 A  
HETATM   14 CL   UNL     1     -10.536  18.859  66.132  1.00  0.00    -0.511 Cl 
HETATM   15  C   UNL     1      -8.057  16.423  68.078  1.00  0.00    -0.157 A  
HETATM   16  C   UNL     1      -8.246  15.195  67.450  1.00  0.00    -0.215 A  
HETATM   17  N   UNL     1      -7.309  16.500  69.254  1.00  0.00    -0.232 NA 
HETATM   18  H1  UNL     1      -6.754  15.704  69.568  1.00  0.00     0.000 HD 
HETATM   19  C   UNL     1      -9.096  15.083  66.345  1.00  0.00    -0.312 A  
HETATM   20  H2  UNL     1      -7.933  16.773  70.013  1.00  0.00     0.000 HD 
ENDBRANCH   9  11
ENDBRANCH   8   9
ENDBRANCH   7   8
ENDBRANCH   6   7
ENDBRANCH   3   6
ENDBRANCH   2   3
TORSDOF 7
ENDMDL
MODEL       35
REMARK 921   NORMALIZED FREE ENERGY PREDICTED BY IDOCK:   -5.04 KCAL/MOL
REMARK 922        TOTAL FREE ENERGY PREDICTED BY IDOCK:   -7.49 KCAL/MOL
REMARK 923 INTER-LIGAND FREE ENERGY PREDICTED BY IDOCK:   -6.91 KCAL/MOL
REMARK 924 INTRA-LIGAND FREE ENERGY PREDICTED BY IDOCK:   -0.57 KCAL/MOL
REMARK 927      BINDING AFFINITY PREDICTED BY RF-SCORE:    0.00 PKD
ROOT
HETATM    1  C   UNL     1     -10.070  19.723  66.405  1.00  0.00    -0.600 C  
HETATM    2  C   UNL     1     -10.532  18.850  67.565  1.00  0.00    -0.450 C  
ENDROOT
BRANCH   2   3
HETATM    3  N   UNL     1     -10.376  17.397  67.353  1.00  0.00    -0.334 NA 
BRANCH   3   4
HETATM    4  C   UNL     1      -9.799  17.044  66.044  1.00  0.00    -0.241 C  
HETATM    5  C   UNL     1     -10.549  15.990  65.234  1.00  0.00    -0.424 C  
ENDBRANCH   3   4
BRANCH   3   6
HETATM    6  C   UNL     1      -9.622  16.838  68.487  1.00  0.00    -0.245 C  
BRANCH   6   7
HETATM    7  C   UNL     1     -10.405  16.028  69.538  1.00  0.00    -0.278 C  
BRANCH   7   8
HETATM    8  O   UNL     1     -10.384  14.657  69.091  1.00  0.00    -0.238 OA 
BRANCH   8   9
HETATM    9  C   UNL     1     -11.607  14.159  68.763  1.00  0.00    -0.327 C  
HETATM   10  O   UNL     1     -12.184  14.400  67.717  1.00  0.00    -0.314 OA 
BRANCH   9  11
HETATM   11  C   UNL     1     -12.021  13.151  69.790  1.00  0.00    -0.382 A  
HETATM   12  C   UNL     1     -12.811  13.493  70.896  1.00  0.00    -0.226 A  
HETATM   13  C   UNL     1     -13.267  12.494  71.773  1.00  0.00    -0.444 A  
HETATM   14 CL   UNL     1     -13.316  15.105  71.271  1.00  0.00    -0.505 Cl 
HETATM   15  C   UNL     1     -12.922  11.155  71.593  1.00  0.00    -0.443 A  
HETATM   16  C   UNL     1     -12.191  10.805  70.461  1.00  0.00    -0.457 A  
HETATM   17  N   UNL     1     -13.491  10.161  72.392  1.00  0.00    -0.594 NA 
HETATM   18  H1  UNL     1     -13.239   9.182  72.261  1.00  0.00     0.000 HD 
HETATM   19  C   UNL     1     -11.724  11.789  69.583  1.00  0.00    -0.413 A  
HETATM   20  H2  UNL     1     -14.506  10.240  72.326  1.00  0.00     0.000 HD 
ENDBRANCH   9  11
ENDBRANCH   8   9
ENDBRANCH   7   8
ENDBRANCH   6   7
ENDBRANCH   3   6
ENDBRANCH   2   3
TORSDOF 7
ENDMDL
MODEL       36
REMARK 921   NORMALIZED FREE ENERGY PREDICTED BY IDOCK:   -5.02 KCAL/MOL
REMARK 922        TOTAL FREE ENERGY PREDICTED BY IDOCK:   -7.47 KCAL/MOL
REMARK 923 INTER-LIGAND FREE ENERGY PREDICTED BY IDOCK:   -6.77 KCAL/MOL
REMARK 924 INTRA-LIGAND FREE ENERGY PREDICTED BY IDOCK:   -0.69 KCAL/MOL
REMARK 927      BINDING AFFINITY PREDICTED BY RF-SCORE:    0.00 PKD
ROOT
HETATM    1  C   UNL     1      -7.391  19.208  68.717  1.00  0.00    -0.372 C  
HETATM    2  C   UNL     1      -8.500  19.650  67.770  1.00  0.00    -0.318 C  
ENDROOT
BRANCH   2   3
HETATM    3  N   UNL     1      -9.870  19.341  68.226  1.00  0.00    -0.373 NA 
BRANCH   3   4
HETATM    4  C   UNL     1     -10.904  19.572  67.202  1.00  0.00    -0.437 C  
HETATM    5  C   UNL     1     -10.407  19.909  65.799  1.00  0.00    -0.512 C  
ENDBRANCH   3   4
BRANCH   3   6
HETATM    6  C   UNL     1      -9.886  17.972  68.765  1.00  0.00    -0.354 C  
BRANCH   6   7
HETATM    7  C   UNL     1     -10.754  16.927  68.041  1.00  0.00    -0.364 C  
BRANCH   7   8
HETATM    8  O   UNL     1      -9.855  15.891  67.594  1.00  0.00    -0.230 OA 
BRANCH   8   9
HETATM    9  C   UNL     1      -9.599  15.914  66.258  1.00  0.00    -0.316 C  
HETATM   10  O   UNL     1      -8.731  16.596  65.740  1.00  0.00    -0.482 OA 
BRANCH   9  11
HETATM   11  C   UNL     1     -10.411  14.855  65.581  1.00  0.00    -0.366 A  
HETATM   12  C   UNL     1     -10.257  13.493  65.875  1.00  0.00    -0.301 A  
HETATM   13  C   UNL     1     -11.117  12.544  65.296  1.00  0.00    -0.332 A  
HETATM   14 CL   UNL     1      -9.066  12.861  66.959  1.00  0.00    -0.222 Cl 
HETATM   15  C   UNL     1     -12.112  12.919  64.394  1.00  0.00    -0.410 A  
HETATM   16  C   UNL     1     -12.308  14.276  64.149  1.00  0.00    -0.361 A  
HETATM   17  N   UNL     1     -13.042  11.984  63.933  1.00  0.00    -0.658 NA 
HETATM   18  H1  UNL     1     -13.769  12.258  63.273  1.00  0.00     0.000 HD 
HETATM   19  C   UNL     1     -11.456  15.231  64.712  1.00  0.00    -0.364 A  
HETATM   20  H2  UNL     1     -13.490  11.553  64.742  1.00  0.00     0.000 HD 
ENDBRANCH   9  11
ENDBRANCH   8   9
ENDBRANCH   7   8
ENDBRANCH   6   7
ENDBRANCH   3   6
ENDBRANCH   2   3
TORSDOF 7
ENDMDL
MODEL       37
REMARK 921   NORMALIZED FREE ENERGY PREDICTED BY IDOCK:   -4.99 KCAL/MOL
REMARK 922        TOTAL FREE ENERGY PREDICTED BY IDOCK:   -7.43 KCAL/MOL
REMARK 923 INTER-LIGAND FREE ENERGY PREDICTED BY IDOCK:   -7.43 KCAL/MOL
REMARK 924 INTRA-LIGAND FREE ENERGY PREDICTED BY IDOCK:    0.01 KCAL/MOL
REMARK 927      BINDING AFFINITY PREDICTED BY RF-SCORE:    0.00 PKD
ROOT
HETATM    1  C   UNL     1      -9.109   9.374  70.808  1.00  0.00    -0.268 C  
HETATM    2  C   UNL     1     -10.480   9.196  71.449  1.00  0.00    -0.344 C  
ENDROOT
BRANCH   2   3
HETATM    3  N   UNL     1     -11.614   9.693  70.643  1.00  0.00    -0.284 NA 
BRANCH   3   4
HETATM    4  C   UNL     1     -12.637  10.403  71.430  1.00  0.00    -0.434 C  
HETATM    5  C   UNL     1     -13.541   9.540  72.305  1.00  0.00    -0.494 C  
ENDBRANCH   3   4
BRANCH   3   6
HETATM    6  C   UNL     1     -11.080  10.494  69.530  1.00  0.00    -0.268 C  
BRANCH   6   7
HETATM    7  C   UNL     1     -11.847  11.770  69.134  1.00  0.00    -0.326 C  
BRANCH   7   8
HETATM    8  O   UNL     1     -12.239  11.598  67.757  1.00  0.00    -0.560 OA 
BRANCH   8   9
HETATM    9  C   UNL     1     -11.199  11.575  66.880  1.00  0.00    -0.298 C  
HETATM   10  O   UNL     1     -10.482  10.607  66.697  1.00  0.00    -0.237 OA 
BRANCH   9  11
HETATM   11  C   UNL     1     -11.206  12.835  66.073  1.00  0.00    -0.335 A  
HETATM   12  C   UNL     1     -11.859  12.926  64.836  1.00  0.00    -0.366 A  
HETATM   13  C   UNL     1     -11.932  14.159  64.166  1.00  0.00    -0.421 A  
HETATM   14 CL   UNL     1     -12.639  11.599  64.047  1.00  0.00    -0.244 Cl 
HETATM   15  C   UNL     1     -11.333  15.307  64.685  1.00  0.00    -0.358 A  
HETATM   16  C   UNL     1     -10.739  15.233  65.942  1.00  0.00    -0.340 A  
HETATM   17  N   UNL     1     -11.530  16.548  64.076  1.00  0.00    -1.581 NA 
HETATM   18  H1  UNL     1     -11.092  17.387  64.456  1.00  0.00     0.000 HD 
HETATM   19  C   UNL     1     -10.652  14.011  66.617  1.00  0.00    -0.274 A  
HETATM   20  H2  UNL     1     -12.534  16.715  64.008  1.00  0.00     0.000 HD 
ENDBRANCH   9  11
ENDBRANCH   8   9
ENDBRANCH   7   8
ENDBRANCH   6   7
ENDBRANCH   3   6
ENDBRANCH   2   3
TORSDOF 7
ENDMDL
MODEL       38
REMARK 921   NORMALIZED FREE ENERGY PREDICTED BY IDOCK:   -4.96 KCAL/MOL
REMARK 922        TOTAL FREE ENERGY PREDICTED BY IDOCK:   -7.38 KCAL/MOL
REMARK 923 INTER-LIGAND FREE ENERGY PREDICTED BY IDOCK:   -6.92 KCAL/MOL
REMARK 924 INTRA-LIGAND FREE ENERGY PREDICTED BY IDOCK:   -0.46 KCAL/MOL
REMARK 927      BINDING AFFINITY PREDICTED BY RF-SCORE:    0.00 PKD
ROOT
HETATM    1  C   UNL     1      -9.457   8.480  71.103  1.00  0.00    -0.249 C  
HETATM    2  C   UNL     1     -10.791   7.975  70.568  1.00  0.00    -0.241 C  
ENDROOT
BRANCH   2   3
HETATM    3  N   UNL     1     -11.922   8.911  70.726  1.00  0.00    -0.209 NA 
BRANCH   3   4
HETATM    4  C   UNL     1     -12.820   8.577  71.844  1.00  0.00    -0.363 C  
HETATM    5  C   UNL     1     -13.936   7.579  71.544  1.00  0.00    -0.522 C  
ENDBRANCH   3   4
BRANCH   3   6
HETATM    6  C   UNL     1     -11.387  10.281  70.803  1.00  0.00    -0.337 C  
BRANCH   6   7
HETATM    7  C   UNL     1     -12.259  11.422  70.249  1.00  0.00    -0.349 C  
BRANCH   7   8
HETATM    8  O   UNL     1     -12.234  11.292  68.812  1.00  0.00    -0.532 OA 
BRANCH   8   9
HETATM    9  C   UNL     1     -11.513  12.256  68.178  1.00  0.00    -0.316 C  
HETATM   10  O   UNL     1     -11.025  13.222  68.737  1.00  0.00    -0.249 OA 
BRANCH   9  11
HETATM   11  C   UNL     1     -11.273  11.840  66.760  1.00  0.00    -0.388 A  
HETATM   12  C   UNL     1     -11.775  12.567  65.673  1.00  0.00    -0.423 A  
HETATM   13  C   UNL     1     -11.432  12.202  64.360  1.00  0.00    -0.417 A  
HETATM   14 CL   UNL     1     -12.803  13.951  65.819  1.00  0.00    -0.512 Cl 
HETATM   15  C   UNL     1     -10.622  11.096  64.100  1.00  0.00    -0.368 A  
HETATM   16  C   UNL     1     -10.070  10.412  65.180  1.00  0.00    -0.379 A  
HETATM   17  N   UNL     1     -10.182  10.828  62.803  1.00  0.00    -0.773 NA 
HETATM   18  H1  UNL     1      -9.589  10.020  62.613  1.00  0.00     0.000 HD 
HETATM   19  C   UNL     1     -10.409  10.759  66.491  1.00  0.00    -0.300 A  
HETATM   20  H2  UNL     1      -9.710  11.659  62.446  1.00  0.00     0.000 HD 
ENDBRANCH   9  11
ENDBRANCH   8   9
ENDBRANCH   7   8
ENDBRANCH   6   7
ENDBRANCH   3   6
ENDBRANCH   2   3
TORSDOF 7
ENDMDL
MODEL       39
REMARK 921   NORMALIZED FREE ENERGY PREDICTED BY IDOCK:   -4.96 KCAL/MOL
REMARK 922        TOTAL FREE ENERGY PREDICTED BY IDOCK:   -7.38 KCAL/MOL
REMARK 923 INTER-LIGAND FREE ENERGY PREDICTED BY IDOCK:   -6.79 KCAL/MOL
REMARK 924 INTRA-LIGAND FREE ENERGY PREDICTED BY IDOCK:   -0.59 KCAL/MOL
REMARK 927      BINDING AFFINITY PREDICTED BY RF-SCORE:    0.00 PKD
ROOT
HETATM    1  C   UNL     1     -11.417   8.116  72.626  1.00  0.00    -0.454 C  
HETATM    2  C   UNL     1     -12.258   9.055  71.771  1.00  0.00    -0.364 C  
ENDROOT
BRANCH   2   3
HETATM    3  N   UNL     1     -11.486   9.970  70.906  1.00  0.00    -0.347 NA 
BRANCH   3   4
HETATM    4  C   UNL     1     -10.573   9.283  69.976  1.00  0.00    -0.228 C  
HETATM    5  C   UNL     1      -9.080   9.518  70.191  1.00  0.00    -0.276 C  
ENDBRANCH   3   4
BRANCH   3   6
HETATM    6  C   UNL     1     -12.427  10.877  70.228  1.00  0.00    -0.303 C  
BRANCH   6   7
HETATM    7  C   UNL     1     -11.839  12.083  69.471  1.00  0.00    -0.326 C  
BRANCH   7   8
HETATM    8  O   UNL     1     -12.255  11.941  68.097  1.00  0.00    -0.470 OA 
BRANCH   8   9
HETATM    9  C   UNL     1     -11.888  12.976  67.294  1.00  0.00    -0.363 C  
HETATM   10  O   UNL     1     -11.862  14.141  67.650  1.00  0.00    -0.360 OA 
BRANCH   9  11
HETATM   11  C   UNL     1     -11.358  12.435  66.003  1.00  0.00    -0.397 A  
HETATM   12  C   UNL     1     -10.112  11.798  65.915  1.00  0.00    -0.234 A  
HETATM   13  C   UNL     1      -9.705  11.208  64.706  1.00  0.00    -0.303 A  
HETATM   14 CL   UNL     1      -9.003  11.644  67.233  1.00  0.00    -0.165 Cl 
HETATM   15  C   UNL     1     -10.499  11.272  63.561  1.00  0.00    -0.395 A  
HETATM   16  C   UNL     1     -11.763  11.849  63.663  1.00  0.00    -0.572 A  
HETATM   17  N   UNL     1     -10.143  10.568  62.409  1.00  0.00    -0.746 NA 
HETATM   18  H1  UNL     1     -10.723  10.615  61.572  1.00  0.00     0.000 HD 
HETATM   19  C   UNL     1     -12.179  12.445  64.857  1.00  0.00    -0.485 A  
HETATM   20  H2  UNL     1     -10.021   9.587  62.659  1.00  0.00     0.000 HD 
ENDBRANCH   9  11
ENDBRANCH   8   9
ENDBRANCH   7   8
ENDBRANCH   6   7
ENDBRANCH   3   6
ENDBRANCH   2   3
TORSDOF 7
ENDMDL
MODEL       40
REMARK 921   NORMALIZED FREE ENERGY PREDICTED BY IDOCK:   -4.95 KCAL/MOL
REMARK 922        TOTAL FREE ENERGY PREDICTED BY IDOCK:   -7.37 KCAL/MOL
REMARK 923 INTER-LIGAND FREE ENERGY PREDICTED BY IDOCK:   -6.79 KCAL/MOL
REMARK 924 INTRA-LIGAND FREE ENERGY PREDICTED BY IDOCK:   -0.58 KCAL/MOL
REMARK 927      BINDING AFFINITY PREDICTED BY RF-SCORE:    0.00 PKD
ROOT
HETATM    1  C   UNL     1     -11.322   8.237  70.490  1.00  0.00    -0.225 C  
HETATM    2  C   UNL     1     -10.036   8.613  69.765  1.00  0.00    -0.190 C  
ENDROOT
BRANCH   2   3
HETATM    3  N   UNL     1      -9.706   7.767  68.600  1.00  0.00    -0.154 NA 
BRANCH   3   4
HETATM    4  C   UNL     1     -10.494   6.525  68.524  1.00  0.00    -0.220 C  
HETATM    5  C   UNL     1     -11.029   6.143  67.146  1.00  0.00    -0.420 C  
ENDBRANCH   3   4
BRANCH   3   6
HETATM    6  C   UNL     1      -9.803   8.590  67.383  1.00  0.00    -0.187 C  
BRANCH   6   7
HETATM    7  C   UNL     1      -9.557  10.103  67.520  1.00  0.00    -0.156 C  
BRANCH   7   8
HETATM    8  O   UNL     1     -10.378  10.741  66.520  1.00  0.00    -0.231 OA 
BRANCH   8   9
HETATM    9  C   UNL     1     -11.406  11.475  67.028  1.00  0.00    -0.269 C  
HETATM   10  O   UNL     1     -12.033  11.170  68.027  1.00  0.00    -0.625 OA 
BRANCH   9  11
HETATM   11  C   UNL     1     -11.503  12.770  66.283  1.00  0.00    -0.405 A  
HETATM   12  C   UNL     1     -10.853  13.932  66.719  1.00  0.00    -0.286 A  
HETATM   13  C   UNL     1     -10.882  15.095  65.930  1.00  0.00    -0.342 A  
HETATM   14 CL   UNL     1      -9.956  14.052  68.193  1.00  0.00    -0.235 Cl 
HETATM   15  C   UNL     1     -11.582  15.138  64.724  1.00  0.00    -0.364 A  
HETATM   16  C   UNL     1     -12.174  13.967  64.259  1.00  0.00    -0.453 A  
HETATM   17  N   UNL     1     -11.490  16.254  63.889  1.00  0.00    -1.539 NA 
HETATM   18  H1  UNL     1     -12.001  16.286  63.008  1.00  0.00     0.000 HD 
HETATM   19  C   UNL     1     -12.159  12.805  65.037  1.00  0.00    -0.491 A  
HETATM   20  H2  UNL     1     -10.504  16.426  63.693  1.00  0.00     0.000 HD 
ENDBRANCH   9  11
ENDBRANCH   8   9
ENDBRANCH   7   8
ENDBRANCH   6   7
ENDBRANCH   3   6
ENDBRANCH   2   3
TORSDOF 7
ENDMDL
MODEL       41
REMARK 921   NORMALIZED FREE ENERGY PREDICTED BY IDOCK:   -4.95 KCAL/MOL
REMARK 922        TOTAL FREE ENERGY PREDICTED BY IDOCK:   -7.37 KCAL/MOL
REMARK 923 INTER-LIGAND FREE ENERGY PREDICTED BY IDOCK:   -6.78 KCAL/MOL
REMARK 924 INTRA-LIGAND FREE ENERGY PREDICTED BY IDOCK:   -0.59 KCAL/MOL
REMARK 927      BINDING AFFINITY PREDICTED BY RF-SCORE:    0.00 PKD
ROOT
HETATM    1  C   UNL     1      -7.656  17.549  66.215  1.00  0.00    -0.343 C  
HETATM    2  C   UNL     1      -9.065  17.332  66.752  1.00  0.00    -0.252 C  
ENDROOT
BRANCH   2   3
HETATM    3  N   UNL     1      -9.196  17.430  68.220  1.00  0.00    -0.263 NA 
BRANCH   3   4
HETATM    4  C   UNL     1     -10.007  18.575  68.670  1.00  0.00    -0.383 C  
HETATM    5  C   UNL     1     -10.596  19.461  67.576  1.00  0.00    -0.591 C  
ENDBRANCH   3   4
BRANCH   3   6
HETATM    6  C   UNL     1      -9.683  16.139  68.733  1.00  0.00    -0.233 C  
BRANCH   6   7
HETATM    7  C   UNL     1     -11.184  16.017  69.056  1.00  0.00    -0.347 C  
BRANCH   7   8
HETATM    8  O   UNL     1     -11.784  15.325  67.942  1.00  0.00    -0.328 OA 
BRANCH   8   9
HETATM    9  C   UNL     1     -11.812  13.972  68.077  1.00  0.00    -0.368 C  
HETATM   10  O   UNL     1     -12.130  13.394  69.101  1.00  0.00    -0.317 OA 
BRANCH   9  11
HETATM   11  C   UNL     1     -11.576  13.337  66.741  1.00  0.00    -0.408 A  
HETATM   12  C   UNL     1     -10.534  12.426  66.521  1.00  0.00    -0.230 A  
HETATM   13  C   UNL     1     -10.418  11.772  65.282  1.00  0.00    -0.320 A  
HETATM   14 CL   UNL     1      -9.348  11.999  67.705  1.00  0.00    -0.184 Cl 
HETATM   15  C   UNL     1     -11.302  12.035  64.235  1.00  0.00    -0.364 A  
HETATM   16  C   UNL     1     -12.374  12.892  64.473  1.00  0.00    -0.483 A  
HETATM   17  N   UNL     1     -11.255  11.282  63.061  1.00  0.00    -0.835 NA 
HETATM   18  H1  UNL     1     -11.901  11.473  62.295  1.00  0.00     0.000 HD 
HETATM   19  C   UNL     1     -12.498  13.554  65.698  1.00  0.00    -0.528 A  
HETATM   20  H2  UNL     1     -11.340  10.296  63.310  1.00  0.00     0.000 HD 
ENDBRANCH   9  11
ENDBRANCH   8   9
ENDBRANCH   7   8
ENDBRANCH   6   7
ENDBRANCH   3   6
ENDBRANCH   2   3
TORSDOF 7
ENDMDL
MODEL       42
REMARK 921   NORMALIZED FREE ENERGY PREDICTED BY IDOCK:   -4.95 KCAL/MOL
REMARK 922        TOTAL FREE ENERGY PREDICTED BY IDOCK:   -7.36 KCAL/MOL
REMARK 923 INTER-LIGAND FREE ENERGY PREDICTED BY IDOCK:   -6.70 KCAL/MOL
REMARK 924 INTRA-LIGAND FREE ENERGY PREDICTED BY IDOCK:   -0.67 KCAL/MOL
REMARK 927      BINDING AFFINITY PREDICTED BY RF-SCORE:    0.00 PKD
ROOT
HETATM    1  C   UNL     1      -8.791  14.487  66.879  1.00  0.00    -0.257 C  
HETATM    2  C   UNL     1      -8.770  13.006  67.236  1.00  0.00    -0.209 C  
ENDROOT
BRANCH   2   3
HETATM    3  N   UNL     1      -9.856  12.203  66.636  1.00  0.00    -0.207 NA 
BRANCH   3   4
HETATM    4  C   UNL     1      -9.524  11.648  65.313  1.00  0.00    -0.151 C  
HETATM    5  C   UNL     1     -10.575  11.823  64.220  1.00  0.00    -0.386 C  
ENDBRANCH   3   4
BRANCH   3   6
HETATM    6  C   UNL     1     -10.269  11.177  67.608  1.00  0.00    -0.181 C  
BRANCH   6   7
HETATM    7  C   UNL     1     -11.644  11.343  68.282  1.00  0.00    -0.306 C  
BRANCH   7   8
HETATM    8  O   UNL     1     -11.446  12.245  69.390  1.00  0.00    -0.271 OA 
BRANCH   8   9
HETATM    9  C   UNL     1     -11.986  13.480  69.207  1.00  0.00    -0.330 C  
HETATM   10  O   UNL     1     -12.382  13.899  68.134  1.00  0.00    -0.250 OA 
BRANCH   9  11
HETATM   11  C   UNL     1     -12.176  14.138  70.538  1.00  0.00    -0.431 A  
HETATM   12  C   UNL     1     -11.594  15.374  70.850  1.00  0.00    -0.358 A  
HETATM   13  C   UNL     1     -11.890  16.006  72.070  1.00  0.00    -0.623 A  
HETATM   14 CL   UNL     1     -10.520  16.236  69.803  1.00  0.00    -0.279 Cl 
HETATM   15  C   UNL     1     -12.731  15.413  73.011  1.00  0.00    -0.451 A  
HETATM   16  C   UNL     1     -13.360  14.217  72.677  1.00  0.00    -0.638 A  
HETATM   17  N   UNL     1     -13.120  16.112  74.156  1.00  0.00    -0.941 NA 
HETATM   18  H1  UNL     1     -13.735  15.679  74.844  1.00  0.00     0.000 HD 
HETATM   19  C   UNL     1     -13.070  13.573  71.470  1.00  0.00    -0.427 A  
HETATM   20  H2  UNL     1     -13.540  16.995  73.864  1.00  0.00     0.000 HD 
ENDBRANCH   9  11
ENDBRANCH   8   9
ENDBRANCH   7   8
ENDBRANCH   6   7
ENDBRANCH   3   6
ENDBRANCH   2   3
TORSDOF 7
ENDMDL
MODEL       43
REMARK 921   NORMALIZED FREE ENERGY PREDICTED BY IDOCK:   -4.94 KCAL/MOL
REMARK 922        TOTAL FREE ENERGY PREDICTED BY IDOCK:   -7.36 KCAL/MOL
REMARK 923 INTER-LIGAND FREE ENERGY PREDICTED BY IDOCK:   -6.93 KCAL/MOL
REMARK 924 INTRA-LIGAND FREE ENERGY PREDICTED BY IDOCK:   -0.43 KCAL/MOL
REMARK 927      BINDING AFFINITY PREDICTED BY RF-SCORE:    0.00 PKD
ROOT
HETATM    1  C   UNL     1     -10.590  18.175  67.533  1.00  0.00    -0.419 C  
HETATM    2  C   UNL     1      -9.884  17.646  66.291  1.00  0.00    -0.288 C  
ENDROOT
BRANCH   2   3
HETATM    3  N   UNL     1      -9.462  16.233  66.367  1.00  0.00    -0.272 NA 
BRANCH   3   4
HETATM    4  C   UNL     1      -8.154  16.037  67.014  1.00  0.00    -0.222 C  
HETATM    5  C   UNL     1      -7.085  17.086  66.718  1.00  0.00    -0.273 C  
ENDBRANCH   3   4
BRANCH   3   6
HETATM    6  C   UNL     1     -10.542  15.456  66.998  1.00  0.00    -0.309 C  
BRANCH   6   7
HETATM    7  C   UNL     1     -10.206  14.039  67.498  1.00  0.00    -0.244 C  
BRANCH   7   8
HETATM    8  O   UNL     1     -10.462  14.039  68.918  1.00  0.00    -0.236 OA 
BRANCH   8   9
HETATM    9  C   UNL     1     -11.659  13.496  69.268  1.00  0.00    -0.316 C  
HETATM   10  O   UNL     1     -12.150  12.519  68.729  1.00  0.00    -0.268 OA 
BRANCH   9  11
HETATM   11  C   UNL     1     -12.162  14.166  70.509  1.00  0.00    -0.431 A  
HETATM   12  C   UNL     1     -12.706  13.444  71.579  1.00  0.00    -0.293 A  
HETATM   13  C   UNL     1     -13.062  14.104  72.767  1.00  0.00    -0.573 A  
HETATM   14 CL   UNL     1     -12.958  11.732  71.571  1.00  0.00    -0.504 Cl 
HETATM   15  C   UNL     1     -12.924  15.486  72.902  1.00  0.00    -0.477 A  
HETATM   16  C   UNL     1     -12.325  16.195  71.864  1.00  0.00    -0.442 A  
HETATM   17  N   UNL     1     -13.155  16.106  74.131  1.00  0.00    -0.941 NA 
HETATM   18  H1  UNL     1     -13.053  17.116  74.230  1.00  0.00     0.000 HD 
HETATM   19  C   UNL     1     -11.972  15.553  70.673  1.00  0.00    -0.416 A  
HETATM   20  H2  UNL     1     -12.566  15.657  74.833  1.00  0.00     0.000 HD 
ENDBRANCH   9  11
ENDBRANCH   8   9
ENDBRANCH   7   8
ENDBRANCH   6   7
ENDBRANCH   3   6
ENDBRANCH   2   3
TORSDOF 7
ENDMDL
MODEL       44
REMARK 921   NORMALIZED FREE ENERGY PREDICTED BY IDOCK:   -4.94 KCAL/MOL
REMARK 922        TOTAL FREE ENERGY PREDICTED BY IDOCK:   -7.35 KCAL/MOL
REMARK 923 INTER-LIGAND FREE ENERGY PREDICTED BY IDOCK:   -6.77 KCAL/MOL
REMARK 924 INTRA-LIGAND FREE ENERGY PREDICTED BY IDOCK:   -0.58 KCAL/MOL
REMARK 927      BINDING AFFINITY PREDICTED BY RF-SCORE:    0.00 PKD
ROOT
HETATM    1  C   UNL     1     -12.033  13.501  68.240  1.00  0.00    -0.377 C  
HETATM    2  C   UNL     1     -10.986  13.543  67.135  1.00  0.00    -0.291 C  
ENDROOT
BRANCH   2   3
HETATM    3  N   UNL     1     -11.115  12.486  66.112  1.00  0.00    -0.286 NA 
BRANCH   3   4
HETATM    4  C   UNL     1     -11.378  12.998  64.756  1.00  0.00    -0.317 C  
HETATM    5  C   UNL     1     -11.761  11.963  63.701  1.00  0.00    -0.572 C  
ENDBRANCH   3   4
BRANCH   3   6
HETATM    6  C   UNL     1      -9.927  11.619  66.183  1.00  0.00    -0.221 C  
BRANCH   6   7
HETATM    7  C   UNL     1     -10.114  10.191  66.728  1.00  0.00    -0.219 C  
BRANCH   7   8
HETATM    8  O   UNL     1     -10.984  10.305  67.873  1.00  0.00    -0.267 OA 
BRANCH   8   9
HETATM    9  C   UNL     1     -10.370  10.068  69.064  1.00  0.00    -0.206 C  
HETATM   10  O   UNL     1      -9.186  10.264  69.273  1.00  0.00    -0.189 OA 
BRANCH   9  11
HETATM   11  C   UNL     1     -11.402   9.719  70.091  1.00  0.00    -0.305 A  
HETATM   12  C   UNL     1     -11.502   8.435  70.643  1.00  0.00    -0.219 A  
HETATM   13  C   UNL     1     -12.413   8.182  71.683  1.00  0.00    -0.349 A  
HETATM   14 CL   UNL     1     -10.536   7.086  70.151  1.00  0.00    -0.223 Cl 
HETATM   15  C   UNL     1     -13.262   9.178  72.164  1.00  0.00    -0.458 A  
HETATM   16  C   UNL     1     -13.120  10.469  71.662  1.00  0.00    -0.551 A  
HETATM   17  N   UNL     1     -14.063   8.948  73.284  1.00  0.00    -1.248 NA 
HETATM   18  H1  UNL     1     -14.684   9.676  73.637  1.00  0.00     0.000 HD 
HETATM   19  C   UNL     1     -12.223  10.734  70.622  1.00  0.00    -0.474 A  
HETATM   20  H2  UNL     1     -13.463   8.642  74.050  1.00  0.00     0.000 HD 
ENDBRANCH   9  11
ENDBRANCH   8   9
ENDBRANCH   7   8
ENDBRANCH   6   7
ENDBRANCH   3   6
ENDBRANCH   2   3
TORSDOF 7
ENDMDL
MODEL       45
REMARK 921   NORMALIZED FREE ENERGY PREDICTED BY IDOCK:   -4.93 KCAL/MOL
REMARK 922        TOTAL FREE ENERGY PREDICTED BY IDOCK:   -7.34 KCAL/MOL
REMARK 923 INTER-LIGAND FREE ENERGY PREDICTED BY IDOCK:   -6.80 KCAL/MOL
REMARK 924 INTRA-LIGAND FREE ENERGY PREDICTED BY IDOCK:   -0.54 KCAL/MOL
REMARK 927      BINDING AFFINITY PREDICTED BY RF-SCORE:    0.00 PKD
ROOT
HETATM    1  C   UNL     1     -10.878  16.339  69.298  1.00  0.00    -0.318 C  
HETATM    2  C   UNL     1     -10.191  17.481  68.558  1.00  0.00    -0.378 C  
ENDROOT
BRANCH   2   3
HETATM    3  N   UNL     1     -10.566  17.619  67.136  1.00  0.00    -0.316 NA 
BRANCH   3   4
HETATM    4  C   UNL     1     -10.479  18.999  66.629  1.00  0.00    -0.437 C  
HETATM    5  C   UNL     1     -10.198  20.086  67.663  1.00  0.00    -0.548 C  
ENDBRANCH   3   4
BRANCH   3   6
HETATM    6  C   UNL     1      -9.771  16.661  66.349  1.00  0.00    -0.286 C  
BRANCH   6   7
HETATM    7  C   UNL     1     -10.532  15.664  65.456  1.00  0.00    -0.404 C  
BRANCH   7   8
HETATM    8  O   UNL     1     -11.454  14.967  66.319  1.00  0.00    -0.314 OA 
BRANCH   8   9
HETATM    9  C   UNL     1     -12.153  13.976  65.702  1.00  0.00    -0.417 C  
HETATM   10  O   UNL     1     -12.990  14.166  64.838  1.00  0.00    -0.705 OA 
BRANCH   9  11
HETATM   11  C   UNL     1     -11.600  12.649  66.120  1.00  0.00    -0.445 A  
HETATM   12  C   UNL     1     -10.801  11.872  65.269  1.00  0.00    -0.297 A  
HETATM   13  C   UNL     1     -10.214  10.686  65.742  1.00  0.00    -0.317 A  
HETATM   14 CL   UNL     1     -10.440  12.283  63.628  1.00  0.00    -0.466 Cl 
HETATM   15  C   UNL     1     -10.435  10.232  67.042  1.00  0.00    -0.244 A  
HETATM   16  C   UNL     1     -11.175  11.034  67.907  1.00  0.00    -0.375 A  
HETATM   17  N   UNL     1      -9.739   9.127  67.537  1.00  0.00    -0.153 NA 
HETATM   18  H1  UNL     1      -9.900   8.795  68.487  1.00  0.00     0.000 HD 
HETATM   19  C   UNL     1     -11.772  12.213  67.449  1.00  0.00    -0.374 A  
HETATM   20  H2  UNL     1      -8.740   9.303  67.426  1.00  0.00     0.000 HD 
ENDBRANCH   9  11
ENDBRANCH   8   9
ENDBRANCH   7   8
ENDBRANCH   6   7
ENDBRANCH   3   6
ENDBRANCH   2   3
TORSDOF 7
ENDMDL
MODEL       46
REMARK 921   NORMALIZED FREE ENERGY PREDICTED BY IDOCK:   -4.93 KCAL/MOL
REMARK 922        TOTAL FREE ENERGY PREDICTED BY IDOCK:   -7.33 KCAL/MOL
REMARK 923 INTER-LIGAND FREE ENERGY PREDICTED BY IDOCK:   -6.79 KCAL/MOL
REMARK 924 INTRA-LIGAND FREE ENERGY PREDICTED BY IDOCK:   -0.54 KCAL/MOL
REMARK 927      BINDING AFFINITY PREDICTED BY RF-SCORE:    0.00 PKD
ROOT
HETATM    1  C   UNL     1     -11.340   6.219  69.843  1.00  0.00    -0.504 C  
HETATM    2  C   UNL     1     -11.967   7.192  70.833  1.00  0.00    -0.334 C  
ENDROOT
BRANCH   2   3
HETATM    3  N   UNL     1     -11.107   8.328  71.222  1.00  0.00    -0.244 NA 
BRANCH   3   4
HETATM    4  C   UNL     1     -10.491   8.179  72.552  1.00  0.00    -0.339 C  
HETATM    5  C   UNL     1      -8.966   8.238  72.604  1.00  0.00    -0.316 C  
ENDBRANCH   3   4
BRANCH   3   6
HETATM    6  C   UNL     1     -10.123   8.557  70.151  1.00  0.00    -0.190 C  
BRANCH   6   7
HETATM    7  C   UNL     1     -10.177   9.904  69.406  1.00  0.00    -0.216 C  
BRANCH   7   8
HETATM    8  O   UNL     1     -10.985  10.783  70.216  1.00  0.00    -0.246 OA 
BRANCH   8   9
HETATM    9  C   UNL     1     -11.903  11.500  69.513  1.00  0.00    -0.351 C  
HETATM   10  O   UNL     1     -12.275  11.217  68.388  1.00  0.00    -0.610 OA 
BRANCH   9  11
HETATM   11  C   UNL     1     -12.494  12.551  70.401  1.00  0.00    -0.215 A  
HETATM   12  C   UNL     1     -13.158  12.233  71.593  1.00  0.00    -0.306 A  
HETATM   13  C   UNL     1     -13.600  13.257  72.449  1.00  0.00    -0.694 A  
HETATM   14 CL   UNL     1     -13.466  10.620  72.136  1.00  0.00    -0.384 Cl 
HETATM   15  C   UNL     1     -13.427  14.602  72.124  1.00  0.00    -0.395 A  
HETATM   16  C   UNL     1     -12.712  14.919  70.972  1.00  0.00    -0.412 A  
HETATM   17  N   UNL     1     -13.749  15.602  73.045  1.00  0.00    -0.608 NA 
HETATM   18  H1  UNL     1     -13.623  16.585  72.807  1.00  0.00     0.000 HD 
HETATM   19  C   UNL     1     -12.273  13.911  70.108  1.00  0.00    -0.425 A  
HETATM   20  H2  UNL     1     -13.243  15.415  73.910  1.00  0.00     0.000 HD 
ENDBRANCH   9  11
ENDBRANCH   8   9
ENDBRANCH   7   8
ENDBRANCH   6   7
ENDBRANCH   3   6
ENDBRANCH   2   3
TORSDOF 7
ENDMDL
MODEL       47
REMARK 921   NORMALIZED FREE ENERGY PREDICTED BY IDOCK:   -4.92 KCAL/MOL
REMARK 922        TOTAL FREE ENERGY PREDICTED BY IDOCK:   -7.32 KCAL/MOL
REMARK 923 INTER-LIGAND FREE ENERGY PREDICTED BY IDOCK:   -6.86 KCAL/MOL
REMARK 924 INTRA-LIGAND FREE ENERGY PREDICTED BY IDOCK:   -0.46 KCAL/MOL
REMARK 927      BINDING AFFINITY PREDICTED BY RF-SCORE:    0.00 PKD
ROOT
HETATM    1  C   UNL     1     -10.333  16.689  65.785  1.00  0.00    -0.338 C  
HETATM    2  C   UNL     1     -10.563  16.247  67.225  1.00  0.00    -0.298 C  
ENDROOT
BRANCH   2   3
HETATM    3  N   UNL     1     -11.407  15.046  67.383  1.00  0.00    -0.337 NA 
BRANCH   3   4
HETATM    4  C   UNL     1     -11.324  14.108  66.250  1.00  0.00    -0.338 C  
HETATM    5  C   UNL     1     -12.651  13.629  65.666  1.00  0.00    -0.531 C  
ENDBRANCH   3   4
BRANCH   3   6
HETATM    6  C   UNL     1     -11.091  14.419  68.677  1.00  0.00    -0.251 C  
BRANCH   6   7
HETATM    7  C   UNL     1     -12.247  13.764  69.456  1.00  0.00    -0.293 C  
BRANCH   7   8
HETATM    8  O   UNL     1     -11.692  12.600  70.102  1.00  0.00    -0.275 OA 
BRANCH   8   9
HETATM    9  C   UNL     1     -11.952  11.429  69.460  1.00  0.00    -0.341 C  
HETATM   10  O   UNL     1     -12.167  11.339  68.264  1.00  0.00    -0.611 OA 
BRANCH   9  11
HETATM   11  C   UNL     1     -11.750  10.289  70.410  1.00  0.00    -0.404 A  
HETATM   12  C   UNL     1     -10.490   9.717  70.631  1.00  0.00    -0.312 A  
HETATM   13  C   UNL     1     -10.328   8.723  71.612  1.00  0.00    -0.391 A  
HETATM   14 CL   UNL     1      -9.052  10.170  69.782  1.00  0.00    -0.204 Cl 
HETATM   15  C   UNL     1     -11.409   8.256  72.359  1.00  0.00    -0.388 A  
HETATM   16  C   UNL     1     -12.648   8.868  72.186  1.00  0.00    -0.467 A  
HETATM   17  N   UNL     1     -11.210   7.369  73.419  1.00  0.00    -0.596 NA 
HETATM   18  H1  UNL     1     -12.000   7.028  73.966  1.00  0.00     0.000 HD 
HETATM   19  C   UNL     1     -12.825   9.852  71.208  1.00  0.00    -0.486 A  
HETATM   20  H2  UNL     1     -10.534   7.785  74.061  1.00  0.00     0.000 HD 
ENDBRANCH   9  11
ENDBRANCH   8   9
ENDBRANCH   7   8
ENDBRANCH   6   7
ENDBRANCH   3   6
ENDBRANCH   2   3
TORSDOF 7
ENDMDL
MODEL       48
REMARK 921   NORMALIZED FREE ENERGY PREDICTED BY IDOCK:   -4.91 KCAL/MOL
REMARK 922        TOTAL FREE ENERGY PREDICTED BY IDOCK:   -7.31 KCAL/MOL
REMARK 923 INTER-LIGAND FREE ENERGY PREDICTED BY IDOCK:   -6.81 KCAL/MOL
REMARK 924 INTRA-LIGAND FREE ENERGY PREDICTED BY IDOCK:   -0.51 KCAL/MOL
REMARK 927      BINDING AFFINITY PREDICTED BY RF-SCORE:    0.00 PKD
ROOT
HETATM    1  C   UNL     1     -13.646  14.255  72.374  1.00  0.00    -0.599 C  
HETATM    2  C   UNL     1     -13.264  15.582  71.729  1.00  0.00    -0.481 C  
ENDROOT
BRANCH   2   3
HETATM    3  N   UNL     1     -12.496  15.467  70.473  1.00  0.00    -0.423 NA 
BRANCH   3   4
HETATM    4  C   UNL     1     -11.165  16.096  70.530  1.00  0.00    -0.363 C  
HETATM    5  C   UNL     1     -10.772  16.964  69.338  1.00  0.00    -0.258 C  
ENDBRANCH   3   4
BRANCH   3   6
HETATM    6  C   UNL     1     -12.449  14.048  70.082  1.00  0.00    -0.319 C  
BRANCH   6   7
HETATM    7  C   UNL     1     -11.733  13.692  68.766  1.00  0.00    -0.348 C  
BRANCH   7   8
HETATM    8  O   UNL     1     -10.964  12.500  69.033  1.00  0.00    -0.233 OA 
BRANCH   8   9
HETATM    9  C   UNL     1     -11.562  11.349  68.621  1.00  0.00    -0.320 C  
HETATM   10  O   UNL     1     -11.902  11.130  67.472  1.00  0.00    -0.591 OA 
BRANCH   9  11
HETATM   11  C   UNL     1     -11.557  10.361  69.745  1.00  0.00    -0.339 A  
HETATM   12  C   UNL     1     -10.458   9.530  70.004  1.00  0.00    -0.247 A  
HETATM   13  C   UNL     1     -10.456   8.696  71.136  1.00  0.00    -0.291 A  
HETATM   14 CL   UNL     1      -9.036   9.463  69.022  1.00  0.00    -0.138 Cl 
HETATM   15  C   UNL     1     -11.546   8.643  72.004  1.00  0.00    -0.370 A  
HETATM   16  C   UNL     1     -12.610   9.514  71.784  1.00  0.00    -0.490 A  
HETATM   17  N   UNL     1     -11.473   7.914  73.192  1.00  0.00    -0.566 NA 
HETATM   18  H1  UNL     1     -12.270   7.876  73.827  1.00  0.00     0.000 HD 
HETATM   19  C   UNL     1     -12.630  10.343  70.658  1.00  0.00    -0.435 A  
HETATM   20  H2  UNL     1     -10.662   8.241  73.719  1.00  0.00     0.000 HD 
ENDBRANCH   9  11
ENDBRANCH   8   9
ENDBRANCH   7   8
ENDBRANCH   6   7
ENDBRANCH   3   6
ENDBRANCH   2   3
TORSDOF 7
ENDMDL
MODEL       49
REMARK 921   NORMALIZED FREE ENERGY PREDICTED BY IDOCK:   -4.91 KCAL/MOL
REMARK 922        TOTAL FREE ENERGY PREDICTED BY IDOCK:   -7.31 KCAL/MOL
REMARK 923 INTER-LIGAND FREE ENERGY PREDICTED BY IDOCK:   -6.77 KCAL/MOL
REMARK 924 INTRA-LIGAND FREE ENERGY PREDICTED BY IDOCK:   -0.54 KCAL/MOL
REMARK 927      BINDING AFFINITY PREDICTED BY RF-SCORE:    0.00 PKD
ROOT
HETATM    1  C   UNL     1     -10.091  10.855  64.751  1.00  0.00    -0.383 C  
HETATM    2  C   UNL     1     -10.482  11.720  65.943  1.00  0.00    -0.255 C  
ENDROOT
BRANCH   2   3
HETATM    3  N   UNL     1     -10.518  13.172  65.676  1.00  0.00    -0.277 NA 
BRANCH   3   4
HETATM    4  C   UNL     1     -11.145  13.526  64.391  1.00  0.00    -0.380 C  
HETATM    5  C   UNL     1     -12.183  14.644  64.426  1.00  0.00    -0.473 C  
ENDBRANCH   3   4
BRANCH   3   6
HETATM    6  C   UNL     1     -11.143  13.844  66.828  1.00  0.00    -0.303 C  
BRANCH   6   7
HETATM    7  C   UNL     1     -10.255  14.764  67.686  1.00  0.00    -0.232 C  
BRANCH   7   8
HETATM    8  O   UNL     1     -10.810  16.090  67.565  1.00  0.00    -0.317 OA 
BRANCH   8   9
HETATM    9  C   UNL     1     -10.635  16.870  68.667  1.00  0.00    -0.360 C  
HETATM   10  O   UNL     1     -10.978  16.549  69.791  1.00  0.00    -0.344 OA 
BRANCH   9  11
HETATM   11  C   UNL     1      -9.809  18.063  68.301  1.00  0.00    -0.357 A  
HETATM   12  C   UNL     1      -8.416  18.085  68.460  1.00  0.00    -0.305 A  
HETATM   13  C   UNL     1      -7.671  19.184  68.001  1.00  0.00    -0.318 A  
HETATM   14 CL   UNL     1      -7.499  16.806  69.178  1.00  0.00    -0.229 Cl 
HETATM   15  C   UNL     1      -8.288  20.289  67.416  1.00  0.00    -0.340 A  
HETATM   16  C   UNL     1      -9.663  20.242  67.199  1.00  0.00    -0.592 A  
HETATM   17  N   UNL     1      -7.525  21.309  66.845  1.00  0.00    -0.770 NA 
HETATM   18  H1  UNL     1      -7.976  22.117  66.417  1.00  0.00     0.000 HD 
HETATM   19  C   UNL     1     -10.419  19.158  67.657  1.00  0.00    -0.535 A  
HETATM   20  H2  UNL     1      -6.897  20.893  66.157  1.00  0.00     0.000 HD 
ENDBRANCH   9  11
ENDBRANCH   8   9
ENDBRANCH   7   8
ENDBRANCH   6   7
ENDBRANCH   3   6
ENDBRANCH   2   3
TORSDOF 7
ENDMDL
MODEL       50
REMARK 921   NORMALIZED FREE ENERGY PREDICTED BY IDOCK:   -4.89 KCAL/MOL
REMARK 922        TOTAL FREE ENERGY PREDICTED BY IDOCK:   -7.28 KCAL/MOL
REMARK 923 INTER-LIGAND FREE ENERGY PREDICTED BY IDOCK:   -6.74 KCAL/MOL
REMARK 924 INTRA-LIGAND FREE ENERGY PREDICTED BY IDOCK:   -0.53 KCAL/MOL
REMARK 927      BINDING AFFINITY PREDICTED BY RF-SCORE:    0.00 PKD
ROOT
HETATM    1  C   UNL     1     -10.525  19.653  67.764  1.00  0.00    -0.573 C  
HETATM    2  C   UNL     1      -9.220  19.170  68.385  1.00  0.00    -0.356 C  
ENDROOT
BRANCH   2   3
HETATM    3  N   UNL     1      -8.017  19.387  67.556  1.00  0.00    -0.263 NA 
BRANCH   3   4
HETATM    4  C   UNL     1      -6.752  19.133  68.266  1.00  0.00    -0.250 C  
HETATM    5  C   UNL     1      -5.940  20.362  68.667  1.00  0.00    -0.348 C  
ENDBRANCH   3   4
BRANCH   3   6
HETATM    6  C   UNL     1      -8.154  18.602  66.318  1.00  0.00    -0.244 C  
BRANCH   6   7
HETATM    7  C   UNL     1      -8.454  17.098  66.455  1.00  0.00    -0.274 C  
BRANCH   7   8
HETATM    8  O   UNL     1      -9.735  16.880  65.830  1.00  0.00    -0.517 OA 
BRANCH   8   9
HETATM    9  C   UNL     1     -10.514  15.959  66.460  1.00  0.00    -0.304 C  
HETATM   10  O   UNL     1     -11.023  16.129  67.554  1.00  0.00    -0.313 OA 
BRANCH   9  11
HETATM   11  C   UNL     1     -10.782  14.819  65.528  1.00  0.00    -0.369 A  
HETATM   12  C   UNL     1     -10.106  13.595  65.631  1.00  0.00    -0.284 A  
HETATM   13  C   UNL     1     -10.468  12.517  64.806  1.00  0.00    -0.336 A  
HETATM   14 CL   UNL     1      -8.830  13.280  66.756  1.00  0.00    -0.185 Cl 
HETATM   15  C   UNL     1     -11.472  12.641  63.845  1.00  0.00    -0.442 A  
HETATM   16  C   UNL     1     -12.187  13.835  63.785  1.00  0.00    -0.364 A  
HETATM   17  N   UNL     1     -11.911  11.526  63.128  1.00  0.00    -0.908 NA 
HETATM   18  H1  UNL     1     -12.645  11.616  62.426  1.00  0.00     0.000 HD 
HETATM   19  C   UNL     1     -11.833  14.918  64.594  1.00  0.00    -0.412 A  
HETATM   20  H2  UNL     1     -12.194  10.808  63.795  1.00  0.00     0.000 HD 
ENDBRANCH   9  11
ENDBRANCH   8   9
ENDBRANCH   7   8
ENDBRANCH   6   7
ENDBRANCH   3   6
ENDBRANCH   2   3
TORSDOF 7
ENDMDL
MODEL       51
REMARK 921   NORMALIZED FREE ENERGY PREDICTED BY IDOCK:   -4.88 KCAL/MOL
REMARK 922        TOTAL FREE ENERGY PREDICTED BY IDOCK:   -7.27 KCAL/MOL
REMARK 923 INTER-LIGAND FREE ENERGY PREDICTED BY IDOCK:   -6.60 KCAL/MOL
REMARK 924 INTRA-LIGAND FREE ENERGY PREDICTED BY IDOCK:   -0.67 KCAL/MOL
REMARK 927      BINDING AFFINITY PREDICTED BY RF-SCORE:    0.00 PKD
ROOT
HETATM    1  C   UNL     1     -13.990  15.086  72.413  1.00  0.00    -0.593 C  
HETATM    2  C   UNL     1     -13.525  15.194  70.966  1.00  0.00    -0.431 C  
ENDROOT
BRANCH   2   3
HETATM    3  N   UNL     1     -12.335  14.385  70.631  1.00  0.00    -0.328 NA 
BRANCH   3   4
HETATM    4  C   UNL     1     -12.274  13.973  69.218  1.00  0.00    -0.278 C  
HETATM    5  C   UNL     1     -11.321  12.828  68.886  1.00  0.00    -0.344 C  
ENDBRANCH   3   4
BRANCH   3   6
HETATM    6  C   UNL     1     -11.135  15.114  71.074  1.00  0.00    -0.238 C  
BRANCH   6   7
HETATM    7  C   UNL     1     -10.578  16.207  70.142  1.00  0.00    -0.226 C  
BRANCH   7   8
HETATM    8  O   UNL     1      -9.324  15.706  69.633  1.00  0.00    -0.280 OA 
BRANCH   8   9
HETATM    9  C   UNL     1      -8.734  16.515  68.712  1.00  0.00    -0.259 C  
HETATM   10  O   UNL     1      -7.627  17.007  68.845  1.00  0.00    -0.236 OA 
BRANCH   9  11
HETATM   11  C   UNL     1      -9.570  16.540  67.470  1.00  0.00    -0.231 A  
HETATM   12  C   UNL     1     -10.085  17.732  66.942  1.00  0.00    -0.342 A  
HETATM   13  C   UNL     1     -10.771  17.721  65.715  1.00  0.00    -0.098 A  
HETATM   14 CL   UNL     1      -9.916  19.282  67.690  1.00  0.00    -0.421 Cl 
HETATM   15  C   UNL     1     -10.989  16.535  65.013  1.00  0.00    -0.210 A  
HETATM   16  C   UNL     1     -10.423  15.361  65.504  1.00  0.00    -0.402 A  
HETATM   17  N   UNL     1     -11.551  16.559  63.735  1.00  0.00    -1.433 NA 
HETATM   18  H1  UNL     1     -11.710  15.692  63.223  1.00  0.00     0.000 HD 
HETATM   19  C   UNL     1      -9.745  15.356  66.727  1.00  0.00    -0.254 A  
HETATM   20  H2  UNL     1     -10.989  17.177  63.150  1.00  0.00     0.000 HD 
ENDBRANCH   9  11
ENDBRANCH   8   9
ENDBRANCH   7   8
ENDBRANCH   6   7
ENDBRANCH   3   6
ENDBRANCH   2   3
TORSDOF 7
ENDMDL
MODEL       52
REMARK 921   NORMALIZED FREE ENERGY PREDICTED BY IDOCK:   -4.86 KCAL/MOL
REMARK 922        TOTAL FREE ENERGY PREDICTED BY IDOCK:   -7.24 KCAL/MOL
REMARK 923 INTER-LIGAND FREE ENERGY PREDICTED BY IDOCK:   -7.00 KCAL/MOL
REMARK 924 INTRA-LIGAND FREE ENERGY PREDICTED BY IDOCK:   -0.24 KCAL/MOL
REMARK 927      BINDING AFFINITY PREDICTED BY RF-SCORE:    0.00 PKD
ROOT
HETATM    1  C   UNL     1     -11.283   6.457  69.359  1.00  0.00    -0.459 C  
HETATM    2  C   UNL     1     -10.749   7.414  70.418  1.00  0.00    -0.237 C  
ENDROOT
BRANCH   2   3
HETATM    3  N   UNL     1     -11.651   8.533  70.760  1.00  0.00    -0.262 NA 
BRANCH   3   4
HETATM    4  C   UNL     1     -12.208   8.453  72.121  1.00  0.00    -0.374 C  
HETATM    5  C   UNL     1     -13.382   9.379  72.430  1.00  0.00    -0.503 C  
ENDBRANCH   3   4
BRANCH   3   6
HETATM    6  C   UNL     1     -10.946   9.798  70.496  1.00  0.00    -0.321 C  
BRANCH   6   7
HETATM    7  C   UNL     1     -11.553  10.751  69.450  1.00  0.00    -0.308 C  
BRANCH   7   8
HETATM    8  O   UNL     1     -10.510  11.017  68.489  1.00  0.00    -0.172 OA 
BRANCH   8   9
HETATM    9  C   UNL     1     -10.674  10.379  67.298  1.00  0.00    -0.273 C  
HETATM   10  O   UNL     1     -10.685   9.168  67.168  1.00  0.00    -0.255 OA 
BRANCH   9  11
HETATM   11  C   UNL     1     -11.016  11.384  66.243  1.00  0.00    -0.303 A  
HETATM   12  C   UNL     1     -10.556  11.269  64.924  1.00  0.00    -0.300 A  
HETATM   13  C   UNL     1     -10.993  12.175  63.943  1.00  0.00    -0.463 A  
HETATM   14 CL   UNL     1      -9.474  10.036  64.376  1.00  0.00    -0.352 Cl 
HETATM   15  C   UNL     1     -11.855  13.226  64.254  1.00  0.00    -0.417 A  
HETATM   16  C   UNL     1     -12.363  13.304  65.549  1.00  0.00    -0.533 A  
HETATM   17  N   UNL     1     -12.384  14.033  63.245  1.00  0.00    -1.145 NA 
HETATM   18  H1  UNL     1     -13.015  14.801  63.473  1.00  0.00     0.000 HD 
HETATM   19  C   UNL     1     -11.932  12.414  66.537  1.00  0.00    -0.325 A  
HETATM   20  H2  UNL     1     -12.847  13.432  62.564  1.00  0.00     0.000 HD 
ENDBRANCH   9  11
ENDBRANCH   8   9
ENDBRANCH   7   8
ENDBRANCH   6   7
ENDBRANCH   3   6
ENDBRANCH   2   3
TORSDOF 7
ENDMDL
MODEL       53
REMARK 921   NORMALIZED FREE ENERGY PREDICTED BY IDOCK:   -4.84 KCAL/MOL
REMARK 922        TOTAL FREE ENERGY PREDICTED BY IDOCK:   -7.22 KCAL/MOL
REMARK 923 INTER-LIGAND FREE ENERGY PREDICTED BY IDOCK:   -6.60 KCAL/MOL
REMARK 924 INTRA-LIGAND FREE ENERGY PREDICTED BY IDOCK:   -0.62 KCAL/MOL
REMARK 927      BINDING AFFINITY PREDICTED BY RF-SCORE:    0.00 PKD
ROOT
HETATM    1  C   UNL     1     -10.590  19.526  65.890  1.00  0.00    -0.572 C  
HETATM    2  C   UNL     1     -10.332  18.192  66.581  1.00  0.00    -0.376 C  
ENDROOT
BRANCH   2   3
HETATM    3  N   UNL     1      -9.686  17.167  65.737  1.00  0.00    -0.547 NA 
BRANCH   3   4
HETATM    4  C   UNL     1      -8.410  16.667  66.279  1.00  0.00    -0.325 C  
HETATM    5  C   UNL     1      -7.205  17.594  66.143  1.00  0.00    -0.352 C  
ENDBRANCH   3   4
BRANCH   3   6
HETATM    6  C   UNL     1     -10.661  16.096  65.474  1.00  0.00    -0.342 C  
BRANCH   6   7
HETATM    7  C   UNL     1     -10.292  14.667  65.913  1.00  0.00    -0.319 C  
BRANCH   7   8
HETATM    8  O   UNL     1     -11.059  14.398  67.105  1.00  0.00    -0.296 OA 
BRANCH   8   9
HETATM    9  C   UNL     1     -10.339  13.844  68.117  1.00  0.00    -0.247 C  
HETATM   10  O   UNL     1      -9.146  13.603  68.055  1.00  0.00    -0.178 OA 
BRANCH   9  11
HETATM   11  C   UNL     1     -11.194  13.759  69.343  1.00  0.00    -0.259 A  
HETATM   12  C   UNL     1     -11.563  14.895  70.076  1.00  0.00    -0.289 A  
HETATM   13  C   UNL     1     -12.457  14.779  71.155  1.00  0.00    -0.397 A  
HETATM   14 CL   UNL     1     -11.010  16.498  69.732  1.00  0.00    -0.338 Cl 
HETATM   15  C   UNL     1     -12.967  13.542  71.547  1.00  0.00    -0.355 A  
HETATM   16  C   UNL     1     -12.652  12.423  70.782  1.00  0.00    -0.298 A  
HETATM   17  N   UNL     1     -13.955  13.462  72.531  1.00  0.00    -0.751 NA 
HETATM   18  H1  UNL     1     -14.329  12.557  72.818  1.00  0.00     0.000 HD 
HETATM   19  C   UNL     1     -11.759  12.521  69.711  1.00  0.00    -0.355 A  
HETATM   20  H2  UNL     1     -14.736  14.054  72.250  1.00  0.00     0.000 HD 
ENDBRANCH   9  11
ENDBRANCH   8   9
ENDBRANCH   7   8
ENDBRANCH   6   7
ENDBRANCH   3   6
ENDBRANCH   2   3
TORSDOF 7
ENDMDL
MODEL       54
REMARK 921   NORMALIZED FREE ENERGY PREDICTED BY IDOCK:   -4.84 KCAL/MOL
REMARK 922        TOTAL FREE ENERGY PREDICTED BY IDOCK:   -7.21 KCAL/MOL
REMARK 923 INTER-LIGAND FREE ENERGY PREDICTED BY IDOCK:   -6.81 KCAL/MOL
REMARK 924 INTRA-LIGAND FREE ENERGY PREDICTED BY IDOCK:   -0.40 KCAL/MOL
REMARK 927      BINDING AFFINITY PREDICTED BY RF-SCORE:    0.00 PKD
ROOT
HETATM    1  C   UNL     1     -11.088   6.674  70.291  1.00  0.00    -0.379 C  
HETATM    2  C   UNL     1      -9.952   7.637  69.969  1.00  0.00    -0.190 C  
ENDROOT
BRANCH   2   3
HETATM    3  N   UNL     1     -10.379   8.970  69.496  1.00  0.00    -0.204 NA 
BRANCH   3   4
HETATM    4  C   UNL     1     -10.558   9.955  70.576  1.00  0.00    -0.293 C  
HETATM    5  C   UNL     1     -11.933   9.996  71.238  1.00  0.00    -0.483 C  
ENDBRANCH   3   4
BRANCH   3   6
HETATM    6  C   UNL     1      -9.441   9.417  68.453  1.00  0.00    -0.141 C  
BRANCH   6   7
HETATM    7  C   UNL     1     -10.010   9.696  67.050  1.00  0.00    -0.206 C  
BRANCH   7   8
HETATM    8  O   UNL     1     -10.145  11.129  66.944  1.00  0.00    -0.203 OA 
BRANCH   8   9
HETATM    9  C   UNL     1     -11.422  11.579  67.074  1.00  0.00    -0.214 C  
HETATM   10  O   UNL     1     -12.234  11.114  67.855  1.00  0.00    -0.521 OA 
BRANCH   9  11
HETATM   11  C   UNL     1     -11.593  12.822  66.258  1.00  0.00    -0.433 A  
HETATM   12  C   UNL     1     -11.203  14.084  66.727  1.00  0.00    -0.315 A  
HETATM   13  C   UNL     1     -11.281  15.205  65.883  1.00  0.00    -0.280 A  
HETATM   14 CL   UNL     1     -10.581  14.382  68.313  1.00  0.00    -0.238 Cl 
HETATM   15  C   UNL     1     -11.777  15.106  64.584  1.00  0.00    -0.348 A  
HETATM   16  C   UNL     1     -12.105  13.844  64.095  1.00  0.00    -0.464 A  
HETATM   17  N   UNL     1     -11.723  16.199  63.717  1.00  0.00    -1.406 NA 
HETATM   18  H1  UNL     1     -12.085  16.126  62.767  1.00  0.00     0.000 HD 
HETATM   19  C   UNL     1     -12.040  12.720  64.925  1.00  0.00    -0.490 A  
HETATM   20  H2  UNL     1     -10.755  16.518  63.665  1.00  0.00     0.000 HD 
ENDBRANCH   9  11
ENDBRANCH   8   9
ENDBRANCH   7   8
ENDBRANCH   6   7
ENDBRANCH   3   6
ENDBRANCH   2   3
TORSDOF 7
ENDMDL
MODEL       55
REMARK 921   NORMALIZED FREE ENERGY PREDICTED BY IDOCK:   -4.84 KCAL/MOL
REMARK 922        TOTAL FREE ENERGY PREDICTED BY IDOCK:   -7.21 KCAL/MOL
REMARK 923 INTER-LIGAND FREE ENERGY PREDICTED BY IDOCK:   -6.60 KCAL/MOL
REMARK 924 INTRA-LIGAND FREE ENERGY PREDICTED BY IDOCK:   -0.61 KCAL/MOL
REMARK 927      BINDING AFFINITY PREDICTED BY RF-SCORE:    0.00 PKD
ROOT
HETATM    1  C   UNL     1     -10.700  19.689  67.089  1.00  0.00    -0.587 C  
HETATM    2  C   UNL     1      -9.325  19.420  67.687  1.00  0.00    -0.309 C  
ENDROOT
BRANCH   2   3
HETATM    3  N   UNL     1      -8.195  19.572  66.747  1.00  0.00    -0.282 NA 
BRANCH   3   4
HETATM    4  C   UNL     1      -7.161  20.514  67.208  1.00  0.00    -0.314 C  
HETATM    5  C   UNL     1      -6.037  20.823  66.221  1.00  0.00    -0.278 C  
ENDBRANCH   3   4
BRANCH   3   6
HETATM    6  C   UNL     1      -7.663  18.234  66.438  1.00  0.00    -0.257 C  
BRANCH   6   7
HETATM    7  C   UNL     1      -8.445  17.015  66.961  1.00  0.00    -0.210 C  
BRANCH   7   8
HETATM    8  O   UNL     1      -8.873  16.277  65.798  1.00  0.00    -0.411 OA 
BRANCH   8   9
HETATM    9  C   UNL     1     -10.219  16.097  65.717  1.00  0.00    -0.374 C  
HETATM   10  O   UNL     1     -10.965  16.808  65.067  1.00  0.00    -0.584 OA 
BRANCH   9  11
HETATM   11  C   UNL     1     -10.586  14.808  66.385  1.00  0.00    -0.300 A  
HETATM   12  C   UNL     1     -11.229  14.770  67.630  1.00  0.00    -0.323 A  
HETATM   13  C   UNL     1     -11.653  13.542  68.167  1.00  0.00    -0.368 A  
HETATM   14 CL   UNL     1     -11.586  16.167  68.585  1.00  0.00    -0.348 Cl 
HETATM   15  C   UNL     1     -11.415  12.337  67.506  1.00  0.00    -0.347 A  
HETATM   16  C   UNL     1     -10.834  12.379  66.242  1.00  0.00    -0.299 A  
HETATM   17  N   UNL     1     -11.959  11.144  67.986  1.00  0.00    -0.700 NA 
HETATM   18  H1  UNL     1     -11.786  10.264  67.503  1.00  0.00     0.000 HD 
HETATM   19  C   UNL     1     -10.401  13.592  65.697  1.00  0.00    -0.309 A  
HETATM   20  H2  UNL     1     -12.969  11.266  68.076  1.00  0.00     0.000 HD 
ENDBRANCH   9  11
ENDBRANCH   8   9
ENDBRANCH   7   8
ENDBRANCH   6   7
ENDBRANCH   3   6
ENDBRANCH   2   3
TORSDOF 7
ENDMDL
MODEL       56
REMARK 921   NORMALIZED FREE ENERGY PREDICTED BY IDOCK:   -4.83 KCAL/MOL
REMARK 922        TOTAL FREE ENERGY PREDICTED BY IDOCK:   -7.20 KCAL/MOL
REMARK 923 INTER-LIGAND FREE ENERGY PREDICTED BY IDOCK:   -6.69 KCAL/MOL
REMARK 924 INTRA-LIGAND FREE ENERGY PREDICTED BY IDOCK:   -0.51 KCAL/MOL
REMARK 927      BINDING AFFINITY PREDICTED BY RF-SCORE:    0.00 PKD
ROOT
HETATM    1  C   UNL     1     -10.239   8.770  66.981  1.00  0.00    -0.351 C  
HETATM    2  C   UNL     1     -10.501   8.441  68.445  1.00  0.00    -0.164 C  
ENDROOT
BRANCH   2   3
HETATM    3  N   UNL     1     -10.678   9.613  69.327  1.00  0.00    -0.225 NA 
BRANCH   3   4
HETATM    4  C   UNL     1     -10.759   9.275  70.758  1.00  0.00    -0.284 C  
HETATM    5  C   UNL     1     -11.971   9.813  71.515  1.00  0.00    -0.488 C  
ENDBRANCH   3   4
BRANCH   3   6
HETATM    6  C   UNL     1      -9.619  10.590  69.022  1.00  0.00    -0.202 C  
BRANCH   6   7
HETATM    7  C   UNL     1     -10.052  11.993  68.559  1.00  0.00    -0.196 C  
BRANCH   7   8
HETATM    8  O   UNL     1     -11.306  12.269  69.217  1.00  0.00    -0.255 OA 
BRANCH   8   9
HETATM    9  C   UNL     1     -11.804  13.510  68.969  1.00  0.00    -0.343 C  
HETATM   10  O   UNL     1     -12.059  13.934  67.855  1.00  0.00    -0.366 OA 
BRANCH   9  11
HETATM   11  C   UNL     1     -12.150  14.172  70.266  1.00  0.00    -0.412 A  
HETATM   12  C   UNL     1     -11.665  15.441  70.610  1.00  0.00    -0.339 A  
HETATM   13  C   UNL     1     -12.104  16.069  71.789  1.00  0.00    -0.570 A  
HETATM   14 CL   UNL     1     -10.545  16.347  69.652  1.00  0.00    -0.312 Cl 
HETATM   15  C   UNL     1     -12.995  15.442  72.659  1.00  0.00    -0.422 A  
HETATM   16  C   UNL     1     -13.528  14.210  72.287  1.00  0.00    -0.578 A  
HETATM   17  N   UNL     1     -13.524  16.131  73.752  1.00  0.00    -0.898 NA 
HETATM   18  H1  UNL     1     -14.177  15.673  74.388  1.00  0.00     0.000 HD 
HETATM   19  C   UNL     1     -13.094  13.570  71.122  1.00  0.00    -0.285 A  
HETATM   20  H2  UNL     1     -13.962  16.987  73.409  1.00  0.00     0.000 HD 
ENDBRANCH   9  11
ENDBRANCH   8   9
ENDBRANCH   7   8
ENDBRANCH   6   7
ENDBRANCH   3   6
ENDBRANCH   2   3
TORSDOF 7
ENDMDL
MODEL       57
REMARK 921   NORMALIZED FREE ENERGY PREDICTED BY IDOCK:   -4.81 KCAL/MOL
REMARK 922        TOTAL FREE ENERGY PREDICTED BY IDOCK:   -7.18 KCAL/MOL
REMARK 923 INTER-LIGAND FREE ENERGY PREDICTED BY IDOCK:   -6.98 KCAL/MOL
REMARK 924 INTRA-LIGAND FREE ENERGY PREDICTED BY IDOCK:   -0.20 KCAL/MOL
REMARK 927      BINDING AFFINITY PREDICTED BY RF-SCORE:    0.00 PKD
ROOT
HETATM    1  C   UNL     1      -8.786  10.271  63.301  1.00  0.00    -0.207 C  
HETATM    2  C   UNL     1     -10.012  10.414  64.193  1.00  0.00    -0.267 C  
ENDROOT
BRANCH   2   3
HETATM    3  N   UNL     1     -10.011  11.602  65.070  1.00  0.00    -0.253 NA 
BRANCH   3   4
HETATM    4  C   UNL     1     -10.771  12.742  64.530  1.00  0.00    -0.358 C  
HETATM    5  C   UNL     1     -11.937  12.404  63.605  1.00  0.00    -0.626 C  
ENDBRANCH   3   4
BRANCH   3   6
HETATM    6  C   UNL     1     -10.459  11.192  66.412  1.00  0.00    -0.260 C  
BRANCH   6   7
HETATM    7  C   UNL     1     -11.168  12.246  67.282  1.00  0.00    -0.300 C  
BRANCH   7   8
HETATM    8  O   UNL     1     -12.020  11.516  68.190  1.00  0.00    -0.571 OA 
BRANCH   8   9
HETATM    9  C   UNL     1     -11.538  11.432  69.459  1.00  0.00    -0.331 C  
HETATM   10  O   UNL     1     -10.557  10.783  69.776  1.00  0.00    -0.226 OA 
BRANCH   9  11
HETATM   11  C   UNL     1     -12.282  12.393  70.334  1.00  0.00    -0.370 A  
HETATM   12  C   UNL     1     -12.955  11.980  71.492  1.00  0.00    -0.304 A  
HETATM   13  C   UNL     1     -13.546  12.931  72.342  1.00  0.00    -0.577 A  
HETATM   14 CL   UNL     1     -13.100  10.332  71.999  1.00  0.00    -0.553 Cl 
HETATM   15  C   UNL     1     -13.515  14.293  72.043  1.00  0.00    -0.412 A  
HETATM   16  C   UNL     1     -12.792  14.710  70.927  1.00  0.00    -0.427 A  
HETATM   17  N   UNL     1     -13.987  15.233  72.961  1.00  0.00    -0.529 NA 
HETATM   18  H1  UNL     1     -13.964  16.229  72.743  1.00  0.00     0.000 HD 
HETATM   19  C   UNL     1     -12.205  13.775  70.070  1.00  0.00    -0.407 A  
HETATM   20  H2  UNL     1     -13.500  15.089  73.846  1.00  0.00     0.000 HD 
ENDBRANCH   9  11
ENDBRANCH   8   9
ENDBRANCH   7   8
ENDBRANCH   6   7
ENDBRANCH   3   6
ENDBRANCH   2   3
TORSDOF 7
ENDMDL
MODEL       58
REMARK 921   NORMALIZED FREE ENERGY PREDICTED BY IDOCK:   -4.79 KCAL/MOL
REMARK 922        TOTAL FREE ENERGY PREDICTED BY IDOCK:   -7.14 KCAL/MOL
REMARK 923 INTER-LIGAND FREE ENERGY PREDICTED BY IDOCK:   -6.84 KCAL/MOL
REMARK 924 INTRA-LIGAND FREE ENERGY PREDICTED BY IDOCK:   -0.30 KCAL/MOL
REMARK 927      BINDING AFFINITY PREDICTED BY RF-SCORE:    0.00 PKD
ROOT
HETATM    1  C   UNL     1     -12.168  11.940  63.543  1.00  0.00    -0.591 C  
HETATM    2  C   UNL     1     -12.629  12.654  64.808  1.00  0.00    -0.454 C  
ENDROOT
BRANCH   2   3
HETATM    3  N   UNL     1     -11.921  12.257  66.042  1.00  0.00    -0.609 NA 
BRANCH   3   4
HETATM    4  C   UNL     1     -10.584  11.686  65.804  1.00  0.00    -0.271 C  
HETATM    5  C   UNL     1     -10.235  10.424  66.589  1.00  0.00    -0.292 C  
ENDBRANCH   3   4
BRANCH   3   6
HETATM    6  C   UNL     1     -11.904  13.407  66.961  1.00  0.00    -0.394 C  
BRANCH   6   7
HETATM    7  C   UNL     1     -11.978  14.816  66.345  1.00  0.00    -0.168 C  
BRANCH   7   8
HETATM    8  O   UNL     1     -10.876  15.561  66.904  1.00  0.00    -0.314 OA 
BRANCH   8   9
HETATM    9  C   UNL     1     -10.358  16.501  66.068  1.00  0.00    -0.345 C  
HETATM   10  O   UNL     1     -10.742  16.685  64.926  1.00  0.00    -0.710 OA 
BRANCH   9  11
HETATM   11  C   UNL     1      -9.401  17.365  66.829  1.00  0.00    -0.279 A  
HETATM   12  C   UNL     1      -9.482  18.764  66.812  1.00  0.00    -0.319 A  
HETATM   13  C   UNL     1      -8.631  19.530  67.628  1.00  0.00    -0.355 A  
HETATM   14 CL   UNL     1     -10.607  19.662  65.853  1.00  0.00    -0.606 Cl 
HETATM   15  C   UNL     1      -7.668  18.931  68.440  1.00  0.00    -0.319 A  
HETATM   16  C   UNL     1      -7.629  17.541  68.506  1.00  0.00    -0.266 A  
HETATM   17  N   UNL     1      -6.925  19.696  69.342  1.00  0.00    -0.350 NA 
HETATM   18  H1  UNL     1      -6.221  19.258  69.936  1.00  0.00     0.000 HD 
HETATM   19  C   UNL     1      -8.464  16.766  67.694  1.00  0.00    -0.197 A  
HETATM   20  H2  UNL     1      -7.575  20.205  69.941  1.00  0.00     0.000 HD 
ENDBRANCH   9  11
ENDBRANCH   8   9
ENDBRANCH   7   8
ENDBRANCH   6   7
ENDBRANCH   3   6
ENDBRANCH   2   3
TORSDOF 7
ENDMDL
MODEL       59
REMARK 921   NORMALIZED FREE ENERGY PREDICTED BY IDOCK:   -4.78 KCAL/MOL
REMARK 922        TOTAL FREE ENERGY PREDICTED BY IDOCK:   -7.13 KCAL/MOL
REMARK 923 INTER-LIGAND FREE ENERGY PREDICTED BY IDOCK:   -6.40 KCAL/MOL
REMARK 924 INTRA-LIGAND FREE ENERGY PREDICTED BY IDOCK:   -0.73 KCAL/MOL
REMARK 927      BINDING AFFINITY PREDICTED BY RF-SCORE:    0.00 PKD
ROOT
HETATM    1  C   UNL     1      -9.861  11.168  63.245  1.00  0.00    -0.415 C  
HETATM    2  C   UNL     1     -10.289  11.145  64.708  1.00  0.00    -0.325 C  
ENDROOT
BRANCH   2   3
HETATM    3  N   UNL     1     -10.621  12.465  65.282  1.00  0.00    -0.281 NA 
BRANCH   3   4
HETATM    4  C   UNL     1     -11.969  12.536  65.871  1.00  0.00    -0.409 C  
HETATM    5  C   UNL     1     -12.895  13.616  65.319  1.00  0.00    -0.421 C  
ENDBRANCH   3   4
BRANCH   3   6
HETATM    6  C   UNL     1      -9.556  12.844  66.226  1.00  0.00    -0.243 C  
BRANCH   6   7
HETATM    7  C   UNL     1      -9.956  13.097  67.691  1.00  0.00    -0.219 C  
BRANCH   7   8
HETATM    8  O   UNL     1      -9.667  14.486  67.957  1.00  0.00    -0.209 OA 
BRANCH   8   9
HETATM    9  C   UNL     1     -10.772  15.268  68.092  1.00  0.00    -0.257 C  
HETATM   10  O   UNL     1     -11.822  14.888  68.582  1.00  0.00    -0.325 OA 
BRANCH   9  11
HETATM   11  C   UNL     1     -10.428  16.677  67.724  1.00  0.00    -0.316 A  
HETATM   12  C   UNL     1     -10.404  17.116  66.393  1.00  0.00    -0.307 A  
HETATM   13  C   UNL     1     -10.183  18.474  66.102  1.00  0.00    -0.424 A  
HETATM   14 CL   UNL     1     -10.661  16.090  65.024  1.00  0.00    -0.443 Cl 
HETATM   15  C   UNL     1      -9.948  19.406  67.112  1.00  0.00    -0.360 A  
HETATM   16  C   UNL     1     -10.035  18.984  68.436  1.00  0.00    -0.473 A  
HETATM   17  N   UNL     1      -9.865  20.768  66.816  1.00  0.00    -0.594 NA 
HETATM   18  H1  UNL     1      -9.693  21.450  67.554  1.00  0.00     0.000 HD 
HETATM   19  C   UNL     1     -10.246  17.636  68.741  1.00  0.00    -0.373 A  
HETATM   20  H2  UNL     1     -10.716  21.040  66.322  1.00  0.00     0.000 HD 
ENDBRANCH   9  11
ENDBRANCH   8   9
ENDBRANCH   7   8
ENDBRANCH   6   7
ENDBRANCH   3   6
ENDBRANCH   2   3
TORSDOF 7
ENDMDL
MODEL       60
REMARK 921   NORMALIZED FREE ENERGY PREDICTED BY IDOCK:   -4.77 KCAL/MOL
REMARK 922        TOTAL FREE ENERGY PREDICTED BY IDOCK:   -7.11 KCAL/MOL
REMARK 923 INTER-LIGAND FREE ENERGY PREDICTED BY IDOCK:   -6.60 KCAL/MOL
REMARK 924 INTRA-LIGAND FREE ENERGY PREDICTED BY IDOCK:   -0.51 KCAL/MOL
REMARK 927      BINDING AFFINITY PREDICTED BY RF-SCORE:    0.00 PKD
ROOT
HETATM    1  C   UNL     1      -9.353   7.014  66.218  1.00  0.00    -0.146 C  
HETATM    2  C   UNL     1      -9.577   8.253  67.075  1.00  0.00    -0.191 C  
ENDROOT
BRANCH   2   3
HETATM    3  N   UNL     1      -9.172   9.528  66.449  1.00  0.00    -0.157 NA 
BRANCH   3   4
HETATM    4  C   UNL     1      -9.455   9.597  65.005  1.00  0.00    -0.245 C  
HETATM    5  C   UNL     1     -10.171  10.852  64.513  1.00  0.00    -0.422 C  
ENDBRANCH   3   4
BRANCH   3   6
HETATM    6  C   UNL     1      -9.774  10.635  67.210  1.00  0.00    -0.168 C  
BRANCH   6   7
HETATM    7  C   UNL     1     -11.069  10.344  67.991  1.00  0.00    -0.298 C  
BRANCH   7   8
HETATM    8  O   UNL     1     -12.020  11.353  67.589  1.00  0.00    -0.630 OA 
BRANCH   8   9
HETATM    9  C   UNL     1     -11.801  12.576  68.144  1.00  0.00    -0.317 C  
HETATM   10  O   UNL     1     -11.537  12.755  69.320  1.00  0.00    -0.282 OA 
BRANCH   9  11
HETATM   11  C   UNL     1     -11.756  13.608  67.061  1.00  0.00    -0.419 A  
HETATM   12  C   UNL     1     -10.864  14.689  67.095  1.00  0.00    -0.303 A  
HETATM   13  C   UNL     1     -10.781  15.571  66.004  1.00  0.00    -0.331 A  
HETATM   14 CL   UNL     1      -9.792  15.024  68.411  1.00  0.00    -0.217 Cl 
HETATM   15  C   UNL     1     -11.600  15.423  64.885  1.00  0.00    -0.248 A  
HETATM   16  C   UNL     1     -12.440  14.314  64.821  1.00  0.00    -0.390 A  
HETATM   17  N   UNL     1     -11.412  16.224  63.757  1.00  0.00    -1.429 NA 
HETATM   18  H1  UNL     1     -12.010  16.115  62.938  1.00  0.00     0.000 HD 
HETATM   19  C   UNL     1     -12.539  13.433  65.902  1.00  0.00    -0.412 A  
HETATM   20  H2  UNL     1     -10.441  16.131  63.456  1.00  0.00     0.000 HD 
ENDBRANCH   9  11
ENDBRANCH   8   9
ENDBRANCH   7   8
ENDBRANCH   6   7
ENDBRANCH   3   6
ENDBRANCH   2   3
TORSDOF 7
ENDMDL
MODEL       61
REMARK 921   NORMALIZED FREE ENERGY PREDICTED BY IDOCK:   -4.74 KCAL/MOL
REMARK 922        TOTAL FREE ENERGY PREDICTED BY IDOCK:   -7.07 KCAL/MOL
REMARK 923 INTER-LIGAND FREE ENERGY PREDICTED BY IDOCK:   -6.79 KCAL/MOL
REMARK 924 INTRA-LIGAND FREE ENERGY PREDICTED BY IDOCK:   -0.28 KCAL/MOL
REMARK 927      BINDING AFFINITY PREDICTED BY RF-SCORE:    0.00 PKD
ROOT
HETATM    1  C   UNL     1     -10.190  11.409  63.256  1.00  0.00    -0.430 C  
HETATM    2  C   UNL     1      -9.255  10.730  64.248  1.00  0.00    -0.218 C  
ENDROOT
BRANCH   2   3
HETATM    3  N   UNL     1      -9.916  10.164  65.442  1.00  0.00    -0.307 NA 
BRANCH   3   4
HETATM    4  C   UNL     1      -9.291   8.925  65.937  1.00  0.00    -0.236 C  
HETATM    5  C   UNL     1     -10.104   8.108  66.938  1.00  0.00    -0.367 C  
ENDBRANCH   3   4
BRANCH   3   6
HETATM    6  C   UNL     1     -10.007  11.216  66.468  1.00  0.00    -0.214 C  
BRANCH   6   7
HETATM    7  C   UNL     1     -11.299  12.050  66.524  1.00  0.00    -0.354 C  
BRANCH   7   8
HETATM    8  O   UNL     1     -11.986  11.655  67.730  1.00  0.00    -0.608 OA 
BRANCH   8   9
HETATM    9  C   UNL     1     -11.461  12.184  68.868  1.00  0.00    -0.297 C  
HETATM   10  O   UNL     1     -10.777  13.191  68.901  1.00  0.00    -0.233 OA 
BRANCH   9  11
HETATM   11  C   UNL     1     -12.007  11.448  70.052  1.00  0.00    -0.442 A  
HETATM   12  C   UNL     1     -12.770  12.084  71.040  1.00  0.00    -0.241 A  
HETATM   13  C   UNL     1     -13.354  11.332  72.074  1.00  0.00    -0.386 A  
HETATM   14 CL   UNL     1     -13.090  13.784  71.079  1.00  0.00    -0.321 Cl 
HETATM   15  C   UNL     1     -13.164   9.954  72.169  1.00  0.00    -0.415 A  
HETATM   16  C   UNL     1     -12.460   9.312  71.154  1.00  0.00    -0.341 A  
HETATM   17  N   UNL     1     -13.858   9.205  73.121  1.00  0.00    -1.136 NA 
HETATM   18  H1  UNL     1     -13.720   8.197  73.190  1.00  0.00     0.000 HD 
HETATM   19  C   UNL     1     -11.867  10.047  70.123  1.00  0.00    -0.245 A  
HETATM   20  H2  UNL     1     -14.856   9.382  73.001  1.00  0.00     0.000 HD 
ENDBRANCH   9  11
ENDBRANCH   8   9
ENDBRANCH   7   8
ENDBRANCH   6   7
ENDBRANCH   3   6
ENDBRANCH   2   3
TORSDOF 7
ENDMDL
MODEL       62
REMARK 921   NORMALIZED FREE ENERGY PREDICTED BY IDOCK:   -4.70 KCAL/MOL
REMARK 922        TOTAL FREE ENERGY PREDICTED BY IDOCK:   -7.02 KCAL/MOL
REMARK 923 INTER-LIGAND FREE ENERGY PREDICTED BY IDOCK:   -6.56 KCAL/MOL
REMARK 924 INTRA-LIGAND FREE ENERGY PREDICTED BY IDOCK:   -0.45 KCAL/MOL
REMARK 927      BINDING AFFINITY PREDICTED BY RF-SCORE:    0.00 PKD
ROOT
HETATM    1  C   UNL     1     -11.215   6.149  69.606  1.00  0.00    -0.488 C  
HETATM    2  C   UNL     1     -10.464   7.396  70.055  1.00  0.00    -0.226 C  
ENDROOT
BRANCH   2   3
HETATM    3  N   UNL     1     -11.279   8.382  70.795  1.00  0.00    -0.262 NA 
BRANCH   3   4
HETATM    4  C   UNL     1     -11.237   8.212  72.257  1.00  0.00    -0.359 C  
HETATM    5  C   UNL     1      -9.855   8.248  72.906  1.00  0.00    -0.303 C  
ENDBRANCH   3   4
BRANCH   3   6
HETATM    6  C   UNL     1     -10.886   9.732  70.358  1.00  0.00    -0.311 C  
BRANCH   6   7
HETATM    7  C   UNL     1     -11.991  10.801  70.258  1.00  0.00    -0.351 C  
BRANCH   7   8
HETATM    8  O   UNL     1     -12.189  11.050  68.851  1.00  0.00    -0.519 OA 
BRANCH   8   9
HETATM    9  C   UNL     1     -11.561  12.166  68.390  1.00  0.00    -0.327 C  
HETATM   10  O   UNL     1     -11.222  13.100  69.095  1.00  0.00    -0.262 OA 
BRANCH   9  11
HETATM   11  C   UNL     1     -11.204  11.971  66.949  1.00  0.00    -0.375 A  
HETATM   12  C   UNL     1     -10.144  11.146  66.548  1.00  0.00    -0.223 A  
HETATM   13  C   UNL     1      -9.914  10.906  65.182  1.00  0.00    -0.341 A  
HETATM   14 CL   UNL     1      -9.068  10.343  67.640  1.00  0.00    -0.139 Cl 
HETATM   15  C   UNL     1     -10.700  11.503  64.197  1.00  0.00    -0.368 A  
HETATM   16  C   UNL     1     -11.791  12.271  64.594  1.00  0.00    -0.435 A  
HETATM   17  N   UNL     1     -10.545  11.149  62.855  1.00  0.00    -0.800 NA 
HETATM   18  H1  UNL     1     -11.119  11.585  62.134  1.00  0.00     0.000 HD 
HETATM   19  C   UNL     1     -12.027  12.524  65.949  1.00  0.00    -0.472 A  
HETATM   20  H2  UNL     1     -10.649  10.137  62.776  1.00  0.00     0.000 HD 
ENDBRANCH   9  11
ENDBRANCH   8   9
ENDBRANCH   7   8
ENDBRANCH   6   7
ENDBRANCH   3   6
ENDBRANCH   2   3
TORSDOF 7
ENDMDL
MODEL       63
REMARK 921   NORMALIZED FREE ENERGY PREDICTED BY IDOCK:   -4.64 KCAL/MOL
REMARK 922        TOTAL FREE ENERGY PREDICTED BY IDOCK:   -6.94 KCAL/MOL
REMARK 923 INTER-LIGAND FREE ENERGY PREDICTED BY IDOCK:   -6.48 KCAL/MOL
REMARK 924 INTRA-LIGAND FREE ENERGY PREDICTED BY IDOCK:   -0.46 KCAL/MOL
REMARK 927      BINDING AFFINITY PREDICTED BY RF-SCORE:    0.00 PKD
ROOT
HETATM    1  C   UNL     1     -10.100  19.570  68.951  1.00  0.00    -0.486 C  
HETATM    2  C   UNL     1      -8.625  19.421  68.598  1.00  0.00    -0.358 C  
ENDROOT
BRANCH   2   3
HETATM    3  N   UNL     1      -8.208  20.108  67.359  1.00  0.00    -0.331 NA 
BRANCH   3   4
HETATM    4  C   UNL     1      -6.895  20.769  67.458  1.00  0.00    -0.354 C  
HETATM    5  C   UNL     1      -6.144  20.987  66.147  1.00  0.00    -0.310 C  
ENDBRANCH   3   4
BRANCH   3   6
HETATM    6  C   UNL     1      -8.290  19.150  66.244  1.00  0.00    -0.299 C  
BRANCH   6   7
HETATM    7  C   UNL     1      -8.173  17.651  66.578  1.00  0.00    -0.273 C  
BRANCH   7   8
HETATM    8  O   UNL     1      -8.915  16.949  65.559  1.00  0.00    -0.384 OA 
BRANCH   8   9
HETATM    9  C   UNL     1     -10.266  17.004  65.716  1.00  0.00    -0.245 C  
HETATM   10  O   UNL     1     -11.001  17.721  65.059  1.00  0.00    -0.784 OA 
BRANCH   9  11
HETATM   11  C   UNL     1     -10.697  15.934  66.670  1.00  0.00    -0.270 A  
HETATM   12  C   UNL     1     -10.733  14.581  66.307  1.00  0.00    -0.309 A  
HETATM   13  C   UNL     1     -11.038  13.600  67.267  1.00  0.00    -0.309 A  
HETATM   14 CL   UNL     1     -10.393  13.990  64.717  1.00  0.00    -0.451 Cl 
HETATM   15  C   UNL     1     -11.346  13.942  68.583  1.00  0.00    -0.278 A  
HETATM   16  C   UNL     1     -11.248  15.279  68.961  1.00  0.00    -0.287 A  
HETATM   17  N   UNL     1     -11.514  12.952  69.554  1.00  0.00    -0.424 NA 
HETATM   18  H1  UNL     1     -11.738  13.201  70.516  1.00  0.00     0.000 HD 
HETATM   19  C   UNL     1     -10.953  16.266  68.015  1.00  0.00    -0.328 A  
HETATM   20  H2  UNL     1     -10.677  12.368  69.563  1.00  0.00     0.000 HD 
ENDBRANCH   9  11
ENDBRANCH   8   9
ENDBRANCH   7   8
ENDBRANCH   6   7
ENDBRANCH   3   6
ENDBRANCH   2   3
TORSDOF 7
ENDMDL
MODEL       64
REMARK 921   NORMALIZED FREE ENERGY PREDICTED BY IDOCK:   -4.64 KCAL/MOL
REMARK 922        TOTAL FREE ENERGY PREDICTED BY IDOCK:   -6.93 KCAL/MOL
REMARK 923 INTER-LIGAND FREE ENERGY PREDICTED BY IDOCK:   -6.22 KCAL/MOL
REMARK 924 INTRA-LIGAND FREE ENERGY PREDICTED BY IDOCK:   -0.71 KCAL/MOL
REMARK 927      BINDING AFFINITY PREDICTED BY RF-SCORE:    0.00 PKD
ROOT
HETATM    1  C   UNL     1      -7.919  19.469  69.451  1.00  0.00    -0.002 C  
HETATM    2  C   UNL     1      -7.209  19.746  68.131  1.00  0.00    -0.294 C  
ENDROOT
BRANCH   2   3
HETATM    3  N   UNL     1      -8.089  20.180  67.028  1.00  0.00    -0.315 NA 
BRANCH   3   4
HETATM    4  C   UNL     1      -7.706  19.638  65.713  1.00  0.00    -0.234 C  
HETATM    5  C   UNL     1      -6.606  20.387  64.964  1.00  0.00    -0.335 C  
ENDBRANCH   3   4
BRANCH   3   6
HETATM    6  C   UNL     1      -9.482  19.877  67.394  1.00  0.00    -0.364 C  
BRANCH   6   7
HETATM    7  C   UNL     1     -10.223  18.807  66.571  1.00  0.00    -0.413 C  
BRANCH   7   8
HETATM    8  O   UNL     1     -10.443  17.692  67.459  1.00  0.00    -0.351 OA 
BRANCH   8   9
HETATM    9  C   UNL     1      -9.635  16.623  67.222  1.00  0.00    -0.243 C  
HETATM   10  O   UNL     1      -8.471  16.555  67.576  1.00  0.00    -0.173 OA 
BRANCH   9  11
HETATM   11  C   UNL     1     -10.448  15.509  66.639  1.00  0.00    -0.299 A  
HETATM   12  C   UNL     1     -11.448  14.853  67.370  1.00  0.00    -0.343 A  
HETATM   13  C   UNL     1     -12.260  13.889  66.748  1.00  0.00    -0.438 A  
HETATM   14 CL   UNL     1     -11.800  15.165  69.035  1.00  0.00    -0.339 Cl 
HETATM   15  C   UNL     1     -12.074  13.533  65.412  1.00  0.00    -0.415 A  
HETATM   16  C   UNL     1     -11.124  14.229  64.668  1.00  0.00    -0.371 A  
HETATM   17  N   UNL     1     -12.972  12.676  64.774  1.00  0.00    -0.867 NA 
HETATM   18  H1  UNL     1     -12.836  12.416  63.797  1.00  0.00     0.000 HD 
HETATM   19  C   UNL     1     -10.304  15.185  65.276  1.00  0.00    -0.425 A  
HETATM   20  H2  UNL     1     -13.910  13.064  64.872  1.00  0.00     0.000 HD 
ENDBRANCH   9  11
ENDBRANCH   8   9
ENDBRANCH   7   8
ENDBRANCH   6   7
ENDBRANCH   3   6
ENDBRANCH   2   3
TORSDOF 7
ENDMDL
MODEL       65
REMARK 921   NORMALIZED FREE ENERGY PREDICTED BY IDOCK:   -4.63 KCAL/MOL
REMARK 922        TOTAL FREE ENERGY PREDICTED BY IDOCK:   -6.92 KCAL/MOL
REMARK 923 INTER-LIGAND FREE ENERGY PREDICTED BY IDOCK:   -6.43 KCAL/MOL
REMARK 924 INTRA-LIGAND FREE ENERGY PREDICTED BY IDOCK:   -0.49 KCAL/MOL
REMARK 927      BINDING AFFINITY PREDICTED BY RF-SCORE:    0.00 PKD
ROOT
HETATM    1  C   UNL     1     -10.594  19.572  65.960  1.00  0.00    -0.589 C  
HETATM    2  C   UNL     1     -10.227  18.297  66.707  1.00  0.00    -0.378 C  
ENDROOT
BRANCH   2   3
HETATM    3  N   UNL     1      -9.548  17.268  65.893  1.00  0.00    -0.527 NA 
BRANCH   3   4
HETATM    4  C   UNL     1      -8.199  16.924  66.373  1.00  0.00    -0.307 C  
HETATM    5  C   UNL     1      -7.106  17.963  66.133  1.00  0.00    -0.341 C  
ENDBRANCH   3   4
BRANCH   3   6
HETATM    6  C   UNL     1     -10.437  16.101  65.778  1.00  0.00    -0.367 C  
BRANCH   6   7
HETATM    7  C   UNL     1      -9.908  14.746  66.283  1.00  0.00    -0.296 C  
BRANCH   7   8
HETATM    8  O   UNL     1     -10.817  14.313  67.316  1.00  0.00    -0.277 OA 
BRANCH   8   9
HETATM    9  C   UNL     1     -10.335  14.460  68.579  1.00  0.00    -0.248 C  
HETATM   10  O   UNL     1      -9.279  15.005  68.848  1.00  0.00    -0.192 OA 
BRANCH   9  11
HETATM   11  C   UNL     1     -11.379  14.023  69.560  1.00  0.00    -0.298 A  
HETATM   12  C   UNL     1     -11.690  12.672  69.767  1.00  0.00    -0.284 A  
HETATM   13  C   UNL     1     -12.596  12.303  70.775  1.00  0.00    -0.302 A  
HETATM   14 CL   UNL     1     -11.000  11.366  68.866  1.00  0.00    -0.252 Cl 
HETATM   15  C   UNL     1     -13.234  13.259  71.565  1.00  0.00    -0.299 A  
HETATM   16  C   UNL     1     -12.879  14.596  71.404  1.00  0.00    -0.400 A  
HETATM   17  N   UNL     1     -14.027  12.871  72.648  1.00  0.00    -0.699 NA 
HETATM   18  H1  UNL     1     -14.493  13.570  73.226  1.00  0.00     0.000 HD 
HETATM   19  C   UNL     1     -11.984  14.978  70.400  1.00  0.00    -0.372 A  
HETATM   20  H2  UNL     1     -13.466  12.276  73.258  1.00  0.00     0.000 HD 
ENDBRANCH   9  11
ENDBRANCH   8   9
ENDBRANCH   7   8
ENDBRANCH   6   7
ENDBRANCH   3   6
ENDBRANCH   2   3
TORSDOF 7
ENDMDL
MODEL       66
REMARK 921   NORMALIZED FREE ENERGY PREDICTED BY IDOCK:   -4.63 KCAL/MOL
REMARK 922        TOTAL FREE ENERGY PREDICTED BY IDOCK:   -6.92 KCAL/MOL
REMARK 923 INTER-LIGAND FREE ENERGY PREDICTED BY IDOCK:   -6.40 KCAL/MOL
REMARK 924 INTRA-LIGAND FREE ENERGY PREDICTED BY IDOCK:   -0.52 KCAL/MOL
REMARK 927      BINDING AFFINITY PREDICTED BY RF-SCORE:    0.00 PKD
ROOT
HETATM    1  C   UNL     1      -8.785   9.570  63.511  1.00  0.00    -0.235 C  
HETATM    2  C   UNL     1      -7.842   9.111  64.617  1.00  0.00    -0.118 C  
ENDROOT
BRANCH   2   3
HETATM    3  N   UNL     1      -8.471   8.296  65.675  1.00  0.00    -0.151 NA 
BRANCH   3   4
HETATM    4  C   UNL     1      -7.743   7.052  65.981  1.00  0.00    -0.099 C  
HETATM    5  C   UNL     1      -8.255   5.783  65.304  1.00  0.00    -0.139 C  
ENDBRANCH   3   4
BRANCH   3   6
HETATM    6  C   UNL     1      -8.681   9.148  66.858  1.00  0.00    -0.123 C  
BRANCH   6   7
HETATM    7  C   UNL     1     -10.124   9.578  67.182  1.00  0.00    -0.229 C  
BRANCH   7   8
HETATM    8  O   UNL     1     -10.313  10.866  66.559  1.00  0.00    -0.231 OA 
BRANCH   8   9
HETATM    9  C   UNL     1     -11.402  11.547  67.009  1.00  0.00    -0.269 C  
HETATM   10  O   UNL     1     -12.080  11.199  67.960  1.00  0.00    -0.635 OA 
BRANCH   9  11
HETATM   11  C   UNL     1     -11.506  12.850  66.279  1.00  0.00    -0.395 A  
HETATM   12  C   UNL     1     -10.798  13.990  66.682  1.00  0.00    -0.297 A  
HETATM   13  C   UNL     1     -10.840  15.159  65.902  1.00  0.00    -0.342 A  
HETATM   14 CL   UNL     1      -9.813  14.073  68.102  1.00  0.00    -0.228 Cl 
HETATM   15  C   UNL     1     -11.607  15.231  64.740  1.00  0.00    -0.322 A  
HETATM   16  C   UNL     1     -12.259  14.081  64.304  1.00  0.00    -0.453 A  
HETATM   17  N   UNL     1     -11.532  16.350  63.908  1.00  0.00    -1.618 NA 
HETATM   18  H1  UNL     1     -12.092  16.403  63.058  1.00  0.00     0.000 HD 
HETATM   19  C   UNL     1     -12.232  12.913  65.073  1.00  0.00    -0.515 A  
HETATM   20  H2  UNL     1     -10.554  16.496  63.655  1.00  0.00     0.000 HD 
ENDBRANCH   9  11
ENDBRANCH   8   9
ENDBRANCH   7   8
ENDBRANCH   6   7
ENDBRANCH   3   6
ENDBRANCH   2   3
TORSDOF 7
ENDMDL
MODEL       67
REMARK 921   NORMALIZED FREE ENERGY PREDICTED BY IDOCK:   -4.63 KCAL/MOL
REMARK 922        TOTAL FREE ENERGY PREDICTED BY IDOCK:   -6.92 KCAL/MOL
REMARK 923 INTER-LIGAND FREE ENERGY PREDICTED BY IDOCK:   -6.46 KCAL/MOL
REMARK 924 INTRA-LIGAND FREE ENERGY PREDICTED BY IDOCK:   -0.46 KCAL/MOL
REMARK 927      BINDING AFFINITY PREDICTED BY RF-SCORE:    0.00 PKD
ROOT
HETATM    1  C   UNL     1     -12.249  11.528  70.684  1.00  0.00    -0.473 C  
HETATM    2  C   UNL     1     -13.051  12.547  71.484  1.00  0.00    -0.277 C  
ENDROOT
BRANCH   2   3
HETATM    3  N   UNL     1     -13.027  13.922  70.946  1.00  0.00    -0.283 NA 
BRANCH   3   4
HETATM    4  C   UNL     1     -13.379  14.955  71.935  1.00  0.00    -0.363 C  
HETATM    5  C   UNL     1     -12.241  15.853  72.412  1.00  0.00    -0.591 C  
ENDBRANCH   3   4
BRANCH   3   6
HETATM    6  C   UNL     1     -11.719  14.152  70.310  1.00  0.00    -0.258 C  
BRANCH   6   7
HETATM    7  C   UNL     1     -11.710  14.729  68.882  1.00  0.00    -0.309 C  
BRANCH   7   8
HETATM    8  O   UNL     1     -11.016  13.768  68.060  1.00  0.00    -0.241 OA 
BRANCH   8   9
HETATM    9  C   UNL     1     -11.763  13.265  67.040  1.00  0.00    -0.389 C  
HETATM   10  O   UNL     1     -12.643  13.885  66.468  1.00  0.00    -0.384 OA 
BRANCH   9  11
HETATM   11  C   UNL     1     -11.211  11.935  66.632  1.00  0.00    -0.384 A  
HETATM   12  C   UNL     1     -10.689  11.704  65.352  1.00  0.00    -0.287 A  
HETATM   13  C   UNL     1     -10.081  10.474  65.050  1.00  0.00    -0.390 A  
HETATM   14 CL   UNL     1     -10.706  12.865  64.070  1.00  0.00    -0.430 Cl 
HETATM   15  C   UNL     1     -10.012   9.445  65.989  1.00  0.00    -0.281 A  
HETATM   16  C   UNL     1     -10.473   9.695  67.279  1.00  0.00    -0.323 A  
HETATM   17  N   UNL     1      -9.288   8.282  65.718  1.00  0.00    -0.419 NA 
HETATM   18  H1  UNL     1      -9.238   7.530  66.405  1.00  0.00     0.000 HD 
HETATM   19  C   UNL     1     -11.087  10.911  67.593  1.00  0.00    -0.376 A  
HETATM   20  H2  UNL     1      -8.336   8.550  65.467  1.00  0.00     0.000 HD 
ENDBRANCH   9  11
ENDBRANCH   8   9
ENDBRANCH   7   8
ENDBRANCH   6   7
ENDBRANCH   3   6
ENDBRANCH   2   3
TORSDOF 7
ENDMDL
MODEL       68
REMARK 921   NORMALIZED FREE ENERGY PREDICTED BY IDOCK:   -4.61 KCAL/MOL
REMARK 922        TOTAL FREE ENERGY PREDICTED BY IDOCK:   -6.89 KCAL/MOL
REMARK 923 INTER-LIGAND FREE ENERGY PREDICTED BY IDOCK:   -6.42 KCAL/MOL
REMARK 924 INTRA-LIGAND FREE ENERGY PREDICTED BY IDOCK:   -0.47 KCAL/MOL
REMARK 927      BINDING AFFINITY PREDICTED BY RF-SCORE:    0.00 PKD
ROOT
HETATM    1  C   UNL     1      -9.312  16.211  69.124  1.00  0.00    -0.238 C  
HETATM    2  C   UNL     1      -8.860  17.318  68.181  1.00  0.00    -0.239 C  
ENDROOT
BRANCH   2   3
HETATM    3  N   UNL     1      -9.644  17.436  66.935  1.00  0.00    -0.267 NA 
BRANCH   3   4
HETATM    4  C   UNL     1      -9.458  18.718  66.233  1.00  0.00    -0.274 C  
HETATM    5  C   UNL     1     -10.652  19.668  66.227  1.00  0.00    -0.585 C  
ENDBRANCH   3   4
BRANCH   3   6
HETATM    6  C   UNL     1      -9.354  16.266  66.089  1.00  0.00    -0.339 C  
BRANCH   6   7
HETATM    7  C   UNL     1     -10.549  15.443  65.574  1.00  0.00    -0.383 C  
BRANCH   7   8
HETATM    8  O   UNL     1     -11.231  14.942  66.743  1.00  0.00    -0.335 OA 
BRANCH   8   9
HETATM    9  C   UNL     1     -12.068  13.899  66.495  1.00  0.00    -0.449 C  
HETATM   10  O   UNL     1     -12.912  13.894  65.615  1.00  0.00    -0.599 OA 
BRANCH   9  11
HETATM   11  C   UNL     1     -11.661  12.728  67.335  1.00  0.00    -0.425 A  
HETATM   12  C   UNL     1     -11.814  12.720  68.728  1.00  0.00    -0.307 A  
HETATM   13  C   UNL     1     -11.521  11.558  69.463  1.00  0.00    -0.378 A  
HETATM   14 CL   UNL     1     -12.385  14.066  69.653  1.00  0.00    -0.362 Cl 
HETATM   15  C   UNL     1     -11.039  10.406  68.841  1.00  0.00    -0.247 A  
HETATM   16  C   UNL     1     -10.947  10.392  67.452  1.00  0.00    -0.335 A  
HETATM   17  N   UNL     1     -10.881   9.222  69.565  1.00  0.00    -0.311 NA 
HETATM   18  H1  UNL     1     -10.529   8.380  69.110  1.00  0.00     0.000 HD 
HETATM   19  C   UNL     1     -11.228  11.543  66.708  1.00  0.00    -0.350 A  
HETATM   20  H2  UNL     1     -11.772   8.997  70.008  1.00  0.00     0.000 HD 
ENDBRANCH   9  11
ENDBRANCH   8   9
ENDBRANCH   7   8
ENDBRANCH   6   7
ENDBRANCH   3   6
ENDBRANCH   2   3
TORSDOF 7
ENDMDL
MODEL       69
REMARK 921   NORMALIZED FREE ENERGY PREDICTED BY IDOCK:   -4.61 KCAL/MOL
REMARK 922        TOTAL FREE ENERGY PREDICTED BY IDOCK:   -6.88 KCAL/MOL
REMARK 923 INTER-LIGAND FREE ENERGY PREDICTED BY IDOCK:   -6.66 KCAL/MOL
REMARK 924 INTRA-LIGAND FREE ENERGY PREDICTED BY IDOCK:   -0.22 KCAL/MOL
REMARK 927      BINDING AFFINITY PREDICTED BY RF-SCORE:    0.00 PKD
ROOT
HETATM    1  C   UNL     1     -10.992   6.279  69.066  1.00  0.00    -0.437 C  
HETATM    2  C   UNL     1     -10.022   6.835  70.101  1.00  0.00    -0.177 C  
ENDROOT
BRANCH   2   3
HETATM    3  N   UNL     1     -10.600   7.057  71.442  1.00  0.00    -0.217 NA 
BRANCH   3   4
HETATM    4  C   UNL     1      -9.908   6.326  72.517  1.00  0.00    -0.166 C  
HETATM    5  C   UNL     1     -10.214   6.769  73.946  1.00  0.00    -0.396 C  
ENDBRANCH   3   4
BRANCH   3   6
HETATM    6  C   UNL     1     -10.674   8.508  71.684  1.00  0.00    -0.281 C  
BRANCH   6   7
HETATM    7  C   UNL     1     -11.747   9.306  70.920  1.00  0.00    -0.296 C  
BRANCH   7   8
HETATM    8  O   UNL     1     -11.134  10.559  70.551  1.00  0.00    -0.300 OA 
BRANCH   8   9
HETATM    9  C   UNL     1     -11.911  11.346  69.758  1.00  0.00    -0.364 C  
HETATM   10  O   UNL     1     -12.282  11.035  68.640  1.00  0.00    -0.571 OA 
BRANCH   9  11
HETATM   11  C   UNL     1     -12.370  12.536  70.542  1.00  0.00    -0.345 A  
HETATM   12  C   UNL     1     -12.190  13.848  70.083  1.00  0.00    -0.358 A  
HETATM   13  C   UNL     1     -12.735  14.927  70.800  1.00  0.00    -0.421 A  
HETATM   14 CL   UNL     1     -11.342  14.264  68.634  1.00  0.00    -0.282 Cl 
HETATM   15  C   UNL     1     -13.430  14.732  71.993  1.00  0.00    -0.379 A  
HETATM   16  C   UNL     1     -13.665  13.426  72.416  1.00  0.00    -0.698 A  
HETATM   17  N   UNL     1     -14.079  15.798  72.619  1.00  0.00    -0.531 NA 
HETATM   18  H1  UNL     1     -14.587  15.655  73.491  1.00  0.00     0.000 HD 
HETATM   19  C   UNL     1     -13.123  12.343  71.718  1.00  0.00    -0.446 A  
HETATM   20  H2  UNL     1     -14.715  16.226  71.946  1.00  0.00     0.000 HD 
ENDBRANCH   9  11
ENDBRANCH   8   9
ENDBRANCH   7   8
ENDBRANCH   6   7
ENDBRANCH   3   6
ENDBRANCH   2   3
TORSDOF 7
ENDMDL
MODEL       70
REMARK 921   NORMALIZED FREE ENERGY PREDICTED BY IDOCK:   -4.61 KCAL/MOL
REMARK 922        TOTAL FREE ENERGY PREDICTED BY IDOCK:   -6.88 KCAL/MOL
REMARK 923 INTER-LIGAND FREE ENERGY PREDICTED BY IDOCK:   -6.60 KCAL/MOL
REMARK 924 INTRA-LIGAND FREE ENERGY PREDICTED BY IDOCK:   -0.28 KCAL/MOL
REMARK 927      BINDING AFFINITY PREDICTED BY RF-SCORE:    0.00 PKD
ROOT
HETATM    1  C   UNL     1      -9.741  10.052  65.357  1.00  0.00    -0.368 C  
HETATM    2  C   UNL     1     -10.599  11.115  66.033  1.00  0.00    -0.239 C  
ENDROOT
BRANCH   2   3
HETATM    3  N   UNL     1     -10.968  12.259  65.174  1.00  0.00    -0.294 NA 
BRANCH   3   4
HETATM    4  C   UNL     1     -11.120  11.910  63.751  1.00  0.00    -0.436 C  
HETATM    5  C   UNL     1     -12.547  11.880  63.209  1.00  0.00    -0.473 C  
ENDBRANCH   3   4
BRANCH   3   6
HETATM    6  C   UNL     1     -12.163  12.903  65.743  1.00  0.00    -0.439 C  
BRANCH   6   7
HETATM    7  C   UNL     1     -12.380  14.398  65.446  1.00  0.00    -0.355 C  
BRANCH   7   8
HETATM    8  O   UNL     1     -11.279  15.099  66.062  1.00  0.00    -0.338 OA 
BRANCH   8   9
HETATM    9  C   UNL     1     -10.738  16.077  65.287  1.00  0.00    -0.399 C  
HETATM   10  O   UNL     1     -11.241  16.488  64.256  1.00  0.00    -0.992 OA 
BRANCH   9  11
HETATM   11  C   UNL     1      -9.559  16.670  65.994  1.00  0.00    -0.298 A  
HETATM   12  C   UNL     1      -9.529  18.011  66.400  1.00  0.00    -0.271 A  
HETATM   13  C   UNL     1      -8.448  18.496  67.157  1.00  0.00    -0.268 A  
HETATM   14 CL   UNL     1     -10.777  19.160  66.058  1.00  0.00    -0.499 Cl 
HETATM   15  C   UNL     1      -7.368  17.678  67.490  1.00  0.00    -0.189 A  
HETATM   16  C   UNL     1      -7.426  16.331  67.142  1.00  0.00    -0.238 A  
HETATM   17  N   UNL     1      -6.371  18.135  68.353  1.00  0.00    -0.193 NA 
HETATM   18  H1  UNL     1      -5.582  17.537  68.597  1.00  0.00     0.000 HD 
HETATM   19  C   UNL     1      -8.492  15.836  66.383  1.00  0.00    -0.313 A  
HETATM   20  H2  UNL     1      -6.814  18.447  69.218  1.00  0.00     0.000 HD 
ENDBRANCH   9  11
ENDBRANCH   8   9
ENDBRANCH   7   8
ENDBRANCH   6   7
ENDBRANCH   3   6
ENDBRANCH   2   3
TORSDOF 7
ENDMDL
MODEL       71
REMARK 921   NORMALIZED FREE ENERGY PREDICTED BY IDOCK:   -4.59 KCAL/MOL
REMARK 922        TOTAL FREE ENERGY PREDICTED BY IDOCK:   -6.87 KCAL/MOL
REMARK 923 INTER-LIGAND FREE ENERGY PREDICTED BY IDOCK:   -6.24 KCAL/MOL
REMARK 924 INTRA-LIGAND FREE ENERGY PREDICTED BY IDOCK:   -0.63 KCAL/MOL
REMARK 927      BINDING AFFINITY PREDICTED BY RF-SCORE:    0.00 PKD
ROOT
HETATM    1  C   UNL     1     -13.456  13.837  72.335  1.00  0.00    -0.672 C  
HETATM    2  C   UNL     1     -13.121  14.748  71.161  1.00  0.00    -0.382 C  
ENDROOT
BRANCH   2   3
HETATM    3  N   UNL     1     -11.897  14.384  70.418  1.00  0.00    -0.302 NA 
BRANCH   3   4
HETATM    4  C   UNL     1     -12.116  13.377  69.366  1.00  0.00    -0.269 C  
HETATM    5  C   UNL     1     -11.607  11.968  69.658  1.00  0.00    -0.371 C  
ENDBRANCH   3   4
BRANCH   3   6
HETATM    6  C   UNL     1     -11.271  15.619  69.917  1.00  0.00    -0.331 C  
BRANCH   6   7
HETATM    7  C   UNL     1     -11.285  15.861  68.396  1.00  0.00    -0.368 C  
BRANCH   7   8
HETATM    8  O   UNL     1      -9.910  15.805  67.963  1.00  0.00    -0.215 OA 
BRANCH   8   9
HETATM    9  C   UNL     1      -9.745  15.917  66.618  1.00  0.00    -0.253 C  
HETATM   10  O   UNL     1      -9.190  16.856  66.074  1.00  0.00    -0.440 OA 
BRANCH   9  11
HETATM   11  C   UNL     1     -10.177  14.644  65.959  1.00  0.00    -0.326 A  
HETATM   12  C   UNL     1     -11.003  14.633  64.827  1.00  0.00    -0.386 A  
HETATM   13  C   UNL     1     -11.293  13.420  64.178  1.00  0.00    -0.398 A  
HETATM   14 CL   UNL     1     -11.700  16.047  64.116  1.00  0.00    -0.207 Cl 
HETATM   15  C   UNL     1     -10.806  12.204  64.656  1.00  0.00    -0.306 A  
HETATM   16  C   UNL     1      -9.935  12.220  65.742  1.00  0.00    -0.273 A  
HETATM   17  N   UNL     1     -10.992  11.028  63.925  1.00  0.00    -0.477 NA 
HETATM   18  H1  UNL     1     -10.635  10.139  64.274  1.00  0.00     0.000 HD 
HETATM   19  C   UNL     1      -9.643  13.418  66.402  1.00  0.00    -0.265 A  
HETATM   20  H2  UNL     1     -10.621  11.174  62.986  1.00  0.00     0.000 HD 
ENDBRANCH   9  11
ENDBRANCH   8   9
ENDBRANCH   7   8
ENDBRANCH   6   7
ENDBRANCH   3   6
ENDBRANCH   2   3
TORSDOF 7
ENDMDL
MODEL       72
REMARK 921   NORMALIZED FREE ENERGY PREDICTED BY IDOCK:   -4.59 KCAL/MOL
REMARK 922        TOTAL FREE ENERGY PREDICTED BY IDOCK:   -6.86 KCAL/MOL
REMARK 923 INTER-LIGAND FREE ENERGY PREDICTED BY IDOCK:   -6.20 KCAL/MOL
REMARK 924 INTRA-LIGAND FREE ENERGY PREDICTED BY IDOCK:   -0.65 KCAL/MOL
REMARK 927      BINDING AFFINITY PREDICTED BY RF-SCORE:    0.00 PKD
ROOT
HETATM    1  C   UNL     1     -10.602   8.878  67.632  1.00  0.00    -0.292 C  
HETATM    2  C   UNL     1      -9.925   8.959  66.270  1.00  0.00    -0.266 C  
ENDROOT
BRANCH   2   3
HETATM    3  N   UNL     1      -9.648  10.329  65.791  1.00  0.00    -0.207 NA 
BRANCH   3   4
HETATM    4  C   UNL     1      -8.292  10.808  66.110  1.00  0.00    -0.166 C  
HETATM    5  C   UNL     1      -8.199  12.019  67.033  1.00  0.00    -0.169 C  
ENDBRANCH   3   4
BRANCH   3   6
HETATM    6  C   UNL     1      -9.961  10.393  64.354  1.00  0.00    -0.318 C  
BRANCH   6   7
HETATM    7  C   UNL     1     -10.887  11.526  63.873  1.00  0.00    -0.401 C  
BRANCH   7   8
HETATM    8  O   UNL     1     -10.762  12.590  64.840  1.00  0.00    -0.277 OA 
BRANCH   8   9
HETATM    9  C   UNL     1     -11.948  13.028  65.342  1.00  0.00    -0.414 C  
HETATM   10  O   UNL     1     -13.038  12.697  64.908  1.00  0.00    -0.850 OA 
BRANCH   9  11
HETATM   11  C   UNL     1     -11.696  13.810  66.593  1.00  0.00    -0.421 A  
HETATM   12  C   UNL     1     -11.150  15.101  66.570  1.00  0.00    -0.305 A  
HETATM   13  C   UNL     1     -11.034  15.840  67.760  1.00  0.00    -0.314 A  
HETATM   14 CL   UNL     1     -10.614  15.905  65.135  1.00  0.00    -0.443 Cl 
HETATM   15  C   UNL     1     -11.417  15.304  68.989  1.00  0.00    -0.324 A  
HETATM   16  C   UNL     1     -12.017  14.048  69.006  1.00  0.00    -0.392 A  
HETATM   17  N   UNL     1     -11.420  16.096  70.139  1.00  0.00    -0.371 NA 
HETATM   18  H1  UNL     1     -11.701  15.705  71.038  1.00  0.00     0.000 HD 
HETATM   19  C   UNL     1     -12.133  13.298  67.831  1.00  0.00    -0.270 A  
HETATM   20  H2  UNL     1     -11.994  16.921  69.958  1.00  0.00     0.000 HD 
ENDBRANCH   9  11
ENDBRANCH   8   9
ENDBRANCH   7   8
ENDBRANCH   6   7
ENDBRANCH   3   6
ENDBRANCH   2   3
TORSDOF 7
ENDMDL
MODEL       73
REMARK 921   NORMALIZED FREE ENERGY PREDICTED BY IDOCK:   -4.58 KCAL/MOL
REMARK 922        TOTAL FREE ENERGY PREDICTED BY IDOCK:   -6.84 KCAL/MOL
REMARK 923 INTER-LIGAND FREE ENERGY PREDICTED BY IDOCK:   -6.19 KCAL/MOL
REMARK 924 INTRA-LIGAND FREE ENERGY PREDICTED BY IDOCK:   -0.66 KCAL/MOL
REMARK 927      BINDING AFFINITY PREDICTED BY RF-SCORE:    0.00 PKD
ROOT
HETATM    1  C   UNL     1     -14.232   8.837  72.416  1.00  0.00    -0.464 C  
HETATM    2  C   UNL     1     -13.062   8.750  71.443  1.00  0.00    -0.257 C  
ENDROOT
BRANCH   2   3
HETATM    3  N   UNL     1     -11.844   8.117  71.987  1.00  0.00    -0.316 NA 
BRANCH   3   4
HETATM    4  C   UNL     1     -11.735   6.679  71.686  1.00  0.00    -0.316 C  
HETATM    5  C   UNL     1     -10.942   5.835  72.680  1.00  0.00    -0.311 C  
ENDBRANCH   3   4
BRANCH   3   6
HETATM    6  C   UNL     1     -10.675   8.891  71.539  1.00  0.00    -0.328 C  
BRANCH   6   7
HETATM    7  C   UNL     1     -10.382   8.936  70.028  1.00  0.00    -0.204 C  
BRANCH   7   8
HETATM    8  O   UNL     1     -10.173  10.324  69.695  1.00  0.00    -0.228 OA 
BRANCH   8   9
HETATM    9  C   UNL     1     -11.110  10.842  68.855  1.00  0.00    -0.253 C  
HETATM   10  O   UNL     1     -11.584  10.242  67.906  1.00  0.00    -0.338 OA 
BRANCH   9  11
HETATM   11  C   UNL     1     -11.581  12.158  69.392  1.00  0.00    -0.381 A  
HETATM   12  C   UNL     1     -11.462  13.348  68.661  1.00  0.00    -0.310 A  
HETATM   13  C   UNL     1     -12.017  14.540  69.159  1.00  0.00    -0.344 A  
HETATM   14 CL   UNL     1     -10.684  13.471  67.121  1.00  0.00    -0.277 Cl 
HETATM   15  C   UNL     1     -12.660  14.583  70.396  1.00  0.00    -0.346 A  
HETATM   16  C   UNL     1     -12.834  13.390  71.093  1.00  0.00    -0.372 A  
HETATM   17  N   UNL     1     -13.321  15.740  70.813  1.00  0.00    -0.751 NA 
HETATM   18  H1  UNL     1     -13.791  15.771  71.717  1.00  0.00     0.000 HD 
HETATM   19  C   UNL     1     -12.281  12.198  70.614  1.00  0.00    -0.392 A  
HETATM   20  H2  UNL     1     -13.996  16.000  70.093  1.00  0.00     0.000 HD 
ENDBRANCH   9  11
ENDBRANCH   8   9
ENDBRANCH   7   8
ENDBRANCH   6   7
ENDBRANCH   3   6
ENDBRANCH   2   3
TORSDOF 7
ENDMDL
MODEL       74
REMARK 921   NORMALIZED FREE ENERGY PREDICTED BY IDOCK:   -4.57 KCAL/MOL
REMARK 922        TOTAL FREE ENERGY PREDICTED BY IDOCK:   -6.83 KCAL/MOL
REMARK 923 INTER-LIGAND FREE ENERGY PREDICTED BY IDOCK:   -6.29 KCAL/MOL
REMARK 924 INTRA-LIGAND FREE ENERGY PREDICTED BY IDOCK:   -0.55 KCAL/MOL
REMARK 927      BINDING AFFINITY PREDICTED BY RF-SCORE:    0.00 PKD
ROOT
HETATM    1  C   UNL     1      -9.730  16.814  66.575  1.00  0.00    -0.298 C  
HETATM    2  C   UNL     1     -10.446  15.634  67.220  1.00  0.00    -0.292 C  
ENDROOT
BRANCH   2   3
HETATM    3  N   UNL     1     -10.775  14.525  66.301  1.00  0.00    -0.303 NA 
BRANCH   3   4
HETATM    4  C   UNL     1     -10.931  14.942  64.897  1.00  0.00    -0.408 C  
HETATM    5  C   UNL     1     -12.281  14.645  64.247  1.00  0.00    -0.432 C  
ENDBRANCH   3   4
BRANCH   3   6
HETATM    6  C   UNL     1      -9.775  13.458  66.480  1.00  0.00    -0.282 C  
BRANCH   6   7
HETATM    7  C   UNL     1     -10.238  12.003  66.280  1.00  0.00    -0.222 C  
BRANCH   7   8
HETATM    8  O   UNL     1     -11.198  11.736  67.324  1.00  0.00    -0.267 OA 
BRANCH   8   9
HETATM    9  C   UNL     1     -10.645  11.550  68.553  1.00  0.00    -0.210 C  
HETATM   10  O   UNL     1      -9.509  11.149  68.738  1.00  0.00    -0.191 OA 
BRANCH   9  11
HETATM   11  C   UNL     1     -11.576  12.083  69.598  1.00  0.00    -0.371 A  
HETATM   12  C   UNL     1     -12.138  11.263  70.586  1.00  0.00    -0.383 A  
HETATM   13  C   UNL     1     -12.917  11.826  71.611  1.00  0.00    -0.467 A  
HETATM   14 CL   UNL     1     -11.921   9.549  70.667  1.00  0.00    -0.296 Cl 
HETATM   15  C   UNL     1     -13.182  13.195  71.655  1.00  0.00    -0.346 A  
HETATM   16  C   UNL     1     -12.572  14.019  70.713  1.00  0.00    -0.431 A  
HETATM   17  N   UNL     1     -13.843  13.755  72.751  1.00  0.00    -0.689 NA 
HETATM   18  H1  UNL     1     -14.036  14.756  72.784  1.00  0.00     0.000 HD 
HETATM   19  C   UNL     1     -11.801  13.472  69.683  1.00  0.00    -0.398 A  
HETATM   20  H2  UNL     1     -13.332  13.501  73.597  1.00  0.00     0.000 HD 
ENDBRANCH   9  11
ENDBRANCH   8   9
ENDBRANCH   7   8
ENDBRANCH   6   7
ENDBRANCH   3   6
ENDBRANCH   2   3
TORSDOF 7
ENDMDL
MODEL       75
REMARK 921   NORMALIZED FREE ENERGY PREDICTED BY IDOCK:   -4.57 KCAL/MOL
REMARK 922        TOTAL FREE ENERGY PREDICTED BY IDOCK:   -6.83 KCAL/MOL
REMARK 923 INTER-LIGAND FREE ENERGY PREDICTED BY IDOCK:   -6.29 KCAL/MOL
REMARK 924 INTRA-LIGAND FREE ENERGY PREDICTED BY IDOCK:   -0.54 KCAL/MOL
REMARK 927      BINDING AFFINITY PREDICTED BY RF-SCORE:    0.00 PKD
ROOT
HETATM    1  C   UNL     1      -6.374  19.108  65.915  1.00  0.00    -0.244 C  
HETATM    2  C   UNL     1      -7.381  17.968  66.004  1.00  0.00    -0.263 C  
ENDROOT
BRANCH   2   3
HETATM    3  N   UNL     1      -8.629  18.293  66.725  1.00  0.00    -0.253 NA 
BRANCH   3   4
HETATM    4  C   UNL     1      -9.164  19.630  66.418  1.00  0.00    -0.381 C  
HETATM    5  C   UNL     1      -9.983  20.303  67.517  1.00  0.00    -0.557 C  
ENDBRANCH   3   4
BRANCH   3   6
HETATM    6  C   UNL     1      -9.600  17.212  66.486  1.00  0.00    -0.279 C  
BRANCH   6   7
HETATM    7  C   UNL     1     -10.066  16.387  67.701  1.00  0.00    -0.263 C  
BRANCH   7   8
HETATM    8  O   UNL     1      -9.971  15.002  67.311  1.00  0.00    -0.231 OA 
BRANCH   8   9
HETATM    9  C   UNL     1     -11.173  14.389  67.137  1.00  0.00    -0.328 C  
HETATM   10  O   UNL     1     -12.186  14.688  67.744  1.00  0.00    -0.254 OA 
BRANCH   9  11
HETATM   11  C   UNL     1     -11.083  13.445  65.978  1.00  0.00    -0.294 A  
HETATM   12  C   UNL     1     -11.521  13.796  64.694  1.00  0.00    -0.371 A  
HETATM   13  C   UNL     1     -11.316  12.919  63.615  1.00  0.00    -0.455 A  
HETATM   14 CL   UNL     1     -12.299  15.291  64.306  1.00  0.00    -0.315 Cl 
HETATM   15  C   UNL     1     -10.713  11.674  63.793  1.00  0.00    -0.419 A  
HETATM   16  C   UNL     1     -10.221  11.351  65.055  1.00  0.00    -0.333 A  
HETATM   17  N   UNL     1     -10.396  10.875  62.693  1.00  0.00    -0.766 NA 
HETATM   18  H1  UNL     1      -9.955   9.965  62.822  1.00  0.00     0.000 HD 
HETATM   19  C   UNL     1     -10.424  12.210  66.139  1.00  0.00    -0.281 A  
HETATM   20  H2  UNL     1      -9.817  11.422  62.056  1.00  0.00     0.000 HD 
ENDBRANCH   9  11
ENDBRANCH   8   9
ENDBRANCH   7   8
ENDBRANCH   6   7
ENDBRANCH   3   6
ENDBRANCH   2   3
TORSDOF 7
ENDMDL
MODEL       76
REMARK 921   NORMALIZED FREE ENERGY PREDICTED BY IDOCK:   -4.56 KCAL/MOL
REMARK 922        TOTAL FREE ENERGY PREDICTED BY IDOCK:   -6.82 KCAL/MOL
REMARK 923 INTER-LIGAND FREE ENERGY PREDICTED BY IDOCK:   -6.31 KCAL/MOL
REMARK 924 INTRA-LIGAND FREE ENERGY PREDICTED BY IDOCK:   -0.52 KCAL/MOL
REMARK 927      BINDING AFFINITY PREDICTED BY RF-SCORE:    0.00 PKD
ROOT
HETATM    1  C   UNL     1     -11.891   7.239  71.205  1.00  0.00    -0.345 C  
HETATM    2  C   UNL     1     -11.636   8.663  70.727  1.00  0.00    -0.242 C  
ENDROOT
BRANCH   2   3
HETATM    3  N   UNL     1     -10.429   8.834  69.892  1.00  0.00    -0.216 NA 
BRANCH   3   4
HETATM    4  C   UNL     1      -9.192   9.031  70.667  1.00  0.00    -0.231 C  
HETATM    5  C   UNL     1      -8.133   9.933  70.038  1.00  0.00    -0.193 C  
ENDBRANCH   3   4
BRANCH   3   6
HETATM    6  C   UNL     1     -10.349   7.705  68.950  1.00  0.00    -0.212 C  
BRANCH   6   7
HETATM    7  C   UNL     1     -10.214   8.032  67.451  1.00  0.00    -0.261 C  
BRANCH   7   8
HETATM    8  O   UNL     1     -10.633   9.403  67.296  1.00  0.00    -0.267 OA 
BRANCH   8   9
HETATM    9  C   UNL     1      -9.792  10.160  66.540  1.00  0.00    -0.212 C  
HETATM   10  O   UNL     1      -8.599   9.942  66.420  1.00  0.00    -0.127 OA 
BRANCH   9  11
HETATM   11  C   UNL     1     -10.591  11.157  65.759  1.00  0.00    -0.289 A  
HETATM   12  C   UNL     1     -11.403  12.115  66.381  1.00  0.00    -0.356 A  
HETATM   13  C   UNL     1     -12.048  13.099  65.613  1.00  0.00    -0.501 A  
HETATM   14 CL   UNL     1     -11.665  12.207  68.089  1.00  0.00    -0.395 Cl 
HETATM   15  C   UNL     1     -11.931  13.130  64.224  1.00  0.00    -0.411 A  
HETATM   16  C   UNL     1     -11.075  12.219  63.610  1.00  0.00    -0.537 A  
HETATM   17  N   UNL     1     -12.466  14.191  63.490  1.00  0.00    -1.106 NA 
HETATM   18  H1  UNL     1     -12.381  14.214  62.474  1.00  0.00     0.000 HD 
HETATM   19  C   UNL     1     -10.433  11.230  64.361  1.00  0.00    -0.407 A  
HETATM   20  H2  UNL     1     -12.085  15.061  63.861  1.00  0.00     0.000 HD 
ENDBRANCH   9  11
ENDBRANCH   8   9
ENDBRANCH   7   8
ENDBRANCH   6   7
ENDBRANCH   3   6
ENDBRANCH   2   3
TORSDOF 7
ENDMDL
MODEL       77
REMARK 921   NORMALIZED FREE ENERGY PREDICTED BY IDOCK:   -4.53 KCAL/MOL
REMARK 922        TOTAL FREE ENERGY PREDICTED BY IDOCK:   -6.77 KCAL/MOL
REMARK 923 INTER-LIGAND FREE ENERGY PREDICTED BY IDOCK:   -6.72 KCAL/MOL
REMARK 924 INTRA-LIGAND FREE ENERGY PREDICTED BY IDOCK:   -0.05 KCAL/MOL
REMARK 927      BINDING AFFINITY PREDICTED BY RF-SCORE:    0.00 PKD
ROOT
HETATM    1  C   UNL     1     -10.708   9.930  67.179  1.00  0.00    -0.276 C  
HETATM    2  C   UNL     1     -11.105  11.398  67.088  1.00  0.00    -0.305 C  
ENDROOT
BRANCH   2   3
HETATM    3  N   UNL     1     -10.874  12.027  65.772  1.00  0.00    -0.277 NA 
BRANCH   3   4
HETATM    4  C   UNL     1     -12.090  12.153  64.951  1.00  0.00    -0.272 C  
HETATM    5  C   UNL     1     -11.935  11.863  63.460  1.00  0.00    -0.567 C  
ENDBRANCH   3   4
BRANCH   3   6
HETATM    6  C   UNL     1     -10.183  13.310  65.984  1.00  0.00    -0.291 C  
BRANCH   6   7
HETATM    7  C   UNL     1     -10.974  14.603  65.707  1.00  0.00    -0.330 C  
BRANCH   7   8
HETATM    8  O   UNL     1     -10.005  15.671  65.672  1.00  0.00    -0.327 OA 
BRANCH   8   9
HETATM    9  C   UNL     1     -10.538  16.897  65.415  1.00  0.00    -0.162 C  
HETATM   10  O   UNL     1     -11.195  17.162  64.424  1.00  0.00    -1.143 OA 
BRANCH   9  11
HETATM   11  C   UNL     1     -10.344  17.779  66.609  1.00  0.00    -0.345 A  
HETATM   12  C   UNL     1     -10.499  19.170  66.543  1.00  0.00    -0.448 A  
HETATM   13  C   UNL     1     -10.416  19.946  67.712  1.00  0.00    -0.511 A  
HETATM   14 CL   UNL     1     -10.826  20.045  65.086  1.00  0.00    -0.074 Cl 
HETATM   15  C   UNL     1     -10.143  19.368  68.951  1.00  0.00    -0.380 A  
HETATM   16  C   UNL     1     -10.052  17.981  69.029  1.00  0.00    -0.301 A  
HETATM   17  N   UNL     1     -10.197  20.132  70.119  1.00  0.00    -0.407 NA 
HETATM   18  H1  UNL     1      -9.998  19.710  71.025  1.00  0.00     0.000 HD 
HETATM   19  C   UNL     1     -10.126  17.197  67.874  1.00  0.00    -0.308 A  
HETATM   20  H2  UNL     1     -11.115  20.576  70.169  1.00  0.00     0.000 HD 
ENDBRANCH   9  11
ENDBRANCH   8   9
ENDBRANCH   7   8
ENDBRANCH   6   7
ENDBRANCH   3   6
ENDBRANCH   2   3
TORSDOF 7
ENDMDL
MODEL       78
REMARK 921   NORMALIZED FREE ENERGY PREDICTED BY IDOCK:   -4.52 KCAL/MOL
REMARK 922        TOTAL FREE ENERGY PREDICTED BY IDOCK:   -6.77 KCAL/MOL
REMARK 923 INTER-LIGAND FREE ENERGY PREDICTED BY IDOCK:   -6.50 KCAL/MOL
REMARK 924 INTRA-LIGAND FREE ENERGY PREDICTED BY IDOCK:   -0.26 KCAL/MOL
REMARK 927      BINDING AFFINITY PREDICTED BY RF-SCORE:    0.00 PKD
ROOT
HETATM    1  C   UNL     1     -13.875  15.099  72.399  1.00  0.00    -0.617 C  
HETATM    2  C   UNL     1     -13.404  15.268  70.960  1.00  0.00    -0.474 C  
ENDROOT
BRANCH   2   3
HETATM    3  N   UNL     1     -12.175  14.525  70.615  1.00  0.00    -0.307 NA 
BRANCH   3   4
HETATM    4  C   UNL     1     -12.160  14.007  69.236  1.00  0.00    -0.338 C  
HETATM    5  C   UNL     1     -11.886  12.514  69.074  1.00  0.00    -0.344 C  
ENDBRANCH   3   4
BRANCH   3   6
HETATM    6  C   UNL     1     -11.013  15.374  70.927  1.00  0.00    -0.286 C  
BRANCH   6   7
HETATM    7  C   UNL     1     -10.268  16.029  69.749  1.00  0.00    -0.240 C  
BRANCH   7   8
HETATM    8  O   UNL     1      -9.168  15.153  69.426  1.00  0.00    -0.220 OA 
BRANCH   8   9
HETATM    9  C   UNL     1      -8.387  15.594  68.404  1.00  0.00    -0.162 C  
HETATM   10  O   UNL     1      -7.178  15.730  68.478  1.00  0.00    -0.116 OA 
BRANCH   9  11
HETATM   11  C   UNL     1      -9.213  15.697  67.160  1.00  0.00    -0.226 A  
HETATM   12  C   UNL     1      -9.566  14.572  66.402  1.00  0.00    -0.303 A  
HETATM   13  C   UNL     1     -10.434  14.705  65.304  1.00  0.00    -0.420 A  
HETATM   14 CL   UNL     1      -9.022  12.964  66.736  1.00  0.00    -0.208 Cl 
HETATM   15  C   UNL     1     -10.933  15.948  64.918  1.00  0.00    -0.411 A  
HETATM   16  C   UNL     1     -10.635  17.056  65.707  1.00  0.00    -0.218 A  
HETATM   17  N   UNL     1     -11.897  16.045  63.912  1.00  0.00    -1.338 NA 
HETATM   18  H1  UNL     1     -12.263  16.954  63.630  1.00  0.00     0.000 HD 
HETATM   19  C   UNL     1      -9.767  16.941  66.797  1.00  0.00    -0.274 A  
HETATM   20  H2  UNL     1     -12.686  15.449  64.166  1.00  0.00     0.000 HD 
ENDBRANCH   9  11
ENDBRANCH   8   9
ENDBRANCH   7   8
ENDBRANCH   6   7
ENDBRANCH   3   6
ENDBRANCH   2   3
TORSDOF 7
ENDMDL
MODEL       79
REMARK 921   NORMALIZED FREE ENERGY PREDICTED BY IDOCK:   -4.52 KCAL/MOL
REMARK 922        TOTAL FREE ENERGY PREDICTED BY IDOCK:   -6.76 KCAL/MOL
REMARK 923 INTER-LIGAND FREE ENERGY PREDICTED BY IDOCK:   -6.18 KCAL/MOL
REMARK 924 INTRA-LIGAND FREE ENERGY PREDICTED BY IDOCK:   -0.58 KCAL/MOL
REMARK 927      BINDING AFFINITY PREDICTED BY RF-SCORE:    0.00 PKD
ROOT
HETATM    1  C   UNL     1      -8.985   8.180  66.886  1.00  0.00    -0.163 C  
HETATM    2  C   UNL     1     -10.093   9.051  66.306  1.00  0.00    -0.241 C  
ENDROOT
BRANCH   2   3
HETATM    3  N   UNL     1      -9.655  10.372  65.812  1.00  0.00    -0.201 NA 
BRANCH   3   4
HETATM    4  C   UNL     1     -10.172  10.708  64.474  1.00  0.00    -0.329 C  
HETATM    5  C   UNL     1      -9.405  10.133  63.286  1.00  0.00    -0.332 C  
ENDBRANCH   3   4
BRANCH   3   6
HETATM    6  C   UNL     1      -9.984  11.384  66.830  1.00  0.00    -0.208 C  
BRANCH   6   7
HETATM    7  C   UNL     1     -11.378  12.035  66.767  1.00  0.00    -0.339 C  
BRANCH   7   8
HETATM    8  O   UNL     1     -12.116  11.522  67.895  1.00  0.00    -0.630 OA 
BRANCH   8   9
HETATM    9  C   UNL     1     -11.695  11.997  69.099  1.00  0.00    -0.330 C  
HETATM   10  O   UNL     1     -11.431  13.166  69.318  1.00  0.00    -0.273 OA 
BRANCH   9  11
HETATM   11  C   UNL     1     -11.790  10.906  70.121  1.00  0.00    -0.438 A  
HETATM   12  C   UNL     1     -12.551  11.043  71.290  1.00  0.00    -0.412 A  
HETATM   13  C   UNL     1     -12.700   9.954  72.166  1.00  0.00    -0.387 A  
HETATM   14 CL   UNL     1     -13.378  12.491  71.749  1.00  0.00    -0.466 Cl 
HETATM   15  C   UNL     1     -12.074   8.732  71.921  1.00  0.00    -0.363 A  
HETATM   16  C   UNL     1     -11.372   8.575  70.729  1.00  0.00    -0.296 A  
HETATM   17  N   UNL     1     -12.341   7.624  72.727  1.00  0.00    -0.532 NA 
HETATM   18  H1  UNL     1     -11.884   6.730  72.548  1.00  0.00     0.000 HD 
HETATM   19  C   UNL     1     -11.208   9.652  69.852  1.00  0.00    -0.244 A  
HETATM   20  H2  UNL     1     -13.350   7.470  72.736  1.00  0.00     0.000 HD 
ENDBRANCH   9  11
ENDBRANCH   8   9
ENDBRANCH   7   8
ENDBRANCH   6   7
ENDBRANCH   3   6
ENDBRANCH   2   3
TORSDOF 7
ENDMDL
MODEL       80
REMARK 921   NORMALIZED FREE ENERGY PREDICTED BY IDOCK:   -4.51 KCAL/MOL
REMARK 922        TOTAL FREE ENERGY PREDICTED BY IDOCK:   -6.75 KCAL/MOL
REMARK 923 INTER-LIGAND FREE ENERGY PREDICTED BY IDOCK:   -6.13 KCAL/MOL
REMARK 924 INTRA-LIGAND FREE ENERGY PREDICTED BY IDOCK:   -0.62 KCAL/MOL
REMARK 927      BINDING AFFINITY PREDICTED BY RF-SCORE:    0.00 PKD
ROOT
HETATM    1  C   UNL     1     -10.312  18.455  66.279  1.00  0.00    -0.440 C  
HETATM    2  C   UNL     1     -10.375  17.432  67.406  1.00  0.00    -0.343 C  
ENDROOT
BRANCH   2   3
HETATM    3  N   UNL     1     -10.572  16.035  66.971  1.00  0.00    -0.312 NA 
BRANCH   3   4
HETATM    4  C   UNL     1     -10.597  15.864  65.508  1.00  0.00    -0.401 C  
HETATM    5  C   UNL     1     -10.477  14.434  64.989  1.00  0.00    -0.454 C  
ENDBRANCH   3   4
BRANCH   3   6
HETATM    6  C   UNL     1      -9.563  15.192  67.634  1.00  0.00    -0.206 C  
BRANCH   6   7
HETATM    7  C   UNL     1      -9.965  14.494  68.947  1.00  0.00    -0.206 C  
BRANCH   7   8
HETATM    8  O   UNL     1     -10.206  13.111  68.613  1.00  0.00    -0.234 OA 
BRANCH   8   9
HETATM    9  C   UNL     1     -11.522  12.771  68.566  1.00  0.00    -0.309 C  
HETATM   10  O   UNL     1     -12.282  13.103  67.674  1.00  0.00    -0.279 OA 
BRANCH   9  11
HETATM   11  C   UNL     1     -11.819  11.794  69.662  1.00  0.00    -0.407 A  
HETATM   12  C   UNL     1     -12.573  12.145  70.790  1.00  0.00    -0.216 A  
HETATM   13  C   UNL     1     -12.920  11.167  71.739  1.00  0.00    -0.526 A  
HETATM   14 CL   UNL     1     -13.161  13.740  71.111  1.00  0.00    -0.324 Cl 
HETATM   15  C   UNL     1     -12.498   9.845  71.608  1.00  0.00    -0.415 A  
HETATM   16  C   UNL     1     -11.804   9.481  70.457  1.00  0.00    -0.246 A  
HETATM   17  N   UNL     1     -12.962   8.861  72.484  1.00  0.00    -0.503 NA 
HETATM   18  H1  UNL     1     -12.654   7.894  72.388  1.00  0.00     0.000 HD 
HETATM   19  C   UNL     1     -11.446  10.444  69.508  1.00  0.00    -0.311 A  
HETATM   20  H2  UNL     1     -13.982   8.874  72.468  1.00  0.00     0.000 HD 
ENDBRANCH   9  11
ENDBRANCH   8   9
ENDBRANCH   7   8
ENDBRANCH   6   7
ENDBRANCH   3   6
ENDBRANCH   2   3
TORSDOF 7
ENDMDL
MODEL       81
REMARK 921   NORMALIZED FREE ENERGY PREDICTED BY IDOCK:   -4.50 KCAL/MOL
REMARK 922        TOTAL FREE ENERGY PREDICTED BY IDOCK:   -6.73 KCAL/MOL
REMARK 923 INTER-LIGAND FREE ENERGY PREDICTED BY IDOCK:   -6.53 KCAL/MOL
REMARK 924 INTRA-LIGAND FREE ENERGY PREDICTED BY IDOCK:   -0.20 KCAL/MOL
REMARK 927      BINDING AFFINITY PREDICTED BY RF-SCORE:    0.00 PKD
ROOT
HETATM    1  C   UNL     1     -13.446   9.202  72.299  1.00  0.00    -0.546 C  
HETATM    2  C   UNL     1     -12.064   8.567  72.210  1.00  0.00    -0.387 C  
ENDROOT
BRANCH   2   3
HETATM    3  N   UNL     1     -11.173   9.154  71.189  1.00  0.00    -0.296 NA 
BRANCH   3   4
HETATM    4  C   UNL     1     -10.686   8.183  70.194  1.00  0.00    -0.243 C  
HETATM    5  C   UNL     1     -11.386   6.826  70.172  1.00  0.00    -0.404 C  
ENDBRANCH   3   4
BRANCH   3   6
HETATM    6  C   UNL     1     -11.854  10.310  70.583  1.00  0.00    -0.347 C  
BRANCH   6   7
HETATM    7  C   UNL     1     -11.500  10.667  69.127  1.00  0.00    -0.280 C  
BRANCH   7   8
HETATM    8  O   UNL     1     -12.014  11.995  68.898  1.00  0.00    -0.297 OA 
BRANCH   8   9
HETATM    9  C   UNL     1     -11.784  12.474  67.646  1.00  0.00    -0.361 C  
HETATM   10  O   UNL     1     -12.035  11.860  66.623  1.00  0.00    -0.601 OA 
BRANCH   9  11
HETATM   11  C   UNL     1     -11.360  13.907  67.734  1.00  0.00    -0.335 A  
HETATM   12  C   UNL     1     -10.731  14.567  66.670  1.00  0.00    -0.305 A  
HETATM   13  C   UNL     1     -10.451  15.941  66.759  1.00  0.00    -0.309 A  
HETATM   14 CL   UNL     1     -10.277  13.805  65.185  1.00  0.00    -0.375 Cl 
HETATM   15  C   UNL     1     -10.752  16.673  67.907  1.00  0.00    -0.344 A  
HETATM   16  C   UNL     1     -11.435  16.034  68.939  1.00  0.00    -0.362 A  
HETATM   17  N   UNL     1     -10.592  18.060  67.928  1.00  0.00    -0.394 NA 
HETATM   18  H1  UNL     1     -10.813  18.595  68.768  1.00  0.00     0.000 HD 
HETATM   19  C   UNL     1     -11.713  14.666  68.868  1.00  0.00    -0.343 A  
HETATM   20  H2  UNL     1     -11.121  18.455  67.150  1.00  0.00     0.000 HD 
ENDBRANCH   9  11
ENDBRANCH   8   9
ENDBRANCH   7   8
ENDBRANCH   6   7
ENDBRANCH   3   6
ENDBRANCH   2   3
TORSDOF 7
ENDMDL
MODEL       82
REMARK 921   NORMALIZED FREE ENERGY PREDICTED BY IDOCK:   -4.48 KCAL/MOL
REMARK 922        TOTAL FREE ENERGY PREDICTED BY IDOCK:   -6.70 KCAL/MOL
REMARK 923 INTER-LIGAND FREE ENERGY PREDICTED BY IDOCK:   -6.22 KCAL/MOL
REMARK 924 INTRA-LIGAND FREE ENERGY PREDICTED BY IDOCK:   -0.48 KCAL/MOL
REMARK 927      BINDING AFFINITY PREDICTED BY RF-SCORE:    0.00 PKD
ROOT
HETATM    1  C   UNL     1      -8.770  10.552  63.733  1.00  0.00    -0.185 C  
HETATM    2  C   UNL     1      -9.955  10.414  64.680  1.00  0.00    -0.338 C  
ENDROOT
BRANCH   2   3
HETATM    3  N   UNL     1     -10.032  11.444  65.737  1.00  0.00    -0.220 NA 
BRANCH   3   4
HETATM    4  C   UNL     1     -11.023  12.500  65.468  1.00  0.00    -0.287 C  
HETATM    5  C   UNL     1     -11.835  12.358  64.183  1.00  0.00    -0.492 C  
ENDBRANCH   3   4
BRANCH   3   6
HETATM    6  C   UNL     1     -10.240  10.771  67.029  1.00  0.00    -0.217 C  
BRANCH   6   7
HETATM    7  C   UNL     1      -9.168   9.768  67.495  1.00  0.00    -0.130 C  
BRANCH   7   8
HETATM    8  O   UNL     1      -9.796   8.937  68.493  1.00  0.00    -0.159 OA 
BRANCH   8   9
HETATM    9  C   UNL     1      -9.632   9.379  69.769  1.00  0.00    -0.201 C  
HETATM   10  O   UNL     1      -8.632   9.948  70.171  1.00  0.00    -0.195 OA 
BRANCH   9  11
HETATM   11  C   UNL     1     -10.920   9.222  70.516  1.00  0.00    -0.318 A  
HETATM   12  C   UNL     1     -11.325   7.993  71.055  1.00  0.00    -0.273 A  
HETATM   13  C   UNL     1     -12.487   7.917  71.842  1.00  0.00    -0.352 A  
HETATM   14 CL   UNL     1     -10.463   6.507  70.847  1.00  0.00    -0.251 Cl 
HETATM   15  C   UNL     1     -13.282   9.038  72.077  1.00  0.00    -0.429 A  
HETATM   16  C   UNL     1     -12.847  10.271  71.596  1.00  0.00    -0.568 A  
HETATM   17  N   UNL     1     -14.355   8.974  72.968  1.00  0.00    -1.139 NA 
HETATM   18  H1  UNL     1     -14.936   9.794  73.140  1.00  0.00     0.000 HD 
HETATM   19  C   UNL     1     -11.697  10.361  70.805  1.00  0.00    -0.464 A  
HETATM   20  H2  UNL     1     -14.005   8.638  73.866  1.00  0.00     0.000 HD 
ENDBRANCH   9  11
ENDBRANCH   8   9
ENDBRANCH   7   8
ENDBRANCH   6   7
ENDBRANCH   3   6
ENDBRANCH   2   3
TORSDOF 7
ENDMDL
MODEL       83
REMARK 921   NORMALIZED FREE ENERGY PREDICTED BY IDOCK:   -4.47 KCAL/MOL
REMARK 922        TOTAL FREE ENERGY PREDICTED BY IDOCK:   -6.69 KCAL/MOL
REMARK 923 INTER-LIGAND FREE ENERGY PREDICTED BY IDOCK:   -6.63 KCAL/MOL
REMARK 924 INTRA-LIGAND FREE ENERGY PREDICTED BY IDOCK:   -0.06 KCAL/MOL
REMARK 927      BINDING AFFINITY PREDICTED BY RF-SCORE:    0.00 PKD
ROOT
HETATM    1  C   UNL     1      -6.946  20.007  68.351  1.00  0.00    -0.330 C  
HETATM    2  C   UNL     1      -8.100  19.192  68.921  1.00  0.00    -0.294 C  
ENDROOT
BRANCH   2   3
HETATM    3  N   UNL     1      -9.417  19.463  68.309  1.00  0.00    -0.346 NA 
BRANCH   3   4
HETATM    4  C   UNL     1      -9.342  20.204  67.038  1.00  0.00    -0.395 C  
HETATM    5  C   UNL     1     -10.379  19.840  65.978  1.00  0.00    -0.612 C  
ENDBRANCH   3   4
BRANCH   3   6
HETATM    6  C   UNL     1     -10.150  18.191  68.195  1.00  0.00    -0.378 C  
BRANCH   6   7
HETATM    7  C   UNL     1     -10.246  17.306  69.452  1.00  0.00    -0.139 C  
BRANCH   7   8
HETATM    8  O   UNL     1     -11.288  16.343  69.191  1.00  0.00    -0.308 OA 
BRANCH   8   9
HETATM    9  C   UNL     1     -11.702  15.658  70.291  1.00  0.00    -0.357 C  
HETATM   10  O   UNL     1     -12.158  16.184  71.291  1.00  0.00    -0.414 OA 
BRANCH   9  11
HETATM   11  C   UNL     1     -11.677  14.190  69.998  1.00  0.00    -0.358 A  
HETATM   12  C   UNL     1     -12.343  13.256  70.803  1.00  0.00    -0.344 A  
HETATM   13  C   UNL     1     -12.385  11.903  70.427  1.00  0.00    -0.334 A  
HETATM   14 CL   UNL     1     -13.177  13.653  72.266  1.00  0.00    -0.541 Cl 
HETATM   15  C   UNL     1     -11.742  11.447  69.277  1.00  0.00    -0.337 A  
HETATM   16  C   UNL     1     -11.134  12.382  68.443  1.00  0.00    -0.288 A  
HETATM   17  N   UNL     1     -11.905  10.128  68.847  1.00  0.00    -0.564 NA 
HETATM   18  H1  UNL     1     -11.435   9.795  68.006  1.00  0.00     0.000 HD 
HETATM   19  C   UNL     1     -11.079  13.731  68.807  1.00  0.00    -0.295 A  
HETATM   20  H2  UNL     1     -12.904   9.946  68.748  1.00  0.00     0.000 HD 
ENDBRANCH   9  11
ENDBRANCH   8   9
ENDBRANCH   7   8
ENDBRANCH   6   7
ENDBRANCH   3   6
ENDBRANCH   2   3
TORSDOF 7
ENDMDL
MODEL       84
REMARK 921   NORMALIZED FREE ENERGY PREDICTED BY IDOCK:   -4.44 KCAL/MOL
REMARK 922        TOTAL FREE ENERGY PREDICTED BY IDOCK:   -6.65 KCAL/MOL
REMARK 923 INTER-LIGAND FREE ENERGY PREDICTED BY IDOCK:   -6.33 KCAL/MOL
REMARK 924 INTRA-LIGAND FREE ENERGY PREDICTED BY IDOCK:   -0.33 KCAL/MOL
REMARK 927      BINDING AFFINITY PREDICTED BY RF-SCORE:    0.00 PKD
ROOT
HETATM    1  C   UNL     1     -10.917  10.635  67.386  1.00  0.00    -0.361 C  
HETATM    2  C   UNL     1     -10.689  11.893  68.213  1.00  0.00    -0.223 C  
ENDROOT
BRANCH   2   3
HETATM    3  N   UNL     1     -11.848  12.804  68.297  1.00  0.00    -0.330 NA 
BRANCH   3   4
HETATM    4  C   UNL     1     -11.786  13.744  69.430  1.00  0.00    -0.341 C  
HETATM    5  C   UNL     1     -12.244  13.206  70.784  1.00  0.00    -0.375 C  
ENDBRANCH   3   4
BRANCH   3   6
HETATM    6  C   UNL     1     -12.010  13.476  66.997  1.00  0.00    -0.394 C  
BRANCH   6   7
HETATM    7  C   UNL     1     -10.785  14.201  66.409  1.00  0.00    -0.288 C  
BRANCH   7   8
HETATM    8  O   UNL     1     -10.928  15.592  66.765  1.00  0.00    -0.310 OA 
BRANCH   8   9
HETATM    9  C   UNL     1     -10.301  16.451  65.917  1.00  0.00    -0.362 C  
HETATM   10  O   UNL     1     -10.552  16.543  64.728  1.00  0.00    -0.684 OA 
BRANCH   9  11
HETATM   11  C   UNL     1      -9.414  17.364  66.706  1.00  0.00    -0.282 A  
HETATM   12  C   UNL     1      -9.572  18.757  66.689  1.00  0.00    -0.336 A  
HETATM   13  C   UNL     1      -8.788  19.565  67.530  1.00  0.00    -0.361 A  
HETATM   14 CL   UNL     1     -10.717  19.594  65.701  1.00  0.00    -0.540 Cl 
HETATM   15  C   UNL     1      -7.817  19.018  68.368  1.00  0.00    -0.337 A  
HETATM   16  C   UNL     1      -7.703  17.632  68.433  1.00  0.00    -0.269 A  
HETATM   17  N   UNL     1      -7.143  19.819  69.292  1.00  0.00    -0.337 NA 
HETATM   18  H1  UNL     1      -6.433  19.419  69.905  1.00  0.00     0.000 HD 
HETATM   19  C   UNL     1      -8.470  16.815  67.597  1.00  0.00    -0.197 A  
HETATM   20  H2  UNL     1      -7.837  20.290  69.873  1.00  0.00     0.000 HD 
ENDBRANCH   9  11
ENDBRANCH   8   9
ENDBRANCH   7   8
ENDBRANCH   6   7
ENDBRANCH   3   6
ENDBRANCH   2   3
TORSDOF 7
ENDMDL
MODEL       85
REMARK 921   NORMALIZED FREE ENERGY PREDICTED BY IDOCK:   -4.44 KCAL/MOL
REMARK 922        TOTAL FREE ENERGY PREDICTED BY IDOCK:   -6.64 KCAL/MOL
REMARK 923 INTER-LIGAND FREE ENERGY PREDICTED BY IDOCK:   -6.26 KCAL/MOL
REMARK 924 INTRA-LIGAND FREE ENERGY PREDICTED BY IDOCK:   -0.38 KCAL/MOL
REMARK 927      BINDING AFFINITY PREDICTED BY RF-SCORE:    0.00 PKD
ROOT
HETATM    1  C   UNL     1      -9.253   8.842  66.165  1.00  0.00    -0.273 C  
HETATM    2  C   UNL     1      -9.615   7.582  66.942  1.00  0.00    -0.187 C  
ENDROOT
BRANCH   2   3
HETATM    3  N   UNL     1      -9.912   7.796  68.373  1.00  0.00    -0.173 NA 
BRANCH   3   4
HETATM    4  C   UNL     1     -10.071   6.549  69.141  1.00  0.00    -0.168 C  
HETATM    5  C   UNL     1     -11.409   6.354  69.850  1.00  0.00    -0.500 C  
ENDBRANCH   3   4
BRANCH   3   6
HETATM    6  C   UNL     1      -8.890   8.694  68.934  1.00  0.00    -0.138 C  
BRANCH   6   7
HETATM    7  C   UNL     1      -9.365  10.023  69.550  1.00  0.00    -0.229 C  
BRANCH   7   8
HETATM    8  O   UNL     1     -10.799   9.924  69.672  1.00  0.00    -0.227 OA 
BRANCH   8   9
HETATM    9  C   UNL     1     -11.482  10.906  69.024  1.00  0.00    -0.302 C  
HETATM   10  O   UNL     1     -11.680  10.920  67.822  1.00  0.00    -0.569 OA 
BRANCH   9  11
HETATM   11  C   UNL     1     -12.089  11.833  70.031  1.00  0.00    -0.387 A  
HETATM   12  C   UNL     1     -12.759  11.364  71.169  1.00  0.00    -0.377 A  
HETATM   13  C   UNL     1     -13.216  12.270  72.142  1.00  0.00    -0.466 A  
HETATM   14 CL   UNL     1     -13.057   9.694  71.504  1.00  0.00    -0.454 Cl 
HETATM   15  C   UNL     1     -13.053  13.647  71.988  1.00  0.00    -0.393 A  
HETATM   16  C   UNL     1     -12.332  14.110  70.890  1.00  0.00    -0.438 A  
HETATM   17  N   UNL     1     -13.390  14.522  73.023  1.00  0.00    -0.603 NA 
HETATM   18  H1  UNL     1     -13.271  15.528  72.911  1.00  0.00     0.000 HD 
HETATM   19  C   UNL     1     -11.878  13.221  69.911  1.00  0.00    -0.380 A  
HETATM   20  H2  UNL     1     -12.889  14.232  73.863  1.00  0.00     0.000 HD 
ENDBRANCH   9  11
ENDBRANCH   8   9
ENDBRANCH   7   8
ENDBRANCH   6   7
ENDBRANCH   3   6
ENDBRANCH   2   3
TORSDOF 7
ENDMDL
MODEL       86
REMARK 921   NORMALIZED FREE ENERGY PREDICTED BY IDOCK:   -4.43 KCAL/MOL
REMARK 922        TOTAL FREE ENERGY PREDICTED BY IDOCK:   -6.63 KCAL/MOL
REMARK 923 INTER-LIGAND FREE ENERGY PREDICTED BY IDOCK:   -6.14 KCAL/MOL
REMARK 924 INTRA-LIGAND FREE ENERGY PREDICTED BY IDOCK:   -0.48 KCAL/MOL
REMARK 927      BINDING AFFINITY PREDICTED BY RF-SCORE:    0.00 PKD
ROOT
HETATM    1  C   UNL     1      -7.053   6.773  66.384  1.00  0.00    -0.071 C  
HETATM    2  C   UNL     1      -8.269   7.669  66.177  1.00  0.00    -0.124 C  
ENDROOT
BRANCH   2   3
HETATM    3  N   UNL     1      -7.999   8.932  65.461  1.00  0.00    -0.103 NA 
BRANCH   3   4
HETATM    4  C   UNL     1      -7.312   8.749  64.171  1.00  0.00    -0.101 C  
HETATM    5  C   UNL     1      -8.102   9.128  62.921  1.00  0.00    -0.157 C  
ENDBRANCH   3   4
BRANCH   3   6
HETATM    6  C   UNL     1      -9.261   9.681  65.343  1.00  0.00    -0.238 C  
BRANCH   6   7
HETATM    7  C   UNL     1     -10.209   9.679  66.556  1.00  0.00    -0.224 C  
BRANCH   7   8
HETATM    8  O   UNL     1     -10.174  11.014  67.101  1.00  0.00    -0.193 OA 
BRANCH   8   9
HETATM    9  C   UNL     1     -11.401  11.568  67.299  1.00  0.00    -0.290 C  
HETATM   10  O   UNL     1     -12.204  11.171  68.126  1.00  0.00    -0.612 OA 
BRANCH   9  11
HETATM   11  C   UNL     1     -11.515  12.819  66.486  1.00  0.00    -0.409 A  
HETATM   12  C   UNL     1     -10.789  13.978  66.793  1.00  0.00    -0.294 A  
HETATM   13  C   UNL     1     -10.844  15.093  65.939  1.00  0.00    -0.342 A  
HETATM   14 CL   UNL     1      -9.768  14.148  68.179  1.00  0.00    -0.218 Cl 
HETATM   15  C   UNL     1     -11.640  15.094  64.794  1.00  0.00    -0.364 A  
HETATM   16  C   UNL     1     -12.311  13.922  64.453  1.00  0.00    -0.400 A  
HETATM   17  N   UNL     1     -11.580  16.154  63.887  1.00  0.00    -1.469 NA 
HETATM   18  H1  UNL     1     -12.162  16.154  63.050  1.00  0.00     0.000 HD 
HETATM   19  C   UNL     1     -12.272  12.808  65.298  1.00  0.00    -0.535 A  
HETATM   20  H2  UNL     1     -10.608  16.274  63.600  1.00  0.00     0.000 HD 
ENDBRANCH   9  11
ENDBRANCH   8   9
ENDBRANCH   7   8
ENDBRANCH   6   7
ENDBRANCH   3   6
ENDBRANCH   2   3
TORSDOF 7
ENDMDL
MODEL       87
REMARK 921   NORMALIZED FREE ENERGY PREDICTED BY IDOCK:   -4.42 KCAL/MOL
REMARK 922        TOTAL FREE ENERGY PREDICTED BY IDOCK:   -6.62 KCAL/MOL
REMARK 923 INTER-LIGAND FREE ENERGY PREDICTED BY IDOCK:   -6.12 KCAL/MOL
REMARK 924 INTRA-LIGAND FREE ENERGY PREDICTED BY IDOCK:   -0.50 KCAL/MOL
REMARK 927      BINDING AFFINITY PREDICTED BY RF-SCORE:    0.00 PKD
ROOT
HETATM    1  C   UNL     1     -13.894   7.962  71.703  1.00  0.00    -0.453 C  
HETATM    2  C   UNL     1     -13.593   9.410  72.071  1.00  0.00    -0.433 C  
ENDROOT
BRANCH   2   3
HETATM    3  N   UNL     1     -12.293   9.919  71.588  1.00  0.00    -0.395 NA 
BRANCH   3   4
HETATM    4  C   UNL     1     -11.340   8.861  71.215  1.00  0.00    -0.300 C  
HETATM    5  C   UNL     1      -9.922   9.313  70.875  1.00  0.00    -0.367 C  
ENDBRANCH   3   4
BRANCH   3   6
HETATM    6  C   UNL     1     -12.544  10.882  70.502  1.00  0.00    -0.324 C  
BRANCH   6   7
HETATM    7  C   UNL     1     -12.725  12.362  70.886  1.00  0.00    -0.185 C  
BRANCH   7   8
HETATM    8  O   UNL     1     -11.679  13.088  70.209  1.00  0.00    -0.244 OA 
BRANCH   8   9
HETATM    9  C   UNL     1     -12.112  14.181  69.524  1.00  0.00    -0.340 C  
HETATM   10  O   UNL     1     -12.702  15.117  70.035  1.00  0.00    -0.264 OA 
BRANCH   9  11
HETATM   11  C   UNL     1     -11.590  14.124  68.122  1.00  0.00    -0.365 A  
HETATM   12  C   UNL     1     -10.328  14.625  67.774  1.00  0.00    -0.237 A  
HETATM   13  C   UNL     1      -9.835  14.451  66.470  1.00  0.00    -0.298 A  
HETATM   14 CL   UNL     1      -9.271  15.447  68.870  1.00  0.00    -0.202 Cl 
HETATM   15  C   UNL     1     -10.592  13.817  65.484  1.00  0.00    -0.307 A  
HETATM   16  C   UNL     1     -11.818  13.263  65.844  1.00  0.00    -0.436 A  
HETATM   17  N   UNL     1     -10.036  13.533  64.235  1.00  0.00    -0.771 NA 
HETATM   18  H1  UNL     1     -10.589  13.070  63.515  1.00  0.00     0.000 HD 
HETATM   19  C   UNL     1     -12.324  13.435  67.136  1.00  0.00    -0.198 A  
HETATM   20  H2  UNL     1      -9.183  12.992  64.379  1.00  0.00     0.000 HD 
ENDBRANCH   9  11
ENDBRANCH   8   9
ENDBRANCH   7   8
ENDBRANCH   6   7
ENDBRANCH   3   6
ENDBRANCH   2   3
TORSDOF 7
ENDMDL
MODEL       88
REMARK 921   NORMALIZED FREE ENERGY PREDICTED BY IDOCK:   -4.42 KCAL/MOL
REMARK 922        TOTAL FREE ENERGY PREDICTED BY IDOCK:   -6.62 KCAL/MOL
REMARK 923 INTER-LIGAND FREE ENERGY PREDICTED BY IDOCK:   -6.15 KCAL/MOL
REMARK 924 INTRA-LIGAND FREE ENERGY PREDICTED BY IDOCK:   -0.47 KCAL/MOL
REMARK 927      BINDING AFFINITY PREDICTED BY RF-SCORE:    0.00 PKD
ROOT
HETATM    1  C   UNL     1     -11.841  16.121  71.868  1.00  0.00    -0.605 C  
HETATM    2  C   UNL     1     -11.476  15.244  70.676  1.00  0.00    -0.319 C  
ENDROOT
BRANCH   2   3
HETATM    3  N   UNL     1     -11.143  15.979  69.439  1.00  0.00    -0.306 NA 
BRANCH   3   4
HETATM    4  C   UNL     1      -9.699  16.194  69.245  1.00  0.00    -0.242 C  
HETATM    5  C   UNL     1      -9.283  16.871  67.941  1.00  0.00    -0.234 C  
ENDBRANCH   3   4
BRANCH   3   6
HETATM    6  C   UNL     1     -11.785  15.296  68.303  1.00  0.00    -0.301 C  
BRANCH   6   7
HETATM    7  C   UNL     1     -11.353  13.848  68.003  1.00  0.00    -0.288 C  
BRANCH   7   8
HETATM    8  O   UNL     1     -10.968  13.819  66.613  1.00  0.00    -0.292 OA 
BRANCH   8   9
HETATM    9  C   UNL     1     -11.725  12.991  65.843  1.00  0.00    -0.394 C  
HETATM   10  O   UNL     1     -12.899  13.186  65.580  1.00  0.00    -0.444 OA 
BRANCH   9  11
HETATM   11  C   UNL     1     -10.848  11.938  65.241  1.00  0.00    -0.347 A  
HETATM   12  C   UNL     1     -10.535  10.751  65.918  1.00  0.00    -0.204 A  
HETATM   13  C   UNL     1      -9.799   9.743  65.271  1.00  0.00    -0.335 A  
HETATM   14 CL   UNL     1     -11.023  10.397  67.539  1.00  0.00    -0.360 Cl 
HETATM   15  C   UNL     1      -9.332   9.906  63.967  1.00  0.00    -0.223 A  
HETATM   16  C   UNL     1      -9.696  11.057  63.272  1.00  0.00    -0.396 A  
HETATM   17  N   UNL     1      -8.721   8.846  63.294  1.00  0.00    -0.419 NA 
HETATM   18  H1  UNL     1      -8.379   8.965  62.341  1.00  0.00     0.000 HD 
HETATM   19  C   UNL     1     -10.421  12.071  63.905  1.00  0.00    -0.440 A  
HETATM   20  H2  UNL     1      -9.357   8.049  63.307  1.00  0.00     0.000 HD 
ENDBRANCH   9  11
ENDBRANCH   8   9
ENDBRANCH   7   8
ENDBRANCH   6   7
ENDBRANCH   3   6
ENDBRANCH   2   3
TORSDOF 7
ENDMDL
MODEL       89
REMARK 921   NORMALIZED FREE ENERGY PREDICTED BY IDOCK:   -4.40 KCAL/MOL
REMARK 922        TOTAL FREE ENERGY PREDICTED BY IDOCK:   -6.60 KCAL/MOL
REMARK 923 INTER-LIGAND FREE ENERGY PREDICTED BY IDOCK:   -5.74 KCAL/MOL
REMARK 924 INTRA-LIGAND FREE ENERGY PREDICTED BY IDOCK:   -0.86 KCAL/MOL
REMARK 927      BINDING AFFINITY PREDICTED BY RF-SCORE:    0.00 PKD
ROOT
HETATM    1  C   UNL     1     -10.134  20.083  66.776  1.00  0.00    -0.607 C  
HETATM    2  C   UNL     1      -8.928  19.983  67.702  1.00  0.00    -0.331 C  
ENDROOT
BRANCH   2   3
HETATM    3  N   UNL     1      -7.629  20.295  67.072  1.00  0.00    -0.297 NA 
BRANCH   3   4
HETATM    4  C   UNL     1      -6.470  20.049  67.946  1.00  0.00    -0.239 C  
HETATM    5  C   UNL     1      -6.777  19.650  69.387  1.00  0.00    -0.389 C  
ENDBRANCH   3   4
BRANCH   3   6
HETATM    6  C   UNL     1      -7.549  19.577  65.789  1.00  0.00    -0.229 C  
BRANCH   6   7
HETATM    7  C   UNL     1      -6.877  18.192  65.784  1.00  0.00    -0.270 C  
BRANCH   7   8
HETATM    8  O   UNL     1      -7.932  17.229  65.583  1.00  0.00    -0.437 OA 
BRANCH   8   9
HETATM    9  C   UNL     1      -8.089  16.352  66.611  1.00  0.00    -0.286 C  
HETATM   10  O   UNL     1      -7.319  16.255  67.550  1.00  0.00    -0.129 OA 
BRANCH   9  11
HETATM   11  C   UNL     1      -9.423  15.683  66.489  1.00  0.00    -0.300 A  
HETATM   12  C   UNL     1     -10.454  15.899  67.413  1.00  0.00    -0.306 A  
HETATM   13  C   UNL     1     -11.724  15.337  67.198  1.00  0.00    -0.061 A  
HETATM   14 CL   UNL     1     -10.295  16.864  68.840  1.00  0.00    -0.314 Cl 
HETATM   15  C   UNL     1     -11.984  14.526  66.094  1.00  0.00    -0.312 A  
HETATM   16  C   UNL     1     -10.980  14.362  65.142  1.00  0.00    -0.380 A  
HETATM   17  N   UNL     1     -13.282  14.087  65.824  1.00  0.00    -0.646 NA 
HETATM   18  H1  UNL     1     -13.471  13.494  65.016  1.00  0.00     0.000 HD 
HETATM   19  C   UNL     1      -9.710  14.910  65.346  1.00  0.00    -0.211 A  
HETATM   20  H2  UNL     1     -13.891  14.903  65.771  1.00  0.00     0.000 HD 
ENDBRANCH   9  11
ENDBRANCH   8   9
ENDBRANCH   7   8
ENDBRANCH   6   7
ENDBRANCH   3   6
ENDBRANCH   2   3
TORSDOF 7
ENDMDL
MODEL       90
REMARK 921   NORMALIZED FREE ENERGY PREDICTED BY IDOCK:   -4.40 KCAL/MOL
REMARK 922        TOTAL FREE ENERGY PREDICTED BY IDOCK:   -6.59 KCAL/MOL
REMARK 923 INTER-LIGAND FREE ENERGY PREDICTED BY IDOCK:   -6.07 KCAL/MOL
REMARK 924 INTRA-LIGAND FREE ENERGY PREDICTED BY IDOCK:   -0.52 KCAL/MOL
REMARK 927      BINDING AFFINITY PREDICTED BY RF-SCORE:    0.00 PKD
ROOT
HETATM    1  C   UNL     1      -7.049   6.774  66.380  1.00  0.00    -0.071 C  
HETATM    2  C   UNL     1      -8.216   7.717  66.112  1.00  0.00    -0.123 C  
ENDROOT
BRANCH   2   3
HETATM    3  N   UNL     1      -7.865   8.951  65.380  1.00  0.00    -0.098 NA 
BRANCH   3   4
HETATM    4  C   UNL     1      -7.126   8.711  64.128  1.00  0.00    -0.090 C  
HETATM    5  C   UNL     1      -7.842   9.088  62.834  1.00  0.00    -0.131 C  
ENDBRANCH   3   4
BRANCH   3   6
HETATM    6  C   UNL     1      -9.091   9.743  65.185  1.00  0.00    -0.222 C  
BRANCH   6   7
HETATM    7  C   UNL     1     -10.092   9.811  66.353  1.00  0.00    -0.243 C  
BRANCH   7   8
HETATM    8  O   UNL     1     -10.019  11.155  66.873  1.00  0.00    -0.190 OA 
BRANCH   8   9
HETATM    9  C   UNL     1     -11.223  11.781  66.970  1.00  0.00    -0.322 C  
HETATM   10  O   UNL     1     -12.106  11.447  67.741  1.00  0.00    -0.637 OA 
BRANCH   9  11
HETATM   11  C   UNL     1     -11.204  13.021  66.131  1.00  0.00    -0.320 A  
HETATM   12  C   UNL     1     -11.883  13.105  64.908  1.00  0.00    -0.358 A  
HETATM   13  C   UNL     1     -11.929  14.324  64.209  1.00  0.00    -0.449 A  
HETATM   14 CL   UNL     1     -12.729  11.788  64.171  1.00  0.00    -0.275 Cl 
HETATM   15  C   UNL     1     -11.276  15.461  64.685  1.00  0.00    -0.364 A  
HETATM   16  C   UNL     1     -10.656  15.396  65.930  1.00  0.00    -0.349 A  
HETATM   17  N   UNL     1     -11.443  16.693  64.050  1.00  0.00    -1.551 NA 
HETATM   18  H1  UNL     1     -10.966  17.525  64.398  1.00  0.00     0.000 HD 
HETATM   19  C   UNL     1     -10.596  14.189  66.633  1.00  0.00    -0.278 A  
HETATM   20  H2  UNL     1     -12.442  16.895  64.001  1.00  0.00     0.000 HD 
ENDBRANCH   9  11
ENDBRANCH   8   9
ENDBRANCH   7   8
ENDBRANCH   6   7
ENDBRANCH   3   6
ENDBRANCH   2   3
TORSDOF 7
ENDMDL
MODEL       91
REMARK 921   NORMALIZED FREE ENERGY PREDICTED BY IDOCK:   -4.38 KCAL/MOL
REMARK 922        TOTAL FREE ENERGY PREDICTED BY IDOCK:   -6.56 KCAL/MOL
REMARK 923 INTER-LIGAND FREE ENERGY PREDICTED BY IDOCK:   -6.28 KCAL/MOL
REMARK 924 INTRA-LIGAND FREE ENERGY PREDICTED BY IDOCK:   -0.29 KCAL/MOL
REMARK 927      BINDING AFFINITY PREDICTED BY RF-SCORE:    0.00 PKD
ROOT
HETATM    1  C   UNL     1      -6.939  10.087  70.191  1.00  0.00    -0.148 C  
HETATM    2  C   UNL     1      -8.215   9.614  69.506  1.00  0.00    -0.136 C  
ENDROOT
BRANCH   2   3
HETATM    3  N   UNL     1      -9.096  10.692  69.013  1.00  0.00    -0.179 NA 
BRANCH   3   4
HETATM    4  C   UNL     1      -8.748  11.177  67.667  1.00  0.00    -0.129 C  
HETATM    5  C   UNL     1      -8.775  10.143  66.544  1.00  0.00    -0.139 C  
ENDBRANCH   3   4
BRANCH   3   6
HETATM    6  C   UNL     1     -10.493  10.240  69.122  1.00  0.00    -0.224 C  
BRANCH   6   7
HETATM    7  C   UNL     1     -11.584  11.130  68.499  1.00  0.00    -0.314 C  
BRANCH   7   8
HETATM    8  O   UNL     1     -12.077  11.972  69.562  1.00  0.00    -0.276 OA 
BRANCH   8   9
HETATM    9  C   UNL     1     -11.815  13.296  69.391  1.00  0.00    -0.329 C  
HETATM   10  O   UNL     1     -11.580  13.812  68.313  1.00  0.00    -0.295 OA 
BRANCH   9  11
HETATM   11  C   UNL     1     -12.042  14.015  70.684  1.00  0.00    -0.424 A  
HETATM   12  C   UNL     1     -11.526  15.295  70.928  1.00  0.00    -0.339 A  
HETATM   13  C   UNL     1     -11.857  15.976  72.112  1.00  0.00    -0.623 A  
HETATM   14 CL   UNL     1     -10.495  16.152  69.835  1.00  0.00    -0.284 Cl 
HETATM   15  C   UNL     1     -12.669  15.392  73.085  1.00  0.00    -0.479 A  
HETATM   16  C   UNL     1     -13.234  14.149  72.816  1.00  0.00    -0.604 A  
HETATM   17  N   UNL     1     -13.097  16.132  74.189  1.00  0.00    -0.941 NA 
HETATM   18  H1  UNL     1     -13.691  15.705  74.900  1.00  0.00     0.000 HD 
HETATM   19  C   UNL     1     -12.908  13.456  71.646  1.00  0.00    -0.414 A  
HETATM   20  H2  UNL     1     -13.561  16.974  73.850  1.00  0.00     0.000 HD 
ENDBRANCH   9  11
ENDBRANCH   8   9
ENDBRANCH   7   8
ENDBRANCH   6   7
ENDBRANCH   3   6
ENDBRANCH   2   3
TORSDOF 7
ENDMDL
MODEL       92
REMARK 921   NORMALIZED FREE ENERGY PREDICTED BY IDOCK:   -4.37 KCAL/MOL
REMARK 922        TOTAL FREE ENERGY PREDICTED BY IDOCK:   -6.55 KCAL/MOL
REMARK 923 INTER-LIGAND FREE ENERGY PREDICTED BY IDOCK:   -5.97 KCAL/MOL
REMARK 924 INTRA-LIGAND FREE ENERGY PREDICTED BY IDOCK:   -0.58 KCAL/MOL
REMARK 927      BINDING AFFINITY PREDICTED BY RF-SCORE:    0.00 PKD
ROOT
HETATM    1  C   UNL     1     -12.425  13.029  65.033  1.00  0.00    -0.534 C  
HETATM    2  C   UNL     1     -11.581  14.281  65.235  1.00  0.00    -0.348 C  
ENDROOT
BRANCH   2   3
HETATM    3  N   UNL     1     -11.030  14.450  66.595  1.00  0.00    -0.312 NA 
BRANCH   3   4
HETATM    4  C   UNL     1     -10.365  15.746  66.811  1.00  0.00    -0.293 C  
HETATM    5  C   UNL     1      -9.020  15.944  66.115  1.00  0.00    -0.376 C  
ENDBRANCH   3   4
BRANCH   3   6
HETATM    6  C   UNL     1     -12.100  14.179  67.569  1.00  0.00    -0.328 C  
BRANCH   6   7
HETATM    7  C   UNL     1     -11.702  13.525  68.905  1.00  0.00    -0.339 C  
BRANCH   7   8
HETATM    8  O   UNL     1     -10.686  12.549  68.593  1.00  0.00    -0.232 OA 
BRANCH   8   9
HETATM    9  C   UNL     1     -11.143  11.269  68.532  1.00  0.00    -0.235 C  
HETATM   10  O   UNL     1     -11.775  10.814  67.594  1.00  0.00    -0.538 OA 
BRANCH   9  11
HETATM   11  C   UNL     1     -10.594  10.493  69.688  1.00  0.00    -0.281 A  
HETATM   12  C   UNL     1     -11.413   9.999  70.712  1.00  0.00    -0.356 A  
HETATM   13  C   UNL     1     -10.869   9.182  71.718  1.00  0.00    -0.416 A  
HETATM   14 CL   UNL     1     -13.113  10.300  70.830  1.00  0.00    -0.461 Cl 
HETATM   15  C   UNL     1      -9.510   8.873  71.749  1.00  0.00    -0.264 A  
HETATM   16  C   UNL     1      -8.707   9.309  70.698  1.00  0.00    -0.282 A  
HETATM   17  N   UNL     1      -9.011   7.953  72.675  1.00  0.00    -0.171 NA 
HETATM   18  H1  UNL     1      -8.017   7.727  72.697  1.00  0.00     0.000 HD 
HETATM   19  C   UNL     1      -9.233  10.129  69.695  1.00  0.00    -0.206 A  
HETATM   20  H2  UNL     1      -9.534   7.083  72.575  1.00  0.00     0.000 HD 
ENDBRANCH   9  11
ENDBRANCH   8   9
ENDBRANCH   7   8
ENDBRANCH   6   7
ENDBRANCH   3   6
ENDBRANCH   2   3
TORSDOF 7
ENDMDL
MODEL       93
REMARK 921   NORMALIZED FREE ENERGY PREDICTED BY IDOCK:   -4.37 KCAL/MOL
REMARK 922        TOTAL FREE ENERGY PREDICTED BY IDOCK:   -6.55 KCAL/MOL
REMARK 923 INTER-LIGAND FREE ENERGY PREDICTED BY IDOCK:   -6.16 KCAL/MOL
REMARK 924 INTRA-LIGAND FREE ENERGY PREDICTED BY IDOCK:   -0.39 KCAL/MOL
REMARK 927      BINDING AFFINITY PREDICTED BY RF-SCORE:    0.00 PKD
ROOT
HETATM    1  C   UNL     1     -10.950  15.959  64.911  1.00  0.00    -0.427 C  
HETATM    2  C   UNL     1     -10.552  15.605  66.338  1.00  0.00    -0.308 C  
ENDROOT
BRANCH   2   3
HETATM    3  N   UNL     1     -11.089  14.322  66.836  1.00  0.00    -0.304 NA 
BRANCH   3   4
HETATM    4  C   UNL     1     -10.496  13.138  66.191  1.00  0.00    -0.281 C  
HETATM    5  C   UNL     1     -11.387  12.383  65.208  1.00  0.00    -0.374 C  
ENDBRANCH   3   4
BRANCH   3   6
HETATM    6  C   UNL     1     -10.967  14.303  68.304  1.00  0.00    -0.247 C  
BRANCH   6   7
HETATM    7  C   UNL     1     -12.035  13.530  69.100  1.00  0.00    -0.333 C  
BRANCH   7   8
HETATM    8  O   UNL     1     -11.359  12.404  69.697  1.00  0.00    -0.217 OA 
BRANCH   8   9
HETATM    9  C   UNL     1     -11.800  11.194  69.258  1.00  0.00    -0.352 C  
HETATM   10  O   UNL     1     -12.166  10.973  68.117  1.00  0.00    -0.578 OA 
BRANCH   9  11
HETATM   11  C   UNL     1     -11.587  10.172  70.331  1.00  0.00    -0.396 A  
HETATM   12  C   UNL     1     -12.253  10.232  71.563  1.00  0.00    -0.353 A  
HETATM   13  C   UNL     1     -12.106   9.191  72.496  1.00  0.00    -0.085 A  
HETATM   14 CL   UNL     1     -13.308  11.518  72.037  1.00  0.00    -0.527 Cl 
HETATM   15  C   UNL     1     -11.273   8.101  72.245  1.00  0.00    -0.359 A  
HETATM   16  C   UNL     1     -10.661   8.008  70.997  1.00  0.00    -0.245 A  
HETATM   17  N   UNL     1     -11.242   7.014  73.121  1.00  0.00    -0.530 NA 
HETATM   18  H1  UNL     1     -10.634   6.217  72.937  1.00  0.00     0.000 HD 
HETATM   19  C   UNL     1     -10.793   9.039  70.062  1.00  0.00    -0.247 A  
HETATM   20  H2  UNL     1     -12.195   6.668  73.236  1.00  0.00     0.000 HD 
ENDBRANCH   9  11
ENDBRANCH   8   9
ENDBRANCH   7   8
ENDBRANCH   6   7
ENDBRANCH   3   6
ENDBRANCH   2   3
TORSDOF 7
ENDMDL
MODEL       94
REMARK 921   NORMALIZED FREE ENERGY PREDICTED BY IDOCK:   -4.33 KCAL/MOL
REMARK 922        TOTAL FREE ENERGY PREDICTED BY IDOCK:   -6.50 KCAL/MOL
REMARK 923 INTER-LIGAND FREE ENERGY PREDICTED BY IDOCK:   -6.04 KCAL/MOL
REMARK 924 INTRA-LIGAND FREE ENERGY PREDICTED BY IDOCK:   -0.45 KCAL/MOL
REMARK 927      BINDING AFFINITY PREDICTED BY RF-SCORE:    0.00 PKD
ROOT
HETATM    1  C   UNL     1      -7.662   6.937  72.996  1.00  0.00    -0.091 C  
HETATM    2  C   UNL     1      -8.263   7.683  71.812  1.00  0.00    -0.108 C  
ENDROOT
BRANCH   2   3
HETATM    3  N   UNL     1      -9.677   7.364  71.526  1.00  0.00    -0.160 NA 
BRANCH   3   4
HETATM    4  C   UNL     1      -9.883   6.015  70.972  1.00  0.00    -0.183 C  
HETATM    5  C   UNL     1     -10.877   5.899  69.819  1.00  0.00    -0.447 C  
ENDBRANCH   3   4
BRANCH   3   6
HETATM    6  C   UNL     1     -10.468   7.617  72.742  1.00  0.00    -0.311 C  
BRANCH   6   7
HETATM    7  C   UNL     1     -11.871   8.227  72.569  1.00  0.00    -0.373 C  
BRANCH   7   8
HETATM    8  O   UNL     1     -11.704   9.406  71.755  1.00  0.00    -0.371 OA 
BRANCH   8   9
HETATM    9  C   UNL     1     -12.873   9.984  71.367  1.00  0.00    -0.417 C  
HETATM   10  O   UNL     1     -13.965   9.456  71.476  1.00  0.00    -0.290 OA 
BRANCH   9  11
HETATM   11  C   UNL     1     -12.613  11.405  70.971  1.00  0.00    -0.487 A  
HETATM   12  C   UNL     1     -12.020  11.743  69.747  1.00  0.00    -0.322 A  
HETATM   13  C   UNL     1     -11.897  13.092  69.371  1.00  0.00    -0.380 A  
HETATM   14 CL   UNL     1     -11.429  10.590  68.601  1.00  0.00    -0.316 Cl 
HETATM   15  C   UNL     1     -12.320  14.122  70.210  1.00  0.00    -0.356 A  
HETATM   16  C   UNL     1     -12.967  13.787  71.397  1.00  0.00    -0.433 A  
HETATM   17  N   UNL     1     -12.314  15.447  69.767  1.00  0.00    -0.551 NA 
HETATM   18  H1  UNL     1     -12.624  16.200  70.380  1.00  0.00     0.000 HD 
HETATM   19  C   UNL     1     -13.090  12.450  71.787  1.00  0.00    -0.446 A  
HETATM   20  H2  UNL     1     -12.854  15.497  68.902  1.00  0.00     0.000 HD 
ENDBRANCH   9  11
ENDBRANCH   8   9
ENDBRANCH   7   8
ENDBRANCH   6   7
ENDBRANCH   3   6
ENDBRANCH   2   3
TORSDOF 7
ENDMDL
MODEL       95
REMARK 921   NORMALIZED FREE ENERGY PREDICTED BY IDOCK:   -4.33 KCAL/MOL
REMARK 922        TOTAL FREE ENERGY PREDICTED BY IDOCK:   -6.49 KCAL/MOL
REMARK 923 INTER-LIGAND FREE ENERGY PREDICTED BY IDOCK:   -5.92 KCAL/MOL
REMARK 924 INTRA-LIGAND FREE ENERGY PREDICTED BY IDOCK:   -0.57 KCAL/MOL
REMARK 927      BINDING AFFINITY PREDICTED BY RF-SCORE:    0.00 PKD
ROOT
HETATM    1  C   UNL     1      -9.610   8.194  72.383  1.00  0.00    -0.335 C  
HETATM    2  C   UNL     1     -11.029   8.023  71.854  1.00  0.00    -0.263 C  
ENDROOT
BRANCH   2   3
HETATM    3  N   UNL     1     -11.456   9.041  70.873  1.00  0.00    -0.281 NA 
BRANCH   3   4
HETATM    4  C   UNL     1     -12.377  10.049  71.425  1.00  0.00    -0.415 C  
HETATM    5  C   UNL     1     -13.576   9.518  72.207  1.00  0.00    -0.494 C  
ENDBRANCH   3   4
BRANCH   3   6
HETATM    6  C   UNL     1     -10.255   9.630  70.257  1.00  0.00    -0.277 C  
BRANCH   6   7
HETATM    7  C   UNL     1     -10.349  10.070  68.785  1.00  0.00    -0.198 C  
BRANCH   7   8
HETATM    8  O   UNL     1     -10.327  11.512  68.789  1.00  0.00    -0.203 OA 
BRANCH   8   9
HETATM    9  C   UNL     1     -11.341  12.087  68.088  1.00  0.00    -0.291 C  
HETATM   10  O   UNL     1     -12.278  11.469  67.612  1.00  0.00    -0.513 OA 
BRANCH   9  11
HETATM   11  C   UNL     1     -11.211  13.576  68.162  1.00  0.00    -0.302 A  
HETATM   12  C   UNL     1     -11.583  14.302  69.302  1.00  0.00    -0.306 A  
HETATM   13  C   UNL     1     -11.340  15.685  69.368  1.00  0.00    -0.332 A  
HETATM   14 CL   UNL     1     -12.320  13.605  70.703  1.00  0.00    -0.431 Cl 
HETATM   15  C   UNL     1     -10.764  16.375  68.301  1.00  0.00    -0.337 A  
HETATM   16  C   UNL     1     -10.336  15.645  67.195  1.00  0.00    -0.285 A  
HETATM   17  N   UNL     1     -10.408  17.718  68.433  1.00  0.00    -0.374 NA 
HETATM   18  H1  UNL     1      -9.986  18.222  67.653  1.00  0.00     0.000 HD 
HETATM   19  C   UNL     1     -10.578  14.270  67.112  1.00  0.00    -0.279 A  
HETATM   20  H2  UNL     1      -9.791  17.807  69.241  1.00  0.00     0.000 HD 
ENDBRANCH   9  11
ENDBRANCH   8   9
ENDBRANCH   7   8
ENDBRANCH   6   7
ENDBRANCH   3   6
ENDBRANCH   2   3
TORSDOF 7
ENDMDL
MODEL       96
REMARK 921   NORMALIZED FREE ENERGY PREDICTED BY IDOCK:   -4.32 KCAL/MOL
REMARK 922        TOTAL FREE ENERGY PREDICTED BY IDOCK:   -6.48 KCAL/MOL
REMARK 923 INTER-LIGAND FREE ENERGY PREDICTED BY IDOCK:   -5.86 KCAL/MOL
REMARK 924 INTRA-LIGAND FREE ENERGY PREDICTED BY IDOCK:   -0.62 KCAL/MOL
REMARK 927      BINDING AFFINITY PREDICTED BY RF-SCORE:    0.00 PKD
ROOT
HETATM    1  C   UNL     1     -10.617  20.013  67.168  1.00  0.00    -0.447 C  
HETATM    2  C   UNL     1     -10.477  19.045  66.000  1.00  0.00    -0.458 C  
ENDROOT
BRANCH   2   3
HETATM    3  N   UNL     1      -9.244  18.232  66.006  1.00  0.00    -0.512 NA 
BRANCH   3   4
HETATM    4  C   UNL     1      -8.184  18.766  66.878  1.00  0.00    -0.265 C  
HETATM    5  C   UNL     1      -6.864  19.126  66.201  1.00  0.00    -0.254 C  
ENDBRANCH   3   4
BRANCH   3   6
HETATM    6  C   UNL     1      -9.604  16.839  66.319  1.00  0.00    -0.289 C  
BRANCH   6   7
HETATM    7  C   UNL     1      -8.623  16.023  67.182  1.00  0.00    -0.194 C  
BRANCH   7   8
HETATM    8  O   UNL     1      -8.316  14.831  66.431  1.00  0.00     0.023 OA 
BRANCH   8   9
HETATM    9  C   UNL     1      -8.828  13.689  66.965  1.00  0.00    -0.223 C  
HETATM   10  O   UNL     1      -8.487  13.225  68.039  1.00  0.00    -0.151 OA 
BRANCH   9  11
HETATM   11  C   UNL     1      -9.974  13.221  66.123  1.00  0.00    -0.295 A  
HETATM   12  C   UNL     1     -11.309  13.458  66.481  1.00  0.00    -0.320 A  
HETATM   13  C   UNL     1     -12.348  13.098  65.606  1.00  0.00    -0.519 A  
HETATM   14 CL   UNL     1     -11.801  14.216  67.956  1.00  0.00    -0.395 Cl 
HETATM   15  C   UNL     1     -12.090  12.467  64.389  1.00  0.00    -0.426 A  
HETATM   16  C   UNL     1     -10.763  12.288  64.005  1.00  0.00    -0.438 A  
HETATM   17  N   UNL     1     -13.120  12.238  63.475  1.00  0.00    -0.726 NA 
HETATM   18  H1  UNL     1     -12.931  11.777  62.586  1.00  0.00     0.000 HD 
HETATM   19  C   UNL     1      -9.719  12.635  64.868  1.00  0.00     0.033 A  
HETATM   20  H2  UNL     1     -13.580  13.128  63.282  1.00  0.00     0.000 HD 
ENDBRANCH   9  11
ENDBRANCH   8   9
ENDBRANCH   7   8
ENDBRANCH   6   7
ENDBRANCH   3   6
ENDBRANCH   2   3
TORSDOF 7
ENDMDL
MODEL       97
REMARK 921   NORMALIZED FREE ENERGY PREDICTED BY IDOCK:   -4.32 KCAL/MOL
REMARK 922        TOTAL FREE ENERGY PREDICTED BY IDOCK:   -6.48 KCAL/MOL
REMARK 923 INTER-LIGAND FREE ENERGY PREDICTED BY IDOCK:   -5.68 KCAL/MOL
REMARK 924 INTRA-LIGAND FREE ENERGY PREDICTED BY IDOCK:   -0.80 KCAL/MOL
REMARK 927      BINDING AFFINITY PREDICTED BY RF-SCORE:    0.00 PKD
ROOT
HETATM    1  C   UNL     1     -12.024  12.740  65.720  1.00  0.00    -0.502 C  
HETATM    2  C   UNL     1     -12.348  14.000  66.512  1.00  0.00    -0.404 C  
ENDROOT
BRANCH   2   3
HETATM    3  N   UNL     1     -11.299  14.429  67.459  1.00  0.00    -0.312 NA 
BRANCH   3   4
HETATM    4  C   UNL     1     -11.824  15.000  68.711  1.00  0.00    -0.301 C  
HETATM    5  C   UNL     1     -10.910  15.974  69.450  1.00  0.00    -0.300 C  
ENDBRANCH   3   4
BRANCH   3   6
HETATM    6  C   UNL     1     -10.379  13.301  67.679  1.00  0.00    -0.230 C  
BRANCH   6   7
HETATM    7  C   UNL     1      -8.876  13.549  67.453  1.00  0.00    -0.221 C  
BRANCH   7   8
HETATM    8  O   UNL     1      -8.777  14.749  66.657  1.00  0.00    -0.249 OA 
BRANCH   8   9
HETATM    9  C   UNL     1      -7.781  15.591  67.041  1.00  0.00    -0.210 C  
HETATM   10  O   UNL     1      -6.606  15.274  67.111  1.00  0.00    -0.292 OA 
BRANCH   9  11
HETATM   11  C   UNL     1      -8.330  16.978  67.175  1.00  0.00    -0.213 A  
HETATM   12  C   UNL     1      -7.848  17.883  68.130  1.00  0.00    -0.266 A  
HETATM   13  C   UNL     1      -8.317  19.208  68.146  1.00  0.00    -0.351 A  
HETATM   14 CL   UNL     1      -6.652  17.499  69.319  1.00  0.00    -0.245 Cl 
HETATM   15  C   UNL     1      -9.292  19.646  67.250  1.00  0.00    -0.332 A  
HETATM   16  C   UNL     1      -9.725  18.766  66.261  1.00  0.00    -0.354 A  
HETATM   17  N   UNL     1      -9.648  20.995  67.191  1.00  0.00    -0.661 NA 
HETATM   18  H1  UNL     1     -10.360  21.315  66.535  1.00  0.00     0.000 HD 
HETATM   19  C   UNL     1      -9.273  17.444  66.237  1.00  0.00    -0.234 A  
HETATM   20  H2  UNL     1      -8.801  21.543  67.035  1.00  0.00     0.000 HD 
ENDBRANCH   9  11
ENDBRANCH   8   9
ENDBRANCH   7   8
ENDBRANCH   6   7
ENDBRANCH   3   6
ENDBRANCH   2   3
TORSDOF 7
ENDMDL
MODEL       98
REMARK 921   NORMALIZED FREE ENERGY PREDICTED BY IDOCK:   -4.32 KCAL/MOL
REMARK 922        TOTAL FREE ENERGY PREDICTED BY IDOCK:   -6.48 KCAL/MOL
REMARK 923 INTER-LIGAND FREE ENERGY PREDICTED BY IDOCK:   -5.55 KCAL/MOL
REMARK 924 INTRA-LIGAND FREE ENERGY PREDICTED BY IDOCK:   -0.92 KCAL/MOL
REMARK 927      BINDING AFFINITY PREDICTED BY RF-SCORE:    0.00 PKD
ROOT
HETATM    1  C   UNL     1      -7.477  10.079  69.665  1.00  0.00    -0.134 C  
HETATM    2  C   UNL     1      -8.967  10.014  69.355  1.00  0.00    -0.194 C  
ENDROOT
BRANCH   2   3
HETATM    3  N   UNL     1      -9.445  11.014  68.378  1.00  0.00    -0.175 NA 
BRANCH   3   4
HETATM    4  C   UNL     1      -8.371  11.830  67.787  1.00  0.00    -0.146 C  
HETATM    5  C   UNL     1      -8.369  13.314  68.148  1.00  0.00    -0.161 C  
ENDBRANCH   3   4
BRANCH   3   6
HETATM    6  C   UNL     1     -10.269  10.325  67.370  1.00  0.00    -0.218 C  
BRANCH   6   7
HETATM    7  C   UNL     1     -10.826  11.165  66.206  1.00  0.00    -0.205 C  
BRANCH   7   8
HETATM    8  O   UNL     1     -12.008  11.821  66.709  1.00  0.00    -0.584 OA 
BRANCH   8   9
HETATM    9  C   UNL     1     -12.306  12.990  66.079  1.00  0.00    -0.319 C  
HETATM   10  O   UNL     1     -13.037  13.076  65.108  1.00  0.00    -0.740 OA 
BRANCH   9  11
HETATM   11  C   UNL     1     -11.753  14.133  66.873  1.00  0.00    -0.437 A  
HETATM   12  C   UNL     1     -10.985  15.147  66.285  1.00  0.00    -0.335 A  
HETATM   13  C   UNL     1     -10.581  16.257  67.047  1.00  0.00    -0.284 A  
HETATM   14 CL   UNL     1     -10.498  15.162  64.626  1.00  0.00    -0.230 Cl 
HETATM   15  C   UNL     1     -10.895  16.363  68.402  1.00  0.00    -0.342 A  
HETATM   16  C   UNL     1     -11.711  15.389  68.971  1.00  0.00    -0.380 A  
HETATM   17  N   UNL     1     -10.603  17.532  69.109  1.00  0.00    -0.392 NA 
HETATM   18  H1  UNL     1     -10.832  17.609  70.099  1.00  0.00     0.000 HD 
HETATM   19  C   UNL     1     -12.115  14.276  68.227  1.00  0.00    -0.278 A  
HETATM   20  H2  UNL     1     -11.031  18.318  68.620  1.00  0.00     0.000 HD 
ENDBRANCH   9  11
ENDBRANCH   8   9
ENDBRANCH   7   8
ENDBRANCH   6   7
ENDBRANCH   3   6
ENDBRANCH   2   3
TORSDOF 7
ENDMDL
MODEL       99
REMARK 921   NORMALIZED FREE ENERGY PREDICTED BY IDOCK:   -4.31 KCAL/MOL
REMARK 922        TOTAL FREE ENERGY PREDICTED BY IDOCK:   -6.46 KCAL/MOL
REMARK 923 INTER-LIGAND FREE ENERGY PREDICTED BY IDOCK:   -6.08 KCAL/MOL
REMARK 924 INTRA-LIGAND FREE ENERGY PREDICTED BY IDOCK:   -0.38 KCAL/MOL
REMARK 927      BINDING AFFINITY PREDICTED BY RF-SCORE:    0.00 PKD
ROOT
HETATM    1  C   UNL     1     -10.464  20.213  67.660  1.00  0.00    -0.408 C  
HETATM    2  C   UNL     1      -9.834  19.335  68.734  1.00  0.00    -0.447 C  
ENDROOT
BRANCH   2   3
HETATM    3  N   UNL     1      -8.546  18.717  68.360  1.00  0.00    -0.332 NA 
BRANCH   3   4
HETATM    4  C   UNL     1      -7.392  19.248  69.106  1.00  0.00    -0.306 C  
HETATM    5  C   UNL     1      -6.561  20.318  68.401  1.00  0.00    -0.335 C  
ENDBRANCH   3   4
BRANCH   3   6
HETATM    6  C   UNL     1      -8.680  17.255  68.467  1.00  0.00    -0.273 C  
BRANCH   6   7
HETATM    7  C   UNL     1      -9.775  16.574  67.624  1.00  0.00    -0.239 C  
BRANCH   7   8
HETATM    8  O   UNL     1     -10.124  15.358  68.318  1.00  0.00    -0.215 OA 
BRANCH   8   9
HETATM    9  C   UNL     1     -11.215  14.723  67.813  1.00  0.00    -0.313 C  
HETATM   10  O   UNL     1     -11.818  15.086  66.818  1.00  0.00    -0.245 OA 
BRANCH   9  11
HETATM   11  C   UNL     1     -11.426  13.439  68.554  1.00  0.00    -0.345 A  
HETATM   12  C   UNL     1     -11.983  13.401  69.839  1.00  0.00    -0.338 A  
HETATM   13  C   UNL     1     -12.263  12.167  70.451  1.00  0.00    -0.378 A  
HETATM   14 CL   UNL     1     -12.396  14.804  70.762  1.00  0.00    -0.366 Cl 
HETATM   15  C   UNL     1     -11.966  10.959  69.821  1.00  0.00    -0.351 A  
HETATM   16  C   UNL     1     -11.473  10.994  68.520  1.00  0.00    -0.379 A  
HETATM   17  N   UNL     1     -12.373   9.746  70.382  1.00  0.00    -0.484 NA 
HETATM   18  H1  UNL     1     -12.156   8.863  69.922  1.00  0.00     0.000 HD 
HETATM   19  C   UNL     1     -11.182  12.214  67.901  1.00  0.00    -0.329 A  
HETATM   20  H2  UNL     1     -13.381   9.787  70.535  1.00  0.00     0.000 HD 
ENDBRANCH   9  11
ENDBRANCH   8   9
ENDBRANCH   7   8
ENDBRANCH   6   7
ENDBRANCH   3   6
ENDBRANCH   2   3
TORSDOF 7
ENDMDL
MODEL      100
REMARK 921   NORMALIZED FREE ENERGY PREDICTED BY IDOCK:   -4.30 KCAL/MOL
REMARK 922        TOTAL FREE ENERGY PREDICTED BY IDOCK:   -6.45 KCAL/MOL
REMARK 923 INTER-LIGAND FREE ENERGY PREDICTED BY IDOCK:   -5.76 KCAL/MOL
REMARK 924 INTRA-LIGAND FREE ENERGY PREDICTED BY IDOCK:   -0.69 KCAL/MOL
REMARK 927      BINDING AFFINITY PREDICTED BY RF-SCORE:    0.00 PKD
ROOT
HETATM    1  C   UNL     1      -8.094  15.306  66.957  1.00  0.00    -0.253 C  
HETATM    2  C   UNL     1      -9.141  14.871  67.974  1.00  0.00    -0.180 C  
ENDROOT
BRANCH   2   3
HETATM    3  N   UNL     1     -10.528  15.257  67.646  1.00  0.00    -0.258 NA 
BRANCH   3   4
HETATM    4  C   UNL     1     -11.138  16.175  68.624  1.00  0.00    -0.356 C  
HETATM    5  C   UNL     1     -12.029  15.538  69.688  1.00  0.00    -0.380 C  
ENDBRANCH   3   4
BRANCH   3   6
HETATM    6  C   UNL     1     -10.555  15.778  66.269  1.00  0.00    -0.310 C  
BRANCH   6   7
HETATM    7  C   UNL     1     -11.513  15.106  65.268  1.00  0.00    -0.266 C  
BRANCH   7   8
HETATM    8  O   UNL     1     -12.231  14.098  66.008  1.00  0.00    -0.419 OA 
BRANCH   8   9
HETATM    9  C   UNL     1     -12.318  12.897  65.374  1.00  0.00    -0.485 C  
HETATM   10  O   UNL     1     -12.927  12.717  64.334  1.00  0.00    -0.723 OA 
BRANCH   9  11
HETATM   11  C   UNL     1     -11.412  11.915  66.049  1.00  0.00    -0.344 A  
HETATM   12  C   UNL     1     -10.456  11.173  65.342  1.00  0.00    -0.259 A  
HETATM   13  C   UNL     1      -9.554  10.346  66.032  1.00  0.00    -0.251 A  
HETATM   14 CL   UNL     1     -10.267  11.216  63.623  1.00  0.00    -0.409 Cl 
HETATM   15  C   UNL     1      -9.607  10.209  67.419  1.00  0.00    -0.154 A  
HETATM   16  C   UNL     1     -10.514  10.993  68.128  1.00  0.00    -0.216 A  
HETATM   17  N   UNL     1      -8.622   9.491  68.100  1.00  0.00    -0.120 NA 
HETATM   18  H1  UNL     1      -8.660   9.391  69.114  1.00  0.00     0.000 HD 
HETATM   19  C   UNL     1     -11.422  11.815  67.454  1.00  0.00    -0.375 A  
HETATM   20  H2  UNL     1      -7.712   9.881  67.852  1.00  0.00     0.000 HD 
ENDBRANCH   9  11
ENDBRANCH   8   9
ENDBRANCH   7   8
ENDBRANCH   6   7
ENDBRANCH   3   6
ENDBRANCH   2   3
TORSDOF 7
ENDMDL
MODEL      101
REMARK 921   NORMALIZED FREE ENERGY PREDICTED BY IDOCK:   -4.30 KCAL/MOL
REMARK 922        TOTAL FREE ENERGY PREDICTED BY IDOCK:   -6.45 KCAL/MOL
REMARK 923 INTER-LIGAND FREE ENERGY PREDICTED BY IDOCK:   -6.24 KCAL/MOL
REMARK 924 INTRA-LIGAND FREE ENERGY PREDICTED BY IDOCK:   -0.20 KCAL/MOL
REMARK 927      BINDING AFFINITY PREDICTED BY RF-SCORE:    0.00 PKD
ROOT
HETATM    1  C   UNL     1     -10.492  19.356  66.567  1.00  0.00    -0.572 C  
HETATM    2  C   UNL     1      -9.646  18.186  67.052  1.00  0.00    -0.287 C  
ENDROOT
BRANCH   2   3
HETATM    3  N   UNL     1      -8.890  17.483  65.996  1.00  0.00    -0.525 NA 
BRANCH   3   4
HETATM    4  C   UNL     1      -7.428  17.626  66.114  1.00  0.00    -0.299 C  
HETATM    5  C   UNL     1      -6.847  18.986  65.738  1.00  0.00    -0.311 C  
ENDBRANCH   3   4
BRANCH   3   6
HETATM    6  C   UNL     1      -9.332  16.079  65.961  1.00  0.00    -0.345 C  
BRANCH   6   7
HETATM    7  C   UNL     1     -10.727  15.754  66.526  1.00  0.00    -0.283 C  
BRANCH   7   8
HETATM    8  O   UNL     1     -11.316  14.792  65.627  1.00  0.00    -0.342 OA 
BRANCH   8   9
HETATM    9  C   UNL     1     -11.644  13.609  66.214  1.00  0.00    -0.348 C  
HETATM   10  O   UNL     1     -12.358  13.510  67.197  1.00  0.00    -0.315 OA 
BRANCH   9  11
HETATM   11  C   UNL     1     -11.150  12.481  65.363  1.00  0.00    -0.337 A  
HETATM   12  C   UNL     1     -11.399  12.420  63.985  1.00  0.00    -0.399 A  
HETATM   13  C   UNL     1     -10.823  11.400  63.208  1.00  0.00    -0.292 A  
HETATM   14 CL   UNL     1     -12.374  13.559  63.121  1.00  0.00    -0.264 Cl 
HETATM   15  C   UNL     1     -10.027  10.409  63.783  1.00  0.00    -0.162 A  
HETATM   16  C   UNL     1      -9.727  10.505  65.139  1.00  0.00    -0.341 A  
HETATM   17  N   UNL     1      -9.355   9.485  62.981  1.00  0.00    -0.527 NA 
HETATM   18  H1  UNL     1      -8.773   8.761  63.400  1.00  0.00     0.000 HD 
HETATM   19  C   UNL     1     -10.299  11.509  65.926  1.00  0.00    -0.293 A  
HETATM   20  H2  UNL     1      -8.787  10.000  62.307  1.00  0.00     0.000 HD 
ENDBRANCH   9  11
ENDBRANCH   8   9
ENDBRANCH   7   8
ENDBRANCH   6   7
ENDBRANCH   3   6
ENDBRANCH   2   3
TORSDOF 7
ENDMDL
MODEL      102
REMARK 921   NORMALIZED FREE ENERGY PREDICTED BY IDOCK:   -4.29 KCAL/MOL
REMARK 922        TOTAL FREE ENERGY PREDICTED BY IDOCK:   -6.43 KCAL/MOL
REMARK 923 INTER-LIGAND FREE ENERGY PREDICTED BY IDOCK:   -6.21 KCAL/MOL
REMARK 924 INTRA-LIGAND FREE ENERGY PREDICTED BY IDOCK:   -0.22 KCAL/MOL
REMARK 927      BINDING AFFINITY PREDICTED BY RF-SCORE:    0.00 PKD
ROOT
HETATM    1  C   UNL     1     -12.221   8.281  71.725  1.00  0.00    -0.367 C  
HETATM    2  C   UNL     1     -10.825   8.891  71.721  1.00  0.00    -0.365 C  
ENDROOT
BRANCH   2   3
HETATM    3  N   UNL     1     -10.093   8.767  70.444  1.00  0.00    -0.186 NA 
BRANCH   3   4
HETATM    4  C   UNL     1      -9.576   7.412  70.184  1.00  0.00    -0.165 C  
HETATM    5  C   UNL     1     -10.249   6.633  69.057  1.00  0.00    -0.196 C  
ENDBRANCH   3   4
BRANCH   3   6
HETATM    6  C   UNL     1     -10.952   9.276  69.362  1.00  0.00    -0.120 C  
BRANCH   6   7
HETATM    7  C   UNL     1     -11.505  10.706  69.500  1.00  0.00    -0.291 C  
BRANCH   7   8
HETATM    8  O   UNL     1     -12.222  10.984  68.279  1.00  0.00    -0.582 OA 
BRANCH   8   9
HETATM    9  C   UNL     1     -11.854  12.143  67.669  1.00  0.00    -0.246 C  
HETATM   10  O   UNL     1     -11.765  13.217  68.239  1.00  0.00    -0.309 OA 
BRANCH   9  11
HETATM   11  C   UNL     1     -11.410  11.846  66.271  1.00  0.00    -0.394 A  
HETATM   12  C   UNL     1     -11.767  12.658  65.185  1.00  0.00    -0.367 A  
HETATM   13  C   UNL     1     -11.237  12.403  63.909  1.00  0.00    -0.487 A  
HETATM   14 CL   UNL     1     -12.826  14.021  65.297  1.00  0.00    -0.481 Cl 
HETATM   15  C   UNL     1     -10.381  11.326  63.678  1.00  0.00    -0.408 A  
HETATM   16  C   UNL     1      -9.976  10.557  64.766  1.00  0.00    -0.412 A  
HETATM   17  N   UNL     1      -9.759  11.167  62.438  1.00  0.00    -0.562 NA 
HETATM   18  H1  UNL     1      -9.133  10.380  62.269  1.00  0.00     0.000 HD 
HETATM   19  C   UNL     1     -10.501  10.795  66.040  1.00  0.00    -0.273 A  
HETATM   20  H2  UNL     1      -9.256  12.027  62.220  1.00  0.00     0.000 HD 
ENDBRANCH   9  11
ENDBRANCH   8   9
ENDBRANCH   7   8
ENDBRANCH   6   7
ENDBRANCH   3   6
ENDBRANCH   2   3
TORSDOF 7
ENDMDL
MODEL      103
REMARK 921   NORMALIZED FREE ENERGY PREDICTED BY IDOCK:   -4.27 KCAL/MOL
REMARK 922        TOTAL FREE ENERGY PREDICTED BY IDOCK:   -6.41 KCAL/MOL
REMARK 923 INTER-LIGAND FREE ENERGY PREDICTED BY IDOCK:   -5.89 KCAL/MOL
REMARK 924 INTRA-LIGAND FREE ENERGY PREDICTED BY IDOCK:   -0.52 KCAL/MOL
REMARK 927      BINDING AFFINITY PREDICTED BY RF-SCORE:    0.00 PKD
ROOT
HETATM    1  C   UNL     1      -8.786   5.624  65.475  1.00  0.00    -0.151 C  
HETATM    2  C   UNL     1      -8.775   6.830  66.405  1.00  0.00    -0.138 C  
ENDROOT
BRANCH   2   3
HETATM    3  N   UNL     1      -9.873   6.868  67.392  1.00  0.00    -0.136 NA 
BRANCH   3   4
HETATM    4  C   UNL     1      -9.462   6.491  68.755  1.00  0.00    -0.128 C  
HETATM    5  C   UNL     1     -10.216   5.327  69.394  1.00  0.00    -0.321 C  
ENDBRANCH   3   4
BRANCH   3   6
HETATM    6  C   UNL     1     -10.515   8.191  67.326  1.00  0.00    -0.309 C  
BRANCH   6   7
HETATM    7  C   UNL     1     -10.529   9.044  68.609  1.00  0.00    -0.200 C  
BRANCH   7   8
HETATM    8  O   UNL     1     -11.199  10.276  68.270  1.00  0.00    -0.276 OA 
BRANCH   8   9
HETATM    9  C   UNL     1     -10.372  11.247  67.796  1.00  0.00    -0.182 C  
HETATM   10  O   UNL     1      -9.224  11.409  68.171  1.00  0.00    -0.164 OA 
BRANCH   9  11
HETATM   11  C   UNL     1     -11.030  11.935  66.641  1.00  0.00    -0.336 A  
HETATM   12  C   UNL     1     -11.780  13.109  66.800  1.00  0.00    -0.385 A  
HETATM   13  C   UNL     1     -12.287  13.780  65.674  1.00  0.00    -0.517 A  
HETATM   14 CL   UNL     1     -12.124  13.845  68.327  1.00  0.00    -0.381 Cl 
HETATM   15  C   UNL     1     -12.094  13.286  64.384  1.00  0.00    -0.415 A  
HETATM   16  C   UNL     1     -11.296  12.157  64.220  1.00  0.00    -0.426 A  
HETATM   17  N   UNL     1     -12.486  14.033  63.271  1.00  0.00    -1.112 NA 
HETATM   18  H1  UNL     1     -12.344  13.673  62.328  1.00  0.00     0.000 HD 
HETATM   19  C   UNL     1     -10.791  11.474  65.331  1.00  0.00    -0.318 A  
HETATM   20  H2  UNL     1     -12.045  14.952  63.331  1.00  0.00     0.000 HD 
ENDBRANCH   9  11
ENDBRANCH   8   9
ENDBRANCH   7   8
ENDBRANCH   6   7
ENDBRANCH   3   6
ENDBRANCH   2   3
TORSDOF 7
ENDMDL
MODEL      104
REMARK 921   NORMALIZED FREE ENERGY PREDICTED BY IDOCK:   -4.26 KCAL/MOL
REMARK 922        TOTAL FREE ENERGY PREDICTED BY IDOCK:   -6.39 KCAL/MOL
REMARK 923 INTER-LIGAND FREE ENERGY PREDICTED BY IDOCK:   -6.00 KCAL/MOL
REMARK 924 INTRA-LIGAND FREE ENERGY PREDICTED BY IDOCK:   -0.39 KCAL/MOL
REMARK 927      BINDING AFFINITY PREDICTED BY RF-SCORE:    0.00 PKD
ROOT
HETATM    1  C   UNL     1     -11.471  14.846  67.639  1.00  0.00    -0.366 C  
HETATM    2  C   UNL     1     -11.764  14.506  66.183  1.00  0.00    -0.350 C  
ENDROOT
BRANCH   2   3
HETATM    3  N   UNL     1     -12.075  13.086  65.924  1.00  0.00    -0.433 NA 
BRANCH   3   4
HETATM    4  C   UNL     1     -11.421  12.542  64.722  1.00  0.00    -0.323 C  
HETATM    5  C   UNL     1     -12.341  12.143  63.571  1.00  0.00    -0.682 C  
ENDBRANCH   3   4
BRANCH   3   6
HETATM    6  C   UNL     1     -11.780  12.313  67.143  1.00  0.00    -0.326 C  
BRANCH   6   7
HETATM    7  C   UNL     1     -10.911  11.051  66.996  1.00  0.00    -0.279 C  
BRANCH   7   8
HETATM    8  O   UNL     1     -11.233  10.203  68.118  1.00  0.00    -0.258 OA 
BRANCH   8   9
HETATM    9  C   UNL     1     -10.201   9.425  68.543  1.00  0.00    -0.199 C  
HETATM   10  O   UNL     1      -9.065   9.501  68.108  1.00  0.00    -0.127 OA 
BRANCH   9  11
HETATM   11  C   UNL     1     -10.643   8.622  69.726  1.00  0.00    -0.224 A  
HETATM   12  C   UNL     1     -10.975   7.264  69.625  1.00  0.00    -0.186 A  
HETATM   13  C   UNL     1     -11.277   6.524  70.781  1.00  0.00    -0.377 A  
HETATM   14 CL   UNL     1     -11.017   6.380  68.139  1.00  0.00    -0.382 Cl 
HETATM   15  C   UNL     1     -11.293   7.118  72.043  1.00  0.00    -0.258 A  
HETATM   16  C   UNL     1     -10.902   8.450  72.152  1.00  0.00    -0.407 A  
HETATM   17  N   UNL     1     -11.463   6.342  73.191  1.00  0.00    -0.461 NA 
HETATM   18  H1  UNL     1     -11.474   6.776  74.113  1.00  0.00     0.000 HD 
HETATM   19  C   UNL     1     -10.605   9.201  71.011  1.00  0.00    -0.362 A  
HETATM   20  H2  UNL     1     -10.751   5.611  73.192  1.00  0.00     0.000 HD 
ENDBRANCH   9  11
ENDBRANCH   8   9
ENDBRANCH   7   8
ENDBRANCH   6   7
ENDBRANCH   3   6
ENDBRANCH   2   3
TORSDOF 7
ENDMDL
MODEL      105
REMARK 921   NORMALIZED FREE ENERGY PREDICTED BY IDOCK:   -4.25 KCAL/MOL
REMARK 922        TOTAL FREE ENERGY PREDICTED BY IDOCK:   -6.39 KCAL/MOL
REMARK 923 INTER-LIGAND FREE ENERGY PREDICTED BY IDOCK:   -5.48 KCAL/MOL
REMARK 924 INTRA-LIGAND FREE ENERGY PREDICTED BY IDOCK:   -0.91 KCAL/MOL
REMARK 927      BINDING AFFINITY PREDICTED BY RF-SCORE:    0.00 PKD
ROOT
HETATM    1  C   UNL     1     -10.754  19.584  65.775  1.00  0.00    -0.490 C  
HETATM    2  C   UNL     1      -9.851  18.656  66.577  1.00  0.00    -0.364 C  
ENDROOT
BRANCH   2   3
HETATM    3  N   UNL     1      -8.640  19.292  67.135  1.00  0.00    -0.281 NA 
BRANCH   3   4
HETATM    4  C   UNL     1      -8.622  19.350  68.606  1.00  0.00    -0.358 C  
HETATM    5  C   UNL     1      -7.259  19.188  69.276  1.00  0.00    -0.283 C  
ENDBRANCH   3   4
BRANCH   3   6
HETATM    6  C   UNL     1      -7.458  18.621  66.568  1.00  0.00    -0.244 C  
BRANCH   6   7
HETATM    7  C   UNL     1      -7.607  17.149  66.139  1.00  0.00    -0.269 C  
BRANCH   7   8
HETATM    8  O   UNL     1      -6.966  16.361  67.163  1.00  0.00    -0.165 OA 
BRANCH   8   9
HETATM    9  C   UNL     1      -7.518  15.131  67.347  1.00  0.00    -0.210 C  
HETATM   10  O   UNL     1      -6.907  14.084  67.225  1.00  0.00    -0.214 OA 
BRANCH   9  11
HETATM   11  C   UNL     1      -8.904  15.288  67.888  1.00  0.00    -0.165 A  
HETATM   12  C   UNL     1     -10.035  14.848  67.186  1.00  0.00    -0.231 A  
HETATM   13  C   UNL     1     -11.306  14.916  67.782  1.00  0.00    -0.341 A  
HETATM   14 CL   UNL     1      -9.990  14.173  65.594  1.00  0.00    -0.344 Cl 
HETATM   15  C   UNL     1     -11.484  15.452  69.057  1.00  0.00    -0.337 A  
HETATM   16  C   UNL     1     -10.356  15.830  69.780  1.00  0.00    -0.307 A  
HETATM   17  N   UNL     1     -12.730  15.389  69.686  1.00  0.00    -0.610 NA 
HETATM   18  H1  UNL     1     -12.860  15.780  70.619  1.00  0.00     0.000 HD 
HETATM   19  C   UNL     1      -9.086  15.775  69.198  1.00  0.00    -0.262 A  
HETATM   20  H2  UNL     1     -13.030  14.414  69.704  1.00  0.00     0.000 HD 
ENDBRANCH   9  11
ENDBRANCH   8   9
ENDBRANCH   7   8
ENDBRANCH   6   7
ENDBRANCH   3   6
ENDBRANCH   2   3
TORSDOF 7
ENDMDL
MODEL      106
REMARK 921   NORMALIZED FREE ENERGY PREDICTED BY IDOCK:   -4.23 KCAL/MOL
REMARK 922        TOTAL FREE ENERGY PREDICTED BY IDOCK:   -6.36 KCAL/MOL
REMARK 923 INTER-LIGAND FREE ENERGY PREDICTED BY IDOCK:   -6.02 KCAL/MOL
REMARK 924 INTRA-LIGAND FREE ENERGY PREDICTED BY IDOCK:   -0.34 KCAL/MOL
REMARK 927      BINDING AFFINITY PREDICTED BY RF-SCORE:    0.00 PKD
ROOT
HETATM    1  C   UNL     1      -7.520   8.376  68.919  1.00  0.00    -0.091 C  
HETATM    2  C   UNL     1      -8.621   8.747  69.905  1.00  0.00    -0.133 C  
ENDROOT
BRANCH   2   3
HETATM    3  N   UNL     1      -9.997   8.592  69.392  1.00  0.00    -0.189 NA 
BRANCH   3   4
HETATM    4  C   UNL     1     -10.949   8.073  70.389  1.00  0.00    -0.248 C  
HETATM    5  C   UNL     1     -11.420   6.634  70.193  1.00  0.00    -0.444 C  
ENDBRANCH   3   4
BRANCH   3   6
HETATM    6  C   UNL     1     -10.421   9.871  68.799  1.00  0.00    -0.213 C  
BRANCH   6   7
HETATM    7  C   UNL     1     -10.813   9.874  67.310  1.00  0.00    -0.199 C  
BRANCH   7   8
HETATM    8  O   UNL     1     -10.563  11.210  66.826  1.00  0.00    -0.241 OA 
BRANCH   8   9
HETATM    9  C   UNL     1     -10.338  11.284  65.487  1.00  0.00    -0.266 C  
HETATM   10  O   UNL     1     -10.079  10.324  64.783  1.00  0.00    -0.344 OA 
BRANCH   9  11
HETATM   11  C   UNL     1     -10.641  12.672  65.012  1.00  0.00    -0.329 A  
HETATM   12  C   UNL     1     -11.742  12.957  64.193  1.00  0.00    -0.406 A  
HETATM   13  C   UNL     1     -12.049  14.289  63.863  1.00  0.00    -0.247 A  
HETATM   14 CL   UNL     1     -12.816  11.761  63.553  1.00  0.00    -0.531 Cl 
HETATM   15  C   UNL     1     -11.256  15.349  64.302  1.00  0.00    -0.056 A  
HETATM   16  C   UNL     1     -10.200  15.072  65.167  1.00  0.00    -0.399 A  
HETATM   17  N   UNL     1     -11.650  16.670  64.079  1.00  0.00    -1.496 NA 
HETATM   18  H1  UNL     1     -11.071  17.445  64.400  1.00  0.00     0.000 HD 
HETATM   19  C   UNL     1      -9.878  13.752  65.498  1.00  0.00    -0.189 A  
HETATM   20  H2  UNL     1     -12.588  16.793  64.461  1.00  0.00     0.000 HD 
ENDBRANCH   9  11
ENDBRANCH   8   9
ENDBRANCH   7   8
ENDBRANCH   6   7
ENDBRANCH   3   6
ENDBRANCH   2   3
TORSDOF 7
ENDMDL
MODEL      107
REMARK 921   NORMALIZED FREE ENERGY PREDICTED BY IDOCK:   -4.23 KCAL/MOL
REMARK 922        TOTAL FREE ENERGY PREDICTED BY IDOCK:   -6.35 KCAL/MOL
REMARK 923 INTER-LIGAND FREE ENERGY PREDICTED BY IDOCK:   -6.09 KCAL/MOL
REMARK 924 INTRA-LIGAND FREE ENERGY PREDICTED BY IDOCK:   -0.26 KCAL/MOL
REMARK 927      BINDING AFFINITY PREDICTED BY RF-SCORE:    0.00 PKD
ROOT
HETATM    1  C   UNL     1     -10.364  19.864  68.329  1.00  0.00    -0.526 C  
HETATM    2  C   UNL     1      -9.846  20.376  66.991  1.00  0.00    -0.453 C  
ENDROOT
BRANCH   2   3
HETATM    3  N   UNL     1      -8.961  19.442  66.265  1.00  0.00    -0.355 NA 
BRANCH   3   4
HETATM    4  C   UNL     1      -7.679  20.037  65.850  1.00  0.00    -0.282 C  
HETATM    5  C   UNL     1      -6.866  20.726  66.942  1.00  0.00    -0.368 C  
ENDBRANCH   3   4
BRANCH   3   6
HETATM    6  C   UNL     1      -8.799  18.226  67.078  1.00  0.00    -0.266 C  
BRANCH   6   7
HETATM    7  C   UNL     1      -8.950  16.866  66.371  1.00  0.00    -0.283 C  
BRANCH   7   8
HETATM    8  O   UNL     1     -10.332  16.481  66.525  1.00  0.00    -0.299 OA 
BRANCH   8   9
HETATM    9  C   UNL     1     -10.515  15.160  66.793  1.00  0.00    -0.283 C  
HETATM   10  O   UNL     1     -10.152  14.257  66.059  1.00  0.00    -0.293 OA 
BRANCH   9  11
HETATM   11  C   UNL     1     -11.050  15.008  68.183  1.00  0.00    -0.296 A  
HETATM   12  C   UNL     1     -11.551  13.789  68.661  1.00  0.00    -0.334 A  
HETATM   13  C   UNL     1     -11.940  13.666  70.006  1.00  0.00    -0.413 A  
HETATM   14 CL   UNL     1     -11.712  12.359  67.701  1.00  0.00    -0.417 Cl 
HETATM   15  C   UNL     1     -11.875  14.746  70.885  1.00  0.00    -0.322 A  
HETATM   16  C   UNL     1     -11.318  15.938  70.429  1.00  0.00    -0.399 A  
HETATM   17  N   UNL     1     -12.136  14.572  72.246  1.00  0.00    -0.207 NA 
HETATM   18  H1  UNL     1     -12.088  15.362  72.888  1.00  0.00     0.000 HD 
HETATM   19  C   UNL     1     -10.933  16.078  69.092  1.00  0.00    -0.297 A  
HETATM   20  H2  UNL     1     -11.523  13.837  72.598  1.00  0.00     0.000 HD 
ENDBRANCH   9  11
ENDBRANCH   8   9
ENDBRANCH   7   8
ENDBRANCH   6   7
ENDBRANCH   3   6
ENDBRANCH   2   3
TORSDOF 7
ENDMDL
MODEL      108
REMARK 921   NORMALIZED FREE ENERGY PREDICTED BY IDOCK:   -4.21 KCAL/MOL
REMARK 922        TOTAL FREE ENERGY PREDICTED BY IDOCK:   -6.33 KCAL/MOL
REMARK 923 INTER-LIGAND FREE ENERGY PREDICTED BY IDOCK:   -5.85 KCAL/MOL
REMARK 924 INTRA-LIGAND FREE ENERGY PREDICTED BY IDOCK:   -0.48 KCAL/MOL
REMARK 927      BINDING AFFINITY PREDICTED BY RF-SCORE:    0.00 PKD
ROOT
HETATM    1  C   UNL     1     -11.267  16.193  68.918  1.00  0.00    -0.351 C  
HETATM    2  C   UNL     1     -10.041  16.762  68.216  1.00  0.00    -0.274 C  
ENDROOT
BRANCH   2   3
HETATM    3  N   UNL     1     -10.214  17.024  66.772  1.00  0.00    -0.292 NA 
BRANCH   3   4
HETATM    4  C   UNL     1      -9.731  18.349  66.346  1.00  0.00    -0.339 C  
HETATM    5  C   UNL     1     -10.797  19.356  65.922  1.00  0.00    -0.401 C  
ENDBRANCH   3   4
BRANCH   3   6
HETATM    6  C   UNL     1      -9.603  15.916  66.020  1.00  0.00    -0.350 C  
BRANCH   6   7
HETATM    7  C   UNL     1     -10.526  14.777  65.548  1.00  0.00    -0.359 C  
BRANCH   7   8
HETATM    8  O   UNL     1     -10.374  13.708  66.505  1.00  0.00    -0.273 OA 
BRANCH   8   9
HETATM    9  C   UNL     1     -11.128  12.608  66.235  1.00  0.00    -0.293 C  
HETATM   10  O   UNL     1     -12.286  12.471  66.589  1.00  0.00    -0.552 OA 
BRANCH   9  11
HETATM   11  C   UNL     1     -10.376  11.711  65.302  1.00  0.00    -0.316 A  
HETATM   12  C   UNL     1     -10.800  11.479  63.986  1.00  0.00    -0.387 A  
HETATM   13  C   UNL     1     -10.004  10.718  63.112  1.00  0.00    -0.341 A  
HETATM   14 CL   UNL     1     -12.266  12.101  63.312  1.00  0.00    -0.589 Cl 
HETATM   15  C   UNL     1      -8.803  10.147  63.533  1.00  0.00    -0.231 A  
HETATM   16  C   UNL     1      -8.350  10.429  64.819  1.00  0.00    -0.157 A  
HETATM   17  N   UNL     1      -7.961   9.509  62.619  1.00  0.00    -0.119 NA 
HETATM   18  H1  UNL     1      -7.083   9.092  62.926  1.00  0.00     0.000 HD 
HETATM   19  C   UNL     1      -9.134  11.178  65.702  1.00  0.00    -0.221 A  
HETATM   20  H2  UNL     1      -7.756  10.163  61.863  1.00  0.00     0.000 HD 
ENDBRANCH   9  11
ENDBRANCH   8   9
ENDBRANCH   7   8
ENDBRANCH   6   7
ENDBRANCH   3   6
ENDBRANCH   2   3
TORSDOF 7
ENDMDL
MODEL      109
REMARK 921   NORMALIZED FREE ENERGY PREDICTED BY IDOCK:   -4.20 KCAL/MOL
REMARK 922        TOTAL FREE ENERGY PREDICTED BY IDOCK:   -6.31 KCAL/MOL
REMARK 923 INTER-LIGAND FREE ENERGY PREDICTED BY IDOCK:   -5.80 KCAL/MOL
REMARK 924 INTRA-LIGAND FREE ENERGY PREDICTED BY IDOCK:   -0.51 KCAL/MOL
REMARK 927      BINDING AFFINITY PREDICTED BY RF-SCORE:    0.00 PKD
ROOT
HETATM    1  C   UNL     1     -10.735   9.424  68.657  1.00  0.00    -0.196 C  
HETATM    2  C   UNL     1     -11.030  10.461  67.581  1.00  0.00    -0.312 C  
ENDROOT
BRANCH   2   3
HETATM    3  N   UNL     1     -11.960  11.534  67.985  1.00  0.00    -0.627 NA 
BRANCH   3   4
HETATM    4  C   UNL     1     -11.783  11.982  69.378  1.00  0.00    -0.340 C  
HETATM    5  C   UNL     1     -12.008  13.467  69.647  1.00  0.00    -0.397 C  
ENDBRANCH   3   4
BRANCH   3   6
HETATM    6  C   UNL     1     -11.861  12.631  67.008  1.00  0.00    -0.345 C  
BRANCH   6   7
HETATM    7  C   UNL     1     -10.919  12.435  65.806  1.00  0.00    -0.298 C  
BRANCH   7   8
HETATM    8  O   UNL     1     -10.343  13.728  65.526  1.00  0.00    -0.297 OA 
BRANCH   8   9
HETATM    9  C   UNL     1      -9.578  14.227  66.534  1.00  0.00    -0.297 C  
HETATM   10  O   UNL     1      -8.668  13.616  67.067  1.00  0.00    -0.220 OA 
BRANCH   9  11
HETATM   11  C   UNL     1      -9.912  15.672  66.738  1.00  0.00    -0.258 A  
HETATM   12  C   UNL     1      -9.689  16.324  67.958  1.00  0.00    -0.230 A  
HETATM   13  C   UNL     1      -9.914  17.707  68.070  1.00  0.00    -0.326 A  
HETATM   14 CL   UNL     1      -9.109  15.543  69.388  1.00  0.00    -0.273 Cl 
HETATM   15  C   UNL     1     -10.396  18.456  66.996  1.00  0.00    -0.393 A  
HETATM   16  C   UNL     1     -10.556  17.822  65.767  1.00  0.00    -0.175 A  
HETATM   17  N   UNL     1     -10.486  19.846  67.084  1.00  0.00    -0.444 NA 
HETATM   18  H1  UNL     1     -10.837  20.394  66.298  1.00  0.00     0.000 HD 
HETATM   19  C   UNL     1     -10.343  16.446  65.642  1.00  0.00    -0.371 A  
HETATM   20  H2  UNL     1      -9.568  20.211  67.341  1.00  0.00     0.000 HD 
ENDBRANCH   9  11
ENDBRANCH   8   9
ENDBRANCH   7   8
ENDBRANCH   6   7
ENDBRANCH   3   6
ENDBRANCH   2   3
TORSDOF 7
ENDMDL
MODEL      110
REMARK 921   NORMALIZED FREE ENERGY PREDICTED BY IDOCK:   -4.20 KCAL/MOL
REMARK 922        TOTAL FREE ENERGY PREDICTED BY IDOCK:   -6.30 KCAL/MOL
REMARK 923 INTER-LIGAND FREE ENERGY PREDICTED BY IDOCK:   -5.80 KCAL/MOL
REMARK 924 INTRA-LIGAND FREE ENERGY PREDICTED BY IDOCK:   -0.51 KCAL/MOL
REMARK 927      BINDING AFFINITY PREDICTED BY RF-SCORE:    0.00 PKD
ROOT
HETATM    1  C   UNL     1     -10.955   6.444  66.974  1.00  0.00    -0.463 C  
HETATM    2  C   UNL     1     -10.638   7.873  67.396  1.00  0.00    -0.272 C  
ENDROOT
BRANCH   2   3
HETATM    3  N   UNL     1      -9.537   8.515  66.650  1.00  0.00    -0.207 NA 
BRANCH   3   4
HETATM    4  C   UNL     1      -9.882   9.837  66.099  1.00  0.00    -0.263 C  
HETATM    5  C   UNL     1     -10.816  10.701  66.942  1.00  0.00    -0.267 C  
ENDBRANCH   3   4
BRANCH   3   6
HETATM    6  C   UNL     1      -8.343   8.542  67.512  1.00  0.00    -0.128 C  
BRANCH   6   7
HETATM    7  C   UNL     1      -8.500   8.063  68.967  1.00  0.00    -0.130 C  
BRANCH   7   8
HETATM    8  O   UNL     1      -8.674   9.250  69.768  1.00  0.00    -0.136 OA 
BRANCH   8   9
HETATM    9  C   UNL     1      -8.757   9.012  71.105  1.00  0.00    -0.203 C  
HETATM   10  O   UNL     1      -7.798   8.996  71.857  1.00  0.00    -0.345 OA 
BRANCH   9  11
HETATM   11  C   UNL     1     -10.198   8.962  71.509  1.00  0.00    -0.398 A  
HETATM   12  C   UNL     1     -10.665   8.092  72.504  1.00  0.00    -0.341 A  
HETATM   13  C   UNL     1     -12.003   8.157  72.927  1.00  0.00    -0.082 A  
HETATM   14 CL   UNL     1      -9.683   6.915  73.307  1.00  0.00    -0.194 Cl 
HETATM   15  C   UNL     1     -12.906   9.052  72.352  1.00  0.00    -0.385 A  
HETATM   16  C   UNL     1     -12.429   9.959  71.410  1.00  0.00    -0.495 A  
HETATM   17  N   UNL     1     -14.192   9.197  72.875  1.00  0.00    -1.090 NA 
HETATM   18  H1  UNL     1     -14.852   9.851  72.454  1.00  0.00     0.000 HD 
HETATM   19  C   UNL     1     -11.101   9.901  70.974  1.00  0.00    -0.401 A  
HETATM   20  H2  UNL     1     -14.111   9.420  73.867  1.00  0.00     0.000 HD 
ENDBRANCH   9  11
ENDBRANCH   8   9
ENDBRANCH   7   8
ENDBRANCH   6   7
ENDBRANCH   3   6
ENDBRANCH   2   3
TORSDOF 7
ENDMDL
MODEL      111
REMARK 921   NORMALIZED FREE ENERGY PREDICTED BY IDOCK:   -4.19 KCAL/MOL
REMARK 922        TOTAL FREE ENERGY PREDICTED BY IDOCK:   -6.30 KCAL/MOL
REMARK 923 INTER-LIGAND FREE ENERGY PREDICTED BY IDOCK:   -6.04 KCAL/MOL
REMARK 924 INTRA-LIGAND FREE ENERGY PREDICTED BY IDOCK:   -0.26 KCAL/MOL
REMARK 927      BINDING AFFINITY PREDICTED BY RF-SCORE:    0.00 PKD
ROOT
HETATM    1  C   UNL     1      -9.012   5.280  71.401  1.00  0.00    -0.156 C  
HETATM    2  C   UNL     1      -9.919   6.420  71.846  1.00  0.00    -0.175 C  
ENDROOT
BRANCH   2   3
HETATM    3  N   UNL     1     -10.441   7.266  70.754  1.00  0.00    -0.211 NA 
BRANCH   3   4
HETATM    4  C   UNL     1     -11.364   6.563  69.846  1.00  0.00    -0.406 C  
HETATM    5  C   UNL     1     -10.889   6.376  68.407  1.00  0.00    -0.383 C  
ENDBRANCH   3   4
BRANCH   3   6
HETATM    6  C   UNL     1     -11.025   8.483  71.344  1.00  0.00    -0.264 C  
BRANCH   6   7
HETATM    7  C   UNL     1     -10.753   9.823  70.635  1.00  0.00    -0.326 C  
BRANCH   7   8
HETATM    8  O   UNL     1     -12.035  10.317  70.196  1.00  0.00    -0.262 OA 
BRANCH   8   9
HETATM    9  C   UNL     1     -11.961  11.310  69.269  1.00  0.00    -0.342 C  
HETATM   10  O   UNL     1     -12.105  11.137  68.071  1.00  0.00    -0.635 OA 
BRANCH   9  11
HETATM   11  C   UNL     1     -11.865  12.631  69.966  1.00  0.00    -0.358 A  
HETATM   12  C   UNL     1     -11.166  13.716  69.418  1.00  0.00    -0.196 A  
HETATM   13  C   UNL     1     -11.195  14.968  70.055  1.00  0.00    -0.301 A  
HETATM   14 CL   UNL     1     -10.256  13.645  67.948  1.00  0.00    -0.244 Cl 
HETATM   15  C   UNL     1     -11.880  15.159  71.255  1.00  0.00    -0.350 A  
HETATM   16  C   UNL     1     -12.627  14.101  71.767  1.00  0.00    -0.400 A  
HETATM   17  N   UNL     1     -12.011  16.437  71.802  1.00  0.00    -0.659 NA 
HETATM   18  H1  UNL     1     -12.512  16.576  72.679  1.00  0.00     0.000 HD 
HETATM   19  C   UNL     1     -12.601  12.847  71.148  1.00  0.00    -0.373 A  
HETATM   20  H2  UNL     1     -12.427  17.046  71.097  1.00  0.00     0.000 HD 
ENDBRANCH   9  11
ENDBRANCH   8   9
ENDBRANCH   7   8
ENDBRANCH   6   7
ENDBRANCH   3   6
ENDBRANCH   2   3
TORSDOF 7
ENDMDL
MODEL      112
REMARK 921   NORMALIZED FREE ENERGY PREDICTED BY IDOCK:   -4.19 KCAL/MOL
REMARK 922        TOTAL FREE ENERGY PREDICTED BY IDOCK:   -6.30 KCAL/MOL
REMARK 923 INTER-LIGAND FREE ENERGY PREDICTED BY IDOCK:   -5.51 KCAL/MOL
REMARK 924 INTRA-LIGAND FREE ENERGY PREDICTED BY IDOCK:   -0.79 KCAL/MOL
REMARK 927      BINDING AFFINITY PREDICTED BY RF-SCORE:    0.00 PKD
ROOT
HETATM    1  C   UNL     1     -10.892   6.215  68.190  1.00  0.00    -0.389 C  
HETATM    2  C   UNL     1      -9.717   5.711  69.018  1.00  0.00    -0.141 C  
ENDROOT
BRANCH   2   3
HETATM    3  N   UNL     1     -10.036   4.611  69.951  1.00  0.00    -0.235 NA 
BRANCH   3   4
HETATM    4  C   UNL     1      -9.398   3.330  69.602  1.00  0.00    -0.166 C  
HETATM    5  C   UNL     1      -9.128   3.088  68.119  1.00  0.00    -0.219 C  
ENDBRANCH   3   4
BRANCH   3   6
HETATM    6  C   UNL     1      -9.729   5.056  71.320  1.00  0.00    -0.173 C  
BRANCH   6   7
HETATM    7  C   UNL     1     -10.882   5.076  72.342  1.00  0.00    -0.169 C  
BRANCH   7   8
HETATM    8  O   UNL     1     -11.680   6.236  72.031  1.00  0.00    -0.308 OA 
BRANCH   8   9
HETATM    9  C   UNL     1     -11.301   7.365  72.689  1.00  0.00    -0.313 C  
HETATM   10  O   UNL     1     -10.839   7.376  73.817  1.00  0.00    -0.321 OA 
BRANCH   9  11
HETATM   11  C   UNL     1     -11.369   8.530  71.752  1.00  0.00    -0.377 A  
HETATM   12  C   UNL     1     -12.466   9.402  71.723  1.00  0.00    -0.391 A  
HETATM   13  C   UNL     1     -12.438  10.545  70.905  1.00  0.00    -0.488 A  
HETATM   14 CL   UNL     1     -13.898   9.196  72.671  1.00  0.00    -0.481 Cl 
HETATM   15  C   UNL     1     -11.349  10.822  70.079  1.00  0.00    -0.319 A  
HETATM   16  C   UNL     1     -10.233   9.992  70.154  1.00  0.00    -0.297 A  
HETATM   17  N   UNL     1     -11.279  12.027  69.376  1.00  0.00    -0.399 NA 
HETATM   18  H1  UNL     1     -10.482  12.230  68.773  1.00  0.00     0.000 HD 
HETATM   19  C   UNL     1     -10.249   8.848  70.957  1.00  0.00    -0.322 A  
HETATM   20  H2  UNL     1     -11.377  12.792  70.043  1.00  0.00     0.000 HD 
ENDBRANCH   9  11
ENDBRANCH   8   9
ENDBRANCH   7   8
ENDBRANCH   6   7
ENDBRANCH   3   6
ENDBRANCH   2   3
TORSDOF 7
ENDMDL
MODEL      113
REMARK 921   NORMALIZED FREE ENERGY PREDICTED BY IDOCK:   -4.19 KCAL/MOL
REMARK 922        TOTAL FREE ENERGY PREDICTED BY IDOCK:   -6.29 KCAL/MOL
REMARK 923 INTER-LIGAND FREE ENERGY PREDICTED BY IDOCK:   -5.83 KCAL/MOL
REMARK 924 INTRA-LIGAND FREE ENERGY PREDICTED BY IDOCK:   -0.46 KCAL/MOL
REMARK 927      BINDING AFFINITY PREDICTED BY RF-SCORE:    0.00 PKD
ROOT
HETATM    1  C   UNL     1     -10.299  19.741  68.030  1.00  0.00    -0.567 C  
HETATM    2  C   UNL     1      -9.661  20.057  66.683  1.00  0.00    -0.442 C  
ENDROOT
BRANCH   2   3
HETATM    3  N   UNL     1      -8.986  18.917  66.030  1.00  0.00    -0.464 NA 
BRANCH   3   4
HETATM    4  C   UNL     1      -7.519  18.941  66.160  1.00  0.00    -0.266 C  
HETATM    5  C   UNL     1      -6.769  19.880  65.218  1.00  0.00    -0.330 C  
ENDBRANCH   3   4
BRANCH   3   6
HETATM    6  C   UNL     1      -9.590  17.670  66.525  1.00  0.00    -0.292 C  
BRANCH   6   7
HETATM    7  C   UNL     1     -10.416  16.831  65.532  1.00  0.00    -0.237 C  
BRANCH   7   8
HETATM    8  O   UNL     1     -11.030  15.777  66.303  1.00  0.00    -0.277 OA 
BRANCH   8   9
HETATM    9  C   UNL     1     -11.033  14.565  65.685  1.00  0.00    -0.323 C  
HETATM   10  O   UNL     1     -11.071  14.414  64.477  1.00  0.00    -0.362 OA 
BRANCH   9  11
HETATM   11  C   UNL     1     -10.796  13.492  66.703  1.00  0.00    -0.283 A  
HETATM   12  C   UNL     1      -9.575  13.358  67.377  1.00  0.00    -0.223 A  
HETATM   13  C   UNL     1      -9.436  12.407  68.402  1.00  0.00    -0.169 A  
HETATM   14 CL   UNL     1      -8.176  14.325  67.058  1.00  0.00    -0.172 Cl 
HETATM   15  C   UNL     1     -10.482  11.553  68.750  1.00  0.00    -0.204 A  
HETATM   16  C   UNL     1     -11.715  11.728  68.126  1.00  0.00    -0.377 A  
HETATM   17  N   UNL     1     -10.372  10.709  69.856  1.00  0.00    -0.444 NA 
HETATM   18  H1  UNL     1     -11.137  10.085  70.111  1.00  0.00     0.000 HD 
HETATM   19  C   UNL     1     -11.866  12.665  67.099  1.00  0.00    -0.399 A  
HETATM   20  H2  UNL     1     -10.140  11.278  70.671  1.00  0.00     0.000 HD 
ENDBRANCH   9  11
ENDBRANCH   8   9
ENDBRANCH   7   8
ENDBRANCH   6   7
ENDBRANCH   3   6
ENDBRANCH   2   3
TORSDOF 7
ENDMDL
MODEL      114
REMARK 921   NORMALIZED FREE ENERGY PREDICTED BY IDOCK:   -4.18 KCAL/MOL
REMARK 922        TOTAL FREE ENERGY PREDICTED BY IDOCK:   -6.28 KCAL/MOL
REMARK 923 INTER-LIGAND FREE ENERGY PREDICTED BY IDOCK:   -5.99 KCAL/MOL
REMARK 924 INTRA-LIGAND FREE ENERGY PREDICTED BY IDOCK:   -0.29 KCAL/MOL
REMARK 927      BINDING AFFINITY PREDICTED BY RF-SCORE:    0.00 PKD
ROOT
HETATM    1  C   UNL     1      -6.362  16.224  68.849  1.00  0.00    -0.139 C  
HETATM    2  C   UNL     1      -6.984  17.382  68.079  1.00  0.00    -0.186 C  
ENDROOT
BRANCH   2   3
HETATM    3  N   UNL     1      -7.645  18.404  68.915  1.00  0.00    -0.266 NA 
BRANCH   3   4
HETATM    4  C   UNL     1      -6.831  19.613  69.131  1.00  0.00    -0.348 C  
HETATM    5  C   UNL     1      -6.040  20.123  67.928  1.00  0.00    -0.258 C  
ENDBRANCH   3   4
BRANCH   3   6
HETATM    6  C   UNL     1      -8.969  18.693  68.341  1.00  0.00    -0.328 C  
BRANCH   6   7
HETATM    7  C   UNL     1      -9.294  18.100  66.957  1.00  0.00    -0.270 C  
BRANCH   7   8
HETATM    8  O   UNL     1     -10.518  17.352  67.113  1.00  0.00    -0.332 OA 
BRANCH   8   9
HETATM    9  C   UNL     1     -10.791  16.511  66.080  1.00  0.00    -0.069 C  
HETATM   10  O   UNL     1     -10.563  16.768  64.910  1.00  0.00    -0.702 OA 
BRANCH   9  11
HETATM   11  C   UNL     1     -11.230  15.187  66.624  1.00  0.00    -0.274 A  
HETATM   12  C   UNL     1     -11.850  14.218  65.823  1.00  0.00    -0.374 A  
HETATM   13  C   UNL     1     -12.144  12.949  66.351  1.00  0.00    -0.400 A  
HETATM   14 CL   UNL     1     -12.275  14.455  64.163  1.00  0.00    -0.473 Cl 
HETATM   15  C   UNL     1     -11.867  12.631  67.680  1.00  0.00    -0.329 A  
HETATM   16  C   UNL     1     -11.193  13.569  68.458  1.00  0.00    -0.310 A  
HETATM   17  N   UNL     1     -12.040  11.328  68.150  1.00  0.00    -0.667 NA 
HETATM   18  H1  UNL     1     -11.837  11.095  69.121  1.00  0.00     0.000 HD 
HETATM   19  C   UNL     1     -10.901  14.838  67.949  1.00  0.00    -0.269 A  
HETATM   20  H2  UNL     1     -11.504  10.698  67.552  1.00  0.00     0.000 HD 
ENDBRANCH   9  11
ENDBRANCH   8   9
ENDBRANCH   7   8
ENDBRANCH   6   7
ENDBRANCH   3   6
ENDBRANCH   2   3
TORSDOF 7
ENDMDL
MODEL      115
REMARK 921   NORMALIZED FREE ENERGY PREDICTED BY IDOCK:   -4.18 KCAL/MOL
REMARK 922        TOTAL FREE ENERGY PREDICTED BY IDOCK:   -6.28 KCAL/MOL
REMARK 923 INTER-LIGAND FREE ENERGY PREDICTED BY IDOCK:   -5.91 KCAL/MOL
REMARK 924 INTRA-LIGAND FREE ENERGY PREDICTED BY IDOCK:   -0.37 KCAL/MOL
REMARK 927      BINDING AFFINITY PREDICTED BY RF-SCORE:    0.00 PKD
ROOT
HETATM    1  C   UNL     1     -10.877  19.525  66.896  1.00  0.00    -0.523 C  
HETATM    2  C   UNL     1     -10.320  18.730  68.071  1.00  0.00    -0.387 C  
ENDROOT
BRANCH   2   3
HETATM    3  N   UNL     1      -9.295  17.727  67.716  1.00  0.00    -0.254 NA 
BRANCH   3   4
HETATM    4  C   UNL     1      -7.931  18.098  68.129  1.00  0.00    -0.283 C  
HETATM    5  C   UNL     1      -6.977  16.946  68.433  1.00  0.00    -0.173 C  
ENDBRANCH   3   4
BRANCH   3   6
HETATM    6  C   UNL     1      -9.723  16.419  68.238  1.00  0.00    -0.224 C  
BRANCH   6   7
HETATM    7  C   UNL     1     -10.910  15.725  67.546  1.00  0.00    -0.315 C  
BRANCH   7   8
HETATM    8  O   UNL     1     -10.522  14.348  67.359  1.00  0.00    -0.258 OA 
BRANCH   8   9
HETATM    9  C   UNL     1     -11.477  13.575  66.773  1.00  0.00    -0.346 C  
HETATM   10  O   UNL     1     -12.477  14.017  66.235  1.00  0.00    -0.465 OA 
BRANCH   9  11
HETATM   11  C   UNL     1     -11.009  12.153  66.738  1.00  0.00    -0.325 A  
HETATM   12  C   UNL     1     -11.236  11.266  67.798  1.00  0.00    -0.291 A  
HETATM   13  C   UNL     1     -10.876   9.913  67.675  1.00  0.00    -0.318 A  
HETATM   14 CL   UNL     1     -11.979  11.709  69.296  1.00  0.00    -0.385 Cl 
HETATM   15  C   UNL     1     -10.256   9.426  66.525  1.00  0.00    -0.238 A  
HETATM   16  C   UNL     1     -10.087  10.292  65.447  1.00  0.00    -0.354 A  
HETATM   17  N   UNL     1     -10.028   8.058  66.366  1.00  0.00    -0.449 NA 
HETATM   18  H1  UNL     1      -9.575   7.702  65.524  1.00  0.00     0.000 HD 
HETATM   19  C   UNL     1     -10.434  11.642  65.557  1.00  0.00    -0.321 A  
HETATM   20  H2  UNL     1     -10.917   7.570  66.479  1.00  0.00     0.000 HD 
ENDBRANCH   9  11
ENDBRANCH   8   9
ENDBRANCH   7   8
ENDBRANCH   6   7
ENDBRANCH   3   6
ENDBRANCH   2   3
TORSDOF 7
ENDMDL
MODEL      116
REMARK 921   NORMALIZED FREE ENERGY PREDICTED BY IDOCK:   -4.17 KCAL/MOL
REMARK 922        TOTAL FREE ENERGY PREDICTED BY IDOCK:   -6.27 KCAL/MOL
REMARK 923 INTER-LIGAND FREE ENERGY PREDICTED BY IDOCK:   -5.81 KCAL/MOL
REMARK 924 INTRA-LIGAND FREE ENERGY PREDICTED BY IDOCK:   -0.46 KCAL/MOL
REMARK 927      BINDING AFFINITY PREDICTED BY RF-SCORE:    0.00 PKD
ROOT
HETATM    1  C   UNL     1     -10.623   8.791  67.056  1.00  0.00    -0.283 C  
HETATM    2  C   UNL     1      -9.974   8.623  68.425  1.00  0.00    -0.184 C  
ENDROOT
BRANCH   2   3
HETATM    3  N   UNL     1     -10.918   8.428  69.544  1.00  0.00    -0.113 NA 
BRANCH   3   4
HETATM    4  C   UNL     1     -10.859   7.086  70.147  1.00  0.00    -0.256 C  
HETATM    5  C   UNL     1     -12.005   6.711  71.083  1.00  0.00    -0.412 C  
ENDBRANCH   3   4
BRANCH   3   6
HETATM    6  C   UNL     1     -10.714   9.511  70.520  1.00  0.00    -0.298 C  
BRANCH   6   7
HETATM    7  C   UNL     1     -11.725  10.673  70.523  1.00  0.00    -0.356 C  
BRANCH   7   8
HETATM    8  O   UNL     1     -11.167  11.698  69.676  1.00  0.00    -0.242 OA 
BRANCH   8   9
HETATM    9  C   UNL     1     -11.959  12.795  69.534  1.00  0.00    -0.276 C  
HETATM   10  O   UNL     1     -12.520  13.357  70.459  1.00  0.00    -0.323 OA 
BRANCH   9  11
HETATM   11  C   UNL     1     -11.873  13.288  68.123  1.00  0.00    -0.388 A  
HETATM   12  C   UNL     1     -11.640  14.635  67.815  1.00  0.00    -0.359 A  
HETATM   13  C   UNL     1     -11.457  15.033  66.480  1.00  0.00    -0.239 A  
HETATM   14 CL   UNL     1     -11.527  15.897  68.993  1.00  0.00    -0.365 Cl 
HETATM   15  C   UNL     1     -11.538  14.117  65.430  1.00  0.00    -0.334 A  
HETATM   16  C   UNL     1     -11.705  12.770  65.739  1.00  0.00    -0.449 A  
HETATM   17  N   UNL     1     -11.221  14.503  64.126  1.00  0.00    -0.571 NA 
HETATM   18  H1  UNL     1     -11.280  13.833  63.359  1.00  0.00     0.000 HD 
HETATM   19  C   UNL     1     -11.896  12.361  67.062  1.00  0.00    -0.368 A  
HETATM   20  H2  UNL     1     -10.283  14.902  64.130  1.00  0.00     0.000 HD 
ENDBRANCH   9  11
ENDBRANCH   8   9
ENDBRANCH   7   8
ENDBRANCH   6   7
ENDBRANCH   3   6
ENDBRANCH   2   3
TORSDOF 7
ENDMDL
MODEL      117
REMARK 921   NORMALIZED FREE ENERGY PREDICTED BY IDOCK:   -4.17 KCAL/MOL
REMARK 922        TOTAL FREE ENERGY PREDICTED BY IDOCK:   -6.27 KCAL/MOL
REMARK 923 INTER-LIGAND FREE ENERGY PREDICTED BY IDOCK:   -6.18 KCAL/MOL
REMARK 924 INTRA-LIGAND FREE ENERGY PREDICTED BY IDOCK:   -0.09 KCAL/MOL
REMARK 927      BINDING AFFINITY PREDICTED BY RF-SCORE:    0.00 PKD
ROOT
HETATM    1  C   UNL     1     -12.216   8.346  71.395  1.00  0.00    -0.335 C  
HETATM    2  C   UNL     1     -11.123   8.416  70.336  1.00  0.00    -0.231 C  
ENDROOT
BRANCH   2   3
HETATM    3  N   UNL     1     -10.071   9.421  70.590  1.00  0.00    -0.271 NA 
BRANCH   3   4
HETATM    4  C   UNL     1      -8.822   8.853  71.125  1.00  0.00    -0.237 C  
HETATM    5  C   UNL     1      -8.958   7.943  72.343  1.00  0.00    -0.219 C  
ENDBRANCH   3   4
BRANCH   3   6
HETATM    6  C   UNL     1      -9.870  10.206  69.361  1.00  0.00    -0.229 C  
BRANCH   6   7
HETATM    7  C   UNL     1     -10.934  10.090  68.254  1.00  0.00    -0.227 C  
BRANCH   7   8
HETATM    8  O   UNL     1     -11.987  11.012  68.605  1.00  0.00    -0.496 OA 
BRANCH   8   9
HETATM    9  C   UNL     1     -11.958  12.180  67.908  1.00  0.00    -0.148 C  
HETATM   10  O   UNL     1     -12.138  12.263  66.706  1.00  0.00    -0.593 OA 
BRANCH   9  11
HETATM   11  C   UNL     1     -11.861  13.325  68.868  1.00  0.00    -0.367 A  
HETATM   12  C   UNL     1     -11.584  14.632  68.445  1.00  0.00    -0.323 A  
HETATM   13  C   UNL     1     -11.611  15.693  69.367  1.00  0.00    -0.378 A  
HETATM   14 CL   UNL     1     -11.226  15.071  66.810  1.00  0.00    -0.339 Cl 
HETATM   15  C   UNL     1     -11.873  15.475  70.719  1.00  0.00    -0.367 A  
HETATM   16  C   UNL     1     -12.210  14.188  71.130  1.00  0.00    -0.435 A  
HETATM   17  N   UNL     1     -12.029  16.551  71.595  1.00  0.00    -0.608 NA 
HETATM   18  H1  UNL     1     -12.221  16.392  72.584  1.00  0.00     0.000 HD 
HETATM   19  C   UNL     1     -12.180  13.122  70.225  1.00  0.00    -0.376 A  
HETATM   20  H2  UNL     1     -12.756  17.163  71.224  1.00  0.00     0.000 HD 
ENDBRANCH   9  11
ENDBRANCH   8   9
ENDBRANCH   7   8
ENDBRANCH   6   7
ENDBRANCH   3   6
ENDBRANCH   2   3
TORSDOF 7
ENDMDL
MODEL      118
REMARK 921   NORMALIZED FREE ENERGY PREDICTED BY IDOCK:   -4.16 KCAL/MOL
REMARK 922        TOTAL FREE ENERGY PREDICTED BY IDOCK:   -6.26 KCAL/MOL
REMARK 923 INTER-LIGAND FREE ENERGY PREDICTED BY IDOCK:   -5.78 KCAL/MOL
REMARK 924 INTRA-LIGAND FREE ENERGY PREDICTED BY IDOCK:   -0.48 KCAL/MOL
REMARK 927      BINDING AFFINITY PREDICTED BY RF-SCORE:    0.00 PKD
ROOT
HETATM    1  C   UNL     1     -12.300  14.073  65.754  1.00  0.00    -0.506 C  
HETATM    2  C   UNL     1     -11.296  14.555  66.793  1.00  0.00    -0.352 C  
ENDROOT
BRANCH   2   3
HETATM    3  N   UNL     1     -11.301  13.801  68.063  1.00  0.00    -0.272 NA 
BRANCH   3   4
HETATM    4  C   UNL     1     -11.806  14.572  69.212  1.00  0.00    -0.323 C  
HETATM    5  C   UNL     1     -12.607  13.794  70.253  1.00  0.00    -0.288 C  
ENDBRANCH   3   4
BRANCH   3   6
HETATM    6  C   UNL     1     -12.025  12.536  67.852  1.00  0.00    -0.223 C  
BRANCH   6   7
HETATM    7  C   UNL     1     -11.215  11.228  67.924  1.00  0.00    -0.290 C  
BRANCH   7   8
HETATM    8  O   UNL     1     -11.242  10.809  69.304  1.00  0.00    -0.230 OA 
BRANCH   8   9
HETATM    9  C   UNL     1     -10.231   9.966  69.649  1.00  0.00    -0.237 C  
HETATM   10  O   UNL     1      -9.050  10.206  69.470  1.00  0.00    -0.199 OA 
BRANCH   9  11
HETATM   11  C   UNL     1     -10.791   8.818  70.431  1.00  0.00    -0.256 A  
HETATM   12  C   UNL     1     -10.876   7.524  69.899  1.00  0.00    -0.240 A  
HETATM   13  C   UNL     1     -11.306   6.457  70.707  1.00  0.00    -0.411 A  
HETATM   14 CL   UNL     1     -10.451   7.109  68.275  1.00  0.00    -0.225 Cl 
HETATM   15  C   UNL     1     -11.692   6.656  72.032  1.00  0.00    -0.313 A  
HETATM   16  C   UNL     1     -11.547   7.928  72.580  1.00  0.00    -0.443 A  
HETATM   17  N   UNL     1     -11.986   5.569  72.857  1.00  0.00    -0.530 NA 
HETATM   18  H1  UNL     1     -12.268   5.714  73.826  1.00  0.00     0.000 HD 
HETATM   19  C   UNL     1     -11.128   9.001  71.787  1.00  0.00    -0.444 A  
HETATM   20  H2  UNL     1     -11.186   4.935  72.850  1.00  0.00     0.000 HD 
ENDBRANCH   9  11
ENDBRANCH   8   9
ENDBRANCH   7   8
ENDBRANCH   6   7
ENDBRANCH   3   6
ENDBRANCH   2   3
TORSDOF 7
ENDMDL
MODEL      119
REMARK 921   NORMALIZED FREE ENERGY PREDICTED BY IDOCK:   -4.16 KCAL/MOL
REMARK 922        TOTAL FREE ENERGY PREDICTED BY IDOCK:   -6.25 KCAL/MOL
REMARK 923 INTER-LIGAND FREE ENERGY PREDICTED BY IDOCK:   -5.85 KCAL/MOL
REMARK 924 INTRA-LIGAND FREE ENERGY PREDICTED BY IDOCK:   -0.41 KCAL/MOL
REMARK 927      BINDING AFFINITY PREDICTED BY RF-SCORE:    0.00 PKD
ROOT
HETATM    1  C   UNL     1      -9.224  10.877  62.911  1.00  0.00    -0.348 C  
HETATM    2  C   UNL     1      -9.889  10.837  64.281  1.00  0.00    -0.326 C  
ENDROOT
BRANCH   2   3
HETATM    3  N   UNL     1     -10.441  12.126  64.745  1.00  0.00    -0.283 NA 
BRANCH   3   4
HETATM    4  C   UNL     1     -11.308  12.792  63.758  1.00  0.00    -0.461 C  
HETATM    5  C   UNL     1     -12.571  12.039  63.345  1.00  0.00    -0.592 C  
ENDBRANCH   3   4
BRANCH   3   6
HETATM    6  C   UNL     1     -11.101  11.911  66.043  1.00  0.00    -0.322 C  
BRANCH   6   7
HETATM    7  C   UNL     1     -11.704  13.138  66.751  1.00  0.00    -0.385 C  
BRANCH   7   8
HETATM    8  O   UNL     1     -10.928  13.337  67.951  1.00  0.00    -0.238 OA 
BRANCH   8   9
HETATM    9  C   UNL     1      -9.762  14.009  67.754  1.00  0.00    -0.228 C  
HETATM   10  O   UNL     1      -8.665  13.479  67.727  1.00  0.00    -0.165 OA 
BRANCH   9  11
HETATM   11  C   UNL     1     -10.065  15.432  67.400  1.00  0.00    -0.233 A  
HETATM   12  C   UNL     1     -10.484  16.366  68.357  1.00  0.00    -0.298 A  
HETATM   13  C   UNL     1     -10.651  17.715  68.000  1.00  0.00    -0.379 A  
HETATM   14 CL   UNL     1     -10.800  15.986  70.015  1.00  0.00    -0.335 Cl 
HETATM   15  C   UNL     1     -10.443  18.153  66.693  1.00  0.00    -0.339 A  
HETATM   16  C   UNL     1      -9.965  17.240  65.757  1.00  0.00    -0.105 A  
HETATM   17  N   UNL     1     -10.481  19.515  66.385  1.00  0.00    -0.468 NA 
HETATM   18  H1  UNL     1     -10.328  19.835  65.429  1.00  0.00     0.000 HD 
HETATM   19  C   UNL     1      -9.802  15.893  66.095  1.00  0.00    -0.343 A  
HETATM   20  H2  UNL     1      -9.819  19.998  66.993  1.00  0.00     0.000 HD 
ENDBRANCH   9  11
ENDBRANCH   8   9
ENDBRANCH   7   8
ENDBRANCH   6   7
ENDBRANCH   3   6
ENDBRANCH   2   3
TORSDOF 7
ENDMDL
MODEL      120
REMARK 921   NORMALIZED FREE ENERGY PREDICTED BY IDOCK:   -4.14 KCAL/MOL
REMARK 922        TOTAL FREE ENERGY PREDICTED BY IDOCK:   -6.23 KCAL/MOL
REMARK 923 INTER-LIGAND FREE ENERGY PREDICTED BY IDOCK:   -5.54 KCAL/MOL
REMARK 924 INTRA-LIGAND FREE ENERGY PREDICTED BY IDOCK:   -0.69 KCAL/MOL
REMARK 927      BINDING AFFINITY PREDICTED BY RF-SCORE:    0.00 PKD
ROOT
HETATM    1  C   UNL     1     -13.072  10.248  71.724  1.00  0.00    -0.570 C  
HETATM    2  C   UNL     1     -11.925   9.892  70.786  1.00  0.00    -0.323 C  
ENDROOT
BRANCH   2   3
HETATM    3  N   UNL     1     -10.978   8.888  71.311  1.00  0.00    -0.267 NA 
BRANCH   3   4
HETATM    4  C   UNL     1     -11.553   8.011  72.346  1.00  0.00    -0.390 C  
HETATM    5  C   UNL     1     -11.915   6.593  71.910  1.00  0.00    -0.386 C  
ENDBRANCH   3   4
BRANCH   3   6
HETATM    6  C   UNL     1     -10.408   8.145  70.175  1.00  0.00    -0.215 C  
BRANCH   6   7
HETATM    7  C   UNL     1     -10.668   8.693  68.759  1.00  0.00    -0.064 C  
BRANCH   7   8
HETATM    8  O   UNL     1      -9.401   9.183  68.274  1.00  0.00    -0.135 OA 
BRANCH   8   9
HETATM    9  C   UNL     1      -9.377  10.522  68.034  1.00  0.00    -0.145 C  
HETATM   10  O   UNL     1      -8.786  11.330  68.730  1.00  0.00    -0.160 OA 
BRANCH   9  11
HETATM   11  C   UNL     1     -10.020  10.798  66.711  1.00  0.00    -0.249 A  
HETATM   12  C   UNL     1     -11.110  11.669  66.577  1.00  0.00    -0.301 A  
HETATM   13  C   UNL     1     -11.610  11.983  65.302  1.00  0.00    -0.337 A  
HETATM   14 CL   UNL     1     -11.905  12.443  67.904  1.00  0.00    -0.408 Cl 
HETATM   15  C   UNL     1     -11.069  11.416  64.148  1.00  0.00    -0.308 A  
HETATM   16  C   UNL     1      -9.947  10.602  64.274  1.00  0.00    -0.413 A  
HETATM   17  N   UNL     1     -11.488  11.840  62.885  1.00  0.00    -0.590 NA 
HETATM   18  H1  UNL     1     -11.092  11.426  62.042  1.00  0.00     0.000 HD 
HETATM   19  C   UNL     1      -9.442  10.275  65.537  1.00  0.00    -0.277 A  
HETATM   20  H2  UNL     1     -11.367  12.852  62.831  1.00  0.00     0.000 HD 
ENDBRANCH   9  11
ENDBRANCH   8   9
ENDBRANCH   7   8
ENDBRANCH   6   7
ENDBRANCH   3   6
ENDBRANCH   2   3
TORSDOF 7
ENDMDL
MODEL      121
REMARK 921   NORMALIZED FREE ENERGY PREDICTED BY IDOCK:   -4.14 KCAL/MOL
REMARK 922        TOTAL FREE ENERGY PREDICTED BY IDOCK:   -6.23 KCAL/MOL
REMARK 923 INTER-LIGAND FREE ENERGY PREDICTED BY IDOCK:   -5.67 KCAL/MOL
REMARK 924 INTRA-LIGAND FREE ENERGY PREDICTED BY IDOCK:   -0.56 KCAL/MOL
REMARK 927      BINDING AFFINITY PREDICTED BY RF-SCORE:    0.00 PKD
ROOT
HETATM    1  C   UNL     1     -10.957   6.714  67.770  1.00  0.00    -0.367 C  
HETATM    2  C   UNL     1     -10.064   7.165  68.919  1.00  0.00    -0.177 C  
ENDROOT
BRANCH   2   3
HETATM    3  N   UNL     1     -10.564   6.829  70.268  1.00  0.00    -0.207 NA 
BRANCH   3   4
HETATM    4  C   UNL     1     -10.454   5.399  70.604  1.00  0.00    -0.259 C  
HETATM    5  C   UNL     1     -10.365   5.055  72.088  1.00  0.00    -0.276 C  
ENDBRANCH   3   4
BRANCH   3   6
HETATM    6  C   UNL     1      -9.899   7.706  71.245  1.00  0.00    -0.171 C  
BRANCH   6   7
HETATM    7  C   UNL     1     -10.760   8.763  71.960  1.00  0.00    -0.347 C  
BRANCH   7   8
HETATM    8  O   UNL     1     -10.782   9.920  71.099  1.00  0.00    -0.283 OA 
BRANCH   8   9
HETATM    9  C   UNL     1     -12.028  10.411  70.858  1.00  0.00    -0.377 C  
HETATM   10  O   UNL     1     -12.986  10.230  71.588  1.00  0.00    -0.394 OA 
BRANCH   9  11
HETATM   11  C   UNL     1     -11.975  11.336  69.682  1.00  0.00    -0.423 A  
HETATM   12  C   UNL     1     -12.108  12.725  69.819  1.00  0.00    -0.237 A  
HETATM   13  C   UNL     1     -11.942  13.563  68.702  1.00  0.00    -0.378 A  
HETATM   14 CL   UNL     1     -12.444  13.528  71.313  1.00  0.00    -0.420 Cl 
HETATM   15  C   UNL     1     -11.681  13.043  67.435  1.00  0.00    -0.374 A  
HETATM   16  C   UNL     1     -11.486  11.670  67.309  1.00  0.00    -0.350 A  
HETATM   17  N   UNL     1     -11.386  13.891  66.366  1.00  0.00    -0.319 NA 
HETATM   18  H1  UNL     1     -11.195  13.511  65.439  1.00  0.00     0.000 HD 
HETATM   19  C   UNL     1     -11.655  10.823  68.409  1.00  0.00    -0.311 A  
HETATM   20  H2  UNL     1     -10.601  14.484  66.635  1.00  0.00     0.000 HD 
ENDBRANCH   9  11
ENDBRANCH   8   9
ENDBRANCH   7   8
ENDBRANCH   6   7
ENDBRANCH   3   6
ENDBRANCH   2   3
TORSDOF 7
ENDMDL
MODEL      122
REMARK 921   NORMALIZED FREE ENERGY PREDICTED BY IDOCK:   -4.13 KCAL/MOL
REMARK 922        TOTAL FREE ENERGY PREDICTED BY IDOCK:   -6.21 KCAL/MOL
REMARK 923 INTER-LIGAND FREE ENERGY PREDICTED BY IDOCK:   -6.10 KCAL/MOL
REMARK 924 INTRA-LIGAND FREE ENERGY PREDICTED BY IDOCK:   -0.10 KCAL/MOL
REMARK 927      BINDING AFFINITY PREDICTED BY RF-SCORE:    0.00 PKD
ROOT
HETATM    1  C   UNL     1      -7.896  19.758  68.484  1.00  0.00    -0.310 C  
HETATM    2  C   UNL     1      -8.993  18.790  68.907  1.00  0.00    -0.204 C  
ENDROOT
BRANCH   2   3
HETATM    3  N   UNL     1     -10.263  18.921  68.164  1.00  0.00    -0.383 NA 
BRANCH   3   4
HETATM    4  C   UNL     1     -10.237  19.961  67.121  1.00  0.00    -0.443 C  
HETATM    5  C   UNL     1     -10.775  19.560  65.750  1.00  0.00    -0.490 C  
ENDBRANCH   3   4
BRANCH   3   6
HETATM    6  C   UNL     1     -10.643  17.595  67.650  1.00  0.00    -0.362 C  
BRANCH   6   7
HETATM    7  C   UNL     1     -11.117  16.542  68.669  1.00  0.00    -0.329 C  
BRANCH   7   8
HETATM    8  O   UNL     1     -11.494  15.378  67.904  1.00  0.00    -0.335 OA 
BRANCH   8   9
HETATM    9  C   UNL     1     -11.755  14.276  68.658  1.00  0.00    -0.345 C  
HETATM   10  O   UNL     1     -12.333  14.304  69.730  1.00  0.00    -0.328 OA 
BRANCH   9  11
HETATM   11  C   UNL     1     -11.390  13.049  67.882  1.00  0.00    -0.327 A  
HETATM   12  C   UNL     1     -11.749  12.881  66.538  1.00  0.00    -0.393 A  
HETATM   13  C   UNL     1     -11.290  11.763  65.820  1.00  0.00    -0.309 A  
HETATM   14 CL   UNL     1     -12.727  13.994  65.646  1.00  0.00    -0.555 Cl 
HETATM   15  C   UNL     1     -10.505  10.782  66.424  1.00  0.00    -0.233 A  
HETATM   16  C   UNL     1     -10.094  10.979  67.740  1.00  0.00    -0.201 A  
HETATM   17  N   UNL     1      -9.947   9.751  65.664  1.00  0.00    -0.305 NA 
HETATM   18  H1  UNL     1      -9.373   9.034  66.106  1.00  0.00     0.000 HD 
HETATM   19  C   UNL     1     -10.549  12.082  68.469  1.00  0.00    -0.252 A  
HETATM   20  H2  UNL     1      -9.408  10.169  64.905  1.00  0.00     0.000 HD 
ENDBRANCH   9  11
ENDBRANCH   8   9
ENDBRANCH   7   8
ENDBRANCH   6   7
ENDBRANCH   3   6
ENDBRANCH   2   3
TORSDOF 7
ENDMDL
MODEL      123
REMARK 921   NORMALIZED FREE ENERGY PREDICTED BY IDOCK:   -4.12 KCAL/MOL
REMARK 922        TOTAL FREE ENERGY PREDICTED BY IDOCK:   -6.20 KCAL/MOL
REMARK 923 INTER-LIGAND FREE ENERGY PREDICTED BY IDOCK:   -5.52 KCAL/MOL
REMARK 924 INTRA-LIGAND FREE ENERGY PREDICTED BY IDOCK:   -0.69 KCAL/MOL
REMARK 927      BINDING AFFINITY PREDICTED BY RF-SCORE:    0.00 PKD
ROOT
HETATM    1  C   UNL     1     -10.361  11.777  63.497  1.00  0.00    -0.490 C  
HETATM    2  C   UNL     1     -11.532  12.716  63.760  1.00  0.00    -0.470 C  
ENDROOT
BRANCH   2   3
HETATM    3  N   UNL     1     -12.166  12.569  65.086  1.00  0.00    -0.494 NA 
BRANCH   3   4
HETATM    4  C   UNL     1     -11.468  11.627  65.978  1.00  0.00    -0.125 C  
HETATM    5  C   UNL     1     -11.592  11.892  67.476  1.00  0.00    -0.374 C  
ENDBRANCH   3   4
BRANCH   3   6
HETATM    6  C   UNL     1     -12.333  13.908  65.675  1.00  0.00    -0.482 C  
BRANCH   6   7
HETATM    7  C   UNL     1     -11.305  14.990  65.295  1.00  0.00    -0.349 C  
BRANCH   7   8
HETATM    8  O   UNL     1     -10.640  15.365  66.519  1.00  0.00    -0.295 OA 
BRANCH   8   9
HETATM    9  C   UNL     1      -9.402  15.898  66.339  1.00  0.00    -0.297 C  
HETATM   10  O   UNL     1      -9.141  16.758  65.516  1.00  0.00    -0.414 OA 
BRANCH   9  11
HETATM   11  C   UNL     1      -8.488  15.401  67.417  1.00  0.00    -0.200 A  
HETATM   12  C   UNL     1      -8.026  16.232  68.446  1.00  0.00    -0.173 A  
HETATM   13  C   UNL     1      -7.261  15.696  69.496  1.00  0.00    -0.198 A  
HETATM   14 CL   UNL     1      -8.357  17.927  68.552  1.00  0.00    -0.303 Cl 
HETATM   15  C   UNL     1      -6.911  14.346  69.526  1.00  0.00    -0.133 A  
HETATM   16  C   UNL     1      -7.422  13.507  68.539  1.00  0.00    -0.122 A  
HETATM   17  N   UNL     1      -6.267  13.804  70.640  1.00  0.00    -0.400 NA 
HETATM   18  H1  UNL     1      -6.012  12.817  70.662  1.00  0.00     0.000 HD 
HETATM   19  C   UNL     1      -8.178  14.028  67.484  1.00  0.00    -0.195 A  
HETATM   20  H2  UNL     1      -6.832  14.005  71.465  1.00  0.00     0.000 HD 
ENDBRANCH   9  11
ENDBRANCH   8   9
ENDBRANCH   7   8
ENDBRANCH   6   7
ENDBRANCH   3   6
ENDBRANCH   2   3
TORSDOF 7
ENDMDL
MODEL      124
REMARK 921   NORMALIZED FREE ENERGY PREDICTED BY IDOCK:   -4.12 KCAL/MOL
REMARK 922        TOTAL FREE ENERGY PREDICTED BY IDOCK:   -6.20 KCAL/MOL
REMARK 923 INTER-LIGAND FREE ENERGY PREDICTED BY IDOCK:   -5.78 KCAL/MOL
REMARK 924 INTRA-LIGAND FREE ENERGY PREDICTED BY IDOCK:   -0.43 KCAL/MOL
REMARK 927      BINDING AFFINITY PREDICTED BY RF-SCORE:    0.00 PKD
ROOT
HETATM    1  C   UNL     1      -6.634   6.058  66.602  1.00  0.00    -0.059 C  
HETATM    2  C   UNL     1      -7.530   7.033  67.354  1.00  0.00    -0.097 C  
ENDROOT
BRANCH   2   3
HETATM    3  N   UNL     1      -8.861   7.251  66.751  1.00  0.00    -0.128 NA 
BRANCH   3   4
HETATM    4  C   UNL     1      -9.976   6.753  67.574  1.00  0.00    -0.141 C  
HETATM    5  C   UNL     1     -10.740   5.550  67.027  1.00  0.00    -0.286 C  
ENDBRANCH   3   4
BRANCH   3   6
HETATM    6  C   UNL     1      -8.989   8.676  66.404  1.00  0.00    -0.161 C  
BRANCH   6   7
HETATM    7  C   UNL     1     -10.345   9.357  66.667  1.00  0.00    -0.214 C  
BRANCH   7   8
HETATM    8  O   UNL     1     -10.094  10.778  66.659  1.00  0.00    -0.203 OA 
BRANCH   8   9
HETATM    9  C   UNL     1     -11.168  11.535  67.008  1.00  0.00    -0.300 C  
HETATM   10  O   UNL     1     -11.890  11.299  67.961  1.00  0.00    -0.578 OA 
BRANCH   9  11
HETATM   11  C   UNL     1     -11.198  12.770  66.161  1.00  0.00    -0.336 A  
HETATM   12  C   UNL     1     -11.685  12.763  64.847  1.00  0.00    -0.352 A  
HETATM   13  C   UNL     1     -11.796  13.966  64.130  1.00  0.00    -0.417 A  
HETATM   14 CL   UNL     1     -12.210  11.342  64.011  1.00  0.00     0.022 Cl 
HETATM   15  C   UNL     1     -11.395  15.182  64.681  1.00  0.00    -0.356 A  
HETATM   16  C   UNL     1     -10.971  15.200  66.008  1.00  0.00    -0.332 A  
HETATM   17  N   UNL     1     -11.636  16.382  64.008  1.00  0.00    -1.542 NA 
HETATM   18  H1  UNL     1     -11.343  17.271  64.412  1.00  0.00     0.000 HD 
HETATM   19  C   UNL     1     -10.848  14.010  66.732  1.00  0.00    -0.294 A  
HETATM   20  H2  UNL     1     -12.634  16.438  63.803  1.00  0.00     0.000 HD 
ENDBRANCH   9  11
ENDBRANCH   8   9
ENDBRANCH   7   8
ENDBRANCH   6   7
ENDBRANCH   3   6
ENDBRANCH   2   3
TORSDOF 7
ENDMDL
MODEL      125
REMARK 921   NORMALIZED FREE ENERGY PREDICTED BY IDOCK:   -4.12 KCAL/MOL
REMARK 922        TOTAL FREE ENERGY PREDICTED BY IDOCK:   -6.20 KCAL/MOL
REMARK 923 INTER-LIGAND FREE ENERGY PREDICTED BY IDOCK:   -6.03 KCAL/MOL
REMARK 924 INTRA-LIGAND FREE ENERGY PREDICTED BY IDOCK:   -0.17 KCAL/MOL
REMARK 927      BINDING AFFINITY PREDICTED BY RF-SCORE:    0.00 PKD
ROOT
HETATM    1  C   UNL     1      -7.814   8.158  68.525  1.00  0.00    -0.118 C  
HETATM    2  C   UNL     1      -8.887   9.103  69.052  1.00  0.00    -0.139 C  
ENDROOT
BRANCH   2   3
HETATM    3  N   UNL     1     -10.016   8.445  69.741  1.00  0.00    -0.188 NA 
BRANCH   3   4
HETATM    4  C   UNL     1      -9.940   6.974  69.735  1.00  0.00    -0.173 C  
HETATM    5  C   UNL     1     -11.266   6.226  69.621  1.00  0.00    -0.506 C  
ENDBRANCH   3   4
BRANCH   3   6
HETATM    6  C   UNL     1     -10.133   9.013  71.094  1.00  0.00    -0.295 C  
BRANCH   6   7
HETATM    7  C   UNL     1     -11.526   9.479  71.556  1.00  0.00    -0.395 C  
BRANCH   7   8
HETATM    8  O   UNL     1     -11.934  10.513  70.638  1.00  0.00    -0.297 OA 
BRANCH   8   9
HETATM    9  C   UNL     1     -12.704  11.485  71.199  1.00  0.00    -0.356 C  
HETATM   10  O   UNL     1     -13.408  11.316  72.179  1.00  0.00    -0.457 OA 
BRANCH   9  11
HETATM   11  C   UNL     1     -12.400  12.796  70.544  1.00  0.00    -0.355 A  
HETATM   12  C   UNL     1     -12.717  14.022  71.144  1.00  0.00    -0.364 A  
HETATM   13  C   UNL     1     -12.314  15.227  70.544  1.00  0.00    -0.434 A  
HETATM   14 CL   UNL     1     -13.573  14.181  72.639  1.00  0.00    -0.621 Cl 
HETATM   15  C   UNL     1     -11.629  15.241  69.329  1.00  0.00    -0.332 A  
HETATM   16  C   UNL     1     -11.258  14.024  68.764  1.00  0.00    -0.298 A  
HETATM   17  N   UNL     1     -11.120  16.435  68.815  1.00  0.00    -0.342 NA 
HETATM   18  H1  UNL     1     -10.619  16.446  67.927  1.00  0.00     0.000 HD 
HETATM   19  C   UNL     1     -11.658  12.817  69.346  1.00  0.00    -0.361 A  
HETATM   20  H2  UNL     1     -10.521  16.860  69.524  1.00  0.00     0.000 HD 
ENDBRANCH   9  11
ENDBRANCH   8   9
ENDBRANCH   7   8
ENDBRANCH   6   7
ENDBRANCH   3   6
ENDBRANCH   2   3
TORSDOF 7
ENDMDL
MODEL      126
REMARK 921   NORMALIZED FREE ENERGY PREDICTED BY IDOCK:   -4.09 KCAL/MOL
REMARK 922        TOTAL FREE ENERGY PREDICTED BY IDOCK:   -6.15 KCAL/MOL
REMARK 923 INTER-LIGAND FREE ENERGY PREDICTED BY IDOCK:   -5.79 KCAL/MOL
REMARK 924 INTRA-LIGAND FREE ENERGY PREDICTED BY IDOCK:   -0.36 KCAL/MOL
REMARK 927      BINDING AFFINITY PREDICTED BY RF-SCORE:    0.00 PKD
ROOT
HETATM    1  C   UNL     1      -6.930   7.323  66.272  1.00  0.00    -0.066 C  
HETATM    2  C   UNL     1      -7.679   8.587  66.676  1.00  0.00    -0.090 C  
ENDROOT
BRANCH   2   3
HETATM    3  N   UNL     1      -8.946   8.821  65.954  1.00  0.00    -0.184 NA 
BRANCH   3   4
HETATM    4  C   UNL     1     -10.149   8.596  66.774  1.00  0.00    -0.296 C  
HETATM    5  C   UNL     1     -10.555   7.141  66.999  1.00  0.00    -0.413 C  
ENDBRANCH   3   4
BRANCH   3   6
HETATM    6  C   UNL     1      -8.899  10.163  65.351  1.00  0.00    -0.173 C  
BRANCH   6   7
HETATM    7  C   UNL     1      -9.763  10.417  64.102  1.00  0.00    -0.324 C  
BRANCH   7   8
HETATM    8  O   UNL     1      -9.979  11.842  64.041  1.00  0.00    -0.295 OA 
BRANCH   8   9
HETATM    9  C   UNL     1     -11.272  12.218  64.231  1.00  0.00    -0.350 C  
HETATM   10  O   UNL     1     -12.173  11.992  63.442  1.00  0.00    -0.538 OA 
BRANCH   9  11
HETATM   11  C   UNL     1     -11.427  12.772  65.614  1.00  0.00    -0.379 A  
HETATM   12  C   UNL     1     -11.526  14.148  65.861  1.00  0.00    -0.338 A  
HETATM   13  C   UNL     1     -11.781  14.614  67.162  1.00  0.00    -0.392 A  
HETATM   14 CL   UNL     1     -11.383  15.368  64.643  1.00  0.00    -0.400 Cl 
HETATM   15  C   UNL     1     -11.904  13.737  68.239  1.00  0.00    -0.378 A  
HETATM   16  C   UNL     1     -11.870  12.368  67.985  1.00  0.00    -0.376 A  
HETATM   17  N   UNL     1     -12.290  14.206  69.496  1.00  0.00    -0.463 NA 
HETATM   18  H1  UNL     1     -12.380  13.564  70.284  1.00  0.00     0.000 HD 
HETATM   19  C   UNL     1     -11.610  11.889  66.697  1.00  0.00    -0.337 A  
HETATM   20  H2  UNL     1     -13.170  14.710  69.394  1.00  0.00     0.000 HD 
ENDBRANCH   9  11
ENDBRANCH   8   9
ENDBRANCH   7   8
ENDBRANCH   6   7
ENDBRANCH   3   6
ENDBRANCH   2   3
TORSDOF 7
ENDMDL
MODEL      127
REMARK 921   NORMALIZED FREE ENERGY PREDICTED BY IDOCK:   -4.08 KCAL/MOL
REMARK 922        TOTAL FREE ENERGY PREDICTED BY IDOCK:   -6.15 KCAL/MOL
REMARK 923 INTER-LIGAND FREE ENERGY PREDICTED BY IDOCK:   -5.58 KCAL/MOL
REMARK 924 INTRA-LIGAND FREE ENERGY PREDICTED BY IDOCK:   -0.57 KCAL/MOL
REMARK 927      BINDING AFFINITY PREDICTED BY RF-SCORE:    0.00 PKD
ROOT
HETATM    1  C   UNL     1      -8.943  10.372  69.179  1.00  0.00    -0.188 C  
HETATM    2  C   UNL     1      -8.110  11.193  68.203  1.00  0.00    -0.128 C  
ENDROOT
BRANCH   2   3
HETATM    3  N   UNL     1      -7.586  12.463  68.744  1.00  0.00    -0.078 NA 
BRANCH   3   4
HETATM    4  C   UNL     1      -6.143  12.435  69.037  1.00  0.00    -0.077 C  
HETATM    5  C   UNL     1      -5.727  12.855  70.445  1.00  0.00    -0.171 C  
ENDBRANCH   3   4
BRANCH   3   6
HETATM    6  C   UNL     1      -7.970  13.553  67.831  1.00  0.00    -0.162 C  
BRANCH   6   7
HETATM    7  C   UNL     1      -8.652  14.791  68.442  1.00  0.00    -0.166 C  
BRANCH   7   8
HETATM    8  O   UNL     1      -9.990  14.383  68.797  1.00  0.00    -0.233 OA 
BRANCH   8   9
HETATM    9  C   UNL     1     -10.957  15.267  68.432  1.00  0.00    -0.271 C  
HETATM   10  O   UNL     1     -11.284  16.235  69.096  1.00  0.00    -0.315 OA 
BRANCH   9  11
HETATM   11  C   UNL     1     -11.402  14.963  67.035  1.00  0.00    -0.345 A  
HETATM   12  C   UNL     1     -11.016  15.749  65.940  1.00  0.00    -0.191 A  
HETATM   13  C   UNL     1     -11.367  15.362  64.635  1.00  0.00    -0.361 A  
HETATM   14 CL   UNL     1     -10.081  17.199  66.065  1.00  0.00    -0.323 Cl 
HETATM   15  C   UNL     1     -12.132  14.221  64.395  1.00  0.00    -0.468 A  
HETATM   16  C   UNL     1     -12.462  13.406  65.475  1.00  0.00    -0.534 A  
HETATM   17  N   UNL     1     -12.357  13.778  63.090  1.00  0.00    -1.106 NA 
HETATM   18  H1  UNL     1     -12.916  12.944  62.915  1.00  0.00     0.000 HD 
HETATM   19  C   UNL     1     -12.126  13.781  66.779  1.00  0.00    -0.460 A  
HETATM   20  H2  UNL     1     -11.453  13.659  62.633  1.00  0.00     0.000 HD 
ENDBRANCH   9  11
ENDBRANCH   8   9
ENDBRANCH   7   8
ENDBRANCH   6   7
ENDBRANCH   3   6
ENDBRANCH   2   3
TORSDOF 7
ENDMDL
MODEL      128
REMARK 921   NORMALIZED FREE ENERGY PREDICTED BY IDOCK:   -4.07 KCAL/MOL
REMARK 922        TOTAL FREE ENERGY PREDICTED BY IDOCK:   -6.12 KCAL/MOL
REMARK 923 INTER-LIGAND FREE ENERGY PREDICTED BY IDOCK:   -5.67 KCAL/MOL
REMARK 924 INTRA-LIGAND FREE ENERGY PREDICTED BY IDOCK:   -0.46 KCAL/MOL
REMARK 927      BINDING AFFINITY PREDICTED BY RF-SCORE:    0.00 PKD
ROOT
HETATM    1  C   UNL     1      -8.787  10.333  64.404  1.00  0.00    -0.229 C  
HETATM    2  C   UNL     1     -10.248  10.762  64.470  1.00  0.00    -0.359 C  
ENDROOT
BRANCH   2   3
HETATM    3  N   UNL     1     -10.465  12.200  64.731  1.00  0.00    -0.283 NA 
BRANCH   3   4
HETATM    4  C   UNL     1     -11.479  12.817  63.859  1.00  0.00    -0.444 C  
HETATM    5  C   UNL     1     -12.593  11.900  63.360  1.00  0.00    -0.555 C  
ENDBRANCH   3   4
BRANCH   3   6
HETATM    6  C   UNL     1     -10.749  12.376  66.165  1.00  0.00    -0.260 C  
BRANCH   6   7
HETATM    7  C   UNL     1     -12.020  13.156  66.551  1.00  0.00    -0.398 C  
BRANCH   7   8
HETATM    8  O   UNL     1     -11.593  14.499  66.859  1.00  0.00    -0.361 OA 
BRANCH   8   9
HETATM    9  C   UNL     1     -11.442  14.745  68.189  1.00  0.00    -0.323 C  
HETATM   10  O   UNL     1     -11.969  14.087  69.069  1.00  0.00    -0.332 OA 
BRANCH   9  11
HETATM   11  C   UNL     1     -10.404  15.806  68.380  1.00  0.00    -0.233 A  
HETATM   12  C   UNL     1      -9.037  15.507  68.463  1.00  0.00    -0.196 A  
HETATM   13  C   UNL     1      -8.091  16.545  68.532  1.00  0.00    -0.218 A  
HETATM   14 CL   UNL     1      -8.390  13.903  68.459  1.00  0.00    -0.153 Cl 
HETATM   15  C   UNL     1      -8.480  17.884  68.558  1.00  0.00    -0.298 A  
HETATM   16  C   UNL     1      -9.832  18.184  68.411  1.00  0.00    -0.380 A  
HETATM   17  N   UNL     1      -7.526  18.901  68.491  1.00  0.00    -0.295 NA 
HETATM   18  H1  UNL     1      -7.810  19.881  68.509  1.00  0.00     0.000 HD 
HETATM   19  C   UNL     1     -10.785  17.163  68.349  1.00  0.00    -0.347 A  
HETATM   20  H2  UNL     1      -6.956  18.751  67.658  1.00  0.00     0.000 HD 
ENDBRANCH   9  11
ENDBRANCH   8   9
ENDBRANCH   7   8
ENDBRANCH   6   7
ENDBRANCH   3   6
ENDBRANCH   2   3
TORSDOF 7
ENDMDL
MODEL      129
REMARK 921   NORMALIZED FREE ENERGY PREDICTED BY IDOCK:   -4.06 KCAL/MOL
REMARK 922        TOTAL FREE ENERGY PREDICTED BY IDOCK:   -6.12 KCAL/MOL
REMARK 923 INTER-LIGAND FREE ENERGY PREDICTED BY IDOCK:   -5.44 KCAL/MOL
REMARK 924 INTRA-LIGAND FREE ENERGY PREDICTED BY IDOCK:   -0.68 KCAL/MOL
REMARK 927      BINDING AFFINITY PREDICTED BY RF-SCORE:    0.00 PKD
ROOT
HETATM    1  C   UNL     1     -13.557  13.449  72.133  1.00  0.00    -0.660 C  
HETATM    2  C   UNL     1     -12.611  13.243  70.956  1.00  0.00    -0.324 C  
ENDROOT
BRANCH   2   3
HETATM    3  N   UNL     1     -12.197  11.844  70.726  1.00  0.00    -0.363 NA 
BRANCH   3   4
HETATM    4  C   UNL     1     -12.936  10.863  71.538  1.00  0.00    -0.451 C  
HETATM    5  C   UNL     1     -12.286   9.491  71.703  1.00  0.00    -0.477 C  
ENDBRANCH   3   4
BRANCH   3   6
HETATM    6  C   UNL     1     -12.265  11.569  69.281  1.00  0.00    -0.179 C  
BRANCH   6   7
HETATM    7  C   UNL     1     -11.006  11.001  68.600  1.00  0.00    -0.224 C  
BRANCH   7   8
HETATM    8  O   UNL     1     -10.012  12.046  68.649  1.00  0.00    -0.207 OA 
BRANCH   8   9
HETATM    9  C   UNL     1     -10.013  12.866  67.564  1.00  0.00    -0.215 C  
HETATM   10  O   UNL     1     -10.143  12.479  66.416  1.00  0.00    -0.233 OA 
BRANCH   9  11
HETATM   11  C   UNL     1     -10.016  14.292  68.022  1.00  0.00    -0.220 A  
HETATM   12  C   UNL     1      -8.850  14.941  68.450  1.00  0.00    -0.178 A  
HETATM   13  C   UNL     1      -8.880  16.310  68.765  1.00  0.00    -0.243 A  
HETATM   14 CL   UNL     1      -7.307  14.172  68.601  1.00  0.00    -0.120 Cl 
HETATM   15  C   UNL     1     -10.062  17.046  68.700  1.00  0.00    -0.303 A  
HETATM   16  C   UNL     1     -11.207  16.419  68.214  1.00  0.00    -0.300 A  
HETATM   17  N   UNL     1     -10.049  18.430  68.886  1.00  0.00    -0.408 NA 
HETATM   18  H1  UNL     1     -10.913  18.969  68.837  1.00  0.00     0.000 HD 
HETATM   19  C   UNL     1     -11.194  15.056  67.903  1.00  0.00    -0.330 A  
HETATM   20  H2  UNL     1      -9.384  18.835  68.226  1.00  0.00     0.000 HD 
ENDBRANCH   9  11
ENDBRANCH   8   9
ENDBRANCH   7   8
ENDBRANCH   6   7
ENDBRANCH   3   6
ENDBRANCH   2   3
TORSDOF 7
ENDMDL
MODEL      130
REMARK 921   NORMALIZED FREE ENERGY PREDICTED BY IDOCK:   -4.04 KCAL/MOL
REMARK 922        TOTAL FREE ENERGY PREDICTED BY IDOCK:   -6.09 KCAL/MOL
REMARK 923 INTER-LIGAND FREE ENERGY PREDICTED BY IDOCK:   -6.01 KCAL/MOL
REMARK 924 INTRA-LIGAND FREE ENERGY PREDICTED BY IDOCK:   -0.08 KCAL/MOL
REMARK 927      BINDING AFFINITY PREDICTED BY RF-SCORE:    0.00 PKD
ROOT
HETATM    1  C   UNL     1     -13.364   9.538  72.176  1.00  0.00    -0.545 C  
HETATM    2  C   UNL     1     -12.960   9.984  70.776  1.00  0.00    -0.257 C  
ENDROOT
BRANCH   2   3
HETATM    3  N   UNL     1     -11.699  10.750  70.704  1.00  0.00    -0.342 NA 
BRANCH   3   4
HETATM    4  C   UNL     1     -10.686  10.147  69.821  1.00  0.00    -0.279 C  
HETATM    5  C   UNL     1      -9.556   9.383  70.507  1.00  0.00    -0.330 C  
ENDBRANCH   3   4
BRANCH   3   6
HETATM    6  C   UNL     1     -12.019  12.143  70.351  1.00  0.00    -0.272 C  
BRANCH   6   7
HETATM    7  C   UNL     1     -12.008  12.524  68.859  1.00  0.00    -0.236 C  
BRANCH   7   8
HETATM    8  O   UNL     1     -11.901  13.961  68.807  1.00  0.00    -0.323 OA 
BRANCH   8   9
HETATM    9  C   UNL     1     -11.784  14.466  67.550  1.00  0.00    -0.387 C  
HETATM   10  O   UNL     1     -12.321  13.984  66.567  1.00  0.00    -0.457 OA 
BRANCH   9  11
HETATM   11  C   UNL     1     -11.064  15.778  67.609  1.00  0.00    -0.283 A  
HETATM   12  C   UNL     1     -10.670  16.466  66.453  1.00  0.00    -0.161 A  
HETATM   13  C   UNL     1     -10.096  17.745  66.555  1.00  0.00    -0.358 A  
HETATM   14 CL   UNL     1     -10.865  15.859  64.845  1.00  0.00    -0.470 Cl 
HETATM   15  C   UNL     1      -9.869  18.344  67.794  1.00  0.00    -0.319 A  
HETATM   16  C   UNL     1     -10.318  17.690  68.938  1.00  0.00    -0.323 A  
HETATM   17  N   UNL     1      -9.424  19.666  67.872  1.00  0.00    -0.336 NA 
HETATM   18  H1  UNL     1      -9.259  20.104  68.778  1.00  0.00     0.000 HD 
HETATM   19  C   UNL     1     -10.884  16.415  68.853  1.00  0.00    -0.334 A  
HETATM   20  H2  UNL     1     -10.072  20.253  67.347  1.00  0.00     0.000 HD 
ENDBRANCH   9  11
ENDBRANCH   8   9
ENDBRANCH   7   8
ENDBRANCH   6   7
ENDBRANCH   3   6
ENDBRANCH   2   3
TORSDOF 7
ENDMDL
MODEL      131
REMARK 921   NORMALIZED FREE ENERGY PREDICTED BY IDOCK:   -4.04 KCAL/MOL
REMARK 922        TOTAL FREE ENERGY PREDICTED BY IDOCK:   -6.09 KCAL/MOL
REMARK 923 INTER-LIGAND FREE ENERGY PREDICTED BY IDOCK:   -5.67 KCAL/MOL
REMARK 924 INTRA-LIGAND FREE ENERGY PREDICTED BY IDOCK:   -0.41 KCAL/MOL
REMARK 927      BINDING AFFINITY PREDICTED BY RF-SCORE:    0.00 PKD
ROOT
HETATM    1  C   UNL     1      -8.450  10.651  62.478  1.00  0.00    -0.254 C  
HETATM    2  C   UNL     1      -8.784   9.416  63.305  1.00  0.00    -0.208 C  
ENDROOT
BRANCH   2   3
HETATM    3  N   UNL     1      -9.634   9.667  64.486  1.00  0.00    -0.143 NA 
BRANCH   3   4
HETATM    4  C   UNL     1      -8.940   9.475  65.771  1.00  0.00    -0.179 C  
HETATM    5  C   UNL     1      -7.492   8.999  65.696  1.00  0.00    -0.086 C  
ENDBRANCH   3   4
BRANCH   3   6
HETATM    6  C   UNL     1     -10.241  11.001  64.350  1.00  0.00    -0.346 C  
BRANCH   6   7
HETATM    7  C   UNL     1     -10.102  11.974  65.535  1.00  0.00    -0.252 C  
BRANCH   7   8
HETATM    8  O   UNL     1     -11.414  12.084  66.126  1.00  0.00    -0.346 OA 
BRANCH   8   9
HETATM    9  C   UNL     1     -12.139  13.145  65.680  1.00  0.00    -0.449 C  
HETATM   10  O   UNL     1     -13.189  13.047  65.070  1.00  0.00    -0.739 OA 
BRANCH   9  11
HETATM   11  C   UNL     1     -11.542  14.410  66.213  1.00  0.00    -0.377 A  
HETATM   12  C   UNL     1     -11.505  14.698  67.584  1.00  0.00    -0.346 A  
HETATM   13  C   UNL     1     -10.837  15.845  68.046  1.00  0.00    -0.317 A  
HETATM   14 CL   UNL     1     -12.218  13.704  68.807  1.00  0.00    -0.315 Cl 
HETATM   15  C   UNL     1     -10.231  16.740  67.164  1.00  0.00    -0.295 A  
HETATM   16  C   UNL     1     -10.212  16.423  65.809  1.00  0.00    -0.370 A  
HETATM   17  N   UNL     1      -9.459  17.799  67.646  1.00  0.00    -0.253 NA 
HETATM   18  H1  UNL     1      -9.015  18.453  67.001  1.00  0.00     0.000 HD 
HETATM   19  C   UNL     1     -10.879  15.289  65.333  1.00  0.00    -0.399 A  
HETATM   20  H2  UNL     1      -8.737  17.416  68.258  1.00  0.00     0.000 HD 
ENDBRANCH   9  11
ENDBRANCH   8   9
ENDBRANCH   7   8
ENDBRANCH   6   7
ENDBRANCH   3   6
ENDBRANCH   2   3
TORSDOF 7
ENDMDL
MODEL      132
REMARK 921   NORMALIZED FREE ENERGY PREDICTED BY IDOCK:   -4.03 KCAL/MOL
REMARK 922        TOTAL FREE ENERGY PREDICTED BY IDOCK:   -6.07 KCAL/MOL
REMARK 923 INTER-LIGAND FREE ENERGY PREDICTED BY IDOCK:   -5.45 KCAL/MOL
REMARK 924 INTRA-LIGAND FREE ENERGY PREDICTED BY IDOCK:   -0.63 KCAL/MOL
REMARK 927      BINDING AFFINITY PREDICTED BY RF-SCORE:    0.00 PKD
ROOT
HETATM    1  C   UNL     1      -8.177  19.319  68.674  1.00  0.00    -0.408 C  
HETATM    2  C   UNL     1      -9.167  18.161  68.688  1.00  0.00    -0.282 C  
ENDROOT
BRANCH   2   3
HETATM    3  N   UNL     1     -10.407  18.391  67.919  1.00  0.00    -0.388 NA 
BRANCH   3   4
HETATM    4  C   UNL     1     -10.491  19.730  67.311  1.00  0.00    -0.447 C  
HETATM    5  C   UNL     1     -10.468  19.785  65.785  1.00  0.00    -0.545 C  
ENDBRANCH   3   4
BRANCH   3   6
HETATM    6  C   UNL     1     -10.560  17.301  66.942  1.00  0.00    -0.213 C  
BRANCH   6   7
HETATM    7  C   UNL     1      -9.737  16.019  67.166  1.00  0.00    -0.228 C  
BRANCH   7   8
HETATM    8  O   UNL     1     -10.687  14.971  67.450  1.00  0.00    -0.276 OA 
BRANCH   8   9
HETATM    9  C   UNL     1     -10.571  14.437  68.696  1.00  0.00    -0.252 C  
HETATM   10  O   UNL     1     -10.569  15.093  69.723  1.00  0.00    -0.252 OA 
BRANCH   9  11
HETATM   11  C   UNL     1     -10.634  12.944  68.601  1.00  0.00    -0.256 A  
HETATM   12  C   UNL     1      -9.519  12.171  68.250  1.00  0.00    -0.204 A  
HETATM   13  C   UNL     1      -9.596  10.768  68.281  1.00  0.00    -0.170 A  
HETATM   14 CL   UNL     1      -7.986  12.826  67.789  1.00  0.00    -0.143 Cl 
HETATM   15  C   UNL     1     -10.778  10.111  68.622  1.00  0.00    -0.222 A  
HETATM   16  C   UNL     1     -11.866  10.876  69.033  1.00  0.00    -0.370 A  
HETATM   17  N   UNL     1     -10.800   8.723  68.778  1.00  0.00    -0.431 NA 
HETATM   18  H1  UNL     1     -11.664   8.243  69.028  1.00  0.00     0.000 HD 
HETATM   19  C   UNL     1     -11.807  12.273  69.000  1.00  0.00    -0.358 A  
HETATM   20  H2  UNL     1     -10.085   8.467  69.459  1.00  0.00     0.000 HD 
ENDBRANCH   9  11
ENDBRANCH   8   9
ENDBRANCH   7   8
ENDBRANCH   6   7
ENDBRANCH   3   6
ENDBRANCH   2   3
TORSDOF 7
ENDMDL
MODEL      133
REMARK 921   NORMALIZED FREE ENERGY PREDICTED BY IDOCK:   -4.03 KCAL/MOL
REMARK 922        TOTAL FREE ENERGY PREDICTED BY IDOCK:   -6.07 KCAL/MOL
REMARK 923 INTER-LIGAND FREE ENERGY PREDICTED BY IDOCK:   -5.86 KCAL/MOL
REMARK 924 INTRA-LIGAND FREE ENERGY PREDICTED BY IDOCK:   -0.21 KCAL/MOL
REMARK 927      BINDING AFFINITY PREDICTED BY RF-SCORE:    0.00 PKD
ROOT
HETATM    1  C   UNL     1      -7.455   7.198  68.312  1.00  0.00    -0.102 C  
HETATM    2  C   UNL     1      -7.524   8.111  69.530  1.00  0.00    -0.087 C  
ENDROOT
BRANCH   2   3
HETATM    3  N   UNL     1      -8.206   9.402  69.305  1.00  0.00    -0.106 NA 
BRANCH   3   4
HETATM    4  C   UNL     1      -7.509  10.555  69.899  1.00  0.00    -0.080 C  
HETATM    5  C   UNL     1      -6.144  10.275  70.524  1.00  0.00    -0.114 C  
ENDBRANCH   3   4
BRANCH   3   6
HETATM    6  C   UNL     1      -8.452   9.555  67.862  1.00  0.00    -0.119 C  
BRANCH   6   7
HETATM    7  C   UNL     1      -9.903   9.419  67.364  1.00  0.00    -0.172 C  
BRANCH   7   8
HETATM    8  O   UNL     1     -10.187  10.615  66.609  1.00  0.00    -0.216 OA 
BRANCH   8   9
HETATM    9  C   UNL     1     -11.258  11.319  67.064  1.00  0.00    -0.255 C  
HETATM   10  O   UNL     1     -11.955  10.973  68.002  1.00  0.00    -0.623 OA 
BRANCH   9  11
HETATM   11  C   UNL     1     -11.316  12.640  66.361  1.00  0.00    -0.381 A  
HETATM   12  C   UNL     1     -10.214  13.504  66.304  1.00  0.00    -0.299 A  
HETATM   13  C   UNL     1     -10.280  14.682  65.539  1.00  0.00    -0.395 A  
HETATM   14 CL   UNL     1      -8.708  13.216  67.105  1.00  0.00    -0.213 Cl 
HETATM   15  C   UNL     1     -11.441  15.040  64.854  1.00  0.00    -0.399 A  
HETATM   16  C   UNL     1     -12.513  14.152  64.858  1.00  0.00    -0.419 A  
HETATM   17  N   UNL     1     -11.446  16.140  63.993  1.00  0.00    -1.425 NA 
HETATM   18  H1  UNL     1     -12.294  16.402  63.492  1.00  0.00     0.000 HD 
HETATM   19  C   UNL     1     -12.465  12.981  65.620  1.00  0.00    -0.452 A  
HETATM   20  H2  UNL     1     -10.698  16.016  63.311  1.00  0.00     0.000 HD 
ENDBRANCH   9  11
ENDBRANCH   8   9
ENDBRANCH   7   8
ENDBRANCH   6   7
ENDBRANCH   3   6
ENDBRANCH   2   3
TORSDOF 7
ENDMDL
MODEL      134
REMARK 921   NORMALIZED FREE ENERGY PREDICTED BY IDOCK:   -4.02 KCAL/MOL
REMARK 922        TOTAL FREE ENERGY PREDICTED BY IDOCK:   -6.06 KCAL/MOL
REMARK 923 INTER-LIGAND FREE ENERGY PREDICTED BY IDOCK:   -5.44 KCAL/MOL
REMARK 924 INTRA-LIGAND FREE ENERGY PREDICTED BY IDOCK:   -0.62 KCAL/MOL
REMARK 927      BINDING AFFINITY PREDICTED BY RF-SCORE:    0.00 PKD
ROOT
HETATM    1  C   UNL     1      -7.670  10.908  67.964  1.00  0.00    -0.101 C  
HETATM    2  C   UNL     1      -8.450   9.601  67.908  1.00  0.00    -0.122 C  
ENDROOT
BRANCH   2   3
HETATM    3  N   UNL     1      -9.162   9.352  66.638  1.00  0.00    -0.147 NA 
BRANCH   3   4
HETATM    4  C   UNL     1     -10.509   8.783  66.812  1.00  0.00    -0.213 C  
HETATM    5  C   UNL     1     -10.583   7.283  67.082  1.00  0.00    -0.416 C  
ENDBRANCH   3   4
BRANCH   3   6
HETATM    6  C   UNL     1      -9.156  10.595  65.849  1.00  0.00    -0.180 C  
BRANCH   6   7
HETATM    7  C   UNL     1     -10.502  11.312  65.634  1.00  0.00    -0.261 C  
BRANCH   7   8
HETATM    8  O   UNL     1     -10.530  12.411  66.569  1.00  0.00    -0.227 OA 
BRANCH   8   9
HETATM    9  C   UNL     1     -11.743  13.018  66.677  1.00  0.00    -0.381 C  
HETATM   10  O   UNL     1     -12.614  12.960  65.828  1.00  0.00    -0.538 OA 
BRANCH   9  11
HETATM   11  C   UNL     1     -11.887  13.591  68.053  1.00  0.00    -0.400 A  
HETATM   12  C   UNL     1     -12.030  12.781  69.188  1.00  0.00    -0.246 A  
HETATM   13  C   UNL     1     -12.050  13.359  70.469  1.00  0.00    -0.399 A  
HETATM   14 CL   UNL     1     -12.159  11.056  69.143  1.00  0.00    -0.395 Cl 
HETATM   15  C   UNL     1     -11.968  14.739  70.646  1.00  0.00    -0.309 A  
HETATM   16  C   UNL     1     -11.762  15.540  69.526  1.00  0.00    -0.380 A  
HETATM   17  N   UNL     1     -11.855  15.286  71.926  1.00  0.00    -0.385 NA 
HETATM   18  H1  UNL     1     -11.795  16.295  72.056  1.00  0.00     0.000 HD 
HETATM   19  C   UNL     1     -11.747  14.980  68.244  1.00  0.00    -0.338 A  
HETATM   20  H2  UNL     1     -11.052  14.857  72.387  1.00  0.00     0.000 HD 
ENDBRANCH   9  11
ENDBRANCH   8   9
ENDBRANCH   7   8
ENDBRANCH   6   7
ENDBRANCH   3   6
ENDBRANCH   2   3
TORSDOF 7
ENDMDL
MODEL      135
REMARK 921   NORMALIZED FREE ENERGY PREDICTED BY IDOCK:   -4.02 KCAL/MOL
REMARK 922        TOTAL FREE ENERGY PREDICTED BY IDOCK:   -6.06 KCAL/MOL
REMARK 923 INTER-LIGAND FREE ENERGY PREDICTED BY IDOCK:   -5.73 KCAL/MOL
REMARK 924 INTRA-LIGAND FREE ENERGY PREDICTED BY IDOCK:   -0.33 KCAL/MOL
REMARK 927      BINDING AFFINITY PREDICTED BY RF-SCORE:    0.00 PKD
ROOT
HETATM    1  C   UNL     1     -13.790   9.080  72.378  1.00  0.00    -0.540 C  
HETATM    2  C   UNL     1     -13.168   9.851  71.220  1.00  0.00    -0.383 C  
ENDROOT
BRANCH   2   3
HETATM    3  N   UNL     1     -11.697   9.762  71.129  1.00  0.00    -0.354 NA 
BRANCH   3   4
HETATM    4  C   UNL     1     -11.156   8.444  71.502  1.00  0.00    -0.266 C  
HETATM    5  C   UNL     1     -10.023   8.440  72.526  1.00  0.00    -0.356 C  
ENDBRANCH   3   4
BRANCH   3   6
HETATM    6  C   UNL     1     -11.285  10.197  69.784  1.00  0.00    -0.272 C  
BRANCH   6   7
HETATM    7  C   UNL     1     -11.785  11.567  69.291  1.00  0.00    -0.330 C  
BRANCH   7   8
HETATM    8  O   UNL     1     -11.975  11.441  67.867  1.00  0.00    -0.626 OA 
BRANCH   8   9
HETATM    9  C   UNL     1     -10.885  11.782  67.127  1.00  0.00    -0.258 C  
HETATM   10  O   UNL     1     -10.282  11.009  66.404  1.00  0.00    -0.221 OA 
BRANCH   9  11
HETATM   11  C   UNL     1     -10.679  13.263  67.205  1.00  0.00    -0.264 A  
HETATM   12  C   UNL     1     -11.601  14.175  66.674  1.00  0.00    -0.384 A  
HETATM   13  C   UNL     1     -11.420  15.555  66.868  1.00  0.00    -0.000 A  
HETATM   14 CL   UNL     1     -13.017  13.723  65.789  1.00  0.00    -0.434 Cl 
HETATM   15  C   UNL     1     -10.312  16.055  67.552  1.00  0.00    -0.287 A  
HETATM   16  C   UNL     1      -9.430  15.149  68.135  1.00  0.00    -0.201 A  
HETATM   17  N   UNL     1     -10.217  17.415  67.852  1.00  0.00    -0.330 NA 
HETATM   18  H1  UNL     1      -9.408  17.781  68.353  1.00  0.00     0.000 HD 
HETATM   19  C   UNL     1      -9.593  13.773  67.944  1.00  0.00    -0.222 A  
HETATM   20  H2  UNL     1     -11.058  17.690  68.361  1.00  0.00     0.000 HD 
ENDBRANCH   9  11
ENDBRANCH   8   9
ENDBRANCH   7   8
ENDBRANCH   6   7
ENDBRANCH   3   6
ENDBRANCH   2   3
TORSDOF 7
ENDMDL
MODEL      136
REMARK 921   NORMALIZED FREE ENERGY PREDICTED BY IDOCK:   -4.02 KCAL/MOL
REMARK 922        TOTAL FREE ENERGY PREDICTED BY IDOCK:   -6.05 KCAL/MOL
REMARK 923 INTER-LIGAND FREE ENERGY PREDICTED BY IDOCK:   -6.26 KCAL/MOL
REMARK 924 INTRA-LIGAND FREE ENERGY PREDICTED BY IDOCK:    0.21 KCAL/MOL
REMARK 927      BINDING AFFINITY PREDICTED BY RF-SCORE:    0.00 PKD
ROOT
HETATM    1  C   UNL     1     -13.508   9.525  72.015  1.00  0.00    -0.522 C  
HETATM    2  C   UNL     1     -12.063   9.042  72.032  1.00  0.00    -0.370 C  
ENDROOT
BRANCH   2   3
HETATM    3  N   UNL     1     -11.106   9.909  71.315  1.00  0.00    -0.312 NA 
BRANCH   3   4
HETATM    4  C   UNL     1     -10.108   9.168  70.525  1.00  0.00    -0.235 C  
HETATM    5  C   UNL     1      -8.842   8.738  71.262  1.00  0.00    -0.288 C  
ENDBRANCH   3   4
BRANCH   3   6
HETATM    6  C   UNL     1     -11.868  10.885  70.517  1.00  0.00    -0.360 C  
BRANCH   6   7
HETATM    7  C   UNL     1     -11.323  11.250  69.124  1.00  0.00    -0.282 C  
BRANCH   7   8
HETATM    8  O   UNL     1     -11.768  12.596  68.854  1.00  0.00    -0.290 OA 
BRANCH   8   9
HETATM    9  C   UNL     1     -11.710  12.949  67.542  1.00  0.00    -0.367 C  
HETATM   10  O   UNL     1     -12.086  12.238  66.626  1.00  0.00    -0.612 OA 
BRANCH   9  11
HETATM   11  C   UNL     1     -11.295  14.383  67.434  1.00  0.00    -0.353 A  
HETATM   12  C   UNL     1     -11.513  15.303  68.468  1.00  0.00    -0.342 A  
HETATM   13  C   UNL     1     -11.009  16.611  68.367  1.00  0.00    -0.345 A  
HETATM   14 CL   UNL     1     -12.362  14.940  69.931  1.00  0.00    -0.343 Cl 
HETATM   15  C   UNL     1     -10.317  17.039  67.234  1.00  0.00    -0.311 A  
HETATM   16  C   UNL     1     -10.044  16.109  66.234  1.00  0.00    -0.337 A  
HETATM   17  N   UNL     1      -9.708  18.295  67.205  1.00  0.00    -0.290 NA 
HETATM   18  H1  UNL     1      -9.202  18.608  66.377  1.00  0.00     0.000 HD 
HETATM   19  C   UNL     1     -10.546  14.806  66.317  1.00  0.00    -0.306 A  
HETATM   20  H2  UNL     1      -9.081  18.364  68.007  1.00  0.00     0.000 HD 
ENDBRANCH   9  11
ENDBRANCH   8   9
ENDBRANCH   7   8
ENDBRANCH   6   7
ENDBRANCH   3   6
ENDBRANCH   2   3
TORSDOF 7
ENDMDL
MODEL      137
REMARK 921   NORMALIZED FREE ENERGY PREDICTED BY IDOCK:   -4.01 KCAL/MOL
REMARK 922        TOTAL FREE ENERGY PREDICTED BY IDOCK:   -6.04 KCAL/MOL
REMARK 923 INTER-LIGAND FREE ENERGY PREDICTED BY IDOCK:   -5.68 KCAL/MOL
REMARK 924 INTRA-LIGAND FREE ENERGY PREDICTED BY IDOCK:   -0.36 KCAL/MOL
REMARK 927      BINDING AFFINITY PREDICTED BY RF-SCORE:    0.00 PKD
ROOT
HETATM    1  C   UNL     1     -11.791  14.936  69.677  1.00  0.00    -0.356 C  
HETATM    2  C   UNL     1     -11.746  15.657  68.336  1.00  0.00    -0.290 C  
ENDROOT
BRANCH   2   3
HETATM    3  N   UNL     1     -11.357  14.813  67.187  1.00  0.00    -0.347 NA 
BRANCH   3   4
HETATM    4  C   UNL     1      -9.904  14.765  66.949  1.00  0.00    -0.243 C  
HETATM    5  C   UNL     1      -9.341  15.796  65.973  1.00  0.00    -0.384 C  
ENDBRANCH   3   4
BRANCH   3   6
HETATM    6  C   UNL     1     -11.959  13.481  67.361  1.00  0.00    -0.357 C  
BRANCH   6   7
HETATM    7  C   UNL     1     -11.008  12.274  67.459  1.00  0.00    -0.254 C  
BRANCH   7   8
HETATM    8  O   UNL     1     -11.459  11.492  68.585  1.00  0.00    -0.238 OA 
BRANCH   8   9
HETATM    9  C   UNL     1     -10.456  10.914  69.299  1.00  0.00    -0.202 C  
HETATM   10  O   UNL     1      -9.309  11.325  69.321  1.00  0.00     0.018 OA 
BRANCH   9  11
HETATM   11  C   UNL     1     -11.027   9.840  70.172  1.00  0.00    -0.339 A  
HETATM   12  C   UNL     1     -12.047  10.093  71.098  1.00  0.00    -0.388 A  
HETATM   13  C   UNL     1     -12.627   9.034  71.816  1.00  0.00    -0.434 A  
HETATM   14 CL   UNL     1     -12.698  11.663  71.424  1.00  0.00    -0.483 Cl 
HETATM   15  C   UNL     1     -12.186   7.720  71.659  1.00  0.00    -0.313 A  
HETATM   16  C   UNL     1     -11.218   7.458  70.693  1.00  0.00    -0.292 A  
HETATM   17  N   UNL     1     -12.861   6.665  72.277  1.00  0.00    -0.546 NA 
HETATM   18  H1  UNL     1     -12.539   5.705  72.161  1.00  0.00     0.000 HD 
HETATM   19  C   UNL     1     -10.626   8.503  69.977  1.00  0.00    -0.230 A  
HETATM   20  H2  UNL     1     -13.843   6.708  72.000  1.00  0.00     0.000 HD 
ENDBRANCH   9  11
ENDBRANCH   8   9
ENDBRANCH   7   8
ENDBRANCH   6   7
ENDBRANCH   3   6
ENDBRANCH   2   3
TORSDOF 7
ENDMDL
MODEL      138
REMARK 921   NORMALIZED FREE ENERGY PREDICTED BY IDOCK:   -4.00 KCAL/MOL
REMARK 922        TOTAL FREE ENERGY PREDICTED BY IDOCK:   -6.03 KCAL/MOL
REMARK 923 INTER-LIGAND FREE ENERGY PREDICTED BY IDOCK:   -5.47 KCAL/MOL
REMARK 924 INTRA-LIGAND FREE ENERGY PREDICTED BY IDOCK:   -0.56 KCAL/MOL
REMARK 927      BINDING AFFINITY PREDICTED BY RF-SCORE:    0.00 PKD
ROOT
HETATM    1  C   UNL     1     -12.417  12.480  64.552  1.00  0.00    -0.539 C  
HETATM    2  C   UNL     1     -11.170  13.348  64.428  1.00  0.00    -0.384 C  
ENDROOT
BRANCH   2   3
HETATM    3  N   UNL     1     -10.845  14.148  65.626  1.00  0.00    -0.296 NA 
BRANCH   3   4
HETATM    4  C   UNL     1     -10.505  15.551  65.331  1.00  0.00    -0.405 C  
HETATM    5  C   UNL     1     -10.074  16.409  66.518  1.00  0.00    -0.304 C  
ENDBRANCH   3   4
BRANCH   3   6
HETATM    6  C   UNL     1     -11.947  14.011  66.593  1.00  0.00    -0.445 C  
BRANCH   6   7
HETATM    7  C   UNL     1     -11.591  13.574  68.026  1.00  0.00    -0.337 C  
BRANCH   7   8
HETATM    8  O   UNL     1     -10.826  12.358  67.902  1.00  0.00    -0.209 OA 
BRANCH   8   9
HETATM    9  C   UNL     1     -11.435  11.260  68.425  1.00  0.00    -0.307 C  
HETATM   10  O   UNL     1     -12.497  11.288  69.023  1.00  0.00    -0.417 OA 
BRANCH   9  11
HETATM   11  C   UNL     1     -10.698  10.031  67.990  1.00  0.00    -0.303 A  
HETATM   12  C   UNL     1     -10.472   8.951  68.854  1.00  0.00    -0.205 A  
HETATM   13  C   UNL     1      -9.873   7.775  68.372  1.00  0.00    -0.180 A  
HETATM   14 CL   UNL     1     -10.913   8.934  70.527  1.00  0.00    -0.267 Cl 
HETATM   15  C   UNL     1      -9.456   7.662  67.046  1.00  0.00    -0.163 A  
HETATM   16  C   UNL     1      -9.737   8.708  66.171  1.00  0.00    -0.292 A  
HETATM   17  N   UNL     1      -8.987   6.443  66.550  1.00  0.00    -0.141 NA 
HETATM   18  H1  UNL     1      -8.683   6.360  65.581  1.00  0.00     0.000 HD 
HETATM   19  C   UNL     1     -10.326   9.887  66.639  1.00  0.00    -0.275 A  
HETATM   20  H2  UNL     1      -9.699   5.733  66.723  1.00  0.00     0.000 HD 
ENDBRANCH   9  11
ENDBRANCH   8   9
ENDBRANCH   7   8
ENDBRANCH   6   7
ENDBRANCH   3   6
ENDBRANCH   2   3
TORSDOF 7
ENDMDL
MODEL      139
REMARK 921   NORMALIZED FREE ENERGY PREDICTED BY IDOCK:   -4.00 KCAL/MOL
REMARK 922        TOTAL FREE ENERGY PREDICTED BY IDOCK:   -6.03 KCAL/MOL
REMARK 923 INTER-LIGAND FREE ENERGY PREDICTED BY IDOCK:   -5.62 KCAL/MOL
REMARK 924 INTRA-LIGAND FREE ENERGY PREDICTED BY IDOCK:   -0.41 KCAL/MOL
REMARK 927      BINDING AFFINITY PREDICTED BY RF-SCORE:    0.00 PKD
ROOT
HETATM    1  C   UNL     1      -7.234   8.473  72.032  1.00  0.00    -0.108 C  
HETATM    2  C   UNL     1      -8.750   8.324  72.035  1.00  0.00    -0.182 C  
ENDROOT
BRANCH   2   3
HETATM    3  N   UNL     1      -9.316   7.677  70.833  1.00  0.00    -0.157 NA 
BRANCH   3   4
HETATM    4  C   UNL     1     -10.414   6.739  71.124  1.00  0.00    -0.214 C  
HETATM    5  C   UNL     1     -11.258   6.292  69.933  1.00  0.00    -0.498 C  
ENDBRANCH   3   4
BRANCH   3   6
HETATM    6  C   UNL     1      -9.692   8.726  69.871  1.00  0.00    -0.178 C  
BRANCH   6   7
HETATM    7  C   UNL     1     -10.289  10.030  70.431  1.00  0.00    -0.205 C  
BRANCH   7   8
HETATM    8  O   UNL     1     -10.344  10.958  69.328  1.00  0.00    -0.220 OA 
BRANCH   8   9
HETATM    9  C   UNL     1     -11.599  11.385  69.022  1.00  0.00    -0.317 C  
HETATM   10  O   UNL     1     -12.398  10.740  68.364  1.00  0.00    -0.396 OA 
BRANCH   9  11
HETATM   11  C   UNL     1     -11.886  12.653  69.764  1.00  0.00    -0.379 A  
HETATM   12  C   UNL     1     -12.571  12.664  70.987  1.00  0.00    -0.262 A  
HETATM   13  C   UNL     1     -12.720  13.865  71.701  1.00  0.00    -0.416 A  
HETATM   14 CL   UNL     1     -13.252  11.260  71.734  1.00  0.00    -0.540 Cl 
HETATM   15  C   UNL     1     -12.230  15.073  71.205  1.00  0.00    -0.320 A  
HETATM   16  C   UNL     1     -11.494  15.053  70.023  1.00  0.00    -0.310 A  
HETATM   17  N   UNL     1     -12.267  16.229  71.987  1.00  0.00    -0.597 NA 
HETATM   18  H1  UNL     1     -11.909  17.112  71.624  1.00  0.00     0.000 HD 
HETATM   19  C   UNL     1     -11.344  13.867  69.298  1.00  0.00    -0.321 A  
HETATM   20  H2  UNL     1     -11.797  16.033  72.871  1.00  0.00     0.000 HD 
ENDBRANCH   9  11
ENDBRANCH   8   9
ENDBRANCH   7   8
ENDBRANCH   6   7
ENDBRANCH   3   6
ENDBRANCH   2   3
TORSDOF 7
ENDMDL
MODEL      140
REMARK 921   NORMALIZED FREE ENERGY PREDICTED BY IDOCK:   -4.00 KCAL/MOL
REMARK 922        TOTAL FREE ENERGY PREDICTED BY IDOCK:   -6.02 KCAL/MOL
REMARK 923 INTER-LIGAND FREE ENERGY PREDICTED BY IDOCK:   -5.69 KCAL/MOL
REMARK 924 INTRA-LIGAND FREE ENERGY PREDICTED BY IDOCK:   -0.33 KCAL/MOL
REMARK 927      BINDING AFFINITY PREDICTED BY RF-SCORE:    0.00 PKD
ROOT
HETATM    1  C   UNL     1     -10.497  11.359  65.159  1.00  0.00    -0.351 C  
HETATM    2  C   UNL     1     -11.315  12.398  65.917  1.00  0.00    -0.356 C  
ENDROOT
BRANCH   2   3
HETATM    3  N   UNL     1     -10.526  13.318  66.761  1.00  0.00    -0.268 NA 
BRANCH   3   4
HETATM    4  C   UNL     1     -10.986  14.717  66.707  1.00  0.00    -0.323 C  
HETATM    5  C   UNL     1     -10.169  15.731  67.504  1.00  0.00    -0.265 C  
ENDBRANCH   3   4
BRANCH   3   6
HETATM    6  C   UNL     1     -10.483  12.776  68.129  1.00  0.00    -0.236 C  
BRANCH   6   7
HETATM    7  C   UNL     1     -11.786  12.196  68.711  1.00  0.00    -0.321 C  
BRANCH   7   8
HETATM    8  O   UNL     1     -11.420  10.976  69.389  1.00  0.00    -0.240 OA 
BRANCH   8   9
HETATM    9  C   UNL     1     -11.810  10.924  70.691  1.00  0.00    -0.352 C  
HETATM   10  O   UNL     1     -12.583  11.715  71.204  1.00  0.00    -0.385 OA 
BRANCH   9  11
HETATM   11  C   UNL     1     -11.293   9.664  71.312  1.00  0.00    -0.458 A  
HETATM   12  C   UNL     1     -12.144   8.720  71.904  1.00  0.00    -0.363 A  
HETATM   13  C   UNL     1     -11.626   7.501  72.375  1.00  0.00    -0.356 A  
HETATM   14 CL   UNL     1     -13.852   8.926  72.084  1.00  0.00    -0.487 Cl 
HETATM   15  C   UNL     1     -10.263   7.214  72.304  1.00  0.00    -0.190 A  
HETATM   16  C   UNL     1      -9.427   8.122  71.659  1.00  0.00    -0.233 A  
HETATM   17  N   UNL     1      -9.785   5.948  72.652  1.00  0.00    -0.153 NA 
HETATM   18  H1  UNL     1      -8.789   5.738  72.599  1.00  0.00     0.000 HD 
HETATM   19  C   UNL     1      -9.927   9.341  71.192  1.00  0.00    -0.356 A  
HETATM   20  H2  UNL     1     -10.287   5.253  72.099  1.00  0.00     0.000 HD 
ENDBRANCH   9  11
ENDBRANCH   8   9
ENDBRANCH   7   8
ENDBRANCH   6   7
ENDBRANCH   3   6
ENDBRANCH   2   3
TORSDOF 7
ENDMDL
MODEL      141
REMARK 921   NORMALIZED FREE ENERGY PREDICTED BY IDOCK:   -4.00 KCAL/MOL
REMARK 922        TOTAL FREE ENERGY PREDICTED BY IDOCK:   -6.02 KCAL/MOL
REMARK 923 INTER-LIGAND FREE ENERGY PREDICTED BY IDOCK:   -5.45 KCAL/MOL
REMARK 924 INTRA-LIGAND FREE ENERGY PREDICTED BY IDOCK:   -0.57 KCAL/MOL
REMARK 927      BINDING AFFINITY PREDICTED BY RF-SCORE:    0.00 PKD
ROOT
HETATM    1  C   UNL     1     -11.110   6.554  67.318  1.00  0.00    -0.429 C  
HETATM    2  C   UNL     1     -10.100   6.930  68.394  1.00  0.00    -0.168 C  
ENDROOT
BRANCH   2   3
HETATM    3  N   UNL     1     -10.682   7.242  69.715  1.00  0.00    -0.236 NA 
BRANCH   3   4
HETATM    4  C   UNL     1     -10.866   6.063  70.579  1.00  0.00    -0.314 C  
HETATM    5  C   UNL     1      -9.721   5.736  71.535  1.00  0.00    -0.193 C  
ENDBRANCH   3   4
BRANCH   3   6
HETATM    6  C   UNL     1      -9.873   8.299  70.344  1.00  0.00    -0.186 C  
BRANCH   6   7
HETATM    7  C   UNL     1     -10.491   9.705  70.451  1.00  0.00    -0.293 C  
BRANCH   7   8
HETATM    8  O   UNL     1     -10.316  10.324  69.159  1.00  0.00    -0.196 OA 
BRANCH   8   9
HETATM    9  C   UNL     1     -11.467  10.799  68.610  1.00  0.00    -0.295 C  
HETATM   10  O   UNL     1     -12.503  10.963  69.230  1.00  0.00    -0.392 OA 
BRANCH   9  11
HETATM   11  C   UNL     1     -11.196  11.247  67.207  1.00  0.00    -0.364 A  
HETATM   12  C   UNL     1     -11.327  12.586  66.812  1.00  0.00    -0.334 A  
HETATM   13  C   UNL     1     -10.956  12.978  65.515  1.00  0.00    -0.296 A  
HETATM   14 CL   UNL     1     -11.903  13.852  67.841  1.00  0.00    -0.398 Cl 
HETATM   15  C   UNL     1     -10.488  12.054  64.581  1.00  0.00    -0.297 A  
HETATM   16  C   UNL     1     -10.298  10.737  64.990  1.00  0.00    -0.357 A  
HETATM   17  N   UNL     1      -9.998  12.479  63.344  1.00  0.00    -0.637 NA 
HETATM   18  H1  UNL     1      -9.656  11.804  62.661  1.00  0.00     0.000 HD 
HETATM   19  C   UNL     1     -10.669  10.330  66.276  1.00  0.00    -0.070 A  
HETATM   20  H2  UNL     1      -9.261  13.165  63.511  1.00  0.00     0.000 HD 
ENDBRANCH   9  11
ENDBRANCH   8   9
ENDBRANCH   7   8
ENDBRANCH   6   7
ENDBRANCH   3   6
ENDBRANCH   2   3
TORSDOF 7
ENDMDL
MODEL      142
REMARK 921   NORMALIZED FREE ENERGY PREDICTED BY IDOCK:   -3.99 KCAL/MOL
REMARK 922        TOTAL FREE ENERGY PREDICTED BY IDOCK:   -6.02 KCAL/MOL
REMARK 923 INTER-LIGAND FREE ENERGY PREDICTED BY IDOCK:   -5.36 KCAL/MOL
REMARK 924 INTRA-LIGAND FREE ENERGY PREDICTED BY IDOCK:   -0.66 KCAL/MOL
REMARK 927      BINDING AFFINITY PREDICTED BY RF-SCORE:    0.00 PKD
ROOT
HETATM    1  C   UNL     1     -12.534  12.037  63.458  1.00  0.00    -0.654 C  
HETATM    2  C   UNL     1     -11.026  11.905  63.629  1.00  0.00    -0.440 C  
ENDROOT
BRANCH   2   3
HETATM    3  N   UNL     1     -10.487  12.470  64.883  1.00  0.00    -0.294 NA 
BRANCH   3   4
HETATM    4  C   UNL     1     -11.326  13.530  65.467  1.00  0.00    -0.296 C  
HETATM    5  C   UNL     1     -11.535  13.477  66.978  1.00  0.00    -0.369 C  
ENDBRANCH   3   4
BRANCH   3   6
HETATM    6  C   UNL     1     -10.220  11.364  65.817  1.00  0.00    -0.248 C  
BRANCH   6   7
HETATM    7  C   UNL     1      -8.763  11.141  66.265  1.00  0.00    -0.182 C  
BRANCH   7   8
HETATM    8  O   UNL     1      -8.820  10.270  67.413  1.00  0.00    -0.131 OA 
BRANCH   8   9
HETATM    9  C   UNL     1      -8.757  10.919  68.607  1.00  0.00    -0.154 C  
HETATM   10  O   UNL     1      -8.034  11.874  68.829  1.00  0.00    -0.123 OA 
BRANCH   9  11
HETATM   11  C   UNL     1      -9.830  10.394  69.511  1.00  0.00    -0.211 A  
HETATM   12  C   UNL     1      -9.601   9.343  70.410  1.00  0.00    -0.266 A  
HETATM   13  C   UNL     1     -10.605   8.958  71.315  1.00  0.00    -0.351 A  
HETATM   14 CL   UNL     1      -8.116   8.463  70.521  1.00  0.00    -0.101 Cl 
HETATM   15  C   UNL     1     -11.855   9.576  71.322  1.00  0.00    -0.373 A  
HETATM   16  C   UNL     1     -12.062  10.662  70.475  1.00  0.00    -0.448 A  
HETATM   17  N   UNL     1     -12.791   9.275  72.314  1.00  0.00    -0.393 NA 
HETATM   18  H1  UNL     1     -13.705   9.727  72.319  1.00  0.00     0.000 HD 
HETATM   19  C   UNL     1     -11.075  11.051  69.563  1.00  0.00    -0.322 A  
HETATM   20  H2  UNL     1     -12.354   9.428  73.223  1.00  0.00     0.000 HD 
ENDBRANCH   9  11
ENDBRANCH   8   9
ENDBRANCH   7   8
ENDBRANCH   6   7
ENDBRANCH   3   6
ENDBRANCH   2   3
TORSDOF 7
ENDMDL
MODEL      143
REMARK 921   NORMALIZED FREE ENERGY PREDICTED BY IDOCK:   -3.99 KCAL/MOL
REMARK 922        TOTAL FREE ENERGY PREDICTED BY IDOCK:   -6.01 KCAL/MOL
REMARK 923 INTER-LIGAND FREE ENERGY PREDICTED BY IDOCK:   -5.57 KCAL/MOL
REMARK 924 INTRA-LIGAND FREE ENERGY PREDICTED BY IDOCK:   -0.45 KCAL/MOL
REMARK 927      BINDING AFFINITY PREDICTED BY RF-SCORE:    0.00 PKD
ROOT
HETATM    1  C   UNL     1      -8.520  10.132  69.533  1.00  0.00    -0.179 C  
HETATM    2  C   UNL     1      -8.587  10.881  68.208  1.00  0.00    -0.139 C  
ENDROOT
BRANCH   2   3
HETATM    3  N   UNL     1      -8.244  12.316  68.283  1.00  0.00    -0.164 NA 
BRANCH   3   4
HETATM    4  C   UNL     1      -6.800  12.578  68.407  1.00  0.00    -0.085 C  
HETATM    5  C   UNL     1      -6.373  13.506  69.541  1.00  0.00    -0.108 C  
ENDBRANCH   3   4
BRANCH   3   6
HETATM    6  C   UNL     1      -8.862  13.004  67.137  1.00  0.00    -0.218 C  
BRANCH   6   7
HETATM    7  C   UNL     1      -9.894  14.107  67.437  1.00  0.00    -0.239 C  
BRANCH   7   8
HETATM    8  O   UNL     1     -11.075  13.437  67.922  1.00  0.00    -0.250 OA 
BRANCH   8   9
HETATM    9  C   UNL     1     -11.685  14.066  68.963  1.00  0.00    -0.330 C  
HETATM   10  O   UNL     1     -11.969  15.251  68.973  1.00  0.00    -0.323 OA 
BRANCH   9  11
HETATM   11  C   UNL     1     -12.102  13.049  69.979  1.00  0.00    -0.367 A  
HETATM   12  C   UNL     1     -12.821  13.395  71.131  1.00  0.00    -0.291 A  
HETATM   13  C   UNL     1     -13.286  12.394  72.001  1.00  0.00    -0.514 A  
HETATM   14 CL   UNL     1     -13.224  15.018  71.575  1.00  0.00    -0.438 Cl 
HETATM   15  C   UNL     1     -13.017  11.045  71.767  1.00  0.00    -0.438 A  
HETATM   16  C   UNL     1     -12.359  10.695  70.591  1.00  0.00    -0.462 A  
HETATM   17  N   UNL     1     -13.599  10.057  72.564  1.00  0.00    -0.595 NA 
HETATM   18  H1  UNL     1     -13.403   9.071  72.393  1.00  0.00     0.000 HD 
HETATM   19  C   UNL     1     -11.884  11.681  69.720  1.00  0.00    -0.428 A  
HETATM   20  H2  UNL     1     -14.611  10.188  72.549  1.00  0.00     0.000 HD 
ENDBRANCH   9  11
ENDBRANCH   8   9
ENDBRANCH   7   8
ENDBRANCH   6   7
ENDBRANCH   3   6
ENDBRANCH   2   3
TORSDOF 7
ENDMDL
MODEL      144
REMARK 921   NORMALIZED FREE ENERGY PREDICTED BY IDOCK:   -3.98 KCAL/MOL
REMARK 922        TOTAL FREE ENERGY PREDICTED BY IDOCK:   -6.00 KCAL/MOL
REMARK 923 INTER-LIGAND FREE ENERGY PREDICTED BY IDOCK:   -5.61 KCAL/MOL
REMARK 924 INTRA-LIGAND FREE ENERGY PREDICTED BY IDOCK:   -0.39 KCAL/MOL
REMARK 927      BINDING AFFINITY PREDICTED BY RF-SCORE:    0.00 PKD
ROOT
HETATM    1  C   UNL     1      -9.525  10.458  64.912  1.00  0.00    -0.320 C  
HETATM    2  C   UNL     1     -10.294  11.127  66.044  1.00  0.00    -0.254 C  
ENDROOT
BRANCH   2   3
HETATM    3  N   UNL     1     -10.627  12.548  65.819  1.00  0.00    -0.264 NA 
BRANCH   3   4
HETATM    4  C   UNL     1     -11.906  12.962  66.422  1.00  0.00    -0.415 C  
HETATM    5  C   UNL     1     -12.774  13.905  65.593  1.00  0.00    -0.534 C  
ENDBRANCH   3   4
BRANCH   3   6
HETATM    6  C   UNL     1      -9.487  13.370  66.257  1.00  0.00    -0.183 C  
BRANCH   6   7
HETATM    7  C   UNL     1      -9.749  14.442  67.331  1.00  0.00    -0.220 C  
BRANCH   7   8
HETATM    8  O   UNL     1      -9.435  15.712  66.722  1.00  0.00    -0.221 OA 
BRANCH   8   9
HETATM    9  C   UNL     1     -10.048  16.776  67.307  1.00  0.00    -0.281 C  
HETATM   10  O   UNL     1     -11.142  16.725  67.842  1.00  0.00    -0.302 OA 
BRANCH   9  11
HETATM   11  C   UNL     1      -9.099  17.933  67.345  1.00  0.00    -0.245 A  
HETATM   12  C   UNL     1      -9.411  19.174  66.774  1.00  0.00    -0.323 A  
HETATM   13  C   UNL     1      -8.536  20.263  66.930  1.00  0.00    -0.354 A  
HETATM   14 CL   UNL     1     -10.856  19.499  65.880  1.00  0.00    -0.501 Cl 
HETATM   15  C   UNL     1      -7.329  20.134  67.617  1.00  0.00    -0.293 A  
HETATM   16  C   UNL     1      -7.048  18.920  68.239  1.00  0.00    -0.285 A  
HETATM   17  N   UNL     1      -6.537  21.254  67.879  1.00  0.00    -0.346 NA 
HETATM   18  H1  UNL     1      -5.655  21.160  68.381  1.00  0.00     0.000 HD 
HETATM   19  C   UNL     1      -7.905  17.826  68.086  1.00  0.00    -0.264 A  
HETATM   20  H2  UNL     1      -7.110  21.944  68.366  1.00  0.00     0.000 HD 
ENDBRANCH   9  11
ENDBRANCH   8   9
ENDBRANCH   7   8
ENDBRANCH   6   7
ENDBRANCH   3   6
ENDBRANCH   2   3
TORSDOF 7
ENDMDL
MODEL      145
REMARK 921   NORMALIZED FREE ENERGY PREDICTED BY IDOCK:   -3.98 KCAL/MOL
REMARK 922        TOTAL FREE ENERGY PREDICTED BY IDOCK:   -5.99 KCAL/MOL
REMARK 923 INTER-LIGAND FREE ENERGY PREDICTED BY IDOCK:   -5.44 KCAL/MOL
REMARK 924 INTRA-LIGAND FREE ENERGY PREDICTED BY IDOCK:   -0.55 KCAL/MOL
REMARK 927      BINDING AFFINITY PREDICTED BY RF-SCORE:    0.00 PKD
ROOT
HETATM    1  C   UNL     1      -7.628   7.913  67.440  1.00  0.00    -0.097 C  
HETATM    2  C   UNL     1      -8.062   8.682  68.681  1.00  0.00    -0.117 C  
ENDROOT
BRANCH   2   3
HETATM    3  N   UNL     1      -9.319   9.445  68.535  1.00  0.00    -0.137 NA 
BRANCH   3   4
HETATM    4  C   UNL     1      -9.884   9.910  69.813  1.00  0.00    -0.236 C  
HETATM    5  C   UNL     1     -10.614   8.866  70.653  1.00  0.00    -0.277 C  
ENDBRANCH   3   4
BRANCH   3   6
HETATM    6  C   UNL     1      -9.094  10.535  67.571  1.00  0.00    -0.138 C  
BRANCH   6   7
HETATM    7  C   UNL     1     -10.196  10.807  66.530  1.00  0.00    -0.235 C  
BRANCH   7   8
HETATM    8  O   UNL     1     -10.218  12.235  66.327  1.00  0.00    -0.221 OA 
BRANCH   8   9
HETATM    9  C   UNL     1     -11.452  12.795  66.443  1.00  0.00    -0.357 C  
HETATM   10  O   UNL     1     -12.409  12.488  65.753  1.00  0.00    -0.627 OA 
BRANCH   9  11
HETATM   11  C   UNL     1     -11.479  13.686  67.646  1.00  0.00    -0.357 A  
HETATM   12  C   UNL     1     -11.199  15.057  67.567  1.00  0.00    -0.330 A  
HETATM   13  C   UNL     1     -11.344  15.874  68.701  1.00  0.00    -0.376 A  
HETATM   14 CL   UNL     1     -10.696  15.866  66.122  1.00  0.00    -0.301 Cl 
HETATM   15  C   UNL     1     -11.730  15.346  69.933  1.00  0.00    -0.336 A  
HETATM   16  C   UNL     1     -12.070  13.997  69.999  1.00  0.00    -0.412 A  
HETATM   17  N   UNL     1     -11.999  16.188  71.014  1.00  0.00    -0.567 NA 
HETATM   18  H1  UNL     1     -12.281  15.803  71.914  1.00  0.00     0.000 HD 
HETATM   19  C   UNL     1     -11.924  13.171  68.880  1.00  0.00    -0.317 A  
HETATM   20  H2  UNL     1     -12.703  16.867  70.723  1.00  0.00     0.000 HD 
ENDBRANCH   9  11
ENDBRANCH   8   9
ENDBRANCH   7   8
ENDBRANCH   6   7
ENDBRANCH   3   6
ENDBRANCH   2   3
TORSDOF 7
ENDMDL
MODEL      146
REMARK 921   NORMALIZED FREE ENERGY PREDICTED BY IDOCK:   -3.96 KCAL/MOL
REMARK 922        TOTAL FREE ENERGY PREDICTED BY IDOCK:   -5.97 KCAL/MOL
REMARK 923 INTER-LIGAND FREE ENERGY PREDICTED BY IDOCK:   -5.36 KCAL/MOL
REMARK 924 INTRA-LIGAND FREE ENERGY PREDICTED BY IDOCK:   -0.60 KCAL/MOL
REMARK 927      BINDING AFFINITY PREDICTED BY RF-SCORE:    0.00 PKD
ROOT
HETATM    1  C   UNL     1     -10.080   7.219  67.028  1.00  0.00    -0.316 C  
HETATM    2  C   UNL     1     -10.241   8.664  67.485  1.00  0.00    -0.245 C  
ENDROOT
BRANCH   2   3
HETATM    3  N   UNL     1      -9.008   9.300  67.992  1.00  0.00    -0.128 NA 
BRANCH   3   4
HETATM    4  C   UNL     1      -8.660  10.555  67.305  1.00  0.00    -0.122 C  
HETATM    5  C   UNL     1      -9.811  11.309  66.643  1.00  0.00    -0.235 C  
ENDBRANCH   3   4
BRANCH   3   6
HETATM    6  C   UNL     1      -9.127   9.452  69.451  1.00  0.00    -0.161 C  
BRANCH   6   7
HETATM    7  C   UNL     1     -10.529   9.311  70.073  1.00  0.00    -0.226 C  
BRANCH   7   8
HETATM    8  O   UNL     1     -10.917  10.632  70.503  1.00  0.00    -0.225 OA 
BRANCH   8   9
HETATM    9  C   UNL     1     -11.880  11.208  69.733  1.00  0.00    -0.349 C  
HETATM   10  O   UNL     1     -12.381  10.677  68.757  1.00  0.00    -0.349 OA 
BRANCH   9  11
HETATM   11  C   UNL     1     -12.335  12.479  70.380  1.00  0.00    -0.311 A  
HETATM   12  C   UNL     1     -12.108  13.735  69.800  1.00  0.00    -0.340 A  
HETATM   13  C   UNL     1     -12.650  14.891  70.387  1.00  0.00    -0.394 A  
HETATM   14 CL   UNL     1     -11.203  13.987  68.347  1.00  0.00    -0.275 Cl 
HETATM   15  C   UNL     1     -13.388  14.830  71.569  1.00  0.00    -0.374 A  
HETATM   16  C   UNL     1     -13.669  13.578  72.111  1.00  0.00    -0.654 A  
HETATM   17  N   UNL     1     -14.031  15.966  72.064  1.00  0.00    -0.297 NA 
HETATM   18  H1  UNL     1     -14.571  15.922  72.928  1.00  0.00     0.000 HD 
HETATM   19  C   UNL     1     -13.130  12.420  71.542  1.00  0.00    -0.362 A  
HETATM   20  H2  UNL     1     -14.633  16.339  71.330  1.00  0.00     0.000 HD 
ENDBRANCH   9  11
ENDBRANCH   8   9
ENDBRANCH   7   8
ENDBRANCH   6   7
ENDBRANCH   3   6
ENDBRANCH   2   3
TORSDOF 7
ENDMDL
MODEL      147
REMARK 921   NORMALIZED FREE ENERGY PREDICTED BY IDOCK:   -3.94 KCAL/MOL
REMARK 922        TOTAL FREE ENERGY PREDICTED BY IDOCK:   -5.95 KCAL/MOL
REMARK 923 INTER-LIGAND FREE ENERGY PREDICTED BY IDOCK:   -5.61 KCAL/MOL
REMARK 924 INTRA-LIGAND FREE ENERGY PREDICTED BY IDOCK:   -0.34 KCAL/MOL
REMARK 927      BINDING AFFINITY PREDICTED BY RF-SCORE:    0.00 PKD
ROOT
HETATM    1  C   UNL     1      -9.506   9.168  70.358  1.00  0.00    -0.269 C  
HETATM    2  C   UNL     1     -10.101  10.376  69.645  1.00  0.00    -0.190 C  
ENDROOT
BRANCH   2   3
HETATM    3  N   UNL     1     -11.577  10.442  69.654  1.00  0.00    -0.250 NA 
BRANCH   3   4
HETATM    4  C   UNL     1     -12.143  10.932  70.922  1.00  0.00    -0.349 C  
HETATM    5  C   UNL     1     -13.092   9.985  71.652  1.00  0.00    -0.547 C  
ENDBRANCH   3   4
BRANCH   3   6
HETATM    6  C   UNL     1     -12.016  11.221  68.484  1.00  0.00    -0.218 C  
BRANCH   6   7
HETATM    7  C   UNL     1     -10.937  11.961  67.672  1.00  0.00    -0.235 C  
BRANCH   7   8
HETATM    8  O   UNL     1     -10.937  13.324  68.144  1.00  0.00    -0.239 OA 
BRANCH   8   9
HETATM    9  C   UNL     1     -11.498  14.213  67.281  1.00  0.00    -0.350 C  
HETATM   10  O   UNL     1     -12.409  13.942  66.518  1.00  0.00    -0.445 OA 
BRANCH   9  11
HETATM   11  C   UNL     1     -10.952  15.580  67.555  1.00  0.00    -0.316 A  
HETATM   12  C   UNL     1     -11.156  16.235  68.777  1.00  0.00    -0.355 A  
HETATM   13  C   UNL     1     -10.532  17.469  69.029  1.00  0.00    -0.250 A  
HETATM   14 CL   UNL     1     -12.129  15.612  70.064  1.00  0.00    -0.385 Cl 
HETATM   15  C   UNL     1      -9.731  18.089  68.070  1.00  0.00    -0.309 A  
HETATM   16  C   UNL     1      -9.476  17.411  66.881  1.00  0.00    -0.275 A  
HETATM   17  N   UNL     1      -9.013  19.244  68.384  1.00  0.00    -0.341 NA 
HETATM   18  H1  UNL     1      -8.427  19.698  67.683  1.00  0.00     0.000 HD 
HETATM   19  C   UNL     1     -10.096  16.186  66.613  1.00  0.00    -0.283 A  
HETATM   20  H2  UNL     1      -8.436  19.050  69.203  1.00  0.00     0.000 HD 
ENDBRANCH   9  11
ENDBRANCH   8   9
ENDBRANCH   7   8
ENDBRANCH   6   7
ENDBRANCH   3   6
ENDBRANCH   2   3
TORSDOF 7
ENDMDL
MODEL      148
REMARK 921   NORMALIZED FREE ENERGY PREDICTED BY IDOCK:   -3.92 KCAL/MOL
REMARK 922        TOTAL FREE ENERGY PREDICTED BY IDOCK:   -5.92 KCAL/MOL
REMARK 923 INTER-LIGAND FREE ENERGY PREDICTED BY IDOCK:   -5.55 KCAL/MOL
REMARK 924 INTRA-LIGAND FREE ENERGY PREDICTED BY IDOCK:   -0.37 KCAL/MOL
REMARK 927      BINDING AFFINITY PREDICTED BY RF-SCORE:    0.00 PKD
ROOT
HETATM    1  C   UNL     1      -5.493  18.638  65.492  1.00  0.00    -0.216 C  
HETATM    2  C   UNL     1      -6.899  18.122  65.770  1.00  0.00    -0.270 C  
ENDROOT
BRANCH   2   3
HETATM    3  N   UNL     1      -7.359  18.281  67.164  1.00  0.00    -0.200 NA 
BRANCH   3   4
HETATM    4  C   UNL     1      -6.842  19.491  67.827  1.00  0.00    -0.239 C  
HETATM    5  C   UNL     1      -7.584  20.793  67.538  1.00  0.00    -0.312 C  
ENDBRANCH   3   4
BRANCH   3   6
HETATM    6  C   UNL     1      -8.828  18.194  67.185  1.00  0.00    -0.259 C  
BRANCH   6   7
HETATM    7  C   UNL     1      -9.503  17.798  68.511  1.00  0.00    -0.304 C  
BRANCH   7   8
HETATM    8  O   UNL     1     -10.452  16.761  68.190  1.00  0.00    -0.299 OA 
BRANCH   8   9
HETATM    9  C   UNL     1     -10.159  15.550  68.737  1.00  0.00    -0.211 C  
HETATM   10  O   UNL     1      -9.098  14.971  68.585  1.00  0.00    -0.177 OA 
BRANCH   9  11
HETATM   11  C   UNL     1     -11.255  15.154  69.677  1.00  0.00    -0.288 A  
HETATM   12  C   UNL     1     -12.012  13.989  69.493  1.00  0.00    -0.339 A  
HETATM   13  C   UNL     1     -12.955  13.600  70.461  1.00  0.00    -0.065 A  
HETATM   14 CL   UNL     1     -11.856  12.931  68.133  1.00  0.00    -0.389 Cl 
HETATM   15  C   UNL     1     -13.190  14.371  71.599  1.00  0.00    -0.350 A  
HETATM   16  C   UNL     1     -12.394  15.494  71.814  1.00  0.00    -0.475 A  
HETATM   17  N   UNL     1     -14.030  13.904  72.612  1.00  0.00    -0.713 NA 
HETATM   18  H1  UNL     1     -14.201  14.467  73.444  1.00  0.00     0.000 HD 
HETATM   19  C   UNL     1     -11.458  15.896  70.858  1.00  0.00    -0.444 A  
HETATM   20  H2  UNL     1     -13.692  12.989  72.911  1.00  0.00     0.000 HD 
ENDBRANCH   9  11
ENDBRANCH   8   9
ENDBRANCH   7   8
ENDBRANCH   6   7
ENDBRANCH   3   6
ENDBRANCH   2   3
TORSDOF 7
ENDMDL
MODEL      149
REMARK 921   NORMALIZED FREE ENERGY PREDICTED BY IDOCK:   -3.92 KCAL/MOL
REMARK 922        TOTAL FREE ENERGY PREDICTED BY IDOCK:   -5.91 KCAL/MOL
REMARK 923 INTER-LIGAND FREE ENERGY PREDICTED BY IDOCK:   -5.35 KCAL/MOL
REMARK 924 INTRA-LIGAND FREE ENERGY PREDICTED BY IDOCK:   -0.57 KCAL/MOL
REMARK 927      BINDING AFFINITY PREDICTED BY RF-SCORE:    0.00 PKD
ROOT
HETATM    1  C   UNL     1     -10.535   7.922  67.058  1.00  0.00    -0.419 C  
HETATM    2  C   UNL     1     -10.329   9.413  67.293  1.00  0.00    -0.260 C  
ENDROOT
BRANCH   2   3
HETATM    3  N   UNL     1     -10.793   9.908  68.605  1.00  0.00    -0.223 NA 
BRANCH   3   4
HETATM    4  C   UNL     1      -9.705  10.164  69.564  1.00  0.00    -0.229 C  
HETATM    5  C   UNL     1      -9.527   9.139  70.681  1.00  0.00    -0.316 C  
ENDBRANCH   3   4
BRANCH   3   6
HETATM    6  C   UNL     1     -11.657  11.079  68.383  1.00  0.00    -0.302 C  
BRANCH   6   7
HETATM    7  C   UNL     1     -11.210  12.423  68.989  1.00  0.00    -0.266 C  
BRANCH   7   8
HETATM    8  O   UNL     1     -10.981  13.314  67.878  1.00  0.00    -0.238 OA 
BRANCH   8   9
HETATM    9  C   UNL     1      -9.758  13.909  67.884  1.00  0.00    -0.231 C  
HETATM   10  O   UNL     1      -8.703  13.302  67.949  1.00  0.00    -0.170 OA 
BRANCH   9  11
HETATM   11  C   UNL     1      -9.920  15.373  67.614  1.00  0.00    -0.225 A  
HETATM   12  C   UNL     1     -10.226  15.868  66.339  1.00  0.00    -0.301 A  
HETATM   13  C   UNL     1     -10.478  17.239  66.156  1.00  0.00    -0.279 A  
HETATM   14 CL   UNL     1     -10.354  14.888  64.919  1.00  0.00    -0.406 Cl 
HETATM   15  C   UNL     1     -10.394  18.142  67.216  1.00  0.00    -0.386 A  
HETATM   16  C   UNL     1     -10.153  17.643  68.493  1.00  0.00    -0.375 A  
HETATM   17  N   UNL     1     -10.777  19.474  67.045  1.00  0.00    -0.488 NA 
HETATM   18  H1  UNL     1     -10.717  20.134  67.820  1.00  0.00     0.000 HD 
HETATM   19  C   UNL     1      -9.894  16.283  68.689  1.00  0.00    -0.230 A  
HETATM   20  H2  UNL     1     -11.733  19.489  66.688  1.00  0.00     0.000 HD 
ENDBRANCH   9  11
ENDBRANCH   8   9
ENDBRANCH   7   8
ENDBRANCH   6   7
ENDBRANCH   3   6
ENDBRANCH   2   3
TORSDOF 7
ENDMDL
MODEL      150
REMARK 921   NORMALIZED FREE ENERGY PREDICTED BY IDOCK:   -3.87 KCAL/MOL
REMARK 922        TOTAL FREE ENERGY PREDICTED BY IDOCK:   -5.84 KCAL/MOL
REMARK 923 INTER-LIGAND FREE ENERGY PREDICTED BY IDOCK:   -5.70 KCAL/MOL
REMARK 924 INTRA-LIGAND FREE ENERGY PREDICTED BY IDOCK:   -0.14 KCAL/MOL
REMARK 927      BINDING AFFINITY PREDICTED BY RF-SCORE:    0.00 PKD
ROOT
HETATM    1  C   UNL     1      -8.020   8.413  71.683  1.00  0.00    -0.169 C  
HETATM    2  C   UNL     1      -9.486   8.780  71.884  1.00  0.00    -0.292 C  
ENDROOT
BRANCH   2   3
HETATM    3  N   UNL     1     -10.435   8.057  71.014  1.00  0.00    -0.202 NA 
BRANCH   3   4
HETATM    4  C   UNL     1     -11.474   7.318  71.751  1.00  0.00    -0.267 C  
HETATM    5  C   UNL     1     -11.258   5.815  71.906  1.00  0.00    -0.289 C  
ENDBRANCH   3   4
BRANCH   3   6
HETATM    6  C   UNL     1     -10.986   9.007  70.033  1.00  0.00    -0.214 C  
BRANCH   6   7
HETATM    7  C   UNL     1     -11.387  10.405  70.539  1.00  0.00    -0.341 C  
BRANCH   7   8
HETATM    8  O   UNL     1     -12.133  11.025  69.471  1.00  0.00    -0.324 OA 
BRANCH   8   9
HETATM    9  C   UNL     1     -11.872  12.350  69.305  1.00  0.00    -0.304 C  
HETATM   10  O   UNL     1     -11.796  13.150  70.220  1.00  0.00    -0.306 OA 
BRANCH   9  11
HETATM   11  C   UNL     1     -11.519  12.608  67.873  1.00  0.00    -0.360 A  
HETATM   12  C   UNL     1     -11.205  13.890  67.401  1.00  0.00    -0.312 A  
HETATM   13  C   UNL     1     -10.774  14.068  66.075  1.00  0.00    -0.294 A  
HETATM   14 CL   UNL     1     -11.281  15.327  68.362  1.00  0.00    -0.295 Cl 
HETATM   15  C   UNL     1     -10.682  12.994  65.190  1.00  0.00    -0.306 A  
HETATM   16  C   UNL     1     -10.932  11.713  65.674  1.00  0.00    -0.322 A  
HETATM   17  N   UNL     1     -10.125  13.166  63.921  1.00  0.00    -0.764 NA 
HETATM   18  H1  UNL     1     -10.057  12.381  63.274  1.00  0.00     0.000 HD 
HETATM   19  C   UNL     1     -11.369  11.522  66.989  1.00  0.00    -0.340 A  
HETATM   20  H2  UNL     1      -9.194  13.569  64.032  1.00  0.00     0.000 HD 
ENDBRANCH   9  11
ENDBRANCH   8   9
ENDBRANCH   7   8
ENDBRANCH   6   7
ENDBRANCH   3   6
ENDBRANCH   2   3
TORSDOF 7
ENDMDL
MODEL      151
REMARK 921   NORMALIZED FREE ENERGY PREDICTED BY IDOCK:   -3.87 KCAL/MOL
REMARK 922        TOTAL FREE ENERGY PREDICTED BY IDOCK:   -5.84 KCAL/MOL
REMARK 923 INTER-LIGAND FREE ENERGY PREDICTED BY IDOCK:   -5.46 KCAL/MOL
REMARK 924 INTRA-LIGAND FREE ENERGY PREDICTED BY IDOCK:   -0.38 KCAL/MOL
REMARK 927      BINDING AFFINITY PREDICTED BY RF-SCORE:    0.00 PKD
ROOT
HETATM    1  C   UNL     1     -12.082  14.328  68.100  1.00  0.00    -0.275 C  
HETATM    2  C   UNL     1     -11.883  14.196  66.595  1.00  0.00    -0.424 C  
ENDROOT
BRANCH   2   3
HETATM    3  N   UNL     1     -11.595  12.827  66.121  1.00  0.00    -0.358 NA 
BRANCH   3   4
HETATM    4  C   UNL     1     -12.487  12.371  65.041  1.00  0.00    -0.316 C  
HETATM    5  C   UNL     1     -11.879  12.302  63.642  1.00  0.00    -0.610 C  
ENDBRANCH   3   4
BRANCH   3   6
HETATM    6  C   UNL     1     -10.168  12.746  65.766  1.00  0.00    -0.289 C  
BRANCH   6   7
HETATM    7  C   UNL     1      -9.139  12.933  66.896  1.00  0.00    -0.224 C  
BRANCH   7   8
HETATM    8  O   UNL     1      -8.567  14.244  66.712  1.00  0.00    -0.188 OA 
BRANCH   8   9
HETATM    9  C   UNL     1      -8.608  15.031  67.821  1.00  0.00    -0.161 C  
HETATM   10  O   UNL     1      -8.627  14.602  68.961  1.00  0.00    -0.164 OA 
BRANCH   9  11
HETATM   11  C   UNL     1      -8.439  16.463  67.417  1.00  0.00    -0.195 A  
HETATM   12  C   UNL     1      -9.145  17.502  68.039  1.00  0.00    -0.269 A  
HETATM   13  C   UNL     1      -8.873  18.839  67.703  1.00  0.00    -0.300 A  
HETATM   14 CL   UNL     1     -10.351  17.267  69.257  1.00  0.00    -0.298 Cl 
HETATM   15  C   UNL     1      -7.933  19.168  66.727  1.00  0.00    -0.269 A  
HETATM   16  C   UNL     1      -7.187  18.141  66.154  1.00  0.00    -0.316 A  
HETATM   17  N   UNL     1      -7.579  20.499  66.501  1.00  0.00    -0.485 NA 
HETATM   18  H1  UNL     1      -6.891  20.740  65.788  1.00  0.00     0.000 HD 
HETATM   19  C   UNL     1      -7.451  16.805  66.473  1.00  0.00    -0.322 A  
HETATM   20  H2  UNL     1      -7.274  20.904  67.387  1.00  0.00     0.000 HD 
ENDBRANCH   9  11
ENDBRANCH   8   9
ENDBRANCH   7   8
ENDBRANCH   6   7
ENDBRANCH   3   6
ENDBRANCH   2   3
TORSDOF 7
ENDMDL
MODEL      152
REMARK 921   NORMALIZED FREE ENERGY PREDICTED BY IDOCK:   -3.87 KCAL/MOL
REMARK 922        TOTAL FREE ENERGY PREDICTED BY IDOCK:   -5.84 KCAL/MOL
REMARK 923 INTER-LIGAND FREE ENERGY PREDICTED BY IDOCK:   -5.32 KCAL/MOL
REMARK 924 INTRA-LIGAND FREE ENERGY PREDICTED BY IDOCK:   -0.53 KCAL/MOL
REMARK 927      BINDING AFFINITY PREDICTED BY RF-SCORE:    0.00 PKD
ROOT
HETATM    1  C   UNL     1      -6.964  11.734  67.029  1.00  0.00    -0.135 C  
HETATM    2  C   UNL     1      -7.618  10.449  67.519  1.00  0.00    -0.094 C  
ENDROOT
BRANCH   2   3
HETATM    3  N   UNL     1      -8.677   9.913  66.641  1.00  0.00    -0.128 NA 
BRANCH   3   4
HETATM    4  C   UNL     1      -9.923   9.574  67.350  1.00  0.00    -0.189 C  
HETATM    5  C   UNL     1     -10.491   8.179  67.097  1.00  0.00    -0.396 C  
ENDBRANCH   3   4
BRANCH   3   6
HETATM    6  C   UNL     1      -8.883  10.855  65.529  1.00  0.00    -0.188 C  
BRANCH   6   7
HETATM    7  C   UNL     1     -10.277  11.491  65.377  1.00  0.00    -0.264 C  
BRANCH   7   8
HETATM    8  O   UNL     1     -10.188  12.808  65.959  1.00  0.00    -0.267 OA 
BRANCH   8   9
HETATM    9  C   UNL     1     -11.352  13.512  65.923  1.00  0.00    -0.308 C  
HETATM   10  O   UNL     1     -12.419  13.049  65.561  1.00  0.00    -0.469 OA 
BRANCH   9  11
HETATM   11  C   UNL     1     -11.139  14.850  66.561  1.00  0.00    -0.341 A  
HETATM   12  C   UNL     1     -11.381  15.075  67.923  1.00  0.00    -0.333 A  
HETATM   13  C   UNL     1     -11.063  16.316  68.501  1.00  0.00    -0.368 A  
HETATM   14 CL   UNL     1     -12.039  13.894  69.002  1.00  0.00    -0.391 Cl 
HETATM   15  C   UNL     1     -10.539  17.360  67.739  1.00  0.00    -0.371 A  
HETATM   16  C   UNL     1     -10.239  17.118  66.401  1.00  0.00    -0.331 A  
HETATM   17  N   UNL     1     -10.104  18.537  68.352  1.00  0.00    -0.376 NA 
HETATM   18  H1  UNL     1      -9.721  19.301  67.795  1.00  0.00     0.000 HD 
HETATM   19  C   UNL     1     -10.557  15.891  65.811  1.00  0.00    -0.368 A  
HETATM   20  H2  UNL     1      -9.421  18.291  69.069  1.00  0.00     0.000 HD 
ENDBRANCH   9  11
ENDBRANCH   8   9
ENDBRANCH   7   8
ENDBRANCH   6   7
ENDBRANCH   3   6
ENDBRANCH   2   3
TORSDOF 7
ENDMDL
MODEL      153
REMARK 921   NORMALIZED FREE ENERGY PREDICTED BY IDOCK:   -3.86 KCAL/MOL
REMARK 922        TOTAL FREE ENERGY PREDICTED BY IDOCK:   -5.83 KCAL/MOL
REMARK 923 INTER-LIGAND FREE ENERGY PREDICTED BY IDOCK:   -5.26 KCAL/MOL
REMARK 924 INTRA-LIGAND FREE ENERGY PREDICTED BY IDOCK:   -0.57 KCAL/MOL
REMARK 927      BINDING AFFINITY PREDICTED BY RF-SCORE:    0.00 PKD
ROOT
HETATM    1  C   UNL     1     -10.205   7.174  67.131  1.00  0.00    -0.327 C  
HETATM    2  C   UNL     1     -10.610   8.628  66.919  1.00  0.00    -0.200 C  
ENDROOT
BRANCH   2   3
HETATM    3  N   UNL     1      -9.575   9.481  66.302  1.00  0.00    -0.206 NA 
BRANCH   3   4
HETATM    4  C   UNL     1     -10.018  10.160  65.073  1.00  0.00    -0.305 C  
HETATM    5  C   UNL     1      -9.179   9.916  63.821  1.00  0.00    -0.289 C  
ENDBRANCH   3   4
BRANCH   3   6
HETATM    6  C   UNL     1      -9.065  10.410  67.325  1.00  0.00    -0.135 C  
BRANCH   6   7
HETATM    7  C   UNL     1     -10.069  10.961  68.354  1.00  0.00    -0.183 C  
BRANCH   7   8
HETATM    8  O   UNL     1      -9.976  12.399  68.283  1.00  0.00    -0.216 OA 
BRANCH   8   9
HETATM    9  C   UNL     1     -11.044  12.997  67.690  1.00  0.00    -0.267 C  
HETATM   10  O   UNL     1     -12.062  12.411  67.366  1.00  0.00    -0.505 OA 
BRANCH   9  11
HETATM   11  C   UNL     1     -10.835  14.480  67.676  1.00  0.00    -0.275 A  
HETATM   12  C   UNL     1     -10.557  15.184  66.497  1.00  0.00    -0.304 A  
HETATM   13  C   UNL     1     -10.478  16.587  66.515  1.00  0.00    -0.270 A  
HETATM   14 CL   UNL     1     -10.321  14.441  64.952  1.00  0.00    -0.452 Cl 
HETATM   15  C   UNL     1     -10.634  17.310  67.697  1.00  0.00    -0.350 A  
HETATM   16  C   UNL     1     -10.974  16.617  68.857  1.00  0.00    -0.294 A  
HETATM   17  N   UNL     1     -10.687  18.705  67.675  1.00  0.00    -0.417 NA 
HETATM   18  H1  UNL     1     -10.802  19.233  68.540  1.00  0.00     0.000 HD 
HETATM   19  C   UNL     1     -11.049  15.221  68.856  1.00  0.00    -0.269 A  
HETATM   20  H2  UNL     1     -11.424  18.987  67.029  1.00  0.00     0.000 HD 
ENDBRANCH   9  11
ENDBRANCH   8   9
ENDBRANCH   7   8
ENDBRANCH   6   7
ENDBRANCH   3   6
ENDBRANCH   2   3
TORSDOF 7
ENDMDL
MODEL      154
REMARK 921   NORMALIZED FREE ENERGY PREDICTED BY IDOCK:   -3.86 KCAL/MOL
REMARK 922        TOTAL FREE ENERGY PREDICTED BY IDOCK:   -5.83 KCAL/MOL
REMARK 923 INTER-LIGAND FREE ENERGY PREDICTED BY IDOCK:   -5.27 KCAL/MOL
REMARK 924 INTRA-LIGAND FREE ENERGY PREDICTED BY IDOCK:   -0.56 KCAL/MOL
REMARK 927      BINDING AFFINITY PREDICTED BY RF-SCORE:    0.00 PKD
ROOT
HETATM    1  C   UNL     1     -10.446  19.770  67.259  1.00  0.00    -0.579 C  
HETATM    2  C   UNL     1      -8.956  19.930  67.531  1.00  0.00    -0.339 C  
ENDROOT
BRANCH   2   3
HETATM    3  N   UNL     1      -8.087  19.807  66.343  1.00  0.00    -0.316 NA 
BRANCH   3   4
HETATM    4  C   UNL     1      -6.826  20.562  66.446  1.00  0.00    -0.252 C  
HETATM    5  C   UNL     1      -6.320  20.848  67.857  1.00  0.00    -0.393 C  
ENDBRANCH   3   4
BRANCH   3   6
HETATM    6  C   UNL     1      -7.883  18.376  66.061  1.00  0.00    -0.140 C  
BRANCH   6   7
HETATM    7  C   UNL     1      -7.732  17.424  67.262  1.00  0.00    -0.200 C  
BRANCH   7   8
HETATM    8  O   UNL     1      -8.749  16.413  67.109  1.00  0.00    -0.176 OA 
BRANCH   8   9
HETATM    9  C   UNL     1      -9.451  16.154  68.246  1.00  0.00    -0.208 C  
HETATM   10  O   UNL     1      -9.651  16.972  69.126  1.00  0.00    -0.230 OA 
BRANCH   9  11
HETATM   11  C   UNL     1     -10.073  14.796  68.143  1.00  0.00    -0.221 A  
HETATM   12  C   UNL     1      -9.316  13.619  68.229  1.00  0.00    -0.204 A  
HETATM   13  C   UNL     1      -9.956  12.368  68.238  1.00  0.00    -0.224 A  
HETATM   14 CL   UNL     1      -7.591  13.579  68.359  1.00  0.00    -0.127 Cl 
HETATM   15  C   UNL     1     -11.341  12.258  68.125  1.00  0.00    -0.295 A  
HETATM   16  C   UNL     1     -12.099  13.426  68.104  1.00  0.00    -0.267 A  
HETATM   17  N   UNL     1     -11.970  11.019  68.271  1.00  0.00    -0.757 NA 
HETATM   18  H1  UNL     1     -12.983  10.939  68.188  1.00  0.00     0.000 HD 
HETATM   19  C   UNL     1     -11.476  14.678  68.087  1.00  0.00    -0.346 A  
HETATM   20  H2  UNL     1     -11.690  10.622  69.168  1.00  0.00     0.000 HD 
ENDBRANCH   9  11
ENDBRANCH   8   9
ENDBRANCH   7   8
ENDBRANCH   6   7
ENDBRANCH   3   6
ENDBRANCH   2   3
TORSDOF 7
ENDMDL
MODEL      155
REMARK 921   NORMALIZED FREE ENERGY PREDICTED BY IDOCK:   -3.86 KCAL/MOL
REMARK 922        TOTAL FREE ENERGY PREDICTED BY IDOCK:   -5.83 KCAL/MOL
REMARK 923 INTER-LIGAND FREE ENERGY PREDICTED BY IDOCK:   -5.97 KCAL/MOL
REMARK 924 INTRA-LIGAND FREE ENERGY PREDICTED BY IDOCK:    0.14 KCAL/MOL
REMARK 927      BINDING AFFINITY PREDICTED BY RF-SCORE:    0.00 PKD
ROOT
HETATM    1  C   UNL     1      -8.675  10.141  63.756  1.00  0.00    -0.220 C  
HETATM    2  C   UNL     1      -9.996  10.617  64.346  1.00  0.00    -0.350 C  
ENDROOT
BRANCH   2   3
HETATM    3  N   UNL     1      -9.929  11.900  65.075  1.00  0.00    -0.256 NA 
BRANCH   3   4
HETATM    4  C   UNL     1     -10.487  13.040  64.327  1.00  0.00    -0.402 C  
HETATM    5  C   UNL     1     -10.309  14.418  64.958  1.00  0.00    -0.449 C  
ENDBRANCH   3   4
BRANCH   3   6
HETATM    6  C   UNL     1     -10.548  11.718  66.398  1.00  0.00    -0.255 C  
BRANCH   6   7
HETATM    7  C   UNL     1      -9.912  10.687  67.349  1.00  0.00    -0.181 C  
BRANCH   7   8
HETATM    8  O   UNL     1     -10.264  11.097  68.687  1.00  0.00    -0.191 OA 
BRANCH   8   9
HETATM    9  C   UNL     1     -11.532  10.768  69.055  1.00  0.00    -0.298 C  
HETATM   10  O   UNL     1     -12.533  11.160  68.481  1.00  0.00    -0.452 OA 
BRANCH   9  11
HETATM   11  C   UNL     1     -11.480   9.726  70.129  1.00  0.00    -0.272 A  
HETATM   12  C   UNL     1     -12.187   9.858  71.332  1.00  0.00    -0.408 A  
HETATM   13  C   UNL     1     -12.196   8.806  72.264  1.00  0.00    -0.429 A  
HETATM   14 CL   UNL     1     -13.112  11.253  71.769  1.00  0.00    -0.573 Cl 
HETATM   15  C   UNL     1     -11.480   7.630  72.041  1.00  0.00    -0.283 A  
HETATM   16  C   UNL     1     -10.829   7.472  70.820  1.00  0.00    -0.253 A  
HETATM   17  N   UNL     1     -11.608   6.545  72.911  1.00  0.00    -0.491 NA 
HETATM   18  H1  UNL     1     -11.085   5.686  72.748  1.00  0.00     0.000 HD 
HETATM   19  C   UNL     1     -10.806   8.513  69.886  1.00  0.00    -0.205 A  
HETATM   20  H2  UNL     1     -12.597   6.308  72.983  1.00  0.00     0.000 HD 
ENDBRANCH   9  11
ENDBRANCH   8   9
ENDBRANCH   7   8
ENDBRANCH   6   7
ENDBRANCH   3   6
ENDBRANCH   2   3
TORSDOF 7
ENDMDL
MODEL      156
REMARK 921   NORMALIZED FREE ENERGY PREDICTED BY IDOCK:   -3.85 KCAL/MOL
REMARK 922        TOTAL FREE ENERGY PREDICTED BY IDOCK:   -5.82 KCAL/MOL
REMARK 923 INTER-LIGAND FREE ENERGY PREDICTED BY IDOCK:   -5.05 KCAL/MOL
REMARK 924 INTRA-LIGAND FREE ENERGY PREDICTED BY IDOCK:   -0.76 KCAL/MOL
REMARK 927      BINDING AFFINITY PREDICTED BY RF-SCORE:    0.00 PKD
ROOT
HETATM    1  C   UNL     1     -11.956  13.177  67.503  1.00  0.00    -0.367 C  
HETATM    2  C   UNL     1     -10.638  13.119  66.741  1.00  0.00    -0.263 C  
ENDROOT
BRANCH   2   3
HETATM    3  N   UNL     1     -10.663  12.300  65.512  1.00  0.00    -0.270 NA 
BRANCH   3   4
HETATM    4  C   UNL     1     -10.804  13.087  64.275  1.00  0.00    -0.405 C  
HETATM    5  C   UNL     1     -11.993  12.743  63.383  1.00  0.00    -0.613 C  
ENDBRANCH   3   4
BRANCH   3   6
HETATM    6  C   UNL     1      -9.479  11.425  65.511  1.00  0.00    -0.227 C  
BRANCH   6   7
HETATM    7  C   UNL     1      -9.642  10.003  64.943  1.00  0.00    -0.310 C  
BRANCH   7   8
HETATM    8  O   UNL     1     -10.395   9.258  65.923  1.00  0.00    -0.154 OA 
BRANCH   8   9
HETATM    9  C   UNL     1      -9.627   8.599  66.832  1.00  0.00    -0.194 C  
HETATM   10  O   UNL     1      -8.515   8.161  66.597  1.00  0.00    -0.121 OA 
BRANCH   9  11
HETATM   11  C   UNL     1     -10.283   8.669  68.176  1.00  0.00    -0.250 A  
HETATM   12  C   UNL     1     -10.588   7.521  68.919  1.00  0.00    -0.169 A  
HETATM   13  C   UNL     1     -11.102   7.640  70.222  1.00  0.00    -0.256 A  
HETATM   14 CL   UNL     1     -10.346   5.904  68.355  1.00  0.00    -0.232 Cl 
HETATM   15  C   UNL     1     -11.358   8.886  70.793  1.00  0.00    -0.278 A  
HETATM   16  C   UNL     1     -10.997  10.027  70.081  1.00  0.00    -0.368 A  
HETATM   17  N   UNL     1     -11.740   8.989  72.132  1.00  0.00    -0.341 NA 
HETATM   18  H1  UNL     1     -11.926   9.900  72.550  1.00  0.00     0.000 HD 
HETATM   19  C   UNL     1     -10.491   9.925  68.781  1.00  0.00    -0.234 A  
HETATM   20  H2  UNL     1     -11.039   8.514  72.702  1.00  0.00     0.000 HD 
ENDBRANCH   9  11
ENDBRANCH   8   9
ENDBRANCH   7   8
ENDBRANCH   6   7
ENDBRANCH   3   6
ENDBRANCH   2   3
TORSDOF 7
ENDMDL
MODEL      157
REMARK 921   NORMALIZED FREE ENERGY PREDICTED BY IDOCK:   -3.84 KCAL/MOL
REMARK 922        TOTAL FREE ENERGY PREDICTED BY IDOCK:   -5.80 KCAL/MOL
REMARK 923 INTER-LIGAND FREE ENERGY PREDICTED BY IDOCK:   -5.40 KCAL/MOL
REMARK 924 INTRA-LIGAND FREE ENERGY PREDICTED BY IDOCK:   -0.39 KCAL/MOL
REMARK 927      BINDING AFFINITY PREDICTED BY RF-SCORE:    0.00 PKD
ROOT
HETATM    1  C   UNL     1      -9.380   7.660  66.711  1.00  0.00    -0.218 C  
HETATM    2  C   UNL     1      -8.484   8.318  67.753  1.00  0.00    -0.131 C  
ENDROOT
BRANCH   2   3
HETATM    3  N   UNL     1      -9.139   8.614  69.044  1.00  0.00    -0.145 NA 
BRANCH   3   4
HETATM    4  C   UNL     1      -8.594   7.848  70.178  1.00  0.00    -0.134 C  
HETATM    5  C   UNL     1      -8.696   8.506  71.552  1.00  0.00    -0.246 C  
ENDBRANCH   3   4
BRANCH   3   6
HETATM    6  C   UNL     1      -9.108  10.070  69.260  1.00  0.00    -0.200 C  
BRANCH   6   7
HETATM    7  C   UNL     1     -10.428  10.846  69.095  1.00  0.00    -0.221 C  
BRANCH   7   8
HETATM    8  O   UNL     1     -10.083  12.110  68.493  1.00  0.00    -0.209 OA 
BRANCH   8   9
HETATM    9  C   UNL     1     -11.072  13.043  68.551  1.00  0.00    -0.266 C  
HETATM   10  O   UNL     1     -11.834  13.173  69.493  1.00  0.00    -0.299 OA 
BRANCH   9  11
HETATM   11  C   UNL     1     -10.945  13.970  67.382  1.00  0.00    -0.302 A  
HETATM   12  C   UNL     1     -11.282  13.580  66.079  1.00  0.00    -0.295 A  
HETATM   13  C   UNL     1     -11.252  14.517  65.032  1.00  0.00    -0.384 A  
HETATM   14 CL   UNL     1     -11.779  11.982  65.639  1.00  0.00    -0.376 Cl 
HETATM   15  C   UNL     1     -10.855  15.836  65.247  1.00  0.00    -0.395 A  
HETATM   16  C   UNL     1     -10.582  16.242  66.551  1.00  0.00    -0.256 A  
HETATM   17  N   UNL     1     -10.960  16.785  64.227  1.00  0.00    -1.056 NA 
HETATM   18  H1  UNL     1     -10.670  17.750  64.384  1.00  0.00     0.000 HD 
HETATM   19  C   UNL     1     -10.601  15.319  67.601  1.00  0.00    -0.270 A  
HETATM   20  H2  UNL     1     -11.924  16.792  63.894  1.00  0.00     0.000 HD 
ENDBRANCH   9  11
ENDBRANCH   8   9
ENDBRANCH   7   8
ENDBRANCH   6   7
ENDBRANCH   3   6
ENDBRANCH   2   3
TORSDOF 7
ENDMDL
MODEL      158
REMARK 921   NORMALIZED FREE ENERGY PREDICTED BY IDOCK:   -3.81 KCAL/MOL
REMARK 922        TOTAL FREE ENERGY PREDICTED BY IDOCK:   -5.77 KCAL/MOL
REMARK 923 INTER-LIGAND FREE ENERGY PREDICTED BY IDOCK:   -5.60 KCAL/MOL
REMARK 924 INTRA-LIGAND FREE ENERGY PREDICTED BY IDOCK:   -0.17 KCAL/MOL
REMARK 927      BINDING AFFINITY PREDICTED BY RF-SCORE:    0.00 PKD
ROOT
HETATM    1  C   UNL     1     -10.512  15.448  70.201  1.00  0.00    -0.291 C  
HETATM    2  C   UNL     1     -11.166  16.279  69.105  1.00  0.00    -0.309 C  
ENDROOT
BRANCH   2   3
HETATM    3  N   UNL     1     -10.351  16.457  67.886  1.00  0.00    -0.276 NA 
BRANCH   3   4
HETATM    4  C   UNL     1      -8.936  16.761  68.155  1.00  0.00    -0.224 C  
HETATM    5  C   UNL     1      -8.578  18.236  68.321  1.00  0.00    -0.299 C  
ENDBRANCH   3   4
BRANCH   3   6
HETATM    6  C   UNL     1     -10.536  15.277  67.024  1.00  0.00    -0.306 C  
BRANCH   6   7
HETATM    7  C   UNL     1     -11.870  14.516  67.131  1.00  0.00    -0.387 C  
BRANCH   7   8
HETATM    8  O   UNL     1     -11.577  13.276  67.808  1.00  0.00    -0.300 OA 
BRANCH   8   9
HETATM    9  C   UNL     1     -11.776  12.166  67.048  1.00  0.00    -0.303 C  
HETATM   10  O   UNL     1     -12.115  12.191  65.878  1.00  0.00    -0.594 OA 
BRANCH   9  11
HETATM   11  C   UNL     1     -11.337  10.957  67.815  1.00  0.00    -0.366 A  
HETATM   12  C   UNL     1     -10.547   9.953  67.239  1.00  0.00    -0.252 A  
HETATM   13  C   UNL     1     -10.068   8.893  68.028  1.00  0.00    -0.239 A  
HETATM   14 CL   UNL     1     -10.068   9.925  65.577  1.00  0.00    -0.354 Cl 
HETATM   15  C   UNL     1     -10.392   8.788  69.380  1.00  0.00    -0.214 A  
HETATM   16  C   UNL     1     -11.123   9.817  69.968  1.00  0.00    -0.311 A  
HETATM   17  N   UNL     1      -9.800   7.806  70.178  1.00  0.00    -0.184 NA 
HETATM   18  H1  UNL     1     -10.036   7.730  71.167  1.00  0.00     0.000 HD 
HETATM   19  C   UNL     1     -11.612  10.874  69.195  1.00  0.00    -0.389 A  
HETATM   20  H2  UNL     1      -8.787   7.897  70.098  1.00  0.00     0.000 HD 
ENDBRANCH   9  11
ENDBRANCH   8   9
ENDBRANCH   7   8
ENDBRANCH   6   7
ENDBRANCH   3   6
ENDBRANCH   2   3
TORSDOF 7
ENDMDL
MODEL      159
REMARK 921   NORMALIZED FREE ENERGY PREDICTED BY IDOCK:   -3.81 KCAL/MOL
REMARK 922        TOTAL FREE ENERGY PREDICTED BY IDOCK:   -5.76 KCAL/MOL
REMARK 923 INTER-LIGAND FREE ENERGY PREDICTED BY IDOCK:   -5.30 KCAL/MOL
REMARK 924 INTRA-LIGAND FREE ENERGY PREDICTED BY IDOCK:   -0.45 KCAL/MOL
REMARK 927      BINDING AFFINITY PREDICTED BY RF-SCORE:    0.00 PKD
ROOT
HETATM    1  C   UNL     1      -5.898  19.625  64.874  1.00  0.00    -0.265 C  
HETATM    2  C   UNL     1      -6.985  18.890  65.649  1.00  0.00    -0.232 C  
ENDROOT
BRANCH   2   3
HETATM    3  N   UNL     1      -7.153  19.323  67.051  1.00  0.00    -0.203 NA 
BRANCH   3   4
HETATM    4  C   UNL     1      -6.240  20.407  67.453  1.00  0.00    -0.216 C  
HETATM    5  C   UNL     1      -6.031  20.597  68.953  1.00  0.00    -0.390 C  
ENDBRANCH   3   4
BRANCH   3   6
HETATM    6  C   UNL     1      -8.572  19.649  67.272  1.00  0.00    -0.308 C  
BRANCH   6   7
HETATM    7  C   UNL     1      -9.376  18.738  68.218  1.00  0.00    -0.337 C  
BRANCH   7   8
HETATM    8  O   UNL     1     -10.575  18.371  67.505  1.00  0.00    -0.408 OA 
BRANCH   8   9
HETATM    9  C   UNL     1     -10.383  17.433  66.538  1.00  0.00    -0.312 C  
HETATM   10  O   UNL     1     -10.540  17.637  65.347  1.00  0.00    -0.657 OA 
BRANCH   9  11
HETATM   11  C   UNL     1      -9.783  16.206  67.153  1.00  0.00    -0.236 A  
HETATM   12  C   UNL     1     -10.467  15.438  68.105  1.00  0.00    -0.247 A  
HETATM   13  C   UNL     1      -9.910  14.235  68.572  1.00  0.00    -0.231 A  
HETATM   14 CL   UNL     1     -12.014  15.850  68.759  1.00  0.00    -0.297 Cl 
HETATM   15  C   UNL     1      -8.661  13.793  68.136  1.00  0.00    -0.183 A  
HETATM   16  C   UNL     1      -8.010  14.522  67.144  1.00  0.00    -0.167 A  
HETATM   17  N   UNL     1      -8.184  12.534  68.506  1.00  0.00    -0.294 NA 
HETATM   18  H1  UNL     1      -7.271  12.211  68.187  1.00  0.00     0.000 HD 
HETATM   19  C   UNL     1      -8.548  15.724  66.675  1.00  0.00    -0.322 A  
HETATM   20  H2  UNL     1      -8.880  11.837  68.239  1.00  0.00     0.000 HD 
ENDBRANCH   9  11
ENDBRANCH   8   9
ENDBRANCH   7   8
ENDBRANCH   6   7
ENDBRANCH   3   6
ENDBRANCH   2   3
TORSDOF 7
ENDMDL
MODEL      160
REMARK 921   NORMALIZED FREE ENERGY PREDICTED BY IDOCK:   -3.79 KCAL/MOL
REMARK 922        TOTAL FREE ENERGY PREDICTED BY IDOCK:   -5.73 KCAL/MOL
REMARK 923 INTER-LIGAND FREE ENERGY PREDICTED BY IDOCK:   -6.11 KCAL/MOL
REMARK 924 INTRA-LIGAND FREE ENERGY PREDICTED BY IDOCK:    0.38 KCAL/MOL
REMARK 927      BINDING AFFINITY PREDICTED BY RF-SCORE:    0.00 PKD
ROOT
HETATM    1  C   UNL     1     -12.135   8.117  71.373  1.00  0.00    -0.326 C  
HETATM    2  C   UNL     1     -11.170   7.541  70.344  1.00  0.00    -0.253 C  
ENDROOT
BRANCH   2   3
HETATM    3  N   UNL     1      -9.875   8.244  70.240  1.00  0.00    -0.182 NA 
BRANCH   3   4
HETATM    4  C   UNL     1      -9.119   7.924  69.017  1.00  0.00    -0.144 C  
HETATM    5  C   UNL     1      -9.853   7.100  67.962  1.00  0.00    -0.158 C  
ENDBRANCH   3   4
BRANCH   3   6
HETATM    6  C   UNL     1     -10.112   9.687  70.413  1.00  0.00    -0.276 C  
BRANCH   6   7
HETATM    7  C   UNL     1      -9.689  10.624  69.266  1.00  0.00    -0.160 C  
BRANCH   7   8
HETATM    8  O   UNL     1     -10.861  10.820  68.448  1.00  0.00    -0.198 OA 
BRANCH   8   9
HETATM    9  C   UNL     1     -11.337  12.094  68.453  1.00  0.00    -0.286 C  
HETATM   10  O   UNL     1     -11.458  12.774  69.457  1.00  0.00    -0.267 OA 
BRANCH   9  11
HETATM   11  C   UNL     1     -11.500  12.566  67.042  1.00  0.00    -0.419 A  
HETATM   12  C   UNL     1     -11.078  11.802  65.945  1.00  0.00    -0.302 A  
HETATM   13  C   UNL     1     -11.352  12.234  64.637  1.00  0.00    -0.375 A  
HETATM   14 CL   UNL     1     -10.238  10.295  66.075  1.00  0.00    -0.314 Cl 
HETATM   15  C   UNL     1     -12.010  13.439  64.391  1.00  0.00    -0.411 A  
HETATM   16  C   UNL     1     -12.486  14.168  65.478  1.00  0.00    -0.495 A  
HETATM   17  N   UNL     1     -12.392  13.788  63.094  1.00  0.00    -1.106 NA 
HETATM   18  H1  UNL     1     -12.873  14.669  62.914  1.00  0.00     0.000 HD 
HETATM   19  C   UNL     1     -12.215  13.753  66.786  1.00  0.00    -0.440 A  
HETATM   20  H2  UNL     1     -12.960  13.031  62.713  1.00  0.00     0.000 HD 
ENDBRANCH   9  11
ENDBRANCH   8   9
ENDBRANCH   7   8
ENDBRANCH   6   7
ENDBRANCH   3   6
ENDBRANCH   2   3
TORSDOF 7
ENDMDL
MODEL      161
REMARK 921   NORMALIZED FREE ENERGY PREDICTED BY IDOCK:   -3.79 KCAL/MOL
REMARK 922        TOTAL FREE ENERGY PREDICTED BY IDOCK:   -5.73 KCAL/MOL
REMARK 923 INTER-LIGAND FREE ENERGY PREDICTED BY IDOCK:   -5.25 KCAL/MOL
REMARK 924 INTRA-LIGAND FREE ENERGY PREDICTED BY IDOCK:   -0.48 KCAL/MOL
REMARK 927      BINDING AFFINITY PREDICTED BY RF-SCORE:    0.00 PKD
ROOT
HETATM    1  C   UNL     1      -7.193   6.981  67.133  1.00  0.00    -0.089 C  
HETATM    2  C   UNL     1      -8.121   8.026  67.740  1.00  0.00    -0.128 C  
ENDROOT
BRANCH   2   3
HETATM    3  N   UNL     1      -9.333   8.321  66.949  1.00  0.00    -0.164 NA 
BRANCH   3   4
HETATM    4  C   UNL     1     -10.577   7.820  67.557  1.00  0.00    -0.248 C  
HETATM    5  C   UNL     1     -10.994   6.400  67.180  1.00  0.00    -0.476 C  
ENDBRANCH   3   4
BRANCH   3   6
HETATM    6  C   UNL     1      -9.367   9.766  66.667  1.00  0.00    -0.158 C  
BRANCH   6   7
HETATM    7  C   UNL     1      -9.952  10.218  65.316  1.00  0.00    -0.317 C  
BRANCH   7   8
HETATM    8  O   UNL     1      -9.697  11.634  65.217  1.00  0.00    -0.235 OA 
BRANCH   8   9
HETATM    9  C   UNL     1     -10.775  12.368  64.831  1.00  0.00    -0.294 C  
HETATM   10  O   UNL     1     -11.612  11.985  64.032  1.00  0.00    -0.367 OA 
BRANCH   9  11
HETATM   11  C   UNL     1     -10.856  13.606  65.669  1.00  0.00    -0.280 A  
HETATM   12  C   UNL     1     -11.227  13.571  67.020  1.00  0.00    -0.312 A  
HETATM   13  C   UNL     1     -11.182  14.743  67.795  1.00  0.00    -0.323 A  
HETATM   14 CL   UNL     1     -11.728  12.141  67.854  1.00  0.00    -0.410 Cl 
HETATM   15  C   UNL     1     -10.808  15.967  67.241  1.00  0.00    -0.255 A  
HETATM   16  C   UNL     1     -10.379  15.992  65.917  1.00  0.00    -0.386 A  
HETATM   17  N   UNL     1     -10.639  17.091  68.053  1.00  0.00    -0.361 NA 
HETATM   18  H1  UNL     1     -10.366  17.986  67.648  1.00  0.00     0.000 HD 
HETATM   19  C   UNL     1     -10.425  14.836  65.132  1.00  0.00    -0.443 A  
HETATM   20  H2  UNL     1      -9.973  16.857  68.789  1.00  0.00     0.000 HD 
ENDBRANCH   9  11
ENDBRANCH   8   9
ENDBRANCH   7   8
ENDBRANCH   6   7
ENDBRANCH   3   6
ENDBRANCH   2   3
TORSDOF 7
ENDMDL
MODEL      162
REMARK 921   NORMALIZED FREE ENERGY PREDICTED BY IDOCK:   -3.78 KCAL/MOL
REMARK 922        TOTAL FREE ENERGY PREDICTED BY IDOCK:   -5.72 KCAL/MOL
REMARK 923 INTER-LIGAND FREE ENERGY PREDICTED BY IDOCK:   -5.24 KCAL/MOL
REMARK 924 INTRA-LIGAND FREE ENERGY PREDICTED BY IDOCK:   -0.47 KCAL/MOL
REMARK 927      BINDING AFFINITY PREDICTED BY RF-SCORE:    0.00 PKD
ROOT
HETATM    1  C   UNL     1      -7.246  15.967  68.774  1.00  0.00    -0.157 C  
HETATM    2  C   UNL     1      -7.841  17.026  67.855  1.00  0.00    -0.184 C  
ENDROOT
BRANCH   2   3
HETATM    3  N   UNL     1      -8.365  18.225  68.540  1.00  0.00    -0.313 NA 
BRANCH   3   4
HETATM    4  C   UNL     1      -7.868  19.495  67.983  1.00  0.00    -0.305 C  
HETATM    5  C   UNL     1      -6.494  19.956  68.464  1.00  0.00    -0.320 C  
ENDBRANCH   3   4
BRANCH   3   6
HETATM    6  C   UNL     1      -9.835  18.142  68.568  1.00  0.00    -0.382 C  
BRANCH   6   7
HETATM    7  C   UNL     1     -10.528  17.347  67.445  1.00  0.00    -0.336 C  
BRANCH   7   8
HETATM    8  O   UNL     1     -11.098  16.178  68.067  1.00  0.00    -0.342 OA 
BRANCH   8   9
HETATM    9  C   UNL     1     -11.227  15.110  67.234  1.00  0.00    -0.324 C  
HETATM   10  O   UNL     1     -11.178  15.183  66.018  1.00  0.00    -0.338 OA 
BRANCH   9  11
HETATM   11  C   UNL     1     -11.248  13.851  68.044  1.00  0.00    -0.295 A  
HETATM   12  C   UNL     1     -10.308  12.828  67.858  1.00  0.00    -0.226 A  
HETATM   13  C   UNL     1     -10.299  11.714  68.715  1.00  0.00    -0.213 A  
HETATM   14 CL   UNL     1      -9.090  12.836  66.629  1.00  0.00    -0.216 Cl 
HETATM   15  C   UNL     1     -11.236  11.576  69.738  1.00  0.00    -0.161 A  
HETATM   16  C   UNL     1     -12.129  12.620  69.964  1.00  0.00    -0.339 A  
HETATM   17  N   UNL     1     -11.131  10.533  70.662  1.00  0.00    -0.420 NA 
HETATM   18  H1  UNL     1     -11.816  10.433  71.411  1.00  0.00     0.000 HD 
HETATM   19  C   UNL     1     -12.154  13.731  69.116  1.00  0.00    -0.374 A  
HETATM   20  H2  UNL     1     -10.202  10.572  71.082  1.00  0.00     0.000 HD 
ENDBRANCH   9  11
ENDBRANCH   8   9
ENDBRANCH   7   8
ENDBRANCH   6   7
ENDBRANCH   3   6
ENDBRANCH   2   3
TORSDOF 7
ENDMDL
MODEL      163
REMARK 921   NORMALIZED FREE ENERGY PREDICTED BY IDOCK:   -3.77 KCAL/MOL
REMARK 922        TOTAL FREE ENERGY PREDICTED BY IDOCK:   -5.71 KCAL/MOL
REMARK 923 INTER-LIGAND FREE ENERGY PREDICTED BY IDOCK:   -5.46 KCAL/MOL
REMARK 924 INTRA-LIGAND FREE ENERGY PREDICTED BY IDOCK:   -0.25 KCAL/MOL
REMARK 927      BINDING AFFINITY PREDICTED BY RF-SCORE:    0.00 PKD
ROOT
HETATM    1  C   UNL     1     -11.754  11.505  68.484  1.00  0.00    -0.379 C  
HETATM    2  C   UNL     1     -10.922  10.789  67.427  1.00  0.00    -0.300 C  
ENDROOT
BRANCH   2   3
HETATM    3  N   UNL     1     -10.832  11.485  66.127  1.00  0.00    -0.282 NA 
BRANCH   3   4
HETATM    4  C   UNL     1     -11.893  12.482  65.911  1.00  0.00    -0.430 C  
HETATM    5  C   UNL     1     -12.436  12.599  64.489  1.00  0.00    -0.525 C  
ENDBRANCH   3   4
BRANCH   3   6
HETATM    6  C   UNL     1      -9.476  12.043  65.990  1.00  0.00    -0.219 C  
BRANCH   6   7
HETATM    7  C   UNL     1      -8.695  12.350  67.280  1.00  0.00    -0.191 C  
BRANCH   7   8
HETATM    8  O   UNL     1      -9.040  13.701  67.652  1.00  0.00    -0.188 OA 
BRANCH   8   9
HETATM    9  C   UNL     1      -8.036  14.602  67.472  1.00  0.00    -0.184 C  
HETATM   10  O   UNL     1      -6.875  14.297  67.261  1.00  0.00    -0.234 OA 
BRANCH   9  11
HETATM   11  C   UNL     1      -8.617  15.979  67.394  1.00  0.00    -0.194 A  
HETATM   12  C   UNL     1      -9.591  16.326  66.447  1.00  0.00    -0.291 A  
HETATM   13  C   UNL     1     -10.187  17.599  66.482  1.00  0.00    -0.355 A  
HETATM   14 CL   UNL     1     -10.164  15.265  65.207  1.00  0.00    -0.400 Cl 
HETATM   15  C   UNL     1      -9.806  18.555  67.422  1.00  0.00    -0.312 A  
HETATM   16  C   UNL     1      -8.886  18.191  68.402  1.00  0.00    -0.305 A  
HETATM   17  N   UNL     1     -10.500  19.763  67.529  1.00  0.00    -0.435 NA 
HETATM   18  H1  UNL     1     -10.221  20.462  68.217  1.00  0.00     0.000 HD 
HETATM   19  C   UNL     1      -8.279  16.932  68.376  1.00  0.00    -0.232 A  
HETATM   20  H2  UNL     1     -11.488  19.552  67.670  1.00  0.00     0.000 HD 
ENDBRANCH   9  11
ENDBRANCH   8   9
ENDBRANCH   7   8
ENDBRANCH   6   7
ENDBRANCH   3   6
ENDBRANCH   2   3
TORSDOF 7
ENDMDL
MODEL      164
REMARK 921   NORMALIZED FREE ENERGY PREDICTED BY IDOCK:   -3.77 KCAL/MOL
REMARK 922        TOTAL FREE ENERGY PREDICTED BY IDOCK:   -5.70 KCAL/MOL
REMARK 923 INTER-LIGAND FREE ENERGY PREDICTED BY IDOCK:   -5.22 KCAL/MOL
REMARK 924 INTRA-LIGAND FREE ENERGY PREDICTED BY IDOCK:   -0.48 KCAL/MOL
REMARK 927      BINDING AFFINITY PREDICTED BY RF-SCORE:    0.00 PKD
ROOT
HETATM    1  C   UNL     1     -10.152  10.076  66.567  1.00  0.00    -0.296 C  
HETATM    2  C   UNL     1     -10.998  11.247  67.049  1.00  0.00    -0.294 C  
ENDROOT
BRANCH   2   3
HETATM    3  N   UNL     1     -10.839  11.587  68.478  1.00  0.00    -0.202 NA 
BRANCH   3   4
HETATM    4  C   UNL     1     -11.873  12.501  68.991  1.00  0.00    -0.296 C  
HETATM    5  C   UNL     1     -11.508  13.982  69.038  1.00  0.00    -0.337 C  
ENDBRANCH   3   4
BRANCH   3   6
HETATM    6  C   UNL     1     -10.739  10.335  69.247  1.00  0.00    -0.234 C  
BRANCH   6   7
HETATM    7  C   UNL     1     -11.793  10.081  70.340  1.00  0.00    -0.262 C  
BRANCH   7   8
HETATM    8  O   UNL     1     -11.100   9.441  71.431  1.00  0.00    -0.335 OA 
BRANCH   8   9
HETATM    9  C   UNL     1     -11.882   8.616  72.179  1.00  0.00    -0.377 C  
HETATM   10  O   UNL     1     -13.053   8.833  72.438  1.00  0.00    -0.395 OA 
BRANCH   9  11
HETATM   11  C   UNL     1     -11.135   7.349  72.460  1.00  0.00    -0.350 A  
HETATM   12  C   UNL     1     -10.961   6.353  71.489  1.00  0.00    -0.263 A  
HETATM   13  C   UNL     1     -10.159   5.232  71.764  1.00  0.00    -0.257 A  
HETATM   14 CL   UNL     1     -11.655   6.407  69.905  1.00  0.00    -0.490 Cl 
HETATM   15  C   UNL     1      -9.552   5.059  73.007  1.00  0.00    -0.142 A  
HETATM   16  C   UNL     1      -9.671   6.076  73.950  1.00  0.00    -0.182 A  
HETATM   17  N   UNL     1      -8.653   4.011  73.219  1.00  0.00    -0.092 NA 
HETATM   18  H1  UNL     1      -8.209   3.884  74.127  1.00  0.00     0.000 HD 
HETATM   19  C   UNL     1     -10.471   7.194  73.694  1.00  0.00    -0.412 A  
HETATM   20  H2  UNL     1      -7.920   4.070  72.511  1.00  0.00     0.000 HD 
ENDBRANCH   9  11
ENDBRANCH   8   9
ENDBRANCH   7   8
ENDBRANCH   6   7
ENDBRANCH   3   6
ENDBRANCH   2   3
TORSDOF 7
ENDMDL
MODEL      165
REMARK 921   NORMALIZED FREE ENERGY PREDICTED BY IDOCK:   -3.76 KCAL/MOL
REMARK 922        TOTAL FREE ENERGY PREDICTED BY IDOCK:   -5.69 KCAL/MOL
REMARK 923 INTER-LIGAND FREE ENERGY PREDICTED BY IDOCK:   -5.04 KCAL/MOL
REMARK 924 INTRA-LIGAND FREE ENERGY PREDICTED BY IDOCK:   -0.65 KCAL/MOL
REMARK 927      BINDING AFFINITY PREDICTED BY RF-SCORE:    0.00 PKD
ROOT
HETATM    1  C   UNL     1      -9.375   8.800  71.829  1.00  0.00    -0.350 C  
HETATM    2  C   UNL     1     -10.260   8.996  70.605  1.00  0.00    -0.229 C  
ENDROOT
BRANCH   2   3
HETATM    3  N   UNL     1     -11.709   9.066  70.885  1.00  0.00    -0.284 NA 
BRANCH   3   4
HETATM    4  C   UNL     1     -12.129   8.265  72.047  1.00  0.00    -0.348 C  
HETATM    5  C   UNL     1     -12.513   6.814  71.768  1.00  0.00    -0.394 C  
ENDBRANCH   3   4
BRANCH   3   6
HETATM    6  C   UNL     1     -12.096  10.483  70.989  1.00  0.00    -0.387 C  
BRANCH   6   7
HETATM    7  C   UNL     1     -11.616  11.439  69.881  1.00  0.00    -0.323 C  
BRANCH   7   8
HETATM    8  O   UNL     1     -12.292  11.032  68.673  1.00  0.00    -0.539 OA 
BRANCH   8   9
HETATM    9  C   UNL     1     -11.706  11.478  67.530  1.00  0.00    -0.184 C  
HETATM   10  O   UNL     1     -12.086  12.452  66.902  1.00  0.00    -0.564 OA 
BRANCH   9  11
HETATM   11  C   UNL     1     -10.445  10.708  67.288  1.00  0.00    -0.293 A  
HETATM   12  C   UNL     1      -9.178  11.260  67.517  1.00  0.00    -0.158 A  
HETATM   13  C   UNL     1      -8.027  10.464  67.382  1.00  0.00    -0.107 A  
HETATM   14 CL   UNL     1      -8.902  12.898  68.000  1.00  0.00    -0.188 Cl 
HETATM   15  C   UNL     1      -8.107   9.130  66.985  1.00  0.00    -0.109 A  
HETATM   16  C   UNL     1      -9.368   8.563  66.819  1.00  0.00    -0.232 A  
HETATM   17  N   UNL     1      -6.971   8.318  66.986  1.00  0.00    -0.070 NA 
HETATM   18  H1  UNL     1      -7.029   7.343  66.696  1.00  0.00     0.000 HD 
HETATM   19  C   UNL     1     -10.522   9.344  66.942  1.00  0.00    -0.281 A  
HETATM   20  H2  UNL     1      -6.557   8.349  67.918  1.00  0.00     0.000 HD 
ENDBRANCH   9  11
ENDBRANCH   8   9
ENDBRANCH   7   8
ENDBRANCH   6   7
ENDBRANCH   3   6
ENDBRANCH   2   3
TORSDOF 7
ENDMDL
MODEL      166
REMARK 921   NORMALIZED FREE ENERGY PREDICTED BY IDOCK:   -3.75 KCAL/MOL
REMARK 922        TOTAL FREE ENERGY PREDICTED BY IDOCK:   -5.68 KCAL/MOL
REMARK 923 INTER-LIGAND FREE ENERGY PREDICTED BY IDOCK:   -4.91 KCAL/MOL
REMARK 924 INTRA-LIGAND FREE ENERGY PREDICTED BY IDOCK:   -0.77 KCAL/MOL
REMARK 927      BINDING AFFINITY PREDICTED BY RF-SCORE:    0.00 PKD
ROOT
HETATM    1  C   UNL     1      -7.271   6.208  70.416  1.00  0.00    -0.086 C  
HETATM    2  C   UNL     1      -8.692   5.692  70.607  1.00  0.00    -0.134 C  
ENDROOT
BRANCH   2   3
HETATM    3  N   UNL     1      -9.458   5.495  69.359  1.00  0.00    -0.128 NA 
BRANCH   3   4
HETATM    4  C   UNL     1      -9.308   4.152  68.775  1.00  0.00    -0.159 C  
HETATM    5  C   UNL     1      -9.164   2.994  69.760  1.00  0.00    -0.219 C  
ENDBRANCH   3   4
BRANCH   3   6
HETATM    6  C   UNL     1     -10.861   5.864  69.610  1.00  0.00    -0.374 C  
BRANCH   6   7
HETATM    7  C   UNL     1     -11.258   6.230  71.052  1.00  0.00    -0.312 C  
BRANCH   7   8
HETATM    8  O   UNL     1     -11.913   7.513  70.980  1.00  0.00    -0.302 OA 
BRANCH   8   9
HETATM    9  C   UNL     1     -11.319   8.484  71.724  1.00  0.00    -0.307 C  
HETATM   10  O   UNL     1     -10.672   8.271  72.735  1.00  0.00    -0.343 OA 
BRANCH   9  11
HETATM   11  C   UNL     1     -11.432   9.794  71.008  1.00  0.00    -0.458 A  
HETATM   12  C   UNL     1     -10.659  10.097  69.879  1.00  0.00    -0.285 A  
HETATM   13  C   UNL     1     -10.877  11.293  69.174  1.00  0.00    -0.269 A  
HETATM   14 CL   UNL     1      -9.427   9.066  69.237  1.00  0.00    -0.155 Cl 
HETATM   15  C   UNL     1     -11.831  12.221  69.593  1.00  0.00    -0.324 A  
HETATM   16  C   UNL     1     -12.643  11.893  70.676  1.00  0.00    -0.269 A  
HETATM   17  N   UNL     1     -12.128  13.337  68.809  1.00  0.00    -0.290 NA 
HETATM   18  H1  UNL     1     -12.826  14.015  69.115  1.00  0.00     0.000 HD 
HETATM   19  C   UNL     1     -12.432  10.710  71.391  1.00  0.00    -0.496 A  
HETATM   20  H2  UNL     1     -12.386  13.014  67.876  1.00  0.00     0.000 HD 
ENDBRANCH   9  11
ENDBRANCH   8   9
ENDBRANCH   7   8
ENDBRANCH   6   7
ENDBRANCH   3   6
ENDBRANCH   2   3
TORSDOF 7
ENDMDL
MODEL      167
REMARK 921   NORMALIZED FREE ENERGY PREDICTED BY IDOCK:   -3.75 KCAL/MOL
REMARK 922        TOTAL FREE ENERGY PREDICTED BY IDOCK:   -5.68 KCAL/MOL
REMARK 923 INTER-LIGAND FREE ENERGY PREDICTED BY IDOCK:   -4.62 KCAL/MOL
REMARK 924 INTRA-LIGAND FREE ENERGY PREDICTED BY IDOCK:   -1.06 KCAL/MOL
REMARK 927      BINDING AFFINITY PREDICTED BY RF-SCORE:    0.00 PKD
ROOT
HETATM    1  C   UNL     1     -10.707  14.493  64.835  1.00  0.00    -0.448 C  
HETATM    2  C   UNL     1     -11.229  15.004  66.172  1.00  0.00    -0.307 C  
ENDROOT
BRANCH   2   3
HETATM    3  N   UNL     1     -10.813  14.213  67.348  1.00  0.00    -0.284 NA 
BRANCH   3   4
HETATM    4  C   UNL     1      -9.678  14.795  68.085  1.00  0.00    -0.217 C  
HETATM    5  C   UNL     1      -8.298  14.221  67.771  1.00  0.00    -0.174 C  
ENDBRANCH   3   4
BRANCH   3   6
HETATM    6  C   UNL     1     -11.994  13.979  68.195  1.00  0.00    -0.347 C  
BRANCH   6   7
HETATM    7  C   UNL     1     -11.903  12.867  69.257  1.00  0.00    -0.309 C  
BRANCH   7   8
HETATM    8  O   UNL     1     -12.153  11.625  68.567  1.00  0.00    -0.491 OA 
BRANCH   8   9
HETATM    9  C   UNL     1     -11.256  10.642  68.848  1.00  0.00    -0.275 C  
HETATM   10  O   UNL     1     -11.443   9.761  69.669  1.00  0.00    -0.175 OA 
BRANCH   9  11
HETATM   11  C   UNL     1     -10.121  10.716  67.875  1.00  0.00    -0.194 A  
HETATM   12  C   UNL     1      -8.787  10.538  68.268  1.00  0.00    -0.139 A  
HETATM   13  C   UNL     1      -7.766  10.506  67.303  1.00  0.00    -0.106 A  
HETATM   14 CL   UNL     1      -8.277  10.315  69.905  1.00  0.00    -0.124 Cl 
HETATM   15  C   UNL     1      -8.039  10.687  65.947  1.00  0.00    -0.159 A  
HETATM   16  C   UNL     1      -9.369  10.800  65.549  1.00  0.00    -0.242 A  
HETATM   17  N   UNL     1      -7.035  10.519  64.992  1.00  0.00    -0.326 NA 
HETATM   18  H1  UNL     1      -7.235  10.651  64.000  1.00  0.00     0.000 HD 
HETATM   19  C   UNL     1     -10.395  10.841  66.498  1.00  0.00    -0.300 A  
HETATM   20  H2  UNL     1      -6.628   9.592  65.114  1.00  0.00     0.000 HD 
ENDBRANCH   9  11
ENDBRANCH   8   9
ENDBRANCH   7   8
ENDBRANCH   6   7
ENDBRANCH   3   6
ENDBRANCH   2   3
TORSDOF 7
ENDMDL
MODEL      168
REMARK 921   NORMALIZED FREE ENERGY PREDICTED BY IDOCK:   -3.74 KCAL/MOL
REMARK 922        TOTAL FREE ENERGY PREDICTED BY IDOCK:   -5.67 KCAL/MOL
REMARK 923 INTER-LIGAND FREE ENERGY PREDICTED BY IDOCK:   -5.17 KCAL/MOL
REMARK 924 INTRA-LIGAND FREE ENERGY PREDICTED BY IDOCK:   -0.50 KCAL/MOL
REMARK 927      BINDING AFFINITY PREDICTED BY RF-SCORE:    0.00 PKD
ROOT
HETATM    1  C   UNL     1      -8.913   9.694  63.029  1.00  0.00    -0.257 C  
HETATM    2  C   UNL     1      -8.031   8.787  63.876  1.00  0.00    -0.157 C  
ENDROOT
BRANCH   2   3
HETATM    3  N   UNL     1      -8.621   8.368  65.164  1.00  0.00    -0.163 NA 
BRANCH   3   4
HETATM    4  C   UNL     1      -8.268   6.994  65.561  1.00  0.00    -0.135 C  
HETATM    5  C   UNL     1      -8.008   6.005  64.428  1.00  0.00    -0.123 C  
ENDBRANCH   3   4
BRANCH   3   6
HETATM    6  C   UNL     1      -8.276   9.372  66.184  1.00  0.00    -0.111 C  
BRANCH   6   7
HETATM    7  C   UNL     1      -9.421   9.946  67.039  1.00  0.00    -0.160 C  
BRANCH   7   8
HETATM    8  O   UNL     1      -9.454   9.165  68.251  1.00  0.00    -0.141 OA 
BRANCH   8   9
HETATM    9  C   UNL     1      -9.190   9.878  69.380  1.00  0.00    -0.214 C  
HETATM   10  O   UNL     1      -8.258  10.655  69.495  1.00  0.00    -0.127 OA 
BRANCH   9  11
HETATM   11  C   UNL     1     -10.311   9.692  70.354  1.00  0.00    -0.350 A  
HETATM   12  C   UNL     1     -11.537  10.357  70.218  1.00  0.00    -0.327 A  
HETATM   13  C   UNL     1     -12.598  10.068  71.093  1.00  0.00    -0.480 A  
HETATM   14 CL   UNL     1     -11.877  11.531  68.993  1.00  0.00    -0.387 Cl 
HETATM   15  C   UNL     1     -12.453   9.151  72.134  1.00  0.00    -0.366 A  
HETATM   16  C   UNL     1     -11.258   8.444  72.232  1.00  0.00    -0.446 A  
HETATM   17  N   UNL     1     -13.553   8.777  72.909  1.00  0.00    -0.877 NA 
HETATM   18  H1  UNL     1     -13.447   8.107  73.670  1.00  0.00     0.000 HD 
HETATM   19  C   UNL     1     -10.191   8.726  71.373  1.00  0.00    -0.350 A  
HETATM   20  H2  UNL     1     -14.284   8.437  72.284  1.00  0.00     0.000 HD 
ENDBRANCH   9  11
ENDBRANCH   8   9
ENDBRANCH   7   8
ENDBRANCH   6   7
ENDBRANCH   3   6
ENDBRANCH   2   3
TORSDOF 7
ENDMDL
MODEL      169
REMARK 921   NORMALIZED FREE ENERGY PREDICTED BY IDOCK:   -3.74 KCAL/MOL
REMARK 922        TOTAL FREE ENERGY PREDICTED BY IDOCK:   -5.66 KCAL/MOL
REMARK 923 INTER-LIGAND FREE ENERGY PREDICTED BY IDOCK:   -5.11 KCAL/MOL
REMARK 924 INTRA-LIGAND FREE ENERGY PREDICTED BY IDOCK:   -0.56 KCAL/MOL
REMARK 927      BINDING AFFINITY PREDICTED BY RF-SCORE:    0.00 PKD
ROOT
HETATM    1  C   UNL     1      -9.064   9.956  69.301  1.00  0.00    -0.196 C  
HETATM    2  C   UNL     1      -8.279  10.776  68.284  1.00  0.00    -0.124 C  
ENDROOT
BRANCH   2   3
HETATM    3  N   UNL     1      -7.626  11.984  68.827  1.00  0.00    -0.102 NA 
BRANCH   3   4
HETATM    4  C   UNL     1      -6.181  11.825  69.065  1.00  0.00    -0.072 C  
HETATM    5  C   UNL     1      -5.690  12.115  70.481  1.00  0.00    -0.160 C  
ENDBRANCH   3   4
BRANCH   3   6
HETATM    6  C   UNL     1      -7.945  13.122  67.948  1.00  0.00    -0.158 C  
BRANCH   6   7
HETATM    7  C   UNL     1      -8.826  14.246  68.524  1.00  0.00    -0.176 C  
BRANCH   7   8
HETATM    8  O   UNL     1     -10.064  13.625  68.927  1.00  0.00    -0.164 OA 
BRANCH   8   9
HETATM    9  C   UNL     1     -11.178  14.253  68.466  1.00  0.00    -0.266 C  
HETATM   10  O   UNL     1     -11.818  15.069  69.107  1.00  0.00    -0.302 OA 
BRANCH   9  11
HETATM   11  C   UNL     1     -11.367  13.923  67.017  1.00  0.00    -0.343 A  
HETATM   12  C   UNL     1     -11.727  12.640  66.585  1.00  0.00    -0.398 A  
HETATM   13  C   UNL     1     -12.001  12.404  65.227  1.00  0.00    -0.461 A  
HETATM   14 CL   UNL     1     -11.898  11.272  67.631  1.00  0.00    -0.214 Cl 
HETATM   15  C   UNL     1     -11.887  13.417  64.275  1.00  0.00    -0.423 A  
HETATM   16  C   UNL     1     -11.592  14.706  64.711  1.00  0.00    -0.418 A  
HETATM   17  N   UNL     1     -12.291  13.200  62.956  1.00  0.00    -0.823 NA 
HETATM   18  H1  UNL     1     -12.209  13.941  62.260  1.00  0.00     0.000 HD 
HETATM   19  C   UNL     1     -11.310  14.954  66.058  1.00  0.00    -0.306 A  
HETATM   20  H2  UNL     1     -13.260  12.879  62.966  1.00  0.00     0.000 HD 
ENDBRANCH   9  11
ENDBRANCH   8   9
ENDBRANCH   7   8
ENDBRANCH   6   7
ENDBRANCH   3   6
ENDBRANCH   2   3
TORSDOF 7
ENDMDL
MODEL      170
REMARK 921   NORMALIZED FREE ENERGY PREDICTED BY IDOCK:   -3.73 KCAL/MOL
REMARK 922        TOTAL FREE ENERGY PREDICTED BY IDOCK:   -5.64 KCAL/MOL
REMARK 923 INTER-LIGAND FREE ENERGY PREDICTED BY IDOCK:   -5.27 KCAL/MOL
REMARK 924 INTRA-LIGAND FREE ENERGY PREDICTED BY IDOCK:   -0.37 KCAL/MOL
REMARK 927      BINDING AFFINITY PREDICTED BY RF-SCORE:    0.00 PKD
ROOT
HETATM    1  C   UNL     1      -6.949  12.074  67.193  1.00  0.00    -0.134 C  
HETATM    2  C   UNL     1      -8.460  12.098  67.385  1.00  0.00    -0.173 C  
ENDROOT
BRANCH   2   3
HETATM    3  N   UNL     1      -9.083  13.432  67.264  1.00  0.00    -0.212 NA 
BRANCH   3   4
HETATM    4  C   UNL     1     -10.325  13.439  66.472  1.00  0.00    -0.284 C  
HETATM    5  C   UNL     1     -10.298  14.242  65.174  1.00  0.00    -0.440 C  
ENDBRANCH   3   4
BRANCH   3   6
HETATM    6  C   UNL     1      -9.256  13.991  68.615  1.00  0.00    -0.119 C  
BRANCH   6   7
HETATM    7  C   UNL     1      -9.963  15.353  68.741  1.00  0.00    -0.208 C  
BRANCH   7   8
HETATM    8  O   UNL     1      -9.211  16.277  67.927  1.00  0.00    -0.199 OA 
BRANCH   8   9
HETATM    9  C   UNL     1      -9.693  17.550  67.941  1.00  0.00    -0.278 C  
HETATM   10  O   UNL     1     -10.873  17.832  68.052  1.00  0.00    -0.354 OA 
BRANCH   9  11
HETATM   11  C   UNL     1      -8.546  18.511  67.984  1.00  0.00    -0.310 A  
HETATM   12  C   UNL     1      -8.557  19.720  67.274  1.00  0.00    -0.321 A  
HETATM   13  C   UNL     1      -7.508  20.641  67.433  1.00  0.00    -0.384 A  
HETATM   14 CL   UNL     1      -9.822  20.204  66.198  1.00  0.00    -0.545 Cl 
HETATM   15  C   UNL     1      -6.419  20.368  68.260  1.00  0.00    -0.309 A  
HETATM   16  C   UNL     1      -6.437  19.198  69.014  1.00  0.00    -0.314 A  
HETATM   17  N   UNL     1      -5.454  21.347  68.510  1.00  0.00    -0.430 NA 
HETATM   18  H1  UNL     1      -4.658  21.148  69.115  1.00  0.00     0.000 HD 
HETATM   19  C   UNL     1      -7.471  18.269  68.862  1.00  0.00    -0.255 A  
HETATM   20  H2  UNL     1      -5.927  22.178  68.867  1.00  0.00     0.000 HD 
ENDBRANCH   9  11
ENDBRANCH   8   9
ENDBRANCH   7   8
ENDBRANCH   6   7
ENDBRANCH   3   6
ENDBRANCH   2   3
TORSDOF 7
ENDMDL
MODEL      171
REMARK 921   NORMALIZED FREE ENERGY PREDICTED BY IDOCK:   -3.73 KCAL/MOL
REMARK 922        TOTAL FREE ENERGY PREDICTED BY IDOCK:   -5.64 KCAL/MOL
REMARK 923 INTER-LIGAND FREE ENERGY PREDICTED BY IDOCK:   -4.77 KCAL/MOL
REMARK 924 INTRA-LIGAND FREE ENERGY PREDICTED BY IDOCK:   -0.87 KCAL/MOL
REMARK 927      BINDING AFFINITY PREDICTED BY RF-SCORE:    0.00 PKD
ROOT
HETATM    1  C   UNL     1     -12.148  12.978  63.554  1.00  0.00    -0.617 C  
HETATM    2  C   UNL     1     -12.385  13.168  65.047  1.00  0.00    -0.459 C  
ENDROOT
BRANCH   2   3
HETATM    3  N   UNL     1     -11.642  12.237  65.921  1.00  0.00    -0.385 NA 
BRANCH   3   4
HETATM    4  C   UNL     1     -10.296  11.902  65.426  1.00  0.00    -0.267 C  
HETATM    5  C   UNL     1     -10.022  10.425  65.152  1.00  0.00    -0.390 C  
ENDBRANCH   3   4
BRANCH   3   6
HETATM    6  C   UNL     1     -11.637  12.784  67.288  1.00  0.00    -0.360 C  
BRANCH   6   7
HETATM    7  C   UNL     1     -10.958  11.949  68.390  1.00  0.00    -0.232 C  
BRANCH   7   8
HETATM    8  O   UNL     1     -11.582  10.649  68.357  1.00  0.00    -0.349 OA 
BRANCH   8   9
HETATM    9  C   UNL     1     -10.988   9.726  69.160  1.00  0.00    -0.175 C  
HETATM   10  O   UNL     1     -11.231   9.595  70.347  1.00  0.00    -0.248 OA 
BRANCH   9  11
HETATM   11  C   UNL     1     -10.153   8.807  68.323  1.00  0.00    -0.220 A  
HETATM   12  C   UNL     1      -8.752   8.851  68.336  1.00  0.00    -0.134 A  
HETATM   13  C   UNL     1      -8.010   7.897  67.619  1.00  0.00    -0.124 A  
HETATM   14 CL   UNL     1      -7.823  10.010  69.222  1.00  0.00    -0.112 Cl 
HETATM   15  C   UNL     1      -8.635   6.915  66.852  1.00  0.00    -0.116 A  
HETATM   16  C   UNL     1     -10.025   6.831  66.888  1.00  0.00    -0.252 A  
HETATM   17  N   UNL     1      -7.888   5.896  66.256  1.00  0.00    -0.099 NA 
HETATM   18  H1  UNL     1      -8.346   5.178  65.695  1.00  0.00     0.000 HD 
HETATM   19  C   UNL     1     -10.777   7.777  67.591  1.00  0.00    -0.227 A  
HETATM   20  H2  UNL     1      -7.342   5.433  66.983  1.00  0.00     0.000 HD 
ENDBRANCH   9  11
ENDBRANCH   8   9
ENDBRANCH   7   8
ENDBRANCH   6   7
ENDBRANCH   3   6
ENDBRANCH   2   3
TORSDOF 7
ENDMDL
MODEL      172
REMARK 921   NORMALIZED FREE ENERGY PREDICTED BY IDOCK:   -3.72 KCAL/MOL
REMARK 922        TOTAL FREE ENERGY PREDICTED BY IDOCK:   -5.64 KCAL/MOL
REMARK 923 INTER-LIGAND FREE ENERGY PREDICTED BY IDOCK:   -5.16 KCAL/MOL
REMARK 924 INTRA-LIGAND FREE ENERGY PREDICTED BY IDOCK:   -0.48 KCAL/MOL
REMARK 927      BINDING AFFINITY PREDICTED BY RF-SCORE:    0.00 PKD
ROOT
HETATM    1  C   UNL     1      -9.927  19.454  69.157  1.00  0.00    -0.412 C  
HETATM    2  C   UNL     1      -8.838  18.717  68.385  1.00  0.00    -0.342 C  
ENDROOT
BRANCH   2   3
HETATM    3  N   UNL     1      -8.617  19.198  67.006  1.00  0.00    -0.283 NA 
BRANCH   3   4
HETATM    4  C   UNL     1      -7.225  19.592  66.730  1.00  0.00    -0.218 C  
HETATM    5  C   UNL     1      -6.657  19.173  65.376  1.00  0.00    -0.303 C  
ENDBRANCH   3   4
BRANCH   3   6
HETATM    6  C   UNL     1      -9.127  18.182  66.070  1.00  0.00     0.019 C  
BRANCH   6   7
HETATM    7  C   UNL     1      -8.976  16.702  66.468  1.00  0.00    -0.277 C  
BRANCH   7   8
HETATM    8  O   UNL     1     -10.281  16.106  66.317  1.00  0.00    -0.289 OA 
BRANCH   8   9
HETATM    9  C   UNL     1     -10.633  15.273  67.334  1.00  0.00    -0.282 C  
HETATM   10  O   UNL     1     -11.093  15.650  68.397  1.00  0.00    -0.292 OA 
BRANCH   9  11
HETATM   11  C   UNL     1     -10.539  13.854  66.865  1.00  0.00    -0.280 A  
HETATM   12  C   UNL     1     -11.518  13.271  66.049  1.00  0.00    -0.330 A  
HETATM   13  C   UNL     1     -11.333  11.973  65.544  1.00  0.00    -0.381 A  
HETATM   14 CL   UNL     1     -12.982  14.059  65.570  1.00  0.00    -0.478 Cl 
HETATM   15  C   UNL     1     -10.203  11.221  65.864  1.00  0.00    -0.249 A  
HETATM   16  C   UNL     1      -9.201  11.821  66.622  1.00  0.00    -0.201 A  
HETATM   17  N   UNL     1      -9.971   9.989  65.248  1.00  0.00    -0.324 NA 
HETATM   18  H1  UNL     1      -9.145   9.440  65.482  1.00  0.00     0.000 HD 
HETATM   19  C   UNL     1      -9.374  13.109  67.138  1.00  0.00    -0.235 A  
HETATM   20  H2  UNL     1      -9.985  10.130  64.238  1.00  0.00     0.000 HD 
ENDBRANCH   9  11
ENDBRANCH   8   9
ENDBRANCH   7   8
ENDBRANCH   6   7
ENDBRANCH   3   6
ENDBRANCH   2   3
TORSDOF 7
ENDMDL
MODEL      173
REMARK 921   NORMALIZED FREE ENERGY PREDICTED BY IDOCK:   -3.71 KCAL/MOL
REMARK 922        TOTAL FREE ENERGY PREDICTED BY IDOCK:   -5.63 KCAL/MOL
REMARK 923 INTER-LIGAND FREE ENERGY PREDICTED BY IDOCK:   -5.04 KCAL/MOL
REMARK 924 INTRA-LIGAND FREE ENERGY PREDICTED BY IDOCK:   -0.59 KCAL/MOL
REMARK 927      BINDING AFFINITY PREDICTED BY RF-SCORE:    0.00 PKD
ROOT
HETATM    1  C   UNL     1      -5.759   9.334  64.699  1.00  0.00    -0.064 C  
HETATM    2  C   UNL     1      -5.828   8.862  66.146  1.00  0.00    -0.051 C  
ENDROOT
BRANCH   2   3
HETATM    3  N   UNL     1      -7.192   8.633  66.663  1.00  0.00    -0.080 NA 
BRANCH   3   4
HETATM    4  C   UNL     1      -7.673   7.253  66.482  1.00  0.00    -0.093 C  
HETATM    5  C   UNL     1      -7.286   6.251  67.567  1.00  0.00    -0.079 C  
ENDBRANCH   3   4
BRANCH   3   6
HETATM    6  C   UNL     1      -7.242   9.084  68.064  1.00  0.00    -0.080 C  
BRANCH   6   7
HETATM    7  C   UNL     1      -8.361  10.065  68.460  1.00  0.00    -0.113 C  
BRANCH   7   8
HETATM    8  O   UNL     1      -8.917  10.566  67.227  1.00  0.00    -0.139 OA 
BRANCH   8   9
HETATM    9  C   UNL     1     -10.266  10.426  67.127  1.00  0.00    -0.222 C  
HETATM   10  O   UNL     1     -10.942   9.763  67.894  1.00  0.00    -0.262 OA 
BRANCH   9  11
HETATM   11  C   UNL     1     -10.781  11.347  66.065  1.00  0.00    -0.318 A  
HETATM   12  C   UNL     1     -10.467  11.173  64.710  1.00  0.00    -0.323 A  
HETATM   13  C   UNL     1     -11.061  11.995  63.737  1.00  0.00    -0.510 A  
HETATM   14 CL   UNL     1      -9.385   9.964  64.109  1.00  0.00    -0.321 Cl 
HETATM   15  C   UNL     1     -11.941  13.019  64.088  1.00  0.00    -0.427 A  
HETATM   16  C   UNL     1     -12.304  13.151  65.426  1.00  0.00    -0.532 A  
HETATM   17  N   UNL     1     -12.625  13.736  63.104  1.00  0.00    -0.971 NA 
HETATM   18  H1  UNL     1     -13.269  14.484  63.360  1.00  0.00     0.000 HD 
HETATM   19  C   UNL     1     -11.715  12.346  66.406  1.00  0.00    -0.453 A  
HETATM   20  H2  UNL     1     -13.127  13.071  62.514  1.00  0.00     0.000 HD 
ENDBRANCH   9  11
ENDBRANCH   8   9
ENDBRANCH   7   8
ENDBRANCH   6   7
ENDBRANCH   3   6
ENDBRANCH   2   3
TORSDOF 7
ENDMDL
MODEL      174
REMARK 921   NORMALIZED FREE ENERGY PREDICTED BY IDOCK:   -3.71 KCAL/MOL
REMARK 922        TOTAL FREE ENERGY PREDICTED BY IDOCK:   -5.62 KCAL/MOL
REMARK 923 INTER-LIGAND FREE ENERGY PREDICTED BY IDOCK:   -4.81 KCAL/MOL
REMARK 924 INTRA-LIGAND FREE ENERGY PREDICTED BY IDOCK:   -0.82 KCAL/MOL
REMARK 927      BINDING AFFINITY PREDICTED BY RF-SCORE:    0.00 PKD
ROOT
HETATM    1  C   UNL     1      -9.296   8.608  66.104  1.00  0.00    -0.291 C  
HETATM    2  C   UNL     1      -8.820   7.458  66.983  1.00  0.00    -0.128 C  
ENDROOT
BRANCH   2   3
HETATM    3  N   UNL     1      -9.839   6.909  67.900  1.00  0.00    -0.132 NA 
BRANCH   3   4
HETATM    4  C   UNL     1     -10.931   6.194  67.217  1.00  0.00    -0.326 C  
HETATM    5  C   UNL     1     -10.520   5.049  66.295  1.00  0.00    -0.352 C  
ENDBRANCH   3   4
BRANCH   3   6
HETATM    6  C   UNL     1      -9.160   6.091  68.918  1.00  0.00    -0.121 C  
BRANCH   6   7
HETATM    7  C   UNL     1      -9.252   6.551  70.384  1.00  0.00    -0.155 C  
BRANCH   7   8
HETATM    8  O   UNL     1      -8.383   7.696  70.506  1.00  0.00    -0.122 OA 
BRANCH   8   9
HETATM    9  C   UNL     1      -8.895   8.706  71.261  1.00  0.00    -0.207 C  
HETATM   10  O   UNL     1      -8.547   8.949  72.403  1.00  0.00    -0.399 OA 
BRANCH   9  11
HETATM   11  C   UNL     1      -9.791   9.553  70.411  1.00  0.00    -0.329 A  
HETATM   12  C   UNL     1     -11.130   9.794  70.748  1.00  0.00    -0.345 A  
HETATM   13  C   UNL     1     -11.901  10.684  69.980  1.00  0.00    -0.403 A  
HETATM   14 CL   UNL     1     -11.937   9.081  72.101  1.00  0.00    -0.420 Cl 
HETATM   15  C   UNL     1     -11.376  11.317  68.853  1.00  0.00    -0.275 A  
HETATM   16  C   UNL     1     -10.029  11.128  68.555  1.00  0.00    -0.204 A  
HETATM   17  N   UNL     1     -12.110  12.297  68.182  1.00  0.00    -0.382 NA 
HETATM   18  H1  UNL     1     -11.726  12.760  67.359  1.00  0.00     0.000 HD 
HETATM   19  C   UNL     1      -9.251  10.240  69.305  1.00  0.00    -0.215 A  
HETATM   20  H2  UNL     1     -12.375  13.015  68.857  1.00  0.00     0.000 HD 
ENDBRANCH   9  11
ENDBRANCH   8   9
ENDBRANCH   7   8
ENDBRANCH   6   7
ENDBRANCH   3   6
ENDBRANCH   2   3
TORSDOF 7
ENDMDL
MODEL      175
REMARK 921   NORMALIZED FREE ENERGY PREDICTED BY IDOCK:   -3.71 KCAL/MOL
REMARK 922        TOTAL FREE ENERGY PREDICTED BY IDOCK:   -5.62 KCAL/MOL
REMARK 923 INTER-LIGAND FREE ENERGY PREDICTED BY IDOCK:   -5.21 KCAL/MOL
REMARK 924 INTRA-LIGAND FREE ENERGY PREDICTED BY IDOCK:   -0.41 KCAL/MOL
REMARK 927      BINDING AFFINITY PREDICTED BY RF-SCORE:    0.00 PKD
ROOT
HETATM    1  C   UNL     1      -7.620   7.743  69.825  1.00  0.00    -0.091 C  
HETATM    2  C   UNL     1      -8.401   9.046  69.937  1.00  0.00    -0.134 C  
ENDROOT
BRANCH   2   3
HETATM    3  N   UNL     1      -9.866   8.910  69.799  1.00  0.00    -0.176 NA 
BRANCH   3   4
HETATM    4  C   UNL     1     -10.627   9.526  70.899  1.00  0.00    -0.325 C  
HETATM    5  C   UNL     1     -10.929   8.633  72.100  1.00  0.00    -0.434 C  
ENDBRANCH   3   4
BRANCH   3   6
HETATM    6  C   UNL     1     -10.258   9.411  68.472  1.00  0.00    -0.199 C  
BRANCH   6   7
HETATM    7  C   UNL     1      -9.720  10.788  68.040  1.00  0.00    -0.162 C  
BRANCH   7   8
HETATM    8  O   UNL     1     -10.691  11.760  68.480  1.00  0.00    -0.202 OA 
BRANCH   8   9
HETATM    9  C   UNL     1     -11.322  12.415  67.468  1.00  0.00    -0.315 C  
HETATM   10  O   UNL     1     -12.132  11.897  66.719  1.00  0.00    -0.593 OA 
BRANCH   9  11
HETATM   11  C   UNL     1     -11.002  13.875  67.551  1.00  0.00    -0.288 A  
HETATM   12  C   UNL     1     -10.458  14.583  66.471  1.00  0.00    -0.285 A  
HETATM   13  C   UNL     1     -10.277  15.974  66.558  1.00  0.00    -0.301 A  
HETATM   14 CL   UNL     1      -9.997  13.861  64.968  1.00  0.00    -0.291 Cl 
HETATM   15  C   UNL     1     -10.595  16.678  67.719  1.00  0.00    -0.342 A  
HETATM   16  C   UNL     1     -11.195  15.988  68.769  1.00  0.00    -0.360 A  
HETATM   17  N   UNL     1     -10.536  18.073  67.743  1.00  0.00    -0.411 NA 
HETATM   18  H1  UNL     1     -10.769  18.588  68.591  1.00  0.00     0.000 HD 
HETATM   19  C   UNL     1     -11.374  14.602  68.700  1.00  0.00    -0.305 A  
HETATM   20  H2  UNL     1     -11.118  18.430  66.984  1.00  0.00     0.000 HD 
ENDBRANCH   9  11
ENDBRANCH   8   9
ENDBRANCH   7   8
ENDBRANCH   6   7
ENDBRANCH   3   6
ENDBRANCH   2   3
TORSDOF 7
ENDMDL
MODEL      176
REMARK 921   NORMALIZED FREE ENERGY PREDICTED BY IDOCK:   -3.70 KCAL/MOL
REMARK 922        TOTAL FREE ENERGY PREDICTED BY IDOCK:   -5.61 KCAL/MOL
REMARK 923 INTER-LIGAND FREE ENERGY PREDICTED BY IDOCK:   -5.05 KCAL/MOL
REMARK 924 INTRA-LIGAND FREE ENERGY PREDICTED BY IDOCK:   -0.55 KCAL/MOL
REMARK 927      BINDING AFFINITY PREDICTED BY RF-SCORE:    0.00 PKD
ROOT
HETATM    1  C   UNL     1     -12.813   9.652  72.021  1.00  0.00    -0.497 C  
HETATM    2  C   UNL     1     -12.813  10.951  71.224  1.00  0.00    -0.433 C  
ENDROOT
BRANCH   2   3
HETATM    3  N   UNL     1     -11.680  11.109  70.289  1.00  0.00    -0.333 NA 
BRANCH   3   4
HETATM    4  C   UNL     1     -10.985   9.849  69.977  1.00  0.00    -0.291 C  
HETATM    5  C   UNL     1      -9.521   9.965  69.561  1.00  0.00    -0.239 C  
ENDBRANCH   3   4
BRANCH   3   6
HETATM    6  C   UNL     1     -12.159  11.818  69.091  1.00  0.00    -0.228 C  
BRANCH   6   7
HETATM    7  C   UNL     1     -11.738  13.289  68.914  1.00  0.00    -0.327 C  
BRANCH   7   8
HETATM    8  O   UNL     1     -11.182  13.395  67.587  1.00  0.00    -0.257 OA 
BRANCH   8   9
HETATM    9  C   UNL     1      -9.845  13.151  67.523  1.00  0.00    -0.216 C  
HETATM   10  O   UNL     1      -9.037  13.554  68.341  1.00  0.00    -0.193 OA 
BRANCH   9  11
HETATM   11  C   UNL     1      -9.573  12.179  66.417  1.00  0.00    -0.243 A  
HETATM   12  C   UNL     1      -8.386  11.436  66.351  1.00  0.00    -0.140 A  
HETATM   13  C   UNL     1      -8.222  10.456  65.356  1.00  0.00    -0.159 A  
HETATM   14 CL   UNL     1      -7.066  11.610  67.455  1.00  0.00    -0.114 Cl 
HETATM   15  C   UNL     1      -9.205  10.223  64.395  1.00  0.00    -0.252 A  
HETATM   16  C   UNL     1     -10.409  10.916  64.497  1.00  0.00    -0.417 A  
HETATM   17  N   UNL     1      -9.084   9.159  63.499  1.00  0.00    -0.400 NA 
HETATM   18  H1  UNL     1      -9.803   8.988  62.796  1.00  0.00     0.000 HD 
HETATM   19  C   UNL     1     -10.584  11.899  65.476  1.00  0.00    -0.313 A  
HETATM   20  H2  UNL     1      -8.955   8.301  64.037  1.00  0.00     0.000 HD 
ENDBRANCH   9  11
ENDBRANCH   8   9
ENDBRANCH   7   8
ENDBRANCH   6   7
ENDBRANCH   3   6
ENDBRANCH   2   3
TORSDOF 7
ENDMDL
MODEL      177
REMARK 921   NORMALIZED FREE ENERGY PREDICTED BY IDOCK:   -3.69 KCAL/MOL
REMARK 922        TOTAL FREE ENERGY PREDICTED BY IDOCK:   -5.60 KCAL/MOL
REMARK 923 INTER-LIGAND FREE ENERGY PREDICTED BY IDOCK:   -4.87 KCAL/MOL
REMARK 924 INTRA-LIGAND FREE ENERGY PREDICTED BY IDOCK:   -0.73 KCAL/MOL
REMARK 927      BINDING AFFINITY PREDICTED BY RF-SCORE:    0.00 PKD
ROOT
HETATM    1  C   UNL     1      -9.695  10.415  63.970  1.00  0.00    -0.373 C  
HETATM    2  C   UNL     1      -9.807  11.447  65.085  1.00  0.00    -0.260 C  
ENDROOT
BRANCH   2   3
HETATM    3  N   UNL     1      -9.929  10.885  66.446  1.00  0.00    -0.213 NA 
BRANCH   3   4
HETATM    4  C   UNL     1     -11.108  11.368  67.185  1.00  0.00    -0.305 C  
HETATM    5  C   UNL     1     -11.515  10.560  68.415  1.00  0.00    -0.285 C  
ENDBRANCH   3   4
BRANCH   3   6
HETATM    6  C   UNL     1      -9.866   9.417  66.352  1.00  0.00    -0.269 C  
BRANCH   6   7
HETATM    7  C   UNL     1      -8.571   8.726  66.818  1.00  0.00    -0.115 C  
BRANCH   7   8
HETATM    8  O   UNL     1      -8.429   9.034  68.220  1.00  0.00    -0.127 OA 
BRANCH   8   9
HETATM    9  C   UNL     1      -8.475   7.947  69.037  1.00  0.00    -0.131 C  
HETATM   10  O   UNL     1      -7.586   7.118  69.121  1.00  0.00    -0.095 OA 
BRANCH   9  11
HETATM   11  C   UNL     1      -9.678   8.045  69.922  1.00  0.00    -0.180 A  
HETATM   12  C   UNL     1     -10.790   7.206  69.766  1.00  0.00    -0.240 A  
HETATM   13  C   UNL     1     -11.850   7.260  70.688  1.00  0.00    -0.290 A  
HETATM   14 CL   UNL     1     -10.961   6.043  68.497  1.00  0.00    -0.372 Cl 
HETATM   15  C   UNL     1     -11.844   8.163  71.751  1.00  0.00    -0.300 A  
HETATM   16  C   UNL     1     -10.713   8.952  71.944  1.00  0.00    -0.426 A  
HETATM   17  N   UNL     1     -12.837   8.112  72.732  1.00  0.00    -0.566 NA 
HETATM   18  H1  UNL     1     -12.833   8.772  73.509  1.00  0.00     0.000 HD 
HETATM   19  C   UNL     1      -9.655   8.915  71.031  1.00  0.00    -0.321 A  
HETATM   20  H2  UNL     1     -12.858   7.167  73.116  1.00  0.00     0.000 HD 
ENDBRANCH   9  11
ENDBRANCH   8   9
ENDBRANCH   7   8
ENDBRANCH   6   7
ENDBRANCH   3   6
ENDBRANCH   2   3
TORSDOF 7
ENDMDL
MODEL      178
REMARK 921   NORMALIZED FREE ENERGY PREDICTED BY IDOCK:   -3.69 KCAL/MOL
REMARK 922        TOTAL FREE ENERGY PREDICTED BY IDOCK:   -5.59 KCAL/MOL
REMARK 923 INTER-LIGAND FREE ENERGY PREDICTED BY IDOCK:   -5.28 KCAL/MOL
REMARK 924 INTRA-LIGAND FREE ENERGY PREDICTED BY IDOCK:   -0.31 KCAL/MOL
REMARK 927      BINDING AFFINITY PREDICTED BY RF-SCORE:    0.00 PKD
ROOT
HETATM    1  C   UNL     1      -8.072   7.492  65.982  1.00  0.00    -0.123 C  
HETATM    2  C   UNL     1      -8.863   8.339  66.970  1.00  0.00    -0.135 C  
ENDROOT
BRANCH   2   3
HETATM    3  N   UNL     1      -9.052   9.749  66.573  1.00  0.00    -0.149 NA 
BRANCH   3   4
HETATM    4  C   UNL     1      -9.903   9.923  65.383  1.00  0.00    -0.313 C  
HETATM    5  C   UNL     1     -10.017  11.342  64.832  1.00  0.00    -0.311 C  
ENDBRANCH   3   4
BRANCH   3   6
HETATM    6  C   UNL     1      -9.531  10.504  67.743  1.00  0.00    -0.149 C  
BRANCH   6   7
HETATM    7  C   UNL     1     -10.887  10.097  68.350  1.00  0.00    -0.242 C  
BRANCH   7   8
HETATM    8  O   UNL     1     -11.732  11.264  68.273  1.00  0.00    -0.427 OA 
BRANCH   8   9
HETATM    9  C   UNL     1     -12.017  11.826  69.478  1.00  0.00    -0.300 C  
HETATM   10  O   UNL     1     -12.263  11.189  70.488  1.00  0.00    -0.328 OA 
BRANCH   9  11
HETATM   11  C   UNL     1     -11.798  13.305  69.398  1.00  0.00    -0.386 A  
HETATM   12  C   UNL     1     -12.213  14.177  70.414  1.00  0.00    -0.356 A  
HETATM   13  C   UNL     1     -11.888  15.543  70.347  1.00  0.00    -0.379 A  
HETATM   14 CL   UNL     1     -13.103  13.687  71.814  1.00  0.00    -0.450 Cl 
HETATM   15  C   UNL     1     -11.186  16.072  69.264  1.00  0.00    -0.346 A  
HETATM   16  C   UNL     1     -10.718  15.197  68.287  1.00  0.00    -0.251 A  
HETATM   17  N   UNL     1     -10.755  17.400  69.277  1.00  0.00    -0.352 NA 
HETATM   18  H1  UNL     1     -10.241  17.787  68.486  1.00  0.00     0.000 HD 
HETATM   19  C   UNL     1     -11.040  13.837  68.337  1.00  0.00    -0.287 A  
HETATM   20  H2  UNL     1     -10.201  17.548  70.121  1.00  0.00     0.000 HD 
ENDBRANCH   9  11
ENDBRANCH   8   9
ENDBRANCH   7   8
ENDBRANCH   6   7
ENDBRANCH   3   6
ENDBRANCH   2   3
TORSDOF 7
ENDMDL
MODEL      179
REMARK 921   NORMALIZED FREE ENERGY PREDICTED BY IDOCK:   -3.69 KCAL/MOL
REMARK 922        TOTAL FREE ENERGY PREDICTED BY IDOCK:   -5.59 KCAL/MOL
REMARK 923 INTER-LIGAND FREE ENERGY PREDICTED BY IDOCK:   -5.20 KCAL/MOL
REMARK 924 INTRA-LIGAND FREE ENERGY PREDICTED BY IDOCK:   -0.39 KCAL/MOL
REMARK 927      BINDING AFFINITY PREDICTED BY RF-SCORE:    0.00 PKD
ROOT
HETATM    1  C   UNL     1      -9.097   7.677  72.151  1.00  0.00    -0.180 C  
HETATM    2  C   UNL     1      -9.393   8.696  71.058  1.00  0.00    -0.202 C  
ENDROOT
BRANCH   2   3
HETATM    3  N   UNL     1      -8.243   9.527  70.650  1.00  0.00    -0.250 NA 
BRANCH   3   4
HETATM    4  C   UNL     1      -6.959   9.089  71.223  1.00  0.00    -0.081 C  
HETATM    5  C   UNL     1      -5.738   9.942  70.887  1.00  0.00    -0.083 C  
ENDBRANCH   3   4
BRANCH   3   6
HETATM    6  C   UNL     1      -8.223   9.608  69.180  1.00  0.00    -0.120 C  
BRANCH   6   7
HETATM    7  C   UNL     1      -8.919  10.812  68.520  1.00  0.00    -0.160 C  
BRANCH   7   8
HETATM    8  O   UNL     1     -10.170  10.321  67.995  1.00  0.00    -0.156 OA 
BRANCH   8   9
HETATM    9  C   UNL     1     -11.250  11.079  68.329  1.00  0.00    -0.277 C  
HETATM   10  O   UNL     1     -11.748  11.106  69.441  1.00  0.00    -0.273 OA 
BRANCH   9  11
HETATM   11  C   UNL     1     -11.591  11.983  67.186  1.00  0.00    -0.387 A  
HETATM   12  C   UNL     1     -11.881  13.342  67.369  1.00  0.00    -0.366 A  
HETATM   13  C   UNL     1     -12.087  14.176  66.257  1.00  0.00    -0.463 A  
HETATM   14 CL   UNL     1     -11.983  14.115  68.913  1.00  0.00    -0.382 Cl 
HETATM   15  C   UNL     1     -12.047  13.677  64.955  1.00  0.00    -0.392 A  
HETATM   16  C   UNL     1     -11.695  12.342  64.769  1.00  0.00    -0.425 A  
HETATM   17  N   UNL     1     -12.119  14.540  63.861  1.00  0.00    -0.916 NA 
HETATM   18  H1  UNL     1     -12.089  14.175  62.909  1.00  0.00     0.000 HD 
HETATM   19  C   UNL     1     -11.495  11.499  65.866  1.00  0.00    -0.086 A  
HETATM   20  H2  UNL     1     -11.384  15.241  63.957  1.00  0.00     0.000 HD 
ENDBRANCH   9  11
ENDBRANCH   8   9
ENDBRANCH   7   8
ENDBRANCH   6   7
ENDBRANCH   3   6
ENDBRANCH   2   3
TORSDOF 7
ENDMDL
MODEL      180
REMARK 921   NORMALIZED FREE ENERGY PREDICTED BY IDOCK:   -3.69 KCAL/MOL
REMARK 922        TOTAL FREE ENERGY PREDICTED BY IDOCK:   -5.59 KCAL/MOL
REMARK 923 INTER-LIGAND FREE ENERGY PREDICTED BY IDOCK:   -4.93 KCAL/MOL
REMARK 924 INTRA-LIGAND FREE ENERGY PREDICTED BY IDOCK:   -0.66 KCAL/MOL
REMARK 927      BINDING AFFINITY PREDICTED BY RF-SCORE:    0.00 PKD
ROOT
HETATM    1  C   UNL     1      -8.926  13.194  66.889  1.00  0.00    -0.213 C  
HETATM    2  C   UNL     1     -10.367  13.507  66.506  1.00  0.00    -0.282 C  
ENDROOT
BRANCH   2   3
HETATM    3  N   UNL     1     -11.051  12.452  65.732  1.00  0.00    -0.303 NA 
BRANCH   3   4
HETATM    4  C   UNL     1     -12.367  12.856  65.207  1.00  0.00    -0.490 C  
HETATM    5  C   UNL     1     -12.518  14.322  64.809  1.00  0.00    -0.390 C  
ENDBRANCH   3   4
BRANCH   3   6
HETATM    6  C   UNL     1     -10.134  11.972  64.685  1.00  0.00    -0.264 C  
BRANCH   6   7
HETATM    7  C   UNL     1     -10.008  10.450  64.487  1.00  0.00    -0.331 C  
BRANCH   7   8
HETATM    8  O   UNL     1     -10.181   9.855  65.790  1.00  0.00    -0.265 OA 
BRANCH   8   9
HETATM    9  C   UNL     1      -9.236   8.929  66.109  1.00  0.00    -0.217 C  
HETATM   10  O   UNL     1      -8.141   8.860  65.578  1.00  0.00    -0.102 OA 
BRANCH   9  11
HETATM   11  C   UNL     1      -9.685   8.159  67.312  1.00  0.00    -0.233 A  
HETATM   12  C   UNL     1      -9.438   8.604  68.618  1.00  0.00    -0.142 A  
HETATM   13  C   UNL     1      -9.974   7.906  69.713  1.00  0.00    -0.186 A  
HETATM   14 CL   UNL     1      -8.516  10.015  69.008  1.00  0.00    -0.136 Cl 
HETATM   15  C   UNL     1     -10.725   6.744  69.539  1.00  0.00    -0.257 A  
HETATM   16  C   UNL     1     -11.024   6.337  68.242  1.00  0.00    -0.408 A  
HETATM   17  N   UNL     1     -11.361   6.139  70.626  1.00  0.00    -0.324 NA 
HETATM   18  H1  UNL     1     -11.910   5.290  70.499  1.00  0.00     0.000 HD 
HETATM   19  C   UNL     1     -10.492   7.017  67.142  1.00  0.00    -0.383 A  
HETATM   20  H2  UNL     1     -11.952   6.837  71.079  1.00  0.00     0.000 HD 
ENDBRANCH   9  11
ENDBRANCH   8   9
ENDBRANCH   7   8
ENDBRANCH   6   7
ENDBRANCH   3   6
ENDBRANCH   2   3
TORSDOF 7
ENDMDL
MODEL      181
REMARK 921   NORMALIZED FREE ENERGY PREDICTED BY IDOCK:   -3.68 KCAL/MOL
REMARK 922        TOTAL FREE ENERGY PREDICTED BY IDOCK:   -5.58 KCAL/MOL
REMARK 923 INTER-LIGAND FREE ENERGY PREDICTED BY IDOCK:   -5.22 KCAL/MOL
REMARK 924 INTRA-LIGAND FREE ENERGY PREDICTED BY IDOCK:   -0.37 KCAL/MOL
REMARK 927      BINDING AFFINITY PREDICTED BY RF-SCORE:    0.00 PKD
ROOT
HETATM    1  C   UNL     1     -12.408  10.016  71.374  1.00  0.00    -0.512 C  
HETATM    2  C   UNL     1     -11.352   9.223  70.614  1.00  0.00    -0.275 C  
ENDROOT
BRANCH   2   3
HETATM    3  N   UNL     1     -10.012   9.210  71.237  1.00  0.00    -0.302 NA 
BRANCH   3   4
HETATM    4  C   UNL     1      -9.897   8.291  72.382  1.00  0.00    -0.304 C  
HETATM    5  C   UNL     1     -10.110   6.809  72.088  1.00  0.00    -0.198 C  
ENDBRANCH   3   4
BRANCH   3   6
HETATM    6  C   UNL     1      -9.012   8.954  70.187  1.00  0.00    -0.172 C  
BRANCH   6   7
HETATM    7  C   UNL     1      -8.256  10.165  69.610  1.00  0.00    -0.165 C  
BRANCH   7   8
HETATM    8  O   UNL     1      -9.213  10.904  68.823  1.00  0.00    -0.179 OA 
BRANCH   8   9
HETATM    9  C   UNL     1      -8.654  11.756  67.922  1.00  0.00    -0.156 C  
HETATM   10  O   UNL     1      -7.454  11.857  67.731  1.00  0.00    -0.105 OA 
BRANCH   9  11
HETATM   11  C   UNL     1      -9.736  12.388  67.102  1.00  0.00    -0.207 A  
HETATM   12  C   UNL     1     -10.281  11.760  65.974  1.00  0.00    -0.230 A  
HETATM   13  C   UNL     1     -11.370  12.340  65.301  1.00  0.00    -0.384 A  
HETATM   14 CL   UNL     1      -9.721  10.254  65.333  1.00  0.00    -0.315 Cl 
HETATM   15  C   UNL     1     -11.909  13.561  65.706  1.00  0.00    -0.372 A  
HETATM   16  C   UNL     1     -11.410  14.154  66.863  1.00  0.00    -0.343 A  
HETATM   17  N   UNL     1     -13.072  14.056  65.112  1.00  0.00    -0.759 NA 
HETATM   18  H1  UNL     1     -13.466  14.948  65.408  1.00  0.00     0.000 HD 
HETATM   19  C   UNL     1     -10.323  13.592  67.539  1.00  0.00    -0.241 A  
HETATM   20  H2  UNL     1     -13.799  13.344  65.190  1.00  0.00     0.000 HD 
ENDBRANCH   9  11
ENDBRANCH   8   9
ENDBRANCH   7   8
ENDBRANCH   6   7
ENDBRANCH   3   6
ENDBRANCH   2   3
TORSDOF 7
ENDMDL
MODEL      182
REMARK 921   NORMALIZED FREE ENERGY PREDICTED BY IDOCK:   -3.67 KCAL/MOL
REMARK 922        TOTAL FREE ENERGY PREDICTED BY IDOCK:   -5.57 KCAL/MOL
REMARK 923 INTER-LIGAND FREE ENERGY PREDICTED BY IDOCK:   -5.01 KCAL/MOL
REMARK 924 INTRA-LIGAND FREE ENERGY PREDICTED BY IDOCK:   -0.56 KCAL/MOL
REMARK 927      BINDING AFFINITY PREDICTED BY RF-SCORE:    0.00 PKD
ROOT
HETATM    1  C   UNL     1      -7.828   7.480  67.242  1.00  0.00    -0.118 C  
HETATM    2  C   UNL     1      -8.328   6.064  67.496  1.00  0.00    -0.108 C  
ENDROOT
BRANCH   2   3
HETATM    3  N   UNL     1      -9.539   5.684  66.740  1.00  0.00    -0.139 NA 
BRANCH   3   4
HETATM    4  C   UNL     1      -9.486   4.326  66.173  1.00  0.00    -0.178 C  
HETATM    5  C   UNL     1      -9.308   4.230  64.659  1.00  0.00    -0.162 C  
ENDBRANCH   3   4
BRANCH   3   6
HETATM    6  C   UNL     1     -10.714   5.906  67.600  1.00  0.00    -0.270 C  
BRANCH   6   7
HETATM    7  C   UNL     1     -10.599   5.514  69.085  1.00  0.00    -0.230 C  
BRANCH   7   8
HETATM    8  O   UNL     1     -11.648   6.224  69.775  1.00  0.00    -0.436 OA 
BRANCH   8   9
HETATM    9  C   UNL     1     -11.330   6.589  71.046  1.00  0.00    -0.323 C  
HETATM   10  O   UNL     1     -10.650   5.915  71.800  1.00  0.00    -0.219 OA 
BRANCH   9  11
HETATM   11  C   UNL     1     -11.785   7.995  71.284  1.00  0.00    -0.311 A  
HETATM   12  C   UNL     1     -11.105   9.100  70.753  1.00  0.00    -0.275 A  
HETATM   13  C   UNL     1     -11.630  10.394  70.910  1.00  0.00    -0.428 A  
HETATM   14 CL   UNL     1      -9.628   8.996  69.858  1.00  0.00    -0.182 Cl 
HETATM   15  C   UNL     1     -12.808  10.620  71.623  1.00  0.00    -0.465 A  
HETATM   16  C   UNL     1     -13.517   9.519  72.096  1.00  0.00    -0.535 A  
HETATM   17  N   UNL     1     -13.386  11.891  71.655  1.00  0.00    -0.254 NA 
HETATM   18  H1  UNL     1     -14.247  12.056  72.175  1.00  0.00     0.000 HD 
HETATM   19  C   UNL     1     -13.003   8.226  71.953  1.00  0.00    -0.371 A  
HETATM   20  H2  UNL     1     -13.530  12.201  70.694  1.00  0.00     0.000 HD 
ENDBRANCH   9  11
ENDBRANCH   8   9
ENDBRANCH   7   8
ENDBRANCH   6   7
ENDBRANCH   3   6
ENDBRANCH   2   3
TORSDOF 7
ENDMDL
MODEL      183
REMARK 921   NORMALIZED FREE ENERGY PREDICTED BY IDOCK:   -3.67 KCAL/MOL
REMARK 922        TOTAL FREE ENERGY PREDICTED BY IDOCK:   -5.57 KCAL/MOL
REMARK 923 INTER-LIGAND FREE ENERGY PREDICTED BY IDOCK:   -4.84 KCAL/MOL
REMARK 924 INTRA-LIGAND FREE ENERGY PREDICTED BY IDOCK:   -0.72 KCAL/MOL
REMARK 927      BINDING AFFINITY PREDICTED BY RF-SCORE:    0.00 PKD
ROOT
HETATM    1  C   UNL     1     -13.006   9.812  71.474  1.00  0.00    -0.504 C  
HETATM    2  C   UNL     1     -11.549   9.918  71.042  1.00  0.00    -0.389 C  
ENDROOT
BRANCH   2   3
HETATM    3  N   UNL     1     -10.798   8.646  71.059  1.00  0.00    -0.235 NA 
BRANCH   3   4
HETATM    4  C   UNL     1     -10.060   8.407  72.310  1.00  0.00    -0.312 C  
HETATM    5  C   UNL     1     -10.703   7.445  73.306  1.00  0.00    -0.441 C  
ENDBRANCH   3   4
BRANCH   3   6
HETATM    6  C   UNL     1     -11.724   7.554  70.715  1.00  0.00    -0.256 C  
BRANCH   6   7
HETATM    7  C   UNL     1     -11.276   6.549  69.638  1.00  0.00    -0.384 C  
BRANCH   7   8
HETATM    8  O   UNL     1     -10.188   7.174  68.926  1.00  0.00    -0.175 OA 
BRANCH   8   9
HETATM    9  C   UNL     1     -10.411   7.330  67.593  1.00  0.00    -0.242 C  
HETATM   10  O   UNL     1     -11.347   6.830  66.994  1.00  0.00    -0.337 OA 
BRANCH   9  11
HETATM   11  C   UNL     1      -9.450   8.339  67.046  1.00  0.00    -0.226 A  
HETATM   12  C   UNL     1      -9.738   9.711  67.026  1.00  0.00    -0.181 A  
HETATM   13  C   UNL     1      -8.762  10.630  66.606  1.00  0.00    -0.144 A  
HETATM   14 CL   UNL     1     -11.247  10.395  67.524  1.00  0.00    -0.343 Cl 
HETATM   15  C   UNL     1      -7.508  10.210  66.165  1.00  0.00    -0.115 A  
HETATM   16  C   UNL     1      -7.198   8.855  66.244  1.00  0.00    -0.086 A  
HETATM   17  N   UNL     1      -6.507  11.141  65.879  1.00  0.00    -0.365 NA 
HETATM   18  H1  UNL     1      -5.589  10.834  65.558  1.00  0.00     0.000 HD 
HETATM   19  C   UNL     1      -8.161   7.927  66.654  1.00  0.00    -0.107 A  
HETATM   20  H2  UNL     1      -6.375  11.731  66.701  1.00  0.00     0.000 HD 
ENDBRANCH   9  11
ENDBRANCH   8   9
ENDBRANCH   7   8
ENDBRANCH   6   7
ENDBRANCH   3   6
ENDBRANCH   2   3
TORSDOF 7
ENDMDL
MODEL      184
REMARK 921   NORMALIZED FREE ENERGY PREDICTED BY IDOCK:   -3.67 KCAL/MOL
REMARK 922        TOTAL FREE ENERGY PREDICTED BY IDOCK:   -5.56 KCAL/MOL
REMARK 923 INTER-LIGAND FREE ENERGY PREDICTED BY IDOCK:   -5.02 KCAL/MOL
REMARK 924 INTRA-LIGAND FREE ENERGY PREDICTED BY IDOCK:   -0.54 KCAL/MOL
REMARK 927      BINDING AFFINITY PREDICTED BY RF-SCORE:    0.00 PKD
ROOT
HETATM    1  C   UNL     1      -8.109   7.107  65.025  1.00  0.00    -0.119 C  
HETATM    2  C   UNL     1      -8.122   6.496  66.420  1.00  0.00    -0.113 C  
ENDROOT
BRANCH   2   3
HETATM    3  N   UNL     1      -9.459   6.128  66.928  1.00  0.00    -0.131 NA 
BRANCH   3   4
HETATM    4  C   UNL     1      -9.696   4.675  66.986  1.00  0.00    -0.195 C  
HETATM    5  C   UNL     1      -8.596   3.833  67.628  1.00  0.00    -0.111 C  
ENDBRANCH   3   4
BRANCH   3   6
HETATM    6  C   UNL     1      -9.668   6.800  68.222  1.00  0.00    -0.126 C  
BRANCH   6   7
HETATM    7  C   UNL     1      -8.727   7.963  68.584  1.00  0.00    -0.128 C  
BRANCH   7   8
HETATM    8  O   UNL     1      -9.565   9.123  68.762  1.00  0.00    -0.155 OA 
BRANCH   8   9
HETATM    9  C   UNL     1      -9.460   9.703  69.988  1.00  0.00    -0.240 C  
HETATM   10  O   UNL     1      -8.547  10.440  70.320  1.00  0.00     0.172 OA 
BRANCH   9  11
HETATM   11  C   UNL     1     -10.712   9.442  70.767  1.00  0.00    -0.373 A  
HETATM   12  C   UNL     1     -10.846   8.335  71.616  1.00  0.00    -0.256 A  
HETATM   13  C   UNL     1     -11.996   8.190  72.411  1.00  0.00    -0.431 A  
HETATM   14 CL   UNL     1      -9.652   7.096  71.795  1.00  0.00    -0.158 Cl 
HETATM   15  C   UNL     1     -13.041   9.111  72.352  1.00  0.00    -0.423 A  
HETATM   16  C   UNL     1     -12.883  10.244  71.559  1.00  0.00    -0.557 A  
HETATM   17  N   UNL     1     -14.113   9.026  73.244  1.00  0.00    -1.211 NA 
HETATM   18  H1  UNL     1     -14.878   9.700  73.201  1.00  0.00     0.000 HD 
HETATM   19  C   UNL     1     -11.747  10.398  70.757  1.00  0.00    -0.464 A  
HETATM   20  H2  UNL     1     -13.740   9.026  74.193  1.00  0.00     0.000 HD 
ENDBRANCH   9  11
ENDBRANCH   8   9
ENDBRANCH   7   8
ENDBRANCH   6   7
ENDBRANCH   3   6
ENDBRANCH   2   3
TORSDOF 7
ENDMDL
MODEL      185
REMARK 921   NORMALIZED FREE ENERGY PREDICTED BY IDOCK:   -3.66 KCAL/MOL
REMARK 922        TOTAL FREE ENERGY PREDICTED BY IDOCK:   -5.55 KCAL/MOL
REMARK 923 INTER-LIGAND FREE ENERGY PREDICTED BY IDOCK:   -5.35 KCAL/MOL
REMARK 924 INTRA-LIGAND FREE ENERGY PREDICTED BY IDOCK:   -0.19 KCAL/MOL
REMARK 927      BINDING AFFINITY PREDICTED BY RF-SCORE:    0.00 PKD
ROOT
HETATM    1  C   UNL     1     -10.001  16.307  65.896  1.00  0.00    -0.366 C  
HETATM    2  C   UNL     1     -10.418  14.996  65.242  1.00  0.00    -0.403 C  
ENDROOT
BRANCH   2   3
HETATM    3  N   UNL     1     -11.524  14.286  65.917  1.00  0.00    -0.329 NA 
BRANCH   3   4
HETATM    4  C   UNL     1     -12.355  13.477  65.008  1.00  0.00    -0.428 C  
HETATM    5  C   UNL     1     -11.761  13.173  63.635  1.00  0.00    -0.505 C  
ENDBRANCH   3   4
BRANCH   3   6
HETATM    6  C   UNL     1     -10.966  13.509  67.036  1.00  0.00    -0.288 C  
BRANCH   6   7
HETATM    7  C   UNL     1     -11.943  12.677  67.887  1.00  0.00    -0.249 C  
BRANCH   7   8
HETATM    8  O   UNL     1     -11.588  11.294  67.677  1.00  0.00    -0.490 OA 
BRANCH   8   9
HETATM    9  C   UNL     1     -11.112  10.667  68.787  1.00  0.00    -0.265 C  
HETATM   10  O   UNL     1     -11.194  11.120  69.915  1.00  0.00    -0.261 OA 
BRANCH   9  11
HETATM   11  C   UNL     1     -10.656   9.290  68.418  1.00  0.00    -0.234 A  
HETATM   12  C   UNL     1     -10.760   8.207  69.302  1.00  0.00    -0.129 A  
HETATM   13  C   UNL     1     -10.422   6.912  68.874  1.00  0.00    -0.225 A  
HETATM   14 CL   UNL     1     -11.320   8.333  70.934  1.00  0.00    -0.284 Cl 
HETATM   15  C   UNL     1      -9.942   6.673  67.586  1.00  0.00    -0.131 A  
HETATM   16  C   UNL     1      -9.899   7.736  66.688  1.00  0.00    -0.295 A  
HETATM   17  N   UNL     1      -9.740   5.367  67.135  1.00  0.00    -0.136 NA 
HETATM   18  H1  UNL     1      -9.390   5.192  66.194  1.00  0.00     0.000 HD 
HETATM   19  C   UNL     1     -10.225   9.031  67.101  1.00  0.00    -0.334 A  
HETATM   20  H2  UNL     1     -10.611   4.849  67.253  1.00  0.00     0.000 HD 
ENDBRANCH   9  11
ENDBRANCH   8   9
ENDBRANCH   7   8
ENDBRANCH   6   7
ENDBRANCH   3   6
ENDBRANCH   2   3
TORSDOF 7
ENDMDL
MODEL      186
REMARK 921   NORMALIZED FREE ENERGY PREDICTED BY IDOCK:   -3.65 KCAL/MOL
REMARK 922        TOTAL FREE ENERGY PREDICTED BY IDOCK:   -5.54 KCAL/MOL
REMARK 923 INTER-LIGAND FREE ENERGY PREDICTED BY IDOCK:   -5.25 KCAL/MOL
REMARK 924 INTRA-LIGAND FREE ENERGY PREDICTED BY IDOCK:   -0.29 KCAL/MOL
REMARK 927      BINDING AFFINITY PREDICTED BY RF-SCORE:    0.00 PKD
ROOT
HETATM    1  C   UNL     1     -11.863  12.657  69.223  1.00  0.00    -0.358 C  
HETATM    2  C   UNL     1     -11.050  11.530  68.598  1.00  0.00    -0.238 C  
ENDROOT
BRANCH   2   3
HETATM    3  N   UNL     1     -10.451  11.846  67.285  1.00  0.00    -0.218 NA 
BRANCH   3   4
HETATM    4  C   UNL     1     -11.381  12.501  66.349  1.00  0.00    -0.329 C  
HETATM    5  C   UNL     1     -11.387  11.972  64.917  1.00  0.00    -0.366 C  
ENDBRANCH   3   4
BRANCH   3   6
HETATM    6  C   UNL     1      -9.217  12.617  67.508  1.00  0.00    -0.190 C  
BRANCH   6   7
HETATM    7  C   UNL     1      -9.169  14.062  66.978  1.00  0.00    -0.254 C  
BRANCH   7   8
HETATM    8  O   UNL     1      -8.565  14.856  68.019  1.00  0.00    -0.152 OA 
BRANCH   8   9
HETATM    9  C   UNL     1      -7.588  15.697  67.582  1.00  0.00    -0.158 C  
HETATM   10  O   UNL     1      -6.514  15.326  67.143  1.00  0.00    -0.299 OA 
BRANCH   9  11
HETATM   11  C   UNL     1      -8.116  17.098  67.558  1.00  0.00    -0.196 A  
HETATM   12  C   UNL     1      -7.474  18.149  68.226  1.00  0.00    -0.274 A  
HETATM   13  C   UNL     1      -7.944  19.466  68.085  1.00  0.00    -0.352 A  
HETATM   14 CL   UNL     1      -6.077  17.957  69.228  1.00  0.00    -0.229 Cl 
HETATM   15  C   UNL     1      -9.071  19.758  67.317  1.00  0.00    -0.326 A  
HETATM   16  C   UNL     1      -9.671  18.725  66.602  1.00  0.00    -0.370 A  
HETATM   17  N   UNL     1      -9.444  21.083  67.078  1.00  0.00    -0.664 NA 
HETATM   18  H1  UNL     1     -10.268  21.296  66.516  1.00  0.00     0.000 HD 
HETATM   19  C   UNL     1      -9.219  17.409  66.738  1.00  0.00    -0.274 A  
HETATM   20  H2  UNL     1      -8.646  21.572  66.672  1.00  0.00     0.000 HD 
ENDBRANCH   9  11
ENDBRANCH   8   9
ENDBRANCH   7   8
ENDBRANCH   6   7
ENDBRANCH   3   6
ENDBRANCH   2   3
TORSDOF 7
ENDMDL
MODEL      187
REMARK 921   NORMALIZED FREE ENERGY PREDICTED BY IDOCK:   -3.65 KCAL/MOL
REMARK 922        TOTAL FREE ENERGY PREDICTED BY IDOCK:   -5.53 KCAL/MOL
REMARK 923 INTER-LIGAND FREE ENERGY PREDICTED BY IDOCK:   -4.82 KCAL/MOL
REMARK 924 INTRA-LIGAND FREE ENERGY PREDICTED BY IDOCK:   -0.71 KCAL/MOL
REMARK 927      BINDING AFFINITY PREDICTED BY RF-SCORE:    0.00 PKD
ROOT
HETATM    1  C   UNL     1      -8.299   7.765  65.138  1.00  0.00    -0.113 C  
HETATM    2  C   UNL     1      -9.160   8.591  66.086  1.00  0.00    -0.195 C  
ENDROOT
BRANCH   2   3
HETATM    3  N   UNL     1      -9.153  10.046  65.828  1.00  0.00    -0.154 NA 
BRANCH   3   4
HETATM    4  C   UNL     1     -10.398  10.549  65.225  1.00  0.00    -0.229 C  
HETATM    5  C   UNL     1     -10.274  11.190  63.845  1.00  0.00    -0.420 C  
ENDBRANCH   3   4
BRANCH   3   6
HETATM    6  C   UNL     1      -8.792  10.739  67.076  1.00  0.00    -0.135 C  
BRANCH   6   7
HETATM    7  C   UNL     1      -7.986  12.046  66.961  1.00  0.00    -0.150 C  
BRANCH   7   8
HETATM    8  O   UNL     1      -8.625  12.996  67.839  1.00  0.00    -0.166 OA 
BRANCH   8   9
HETATM    9  C   UNL     1      -9.496  13.833  67.213  1.00  0.00    -0.236 C  
HETATM   10  O   UNL     1      -9.561  13.972  66.004  1.00  0.00    -0.275 OA 
BRANCH   9  11
HETATM   11  C   UNL     1     -10.455  14.390  68.219  1.00  0.00    -0.245 A  
HETATM   12  C   UNL     1     -11.504  13.629  68.752  1.00  0.00    -0.309 A  
HETATM   13  C   UNL     1     -12.311  14.158  69.774  1.00  0.00    -0.350 A  
HETATM   14 CL   UNL     1     -11.887  12.017  68.255  1.00  0.00    -0.385 Cl 
HETATM   15  C   UNL     1     -12.118  15.452  70.257  1.00  0.00    -0.369 A  
HETATM   16  C   UNL     1     -11.037  16.185  69.775  1.00  0.00    -0.350 A  
HETATM   17  N   UNL     1     -12.838  15.912  71.362  1.00  0.00    -0.528 NA 
HETATM   18  H1  UNL     1     -12.697  16.858  71.715  1.00  0.00     0.000 HD 
HETATM   19  C   UNL     1     -10.231  15.675  68.753  1.00  0.00    -0.215 A  
HETATM   20  H2  UNL     1     -12.694  15.259  72.133  1.00  0.00     0.000 HD 
ENDBRANCH   9  11
ENDBRANCH   8   9
ENDBRANCH   7   8
ENDBRANCH   6   7
ENDBRANCH   3   6
ENDBRANCH   2   3
TORSDOF 7
ENDMDL
MODEL      188
REMARK 921   NORMALIZED FREE ENERGY PREDICTED BY IDOCK:   -3.65 KCAL/MOL
REMARK 922        TOTAL FREE ENERGY PREDICTED BY IDOCK:   -5.53 KCAL/MOL
REMARK 923 INTER-LIGAND FREE ENERGY PREDICTED BY IDOCK:   -5.11 KCAL/MOL
REMARK 924 INTRA-LIGAND FREE ENERGY PREDICTED BY IDOCK:   -0.42 KCAL/MOL
REMARK 927      BINDING AFFINITY PREDICTED BY RF-SCORE:    0.00 PKD
ROOT
HETATM    1  C   UNL     1      -5.711  19.309  65.121  1.00  0.00    -0.242 C  
HETATM    2  C   UNL     1      -6.724  18.375  65.773  1.00  0.00    -0.280 C  
ENDROOT
BRANCH   2   3
HETATM    3  N   UNL     1      -7.082  18.716  67.165  1.00  0.00    -0.203 NA 
BRANCH   3   4
HETATM    4  C   UNL     1      -6.150  19.659  67.805  1.00  0.00    -0.203 C  
HETATM    5  C   UNL     1      -6.122  19.655  69.332  1.00  0.00    -0.328 C  
ENDBRANCH   3   4
BRANCH   3   6
HETATM    6  C   UNL     1      -8.480  19.179  67.187  1.00  0.00    -0.280 C  
BRANCH   6   7
HETATM    7  C   UNL     1      -9.454  18.466  68.143  1.00  0.00    -0.310 C  
BRANCH   7   8
HETATM    8  O   UNL     1     -10.610  18.114  67.356  1.00  0.00    -0.400 OA 
BRANCH   8   9
HETATM    9  C   UNL     1     -10.447  16.999  66.593  1.00  0.00    -0.253 C  
HETATM   10  O   UNL     1     -10.011  17.008  65.455  1.00  0.00    -0.567 OA 
BRANCH   9  11
HETATM   11  C   UNL     1     -10.706  15.785  67.431  1.00  0.00    -0.317 A  
HETATM   12  C   UNL     1      -9.740  14.788  67.620  1.00  0.00    -0.213 A  
HETATM   13  C   UNL     1      -9.989  13.723  68.502  1.00  0.00    -0.217 A  
HETATM   14 CL   UNL     1      -8.192  14.774  66.848  1.00  0.00    -0.205 Cl 
HETATM   15  C   UNL     1     -11.203  13.606  69.178  1.00  0.00    -0.261 A  
HETATM   16  C   UNL     1     -12.138  14.629  69.041  1.00  0.00    -0.270 A  
HETATM   17  N   UNL     1     -11.383  12.620  70.150  1.00  0.00    -0.468 NA 
HETATM   18  H1  UNL     1     -12.270  12.535  70.645  1.00  0.00     0.000 HD 
HETATM   19  C   UNL     1     -11.907  15.691  68.161  1.00  0.00    -0.096 A  
HETATM   20  H2  UNL     1     -10.639  12.713  70.843  1.00  0.00     0.000 HD 
ENDBRANCH   9  11
ENDBRANCH   8   9
ENDBRANCH   7   8
ENDBRANCH   6   7
ENDBRANCH   3   6
ENDBRANCH   2   3
TORSDOF 7
ENDMDL
MODEL      189
REMARK 921   NORMALIZED FREE ENERGY PREDICTED BY IDOCK:   -3.64 KCAL/MOL
REMARK 922        TOTAL FREE ENERGY PREDICTED BY IDOCK:   -5.52 KCAL/MOL
REMARK 923 INTER-LIGAND FREE ENERGY PREDICTED BY IDOCK:   -5.07 KCAL/MOL
REMARK 924 INTRA-LIGAND FREE ENERGY PREDICTED BY IDOCK:   -0.45 KCAL/MOL
REMARK 927      BINDING AFFINITY PREDICTED BY RF-SCORE:    0.00 PKD
ROOT
HETATM    1  C   UNL     1     -10.732  14.398  65.808  1.00  0.00    -0.312 C  
HETATM    2  C   UNL     1     -11.706  13.818  66.826  1.00  0.00    -0.391 C  
ENDROOT
BRANCH   2   3
HETATM    3  N   UNL     1     -11.302  13.977  68.238  1.00  0.00    -0.271 NA 
BRANCH   3   4
HETATM    4  C   UNL     1     -11.959  15.104  68.922  1.00  0.00    -0.253 C  
HETATM    5  C   UNL     1     -11.092  15.914  69.882  1.00  0.00    -0.343 C  
ENDBRANCH   3   4
BRANCH   3   6
HETATM    6  C   UNL     1     -11.494  12.690  68.927  1.00  0.00    -0.306 C  
BRANCH   6   7
HETATM    7  C   UNL     1     -10.710  11.473  68.402  1.00  0.00    -0.208 C  
BRANCH   7   8
HETATM    8  O   UNL     1     -11.340  10.307  68.971  1.00  0.00    -0.231 OA 
BRANCH   8   9
HETATM    9  C   UNL     1     -10.577   9.182  68.922  1.00  0.00    -0.191 C  
HETATM   10  O   UNL     1      -9.980   8.804  67.930  1.00  0.00    -0.169 OA 
BRANCH   9  11
HETATM   11  C   UNL     1     -10.450   8.612  70.301  1.00  0.00    -0.229 A  
HETATM   12  C   UNL     1      -9.308   8.810  71.089  1.00  0.00    -0.233 A  
HETATM   13  C   UNL     1      -9.279   8.350  72.416  1.00  0.00    -0.345 A  
HETATM   14 CL   UNL     1      -7.886   9.633  70.550  1.00  0.00    -0.183 Cl 
HETATM   15  C   UNL     1     -10.355   7.658  72.971  1.00  0.00    -0.335 A  
HETATM   16  C   UNL     1     -11.513   7.516  72.211  1.00  0.00    -0.348 A  
HETATM   17  N   UNL     1     -10.363   7.327  74.328  1.00  0.00    -0.435 NA 
HETATM   18  H1  UNL     1     -11.150   6.821  74.733  1.00  0.00     0.000 HD 
HETATM   19  C   UNL     1     -11.555   7.962  70.887  1.00  0.00    -0.286 A  
HETATM   20  H2  UNL     1     -10.222   8.182  74.866  1.00  0.00     0.000 HD 
ENDBRANCH   9  11
ENDBRANCH   8   9
ENDBRANCH   7   8
ENDBRANCH   6   7
ENDBRANCH   3   6
ENDBRANCH   2   3
TORSDOF 7
ENDMDL
MODEL      190
REMARK 921   NORMALIZED FREE ENERGY PREDICTED BY IDOCK:   -3.64 KCAL/MOL
REMARK 922        TOTAL FREE ENERGY PREDICTED BY IDOCK:   -5.52 KCAL/MOL
REMARK 923 INTER-LIGAND FREE ENERGY PREDICTED BY IDOCK:   -4.61 KCAL/MOL
REMARK 924 INTRA-LIGAND FREE ENERGY PREDICTED BY IDOCK:   -0.91 KCAL/MOL
REMARK 927      BINDING AFFINITY PREDICTED BY RF-SCORE:    0.00 PKD
ROOT
HETATM    1  C   UNL     1     -12.211  14.832  64.320  1.00  0.00    -0.402 C  
HETATM    2  C   UNL     1     -12.369  13.902  65.516  1.00  0.00    -0.480 C  
ENDROOT
BRANCH   2   3
HETATM    3  N   UNL     1     -11.211  13.026  65.783  1.00  0.00    -0.285 NA 
BRANCH   3   4
HETATM    4  C   UNL     1     -11.516  11.887  66.666  1.00  0.00    -0.314 C  
HETATM    5  C   UNL     1     -11.479  12.162  68.167  1.00  0.00    -0.375 C  
ENDBRANCH   3   4
BRANCH   3   6
HETATM    6  C   UNL     1     -10.626  12.619  64.495  1.00  0.00    -0.346 C  
BRANCH   6   7
HETATM    7  C   UNL     1     -10.427  11.113  64.243  1.00  0.00    -0.362 C  
BRANCH   7   8
HETATM    8  O   UNL     1      -9.002  10.895  64.190  1.00  0.00    -0.174 OA 
BRANCH   8   9
HETATM    9  C   UNL     1      -8.587   9.766  64.825  1.00  0.00    -0.179 C  
HETATM   10  O   UNL     1      -8.368   8.707  64.263  1.00  0.00    -0.165 OA 
BRANCH   9  11
HETATM   11  C   UNL     1      -8.276  10.089  66.254  1.00  0.00    -0.124 A  
HETATM   12  C   UNL     1      -8.958   9.489  67.321  1.00  0.00    -0.131 A  
HETATM   13  C   UNL     1      -8.558   9.741  68.645  1.00  0.00    -0.121 A  
HETATM   14 CL   UNL     1     -10.288   8.399  67.136  1.00  0.00    -0.360 Cl 
HETATM   15  C   UNL     1      -7.508  10.612  68.934  1.00  0.00    -0.108 A  
HETATM   16  C   UNL     1      -6.789  11.158  67.875  1.00  0.00    -0.068 A  
HETATM   17  N   UNL     1      -7.037  10.746  70.242  1.00  0.00    -0.475 NA 
HETATM   18  H1  UNL     1      -6.270  11.382  70.454  1.00  0.00     0.000 HD 
HETATM   19  C   UNL     1      -7.180  10.923  66.553  1.00  0.00    -0.142 A  
HETATM   20  H2  UNL     1      -6.788   9.819  70.589  1.00  0.00     0.000 HD 
ENDBRANCH   9  11
ENDBRANCH   8   9
ENDBRANCH   7   8
ENDBRANCH   6   7
ENDBRANCH   3   6
ENDBRANCH   2   3
TORSDOF 7
ENDMDL
MODEL      191
REMARK 921   NORMALIZED FREE ENERGY PREDICTED BY IDOCK:   -3.64 KCAL/MOL
REMARK 922        TOTAL FREE ENERGY PREDICTED BY IDOCK:   -5.52 KCAL/MOL
REMARK 923 INTER-LIGAND FREE ENERGY PREDICTED BY IDOCK:   -5.29 KCAL/MOL
REMARK 924 INTRA-LIGAND FREE ENERGY PREDICTED BY IDOCK:   -0.23 KCAL/MOL
REMARK 927      BINDING AFFINITY PREDICTED BY RF-SCORE:    0.00 PKD
ROOT
HETATM    1  C   UNL     1      -5.504  18.936  65.611  1.00  0.00    -0.197 C  
HETATM    2  C   UNL     1      -6.841  18.243  65.840  1.00  0.00    -0.290 C  
ENDROOT
BRANCH   2   3
HETATM    3  N   UNL     1      -7.660  18.810  66.930  1.00  0.00    -0.222 NA 
BRANCH   3   4
HETATM    4  C   UNL     1      -8.219  20.138  66.625  1.00  0.00    -0.282 C  
HETATM    5  C   UNL     1      -9.724  20.201  66.375  1.00  0.00    -0.538 C  
ENDBRANCH   3   4
BRANCH   3   6
HETATM    6  C   UNL     1      -8.686  17.823  67.306  1.00  0.00    -0.237 C  
BRANCH   6   7
HETATM    7  C   UNL     1      -8.530  17.110  68.662  1.00  0.00    -0.258 C  
BRANCH   7   8
HETATM    8  O   UNL     1      -8.560  15.695  68.382  1.00  0.00    -0.164 OA 
BRANCH   8   9
HETATM    9  C   UNL     1      -9.703  15.073  68.779  1.00  0.00    -0.227 C  
HETATM   10  O   UNL     1     -10.299  15.332  69.810  1.00  0.00    -0.255 OA 
BRANCH   9  11
HETATM   11  C   UNL     1     -10.187  14.180  67.679  1.00  0.00    -0.241 A  
HETATM   12  C   UNL     1     -11.201  13.233  67.877  1.00  0.00    -0.272 A  
HETATM   13  C   UNL     1     -11.699  12.494  66.790  1.00  0.00    -0.453 A  
HETATM   14 CL   UNL     1     -11.940  12.905  69.407  1.00  0.00    -0.349 Cl 
HETATM   15  C   UNL     1     -11.181  12.651  65.505  1.00  0.00    -0.302 A  
HETATM   16  C   UNL     1     -10.219  13.636  65.295  1.00  0.00    -0.341 A  
HETATM   17  N   UNL     1     -11.776  12.011  64.416  1.00  0.00    -0.338 NA 
HETATM   18  H1  UNL     1     -11.397  12.126  63.477  1.00  0.00     0.000 HD 
HETATM   19  C   UNL     1      -9.709  14.373  66.368  1.00  0.00    -0.320 A  
HETATM   20  H2  UNL     1     -12.763  12.266  64.396  1.00  0.00     0.000 HD 
ENDBRANCH   9  11
ENDBRANCH   8   9
ENDBRANCH   7   8
ENDBRANCH   6   7
ENDBRANCH   3   6
ENDBRANCH   2   3
TORSDOF 7
ENDMDL
MODEL      192
REMARK 921   NORMALIZED FREE ENERGY PREDICTED BY IDOCK:   -3.63 KCAL/MOL
REMARK 922        TOTAL FREE ENERGY PREDICTED BY IDOCK:   -5.50 KCAL/MOL
REMARK 923 INTER-LIGAND FREE ENERGY PREDICTED BY IDOCK:   -5.13 KCAL/MOL
REMARK 924 INTRA-LIGAND FREE ENERGY PREDICTED BY IDOCK:   -0.37 KCAL/MOL
REMARK 927      BINDING AFFINITY PREDICTED BY RF-SCORE:    0.00 PKD
ROOT
HETATM    1  C   UNL     1     -13.197  13.151  71.671  1.00  0.00    -0.435 C  
HETATM    2  C   UNL     1     -12.276  12.280  70.825  1.00  0.00    -0.260 C  
ENDROOT
BRANCH   2   3
HETATM    3  N   UNL     1     -12.194  10.866  71.244  1.00  0.00    -0.325 NA 
BRANCH   3   4
HETATM    4  C   UNL     1     -13.398  10.380  71.938  1.00  0.00    -0.364 C  
HETATM    5  C   UNL     1     -13.376   8.925  72.400  1.00  0.00    -0.488 C  
ENDBRANCH   3   4
BRANCH   3   6
HETATM    6  C   UNL     1     -11.833  10.052  70.072  1.00  0.00    -0.126 C  
BRANCH   6   7
HETATM    7  C   UNL     1     -10.380   9.552  69.968  1.00  0.00    -0.247 C  
BRANCH   7   8
HETATM    8  O   UNL     1      -9.819  10.178  68.795  1.00  0.00    -0.162 OA 
BRANCH   8   9
HETATM    9  C   UNL     1     -10.422   9.818  67.630  1.00  0.00    -0.251 C  
HETATM   10  O   UNL     1     -10.850   8.701  67.398  1.00  0.00    -0.211 OA 
BRANCH   9  11
HETATM   11  C   UNL     1     -10.632  11.037  66.786  1.00  0.00    -0.317 A  
HETATM   12  C   UNL     1      -9.665  11.494  65.880  1.00  0.00    -0.232 A  
HETATM   13  C   UNL     1      -9.950  12.577  65.030  1.00  0.00    -0.198 A  
HETATM   14 CL   UNL     1      -8.097  10.789  65.693  1.00  0.00    -0.145 Cl 
HETATM   15  C   UNL     1     -11.173  13.245  65.088  1.00  0.00    -0.302 A  
HETATM   16  C   UNL     1     -12.157  12.753  65.942  1.00  0.00    -0.485 A  
HETATM   17  N   UNL     1     -11.490  14.228  64.149  1.00  0.00    -0.630 NA 
HETATM   18  H1  UNL     1     -12.384  14.717  64.190  1.00  0.00     0.000 HD 
HETATM   19  C   UNL     1     -11.886  11.682  66.798  1.00  0.00     0.046 A  
HETATM   20  H2  UNL     1     -11.390  13.825  63.217  1.00  0.00     0.000 HD 
ENDBRANCH   9  11
ENDBRANCH   8   9
ENDBRANCH   7   8
ENDBRANCH   6   7
ENDBRANCH   3   6
ENDBRANCH   2   3
TORSDOF 7
ENDMDL
MODEL      193
REMARK 921   NORMALIZED FREE ENERGY PREDICTED BY IDOCK:   -3.63 KCAL/MOL
REMARK 922        TOTAL FREE ENERGY PREDICTED BY IDOCK:   -5.50 KCAL/MOL
REMARK 923 INTER-LIGAND FREE ENERGY PREDICTED BY IDOCK:   -5.12 KCAL/MOL
REMARK 924 INTRA-LIGAND FREE ENERGY PREDICTED BY IDOCK:   -0.38 KCAL/MOL
REMARK 927      BINDING AFFINITY PREDICTED BY RF-SCORE:    0.00 PKD
ROOT
HETATM    1  C   UNL     1     -13.292  11.480  71.698  1.00  0.00    -0.262 C  
HETATM    2  C   UNL     1     -13.288   9.996  72.046  1.00  0.00    -0.409 C  
ENDROOT
BRANCH   2   3
HETATM    3  N   UNL     1     -12.354   9.171  71.254  1.00  0.00    -0.315 NA 
BRANCH   3   4
HETATM    4  C   UNL     1     -11.038   9.797  71.044  1.00  0.00    -0.361 C  
HETATM    5  C   UNL     1     -10.460   9.707  69.634  1.00  0.00    -0.246 C  
ENDBRANCH   3   4
BRANCH   3   6
HETATM    6  C   UNL     1     -12.269   7.838  71.873  1.00  0.00    -0.306 C  
BRANCH   6   7
HETATM    7  C   UNL     1     -12.279   6.613  70.939  1.00  0.00    -0.265 C  
BRANCH   7   8
HETATM    8  O   UNL     1     -11.075   5.873  71.228  1.00  0.00    -0.275 OA 
BRANCH   8   9
HETATM    9  C   UNL     1      -9.979   6.304  70.548  1.00  0.00    -0.186 C  
HETATM   10  O   UNL     1      -9.022   6.849  71.069  1.00  0.00    -0.150 OA 
BRANCH   9  11
HETATM   11  C   UNL     1     -10.066   5.841  69.126  1.00  0.00    -0.257 A  
HETATM   12  C   UNL     1      -9.642   4.566  68.729  1.00  0.00    -0.159 A  
HETATM   13  C   UNL     1      -9.844   4.135  67.407  1.00  0.00    -0.152 A  
HETATM   14 CL   UNL     1      -8.885   3.420  69.782  1.00  0.00    -0.138 Cl 
HETATM   15  C   UNL     1     -10.431   4.966  66.453  1.00  0.00    -0.280 A  
HETATM   16  C   UNL     1     -10.910   6.208  66.861  1.00  0.00    -0.411 A  
HETATM   17  N   UNL     1     -10.747   4.477  65.183  1.00  0.00    -0.630 NA 
HETATM   18  H1  UNL     1     -11.176   5.084  64.486  1.00  0.00     0.000 HD 
HETATM   19  C   UNL     1     -10.709   6.653  68.171  1.00  0.00    -0.320 A  
HETATM   20  H2  UNL     1     -11.338   3.652  65.296  1.00  0.00     0.000 HD 
ENDBRANCH   9  11
ENDBRANCH   8   9
ENDBRANCH   7   8
ENDBRANCH   6   7
ENDBRANCH   3   6
ENDBRANCH   2   3
TORSDOF 7
ENDMDL
MODEL      194
REMARK 921   NORMALIZED FREE ENERGY PREDICTED BY IDOCK:   -3.62 KCAL/MOL
REMARK 922        TOTAL FREE ENERGY PREDICTED BY IDOCK:   -5.50 KCAL/MOL
REMARK 923 INTER-LIGAND FREE ENERGY PREDICTED BY IDOCK:   -5.39 KCAL/MOL
REMARK 924 INTRA-LIGAND FREE ENERGY PREDICTED BY IDOCK:   -0.11 KCAL/MOL
REMARK 927      BINDING AFFINITY PREDICTED BY RF-SCORE:    0.00 PKD
ROOT
HETATM    1  C   UNL     1     -10.587  18.848  66.435  1.00  0.00    -0.460 C  
HETATM    2  C   UNL     1      -9.855  17.571  66.826  1.00  0.00    -0.306 C  
ENDROOT
BRANCH   2   3
HETATM    3  N   UNL     1      -9.129  17.636  68.112  1.00  0.00    -0.268 NA 
BRANCH   3   4
HETATM    4  C   UNL     1     -10.006  17.577  69.293  1.00  0.00    -0.107 C  
HETATM    5  C   UNL     1     -11.054  16.466  69.307  1.00  0.00    -0.297 C  
ENDBRANCH   3   4
BRANCH   3   6
HETATM    6  C   UNL     1      -8.086  16.597  68.112  1.00  0.00    -0.186 C  
BRANCH   6   7
HETATM    7  C   UNL     1      -8.318  15.350  67.239  1.00  0.00    -0.199 C  
BRANCH   7   8
HETATM    8  O   UNL     1      -9.063  14.419  68.051  1.00  0.00    -0.176 OA 
BRANCH   8   9
HETATM    9  C   UNL     1      -9.022  13.134  67.604  1.00  0.00    -0.192 C  
HETATM   10  O   UNL     1      -8.374  12.248  68.133  1.00  0.00    -0.160 OA 
BRANCH   9  11
HETATM   11  C   UNL     1     -10.021  12.962  66.503  1.00  0.00    -0.259 A  
HETATM   12  C   UNL     1      -9.925  11.928  65.561  1.00  0.00    -0.238 A  
HETATM   13  C   UNL     1     -10.945  11.740  64.613  1.00  0.00    -0.368 A  
HETATM   14 CL   UNL     1      -8.614  10.801  65.485  1.00  0.00    -0.186 Cl 
HETATM   15  C   UNL     1     -12.051  12.587  64.556  1.00  0.00    -0.425 A  
HETATM   16  C   UNL     1     -12.180  13.574  65.530  1.00  0.00    -0.490 A  
HETATM   17  N   UNL     1     -13.117  12.306  63.700  1.00  0.00    -0.760 NA 
HETATM   18  H1  UNL     1     -13.927  12.925  63.658  1.00  0.00     0.000 HD 
HETATM   19  C   UNL     1     -11.170  13.778  66.475  1.00  0.00    -0.319 A  
HETATM   20  H2  UNL     1     -13.449  11.362  63.900  1.00  0.00     0.000 HD 
ENDBRANCH   9  11
ENDBRANCH   8   9
ENDBRANCH   7   8
ENDBRANCH   6   7
ENDBRANCH   3   6
ENDBRANCH   2   3
TORSDOF 7
ENDMDL
MODEL      195
REMARK 921   NORMALIZED FREE ENERGY PREDICTED BY IDOCK:   -3.60 KCAL/MOL
REMARK 922        TOTAL FREE ENERGY PREDICTED BY IDOCK:   -5.47 KCAL/MOL
REMARK 923 INTER-LIGAND FREE ENERGY PREDICTED BY IDOCK:   -5.34 KCAL/MOL
REMARK 924 INTRA-LIGAND FREE ENERGY PREDICTED BY IDOCK:   -0.13 KCAL/MOL
REMARK 927      BINDING AFFINITY PREDICTED BY RF-SCORE:    0.00 PKD
ROOT
HETATM    1  C   UNL     1     -10.911  19.929  67.069  1.00  0.00    -0.370 C  
HETATM    2  C   UNL     1      -9.935  18.791  67.343  1.00  0.00    -0.335 C  
ENDROOT
BRANCH   2   3
HETATM    3  N   UNL     1      -9.105  18.389  66.189  1.00  0.00    -0.499 NA 
BRANCH   3   4
HETATM    4  C   UNL     1      -7.814  19.093  66.111  1.00  0.00    -0.282 C  
HETATM    5  C   UNL     1      -7.297  19.711  67.408  1.00  0.00    -0.271 C  
ENDBRANCH   3   4
BRANCH   3   6
HETATM    6  C   UNL     1      -8.965  16.923  66.203  1.00  0.00    -0.236 C  
BRANCH   6   7
HETATM    7  C   UNL     1     -10.254  16.081  66.219  1.00  0.00    -0.316 C  
BRANCH   7   8
HETATM    8  O   UNL     1      -9.842  14.711  66.404  1.00  0.00    -0.260 OA 
BRANCH   8   9
HETATM    9  C   UNL     1      -9.814  14.309  67.703  1.00  0.00    -0.224 C  
HETATM   10  O   UNL     1      -9.759  15.070  68.653  1.00  0.00    -0.204 OA 
BRANCH   9  11
HETATM   11  C   UNL     1     -10.045  12.831  67.767  1.00  0.00    -0.224 A  
HETATM   12  C   UNL     1     -11.041  12.265  68.576  1.00  0.00    -0.249 A  
HETATM   13  C   UNL     1     -11.295  10.884  68.520  1.00  0.00    -0.367 A  
HETATM   14 CL   UNL     1     -12.044  13.167  69.659  1.00  0.00    -0.346 Cl 
HETATM   15  C   UNL     1     -10.549  10.039  67.699  1.00  0.00    -0.270 A  
HETATM   16  C   UNL     1      -9.603  10.608  66.849  1.00  0.00    -0.200 A  
HETATM   17  N   UNL     1     -10.901   8.696  67.554  1.00  0.00    -0.486 NA 
HETATM   18  H1  UNL     1     -10.356   8.078  66.953  1.00  0.00     0.000 HD 
HETATM   19  C   UNL     1      -9.335  11.979  66.898  1.00  0.00    -0.200 A  
HETATM   20  H2  UNL     1     -11.876   8.651  67.257  1.00  0.00     0.000 HD 
ENDBRANCH   9  11
ENDBRANCH   8   9
ENDBRANCH   7   8
ENDBRANCH   6   7
ENDBRANCH   3   6
ENDBRANCH   2   3
TORSDOF 7
ENDMDL
MODEL      196
REMARK 921   NORMALIZED FREE ENERGY PREDICTED BY IDOCK:   -3.59 KCAL/MOL
REMARK 922        TOTAL FREE ENERGY PREDICTED BY IDOCK:   -5.46 KCAL/MOL
REMARK 923 INTER-LIGAND FREE ENERGY PREDICTED BY IDOCK:   -4.66 KCAL/MOL
REMARK 924 INTRA-LIGAND FREE ENERGY PREDICTED BY IDOCK:   -0.80 KCAL/MOL
REMARK 927      BINDING AFFINITY PREDICTED BY RF-SCORE:    0.00 PKD
ROOT
HETATM    1  C   UNL     1     -12.021  14.342  67.655  1.00  0.00    -0.400 C  
HETATM    2  C   UNL     1     -12.282  13.943  66.208  1.00  0.00    -0.461 C  
ENDROOT
BRANCH   2   3
HETATM    3  N   UNL     1     -12.208  12.492  65.938  1.00  0.00    -0.624 NA 
BRANCH   3   4
HETATM    4  C   UNL     1     -11.517  12.156  64.681  1.00  0.00    -0.328 C  
HETATM    5  C   UNL     1     -12.395  12.016  63.440  1.00  0.00    -0.635 C  
ENDBRANCH   3   4
BRANCH   3   6
HETATM    6  C   UNL     1     -11.625  11.827  67.114  1.00  0.00    -0.266 C  
BRANCH   6   7
HETATM    7  C   UNL     1     -10.654  10.657  66.867  1.00  0.00    -0.254 C  
BRANCH   7   8
HETATM    8  O   UNL     1      -9.488  10.920  67.675  1.00  0.00    -0.157 OA 
BRANCH   8   9
HETATM    9  C   UNL     1      -8.449  11.471  66.991  1.00  0.00    -0.164 C  
HETATM   10  O   UNL     1      -7.975  10.999  65.972  1.00  0.00    -0.155 OA 
BRANCH   9  11
HETATM   11  C   UNL     1      -8.125  12.810  67.578  1.00  0.00    -0.180 A  
HETATM   12  C   UNL     1      -7.244  12.957  68.658  1.00  0.00    -0.098 A  
HETATM   13  C   UNL     1      -6.884  14.241  69.105  1.00  0.00    -0.120 A  
HETATM   14 CL   UNL     1      -6.510  11.638  69.503  1.00  0.00    -0.114 Cl 
HETATM   15  C   UNL     1      -7.415  15.390  68.520  1.00  0.00    -0.117 A  
HETATM   16  C   UNL     1      -8.240  15.247  67.407  1.00  0.00    -0.207 A  
HETATM   17  N   UNL     1      -6.947  16.654  68.885  1.00  0.00    -0.187 NA 
HETATM   18  H1  UNL     1      -7.334  17.494  68.457  1.00  0.00     0.000 HD 
HETATM   19  C   UNL     1      -8.612  13.976  66.956  1.00  0.00    -0.193 A  
HETATM   20  H2  UNL     1      -5.935  16.669  68.757  1.00  0.00     0.000 HD 
ENDBRANCH   9  11
ENDBRANCH   8   9
ENDBRANCH   7   8
ENDBRANCH   6   7
ENDBRANCH   3   6
ENDBRANCH   2   3
TORSDOF 7
ENDMDL
MODEL      197
REMARK 921   NORMALIZED FREE ENERGY PREDICTED BY IDOCK:   -3.58 KCAL/MOL
REMARK 922        TOTAL FREE ENERGY PREDICTED BY IDOCK:   -5.44 KCAL/MOL
REMARK 923 INTER-LIGAND FREE ENERGY PREDICTED BY IDOCK:   -5.09 KCAL/MOL
REMARK 924 INTRA-LIGAND FREE ENERGY PREDICTED BY IDOCK:   -0.35 KCAL/MOL
REMARK 927      BINDING AFFINITY PREDICTED BY RF-SCORE:    0.00 PKD
ROOT
HETATM    1  C   UNL     1     -13.013  15.552  71.940  1.00  0.00    -0.522 C  
HETATM    2  C   UNL     1     -12.399  14.678  70.853  1.00  0.00    -0.336 C  
ENDROOT
BRANCH   2   3
HETATM    3  N   UNL     1     -12.011  15.394  69.621  1.00  0.00    -0.337 NA 
BRANCH   3   4
HETATM    4  C   UNL     1     -10.811  16.235  69.775  1.00  0.00    -0.356 C  
HETATM    5  C   UNL     1     -10.441  17.114  68.582  1.00  0.00    -0.366 C  
ENDBRANCH   3   4
BRANCH   3   6
HETATM    6  C   UNL     1     -11.894  14.414  68.529  1.00  0.00    -0.334 C  
BRANCH   6   7
HETATM    7  C   UNL     1     -10.860  13.284  68.688  1.00  0.00    -0.259 C  
BRANCH   7   8
HETATM    8  O   UNL     1      -9.644  13.756  68.073  1.00  0.00    -0.201 OA 
BRANCH   8   9
HETATM    9  C   UNL     1      -9.666  13.739  66.712  1.00  0.00    -0.275 C  
HETATM   10  O   UNL     1      -9.699  14.739  66.017  1.00  0.00    -0.295 OA 
BRANCH   9  11
HETATM   11  C   UNL     1      -9.458  12.335  66.233  1.00  0.00    -0.234 A  
HETATM   12  C   UNL     1      -8.289  11.615  66.516  1.00  0.00    -0.122 A  
HETATM   13  C   UNL     1      -8.184  10.265  66.141  1.00  0.00    -0.138 A  
HETATM   14 CL   UNL     1      -6.920  12.269  67.348  1.00  0.00    -0.141 Cl 
HETATM   15  C   UNL     1      -9.210   9.619  65.451  1.00  0.00    -0.238 A  
HETATM   16  C   UNL     1     -10.396  10.314  65.226  1.00  0.00    -0.218 A  
HETATM   17  N   UNL     1      -9.147   8.246  65.205  1.00  0.00    -0.401 NA 
HETATM   18  H1  UNL     1      -9.897   7.774  64.702  1.00  0.00     0.000 HD 
HETATM   19  C   UNL     1     -10.512  11.660  65.587  1.00  0.00    -0.314 A  
HETATM   20  H2  UNL     1      -9.010   7.768  66.096  1.00  0.00     0.000 HD 
ENDBRANCH   9  11
ENDBRANCH   8   9
ENDBRANCH   7   8
ENDBRANCH   6   7
ENDBRANCH   3   6
ENDBRANCH   2   3
TORSDOF 7
ENDMDL
MODEL      198
REMARK 921   NORMALIZED FREE ENERGY PREDICTED BY IDOCK:   -3.56 KCAL/MOL
REMARK 922        TOTAL FREE ENERGY PREDICTED BY IDOCK:   -5.42 KCAL/MOL
REMARK 923 INTER-LIGAND FREE ENERGY PREDICTED BY IDOCK:   -5.03 KCAL/MOL
REMARK 924 INTRA-LIGAND FREE ENERGY PREDICTED BY IDOCK:   -0.38 KCAL/MOL
REMARK 927      BINDING AFFINITY PREDICTED BY RF-SCORE:    0.00 PKD
ROOT
HETATM    1  C   UNL     1     -12.231   7.003  71.064  1.00  0.00    -0.419 C  
HETATM    2  C   UNL     1     -12.741   8.413  71.333  1.00  0.00    -0.262 C  
ENDROOT
BRANCH   2   3
HETATM    3  N   UNL     1     -11.722   9.362  71.826  1.00  0.00    -0.385 NA 
BRANCH   3   4
HETATM    4  C   UNL     1     -10.336   8.908  71.621  1.00  0.00    -0.345 C  
HETATM    5  C   UNL     1      -9.597   8.404  72.858  1.00  0.00    -0.269 C  
ENDBRANCH   3   4
BRANCH   3   6
HETATM    6  C   UNL     1     -11.991  10.684  71.236  1.00  0.00    -0.245 C  
BRANCH   6   7
HETATM    7  C   UNL     1     -12.117  10.772  69.704  1.00  0.00    -0.289 C  
BRANCH   7   8
HETATM    8  O   UNL     1     -11.726  12.112  69.340  1.00  0.00    -0.291 OA 
BRANCH   8   9
HETATM    9  C   UNL     1     -11.543  12.295  68.004  1.00  0.00    -0.349 C  
HETATM   10  O   UNL     1     -12.410  12.120  67.166  1.00  0.00    -0.372 OA 
BRANCH   9  11
HETATM   11  C   UNL     1     -10.198  12.910  67.770  1.00  0.00    -0.224 A  
HETATM   12  C   UNL     1      -9.973  14.287  67.900  1.00  0.00    -0.230 A  
HETATM   13  C   UNL     1      -8.672  14.804  67.778  1.00  0.00    -0.173 A  
HETATM   14 CL   UNL     1     -11.210  15.447  68.241  1.00  0.00    -0.308 Cl 
HETATM   15  C   UNL     1      -7.585  13.979  67.490  1.00  0.00    -0.180 A  
HETATM   16  C   UNL     1      -7.796  12.604  67.424  1.00  0.00    -0.175 A  
HETATM   17  N   UNL     1      -6.284  14.487  67.506  1.00  0.00    -0.338 NA 
HETATM   18  H1  UNL     1      -5.489  13.883  67.296  1.00  0.00     0.000 HD 
HETATM   19  C   UNL     1      -9.086  12.076  67.536  1.00  0.00    -0.177 A  
HETATM   20  H2  UNL     1      -6.122  14.923  68.414  1.00  0.00     0.000 HD 
ENDBRANCH   9  11
ENDBRANCH   8   9
ENDBRANCH   7   8
ENDBRANCH   6   7
ENDBRANCH   3   6
ENDBRANCH   2   3
TORSDOF 7
ENDMDL
MODEL      199
REMARK 921   NORMALIZED FREE ENERGY PREDICTED BY IDOCK:   -3.55 KCAL/MOL
REMARK 922        TOTAL FREE ENERGY PREDICTED BY IDOCK:   -5.40 KCAL/MOL
REMARK 923 INTER-LIGAND FREE ENERGY PREDICTED BY IDOCK:   -4.75 KCAL/MOL
REMARK 924 INTRA-LIGAND FREE ENERGY PREDICTED BY IDOCK:   -0.65 KCAL/MOL
REMARK 927      BINDING AFFINITY PREDICTED BY RF-SCORE:    0.00 PKD
ROOT
HETATM    1  C   UNL     1      -7.396   5.363  71.332  1.00  0.00    -0.080 C  
HETATM    2  C   UNL     1      -8.913   5.494  71.273  1.00  0.00    -0.142 C  
ENDROOT
BRANCH   2   3
HETATM    3  N   UNL     1      -9.473   5.659  69.916  1.00  0.00    -0.152 NA 
BRANCH   3   4
HETATM    4  C   UNL     1      -9.309   4.474  69.057  1.00  0.00    -0.148 C  
HETATM    5  C   UNL     1      -8.513   4.673  67.769  1.00  0.00    -0.103 C  
ENDBRANCH   3   4
BRANCH   3   6
HETATM    6  C   UNL     1     -10.874   6.095  70.039  1.00  0.00    -0.341 C  
BRANCH   6   7
HETATM    7  C   UNL     1     -11.333   6.651  71.400  1.00  0.00    -0.289 C  
BRANCH   7   8
HETATM    8  O   UNL     1     -11.902   7.950  71.136  1.00  0.00    -0.288 OA 
BRANCH   8   9
HETATM    9  C   UNL     1     -10.995   8.964  71.128  1.00  0.00    -0.286 C  
HETATM   10  O   UNL     1     -10.086   9.074  71.932  1.00  0.00    -0.339 OA 
BRANCH   9  11
HETATM   11  C   UNL     1     -11.185   9.787  69.891  1.00  0.00    -0.271 A  
HETATM   12  C   UNL     1     -11.962  10.953  69.882  1.00  0.00    -0.353 A  
HETATM   13  C   UNL     1     -12.022  11.752  68.727  1.00  0.00    -0.317 A  
HETATM   14 CL   UNL     1     -12.867  11.530  71.238  1.00  0.00    -0.498 Cl 
HETATM   15  C   UNL     1     -11.350  11.394  67.559  1.00  0.00    -0.292 A  
HETATM   16  C   UNL     1     -10.527  10.270  67.586  1.00  0.00    -0.285 A  
HETATM   17  N   UNL     1     -11.310  12.264  66.467  1.00  0.00    -0.331 NA 
HETATM   18  H1  UNL     1     -10.818  12.002  65.613  1.00  0.00     0.000 HD 
HETATM   19  C   UNL     1     -10.463   9.462  68.725  1.00  0.00    -0.236 A  
HETATM   20  H2  UNL     1     -10.941  13.160  66.786  1.00  0.00     0.000 HD 
ENDBRANCH   9  11
ENDBRANCH   8   9
ENDBRANCH   7   8
ENDBRANCH   6   7
ENDBRANCH   3   6
ENDBRANCH   2   3
TORSDOF 7
ENDMDL
MODEL      200
REMARK 921   NORMALIZED FREE ENERGY PREDICTED BY IDOCK:   -3.54 KCAL/MOL
REMARK 922        TOTAL FREE ENERGY PREDICTED BY IDOCK:   -5.38 KCAL/MOL
REMARK 923 INTER-LIGAND FREE ENERGY PREDICTED BY IDOCK:   -5.37 KCAL/MOL
REMARK 924 INTRA-LIGAND FREE ENERGY PREDICTED BY IDOCK:   -0.01 KCAL/MOL
REMARK 927      BINDING AFFINITY PREDICTED BY RF-SCORE:    0.00 PKD
ROOT
HETATM    1  C   UNL     1     -12.491  12.183  64.032  1.00  0.00    -0.541 C  
HETATM    2  C   UNL     1     -12.904  13.367  64.898  1.00  0.00    -0.227 C  
ENDROOT
BRANCH   2   3
HETATM    3  N   UNL     1     -11.808  13.991  65.667  1.00  0.00    -0.362 NA 
BRANCH   3   4
HETATM    4  C   UNL     1     -11.089  13.052  66.546  1.00  0.00    -0.288 C  
HETATM    5  C   UNL     1     -11.643  12.887  67.960  1.00  0.00    -0.385 C  
ENDBRANCH   3   4
BRANCH   3   6
HETATM    6  C   UNL     1     -10.921  14.698  64.728  1.00  0.00    -0.386 C  
BRANCH   6   7
HETATM    7  C   UNL     1      -9.841  15.621  65.322  1.00  0.00    -0.115 C  
BRANCH   7   8
HETATM    8  O   UNL     1     -10.356  16.965  65.224  1.00  0.00    -0.624 OA 
BRANCH   8   9
HETATM    9  C   UNL     1     -10.208  17.701  66.358  1.00  0.00    -0.364 C  
HETATM   10  O   UNL     1     -10.783  18.755  66.568  1.00  0.00    -0.382 OA 
BRANCH   9  11
HETATM   11  C   UNL     1      -9.393  16.927  67.347  1.00  0.00    -0.235 A  
HETATM   12  C   UNL     1      -7.993  16.981  67.366  1.00  0.00    -0.178 A  
HETATM   13  C   UNL     1      -7.275  16.325  68.381  1.00  0.00    -0.152 A  
HETATM   14 CL   UNL     1      -7.036  17.846  66.213  1.00  0.00    -0.295 Cl 
HETATM   15  C   UNL     1      -7.923  15.580  69.366  1.00  0.00    -0.229 A  
HETATM   16  C   UNL     1      -9.316  15.579  69.386  1.00  0.00    -0.279 A  
HETATM   17  N   UNL     1      -7.208  15.049  70.441  1.00  0.00    -0.088 NA 
HETATM   18  H1  UNL     1      -7.682  14.504  71.161  1.00  0.00     0.000 HD 
HETATM   19  C   UNL     1     -10.043  16.220  68.378  1.00  0.00    -0.237 A  
HETATM   20  H2  UNL     1      -6.703  15.810  70.896  1.00  0.00     0.000 HD 
ENDBRANCH   9  11
ENDBRANCH   8   9
ENDBRANCH   7   8
ENDBRANCH   6   7
ENDBRANCH   3   6
ENDBRANCH   2   3
TORSDOF 7
ENDMDL
MODEL      201
REMARK 921   NORMALIZED FREE ENERGY PREDICTED BY IDOCK:   -3.52 KCAL/MOL
REMARK 922        TOTAL FREE ENERGY PREDICTED BY IDOCK:   -5.35 KCAL/MOL
REMARK 923 INTER-LIGAND FREE ENERGY PREDICTED BY IDOCK:   -4.81 KCAL/MOL
REMARK 924 INTRA-LIGAND FREE ENERGY PREDICTED BY IDOCK:   -0.54 KCAL/MOL
REMARK 927      BINDING AFFINITY PREDICTED BY RF-SCORE:    0.00 PKD
ROOT
HETATM    1  C   UNL     1      -6.785  19.489  66.959  1.00  0.00    -0.209 C  
HETATM    2  C   UNL     1      -7.830  19.958  67.963  1.00  0.00    -0.282 C  
ENDROOT
BRANCH   2   3
HETATM    3  N   UNL     1      -9.172  20.208  67.398  1.00  0.00    -0.358 NA 
BRANCH   3   4
HETATM    4  C   UNL     1      -9.309  19.803  65.989  1.00  0.00    -0.298 C  
HETATM    5  C   UNL     1     -10.693  19.331  65.550  1.00  0.00    -0.201 C  
ENDBRANCH   3   4
BRANCH   3   6
HETATM    6  C   UNL     1     -10.173  19.586  68.280  1.00  0.00    -0.443 C  
BRANCH   6   7
HETATM    7  C   UNL     1      -9.737  18.361  69.106  1.00  0.00    -0.118 C  
BRANCH   7   8
HETATM    8  O   UNL     1     -10.592  17.273  68.700  1.00  0.00    -0.347 OA 
BRANCH   8   9
HETATM    9  C   UNL     1     -10.540  16.189  69.521  1.00  0.00    -0.306 C  
HETATM   10  O   UNL     1     -11.117  16.114  70.591  1.00  0.00    -0.349 OA 
BRANCH   9  11
HETATM   11  C   UNL     1      -9.832  15.071  68.819  1.00  0.00    -0.233 A  
HETATM   12  C   UNL     1     -10.524  14.027  68.190  1.00  0.00    -0.243 A  
HETATM   13  C   UNL     1      -9.821  13.061  67.450  1.00  0.00    -0.215 A  
HETATM   14 CL   UNL     1     -12.243  13.838  68.226  1.00  0.00    -0.299 Cl 
HETATM   15  C   UNL     1      -8.430  13.088  67.352  1.00  0.00    -0.200 A  
HETATM   16  C   UNL     1      -7.747  14.160  67.922  1.00  0.00    -0.161 A  
HETATM   17  N   UNL     1      -7.760  12.203  66.506  1.00  0.00    -0.379 NA 
HETATM   18  H1  UNL     1      -6.744  12.223  66.434  1.00  0.00     0.000 HD 
HETATM   19  C   UNL     1      -8.432  15.125  68.668  1.00  0.00    -0.170 A  
HETATM   20  H2  UNL     1      -8.149  12.301  65.567  1.00  0.00     0.000 HD 
ENDBRANCH   9  11
ENDBRANCH   8   9
ENDBRANCH   7   8
ENDBRANCH   6   7
ENDBRANCH   3   6
ENDBRANCH   2   3
TORSDOF 7
ENDMDL
MODEL      202
REMARK 921   NORMALIZED FREE ENERGY PREDICTED BY IDOCK:   -3.52 KCAL/MOL
REMARK 922        TOTAL FREE ENERGY PREDICTED BY IDOCK:   -5.35 KCAL/MOL
REMARK 923 INTER-LIGAND FREE ENERGY PREDICTED BY IDOCK:   -4.91 KCAL/MOL
REMARK 924 INTRA-LIGAND FREE ENERGY PREDICTED BY IDOCK:   -0.44 KCAL/MOL
REMARK 927      BINDING AFFINITY PREDICTED BY RF-SCORE:    0.00 PKD
ROOT
HETATM    1  C   UNL     1      -7.435   9.146  68.835  1.00  0.00    -0.075 C  
HETATM    2  C   UNL     1      -8.036  10.523  69.085  1.00  0.00    -0.152 C  
ENDROOT
BRANCH   2   3
HETATM    3  N   UNL     1      -7.335  11.641  68.421  1.00  0.00    -0.089 NA 
BRANCH   3   4
HETATM    4  C   UNL     1      -6.790  11.298  67.096  1.00  0.00    -0.114 C  
HETATM    5  C   UNL     1      -5.447  11.926  66.731  1.00  0.00    -0.058 C  
ENDBRANCH   3   4
BRANCH   3   6
HETATM    6  C   UNL     1      -8.236  12.805  68.391  1.00  0.00    -0.128 C  
BRANCH   6   7
HETATM    7  C   UNL     1      -9.141  12.979  67.158  1.00  0.00    -0.225 C  
BRANCH   7   8
HETATM    8  O   UNL     1     -10.135  11.936  67.235  1.00  0.00    -0.195 OA 
BRANCH   8   9
HETATM    9  C   UNL     1     -11.416  12.391  67.292  1.00  0.00    -0.354 C  
HETATM   10  O   UNL     1     -12.143  12.510  66.322  1.00  0.00    -0.574 OA 
BRANCH   9  11
HETATM   11  C   UNL     1     -11.825  12.537  68.725  1.00  0.00    -0.347 A  
HETATM   12  C   UNL     1     -12.063  13.788  69.311  1.00  0.00    -0.329 A  
HETATM   13  C   UNL     1     -12.551  13.870  70.626  1.00  0.00    -0.405 A  
HETATM   14 CL   UNL     1     -11.825  15.300  68.506  1.00  0.00    -0.341 Cl 
HETATM   15  C   UNL     1     -12.774  12.726  71.392  1.00  0.00    -0.255 A  
HETATM   16  C   UNL     1     -12.598  11.482  70.792  1.00  0.00    -0.390 A  
HETATM   17  N   UNL     1     -13.384  12.818  72.645  1.00  0.00    -0.512 NA 
HETATM   18  H1  UNL     1     -13.547  11.981  73.205  1.00  0.00     0.000 HD 
HETATM   19  C   UNL     1     -12.106  11.385  69.486  1.00  0.00    -0.370 A  
HETATM   20  H2  UNL     1     -14.274  13.305  72.533  1.00  0.00     0.000 HD 
ENDBRANCH   9  11
ENDBRANCH   8   9
ENDBRANCH   7   8
ENDBRANCH   6   7
ENDBRANCH   3   6
ENDBRANCH   2   3
TORSDOF 7
ENDMDL
MODEL      203
REMARK 921   NORMALIZED FREE ENERGY PREDICTED BY IDOCK:   -3.52 KCAL/MOL
REMARK 922        TOTAL FREE ENERGY PREDICTED BY IDOCK:   -5.35 KCAL/MOL
REMARK 923 INTER-LIGAND FREE ENERGY PREDICTED BY IDOCK:   -5.01 KCAL/MOL
REMARK 924 INTRA-LIGAND FREE ENERGY PREDICTED BY IDOCK:   -0.34 KCAL/MOL
REMARK 927      BINDING AFFINITY PREDICTED BY RF-SCORE:    0.00 PKD
ROOT
HETATM    1  C   UNL     1      -9.722   4.660  65.686  1.00  0.00    -0.202 C  
HETATM    2  C   UNL     1     -10.675   5.576  66.444  1.00  0.00    -0.194 C  
ENDROOT
BRANCH   2   3
HETATM    3  N   UNL     1     -10.025   6.511  67.385  1.00  0.00    -0.133 NA 
BRANCH   3   4
HETATM    4  C   UNL     1      -8.557   6.543  67.274  1.00  0.00    -0.111 C  
HETATM    5  C   UNL     1      -7.852   7.728  67.929  1.00  0.00    -0.127 C  
ENDBRANCH   3   4
BRANCH   3   6
HETATM    6  C   UNL     1     -10.646   7.837  67.228  1.00  0.00    -0.306 C  
BRANCH   6   7
HETATM    7  C   UNL     1     -10.855   8.684  68.498  1.00  0.00     0.053 C  
BRANCH   7   8
HETATM    8  O   UNL     1     -11.350   9.964  68.055  1.00  0.00    -0.158 OA 
BRANCH   8   9
HETATM    9  C   UNL     1     -10.390  10.921  67.935  1.00  0.00    -0.187 C  
HETATM   10  O   UNL     1      -9.336  10.912  68.548  1.00  0.00    -0.166 OA 
BRANCH   9  11
HETATM   11  C   UNL     1     -10.756  11.853  66.822  1.00  0.00    -0.282 A  
HETATM   12  C   UNL     1     -10.313  11.656  65.507  1.00  0.00    -0.264 A  
HETATM   13  C   UNL     1     -10.772  12.493  64.475  1.00  0.00    -0.360 A  
HETATM   14 CL   UNL     1      -9.226  10.400  65.024  1.00  0.00    -0.231 Cl 
HETATM   15  C   UNL     1     -11.641  13.553  64.730  1.00  0.00    -0.349 A  
HETATM   16  C   UNL     1     -12.132  13.711  66.024  1.00  0.00    -0.480 A  
HETATM   17  N   UNL     1     -12.191  14.289  63.679  1.00  0.00    -1.064 NA 
HETATM   18  H1  UNL     1     -12.827  15.064  63.865  1.00  0.00     0.000 HD 
HETATM   19  C   UNL     1     -11.679  12.891  67.062  1.00  0.00    -0.447 A  
HETATM   20  H2  UNL     1     -12.657  13.640  63.044  1.00  0.00     0.000 HD 
ENDBRANCH   9  11
ENDBRANCH   8   9
ENDBRANCH   7   8
ENDBRANCH   6   7
ENDBRANCH   3   6
ENDBRANCH   2   3
TORSDOF 7
ENDMDL
MODEL      204
REMARK 921   NORMALIZED FREE ENERGY PREDICTED BY IDOCK:   -3.51 KCAL/MOL
REMARK 922        TOTAL FREE ENERGY PREDICTED BY IDOCK:   -5.34 KCAL/MOL
REMARK 923 INTER-LIGAND FREE ENERGY PREDICTED BY IDOCK:   -4.99 KCAL/MOL
REMARK 924 INTRA-LIGAND FREE ENERGY PREDICTED BY IDOCK:   -0.36 KCAL/MOL
REMARK 927      BINDING AFFINITY PREDICTED BY RF-SCORE:    0.00 PKD
ROOT
HETATM    1  C   UNL     1      -9.912  17.788  68.388  1.00  0.00    -0.362 C  
HETATM    2  C   UNL     1     -11.023  16.746  68.442  1.00  0.00    -0.325 C  
ENDROOT
BRANCH   2   3
HETATM    3  N   UNL     1     -10.942  15.694  67.409  1.00  0.00    -0.312 NA 
BRANCH   3   4
HETATM    4  C   UNL     1     -10.343  16.148  66.142  1.00  0.00    -0.339 C  
HETATM    5  C   UNL     1     -10.966  15.599  64.861  1.00  0.00    -0.447 C  
ENDBRANCH   3   4
BRANCH   3   6
HETATM    6  C   UNL     1     -10.259  14.524  67.986  1.00  0.00    -0.233 C  
BRANCH   6   7
HETATM    7  C   UNL     1     -10.693  13.130  67.497  1.00  0.00    -0.238 C  
BRANCH   7   8
HETATM    8  O   UNL     1     -10.437  12.220  68.588  1.00  0.00    -0.227 OA 
BRANCH   8   9
HETATM    9  C   UNL     1     -11.174  11.077  68.544  1.00  0.00    -0.268 C  
HETATM   10  O   UNL     1     -12.385  11.040  68.680  1.00  0.00    -0.539 OA 
BRANCH   9  11
HETATM   11  C   UNL     1     -10.296   9.939  68.127  1.00  0.00    -0.232 A  
HETATM   12  C   UNL     1      -9.657   9.109  69.059  1.00  0.00    -0.156 A  
HETATM   13  C   UNL     1      -8.932   7.986  68.623  1.00  0.00    -0.134 A  
HETATM   14 CL   UNL     1      -9.712   9.345  70.771  1.00  0.00    -0.337 Cl 
HETATM   15  C   UNL     1      -8.797   7.689  67.267  1.00  0.00    -0.120 A  
HETATM   16  C   UNL     1      -9.484   8.474  66.345  1.00  0.00    -0.297 A  
HETATM   17  N   UNL     1      -8.190   6.500  66.858  1.00  0.00    -0.112 NA 
HETATM   18  H1  UNL     1      -8.091   6.282  65.867  1.00  0.00     0.000 HD 
HETATM   19  C   UNL     1     -10.202   9.599  66.763  1.00  0.00    -0.308 A  
HETATM   20  H2  UNL     1      -8.673   5.722  67.309  1.00  0.00     0.000 HD 
ENDBRANCH   9  11
ENDBRANCH   8   9
ENDBRANCH   7   8
ENDBRANCH   6   7
ENDBRANCH   3   6
ENDBRANCH   2   3
TORSDOF 7
ENDMDL
MODEL      205
REMARK 921   NORMALIZED FREE ENERGY PREDICTED BY IDOCK:   -3.51 KCAL/MOL
REMARK 922        TOTAL FREE ENERGY PREDICTED BY IDOCK:   -5.34 KCAL/MOL
REMARK 923 INTER-LIGAND FREE ENERGY PREDICTED BY IDOCK:   -5.14 KCAL/MOL
REMARK 924 INTRA-LIGAND FREE ENERGY PREDICTED BY IDOCK:   -0.20 KCAL/MOL
REMARK 927      BINDING AFFINITY PREDICTED BY RF-SCORE:    0.00 PKD
ROOT
HETATM    1  C   UNL     1      -9.410   4.315  64.988  1.00  0.00    -0.165 C  
HETATM    2  C   UNL     1      -8.523   5.536  65.201  1.00  0.00    -0.147 C  
ENDROOT
BRANCH   2   3
HETATM    3  N   UNL     1      -9.141   6.628  65.980  1.00  0.00    -0.121 NA 
BRANCH   3   4
HETATM    4  C   UNL     1      -9.668   6.202  67.288  1.00  0.00    -0.128 C  
HETATM    5  C   UNL     1     -10.885   6.962  67.810  1.00  0.00    -0.312 C  
ENDBRANCH   3   4
BRANCH   3   6
HETATM    6  C   UNL     1      -8.176   7.735  66.078  1.00  0.00    -0.123 C  
BRANCH   6   7
HETATM    7  C   UNL     1      -8.299   8.884  65.060  1.00  0.00    -0.165 C  
BRANCH   7   8
HETATM    8  O   UNL     1      -9.146   9.879  65.671  1.00  0.00    -0.156 OA 
BRANCH   8   9
HETATM    9  C   UNL     1      -9.805  10.671  64.783  1.00  0.00    -0.310 C  
HETATM   10  O   UNL     1      -9.960  10.395  63.606  1.00  0.00    -0.294 OA 
BRANCH   9  11
HETATM   11  C   UNL     1     -10.448  11.807  65.516  1.00  0.00    -0.311 A  
HETATM   12  C   UNL     1     -11.657  12.378  65.096  1.00  0.00    -0.362 A  
HETATM   13  C   UNL     1     -12.278  13.368  65.877  1.00  0.00    -0.502 A  
HETATM   14 CL   UNL     1     -12.497  11.927  63.653  1.00  0.00    -0.614 Cl 
HETATM   15  C   UNL     1     -11.700  13.833  67.058  1.00  0.00    -0.390 A  
HETATM   16  C   UNL     1     -10.533  13.223  67.509  1.00  0.00    -0.237 A  
HETATM   17  N   UNL     1     -12.393  14.717  67.888  1.00  0.00    -0.588 NA 
HETATM   18  H1  UNL     1     -11.970  15.056  68.752  1.00  0.00     0.000 HD 
HETATM   19  C   UNL     1      -9.899  12.242  66.739  1.00  0.00    -0.218 A  
HETATM   20  H2  UNL     1     -13.295  14.299  68.118  1.00  0.00     0.000 HD 
ENDBRANCH   9  11
ENDBRANCH   8   9
ENDBRANCH   7   8
ENDBRANCH   6   7
ENDBRANCH   3   6
ENDBRANCH   2   3
TORSDOF 7
ENDMDL
MODEL      206
REMARK 921   NORMALIZED FREE ENERGY PREDICTED BY IDOCK:   -3.49 KCAL/MOL
REMARK 922        TOTAL FREE ENERGY PREDICTED BY IDOCK:   -5.32 KCAL/MOL
REMARK 923 INTER-LIGAND FREE ENERGY PREDICTED BY IDOCK:   -5.28 KCAL/MOL
REMARK 924 INTRA-LIGAND FREE ENERGY PREDICTED BY IDOCK:   -0.04 KCAL/MOL
REMARK 927      BINDING AFFINITY PREDICTED BY RF-SCORE:    0.00 PKD
ROOT
HETATM    1  C   UNL     1     -11.360  15.319  64.694  1.00  0.00    -0.364 C  
HETATM    2  C   UNL     1     -11.028  15.667  66.139  1.00  0.00    -0.206 C  
ENDROOT
BRANCH   2   3
HETATM    3  N   UNL     1      -9.595  15.580  66.489  1.00  0.00    -0.254 NA 
BRANCH   3   4
HETATM    4  C   UNL     1      -8.911  16.884  66.526  1.00  0.00    -0.271 C  
HETATM    5  C   UNL     1      -9.806  18.118  66.606  1.00  0.00    -0.350 C  
ENDBRANCH   3   4
BRANCH   3   6
HETATM    6  C   UNL     1      -9.467  14.823  67.745  1.00  0.00    -0.204 C  
BRANCH   6   7
HETATM    7  C   UNL     1      -9.430  13.286  67.653  1.00  0.00    -0.211 C  
BRANCH   7   8
HETATM    8  O   UNL     1     -10.502  12.804  68.490  1.00  0.00    -0.240 OA 
BRANCH   8   9
HETATM    9  C   UNL     1     -10.996  11.592  68.119  1.00  0.00    -0.228 C  
HETATM   10  O   UNL     1     -11.743  10.919  68.808  1.00  0.00    -0.298 OA 
BRANCH   9  11
HETATM   11  C   UNL     1     -10.627  11.323  66.693  1.00  0.00    -0.309 A  
HETATM   12  C   UNL     1      -9.629  10.406  66.340  1.00  0.00    -0.179 A  
HETATM   13  C   UNL     1      -9.393  10.105  64.987  1.00  0.00    -0.299 A  
HETATM   14 CL   UNL     1      -8.642   9.555  67.478  1.00  0.00    -0.125 Cl 
HETATM   15  C   UNL     1     -10.110  10.731  63.967  1.00  0.00    -0.345 A  
HETATM   16  C   UNL     1     -11.144  11.594  64.318  1.00  0.00    -0.406 A  
HETATM   17  N   UNL     1      -9.958  10.324  62.640  1.00  0.00    -0.650 NA 
HETATM   18  H1  UNL     1     -10.482  10.781  61.894  1.00  0.00     0.000 HD 
HETATM   19  C   UNL     1     -11.385  11.908  65.659  1.00  0.00    -0.339 A  
HETATM   20  H2  UNL     1     -10.141   9.321  62.590  1.00  0.00     0.000 HD 
ENDBRANCH   9  11
ENDBRANCH   8   9
ENDBRANCH   7   8
ENDBRANCH   6   7
ENDBRANCH   3   6
ENDBRANCH   2   3
TORSDOF 7
ENDMDL
MODEL      207
REMARK 921   NORMALIZED FREE ENERGY PREDICTED BY IDOCK:   -3.49 KCAL/MOL
REMARK 922        TOTAL FREE ENERGY PREDICTED BY IDOCK:   -5.31 KCAL/MOL
REMARK 923 INTER-LIGAND FREE ENERGY PREDICTED BY IDOCK:   -4.99 KCAL/MOL
REMARK 924 INTRA-LIGAND FREE ENERGY PREDICTED BY IDOCK:   -0.32 KCAL/MOL
REMARK 927      BINDING AFFINITY PREDICTED BY RF-SCORE:    0.00 PKD
ROOT
HETATM    1  C   UNL     1      -8.417   9.072  71.074  1.00  0.00    -0.254 C  
HETATM    2  C   UNL     1      -9.641   9.113  70.168  1.00  0.00    -0.206 C  
ENDROOT
BRANCH   2   3
HETATM    3  N   UNL     1      -9.495   9.947  68.958  1.00  0.00    -0.174 NA 
BRANCH   3   4
HETATM    4  C   UNL     1      -8.804   9.269  67.848  1.00  0.00    -0.124 C  
HETATM    5  C   UNL     1      -7.379   9.731  67.553  1.00  0.00    -0.090 C  
ENDBRANCH   3   4
BRANCH   3   6
HETATM    6  C   UNL     1     -10.822  10.464  68.584  1.00  0.00    -0.232 C  
BRANCH   6   7
HETATM    7  C   UNL     1     -10.982  11.078  67.181  1.00  0.00    -0.283 C  
BRANCH   7   8
HETATM    8  O   UNL     1     -12.099  11.987  67.260  1.00  0.00    -0.572 OA 
BRANCH   8   9
HETATM    9  C   UNL     1     -12.018  13.045  66.409  1.00  0.00    -0.402 C  
HETATM   10  O   UNL     1     -12.714  13.180  65.418  1.00  0.00    -0.487 OA 
BRANCH   9  11
HETATM   11  C   UNL     1     -11.091  14.071  66.984  1.00  0.00    -0.312 A  
HETATM   12  C   UNL     1     -11.178  14.492  68.318  1.00  0.00    -0.277 A  
HETATM   13  C   UNL     1     -10.219  15.374  68.844  1.00  0.00    -0.219 A  
HETATM   14 CL   UNL     1     -12.403  13.972  69.425  1.00  0.00    -0.326 Cl 
HETATM   15  C   UNL     1      -9.186  15.880  68.055  1.00  0.00    -0.192 A  
HETATM   16  C   UNL     1      -9.061  15.414  66.749  1.00  0.00    -0.286 A  
HETATM   17  N   UNL     1      -8.167  16.646  68.625  1.00  0.00    -0.234 NA 
HETATM   18  H1  UNL     1      -7.412  17.016  68.049  1.00  0.00     0.000 HD 
HETATM   19  C   UNL     1     -10.012  14.542  66.210  1.00  0.00    -0.320 A  
HETATM   20  H2  UNL     1      -7.752  16.110  69.388  1.00  0.00     0.000 HD 
ENDBRANCH   9  11
ENDBRANCH   8   9
ENDBRANCH   7   8
ENDBRANCH   6   7
ENDBRANCH   3   6
ENDBRANCH   2   3
TORSDOF 7
ENDMDL
MODEL      208
REMARK 921   NORMALIZED FREE ENERGY PREDICTED BY IDOCK:   -3.49 KCAL/MOL
REMARK 922        TOTAL FREE ENERGY PREDICTED BY IDOCK:   -5.31 KCAL/MOL
REMARK 923 INTER-LIGAND FREE ENERGY PREDICTED BY IDOCK:   -5.19 KCAL/MOL
REMARK 924 INTRA-LIGAND FREE ENERGY PREDICTED BY IDOCK:   -0.12 KCAL/MOL
REMARK 927      BINDING AFFINITY PREDICTED BY RF-SCORE:    0.00 PKD
ROOT
HETATM    1  C   UNL     1      -6.386  14.815  68.722  1.00  0.00    -0.086 C  
HETATM    2  C   UNL     1      -6.979  15.451  67.471  1.00  0.00    -0.194 C  
ENDROOT
BRANCH   2   3
HETATM    3  N   UNL     1      -8.303  16.079  67.657  1.00  0.00    -0.149 NA 
BRANCH   3   4
HETATM    4  C   UNL     1      -8.273  17.552  67.620  1.00  0.00    -0.215 C  
HETATM    5  C   UNL     1      -7.267  18.234  68.543  1.00  0.00    -0.293 C  
ENDBRANCH   3   4
BRANCH   3   6
HETATM    6  C   UNL     1      -9.239  15.495  66.683  1.00  0.00    -0.271 C  
BRANCH   6   7
HETATM    7  C   UNL     1      -9.794  14.089  66.978  1.00  0.00    -0.260 C  
BRANCH   7   8
HETATM    8  O   UNL     1     -11.231  14.199  66.921  1.00  0.00    -0.300 OA 
BRANCH   8   9
HETATM    9  C   UNL     1     -11.892  13.220  67.594  1.00  0.00    -0.357 C  
HETATM   10  O   UNL     1     -12.051  12.088  67.172  1.00  0.00    -0.587 OA 
BRANCH   9  11
HETATM   11  C   UNL     1     -12.214  13.701  68.975  1.00  0.00    -0.245 A  
HETATM   12  C   UNL     1     -12.363  12.821  70.056  1.00  0.00    -0.112 A  
HETATM   13  C   UNL     1     -12.556  13.325  71.354  1.00  0.00    -0.365 A  
HETATM   14 CL   UNL     1     -12.299  11.098  69.925  1.00  0.00    -0.350 Cl 
HETATM   15  C   UNL     1     -12.642  14.696  71.598  1.00  0.00    -0.337 A  
HETATM   16  C   UNL     1     -12.430  15.571  70.536  1.00  0.00    -0.472 A  
HETATM   17  N   UNL     1     -12.698  15.183  72.905  1.00  0.00    -0.383 NA 
HETATM   18  H1  UNL     1     -12.760  16.185  73.083  1.00  0.00     0.000 HD 
HETATM   19  C   UNL     1     -12.245  15.085  69.238  1.00  0.00    -0.214 A  
HETATM   20  H2  UNL     1     -11.895  14.817  73.418  1.00  0.00     0.000 HD 
ENDBRANCH   9  11
ENDBRANCH   8   9
ENDBRANCH   7   8
ENDBRANCH   6   7
ENDBRANCH   3   6
ENDBRANCH   2   3
TORSDOF 7
ENDMDL
MODEL      209
REMARK 921   NORMALIZED FREE ENERGY PREDICTED BY IDOCK:   -3.49 KCAL/MOL
REMARK 922        TOTAL FREE ENERGY PREDICTED BY IDOCK:   -5.31 KCAL/MOL
REMARK 923 INTER-LIGAND FREE ENERGY PREDICTED BY IDOCK:   -4.89 KCAL/MOL
REMARK 924 INTRA-LIGAND FREE ENERGY PREDICTED BY IDOCK:   -0.42 KCAL/MOL
REMARK 927      BINDING AFFINITY PREDICTED BY RF-SCORE:    0.00 PKD
ROOT
HETATM    1  C   UNL     1     -13.552  14.865  71.453  1.00  0.00    -0.515 C  
HETATM    2  C   UNL     1     -12.658  13.927  70.652  1.00  0.00    -0.335 C  
ENDROOT
BRANCH   2   3
HETATM    3  N   UNL     1     -11.940  14.560  69.527  1.00  0.00    -0.308 NA 
BRANCH   3   4
HETATM    4  C   UNL     1     -11.190  15.770  69.904  1.00  0.00    -0.334 C  
HETATM    5  C   UNL     1     -10.576  16.573  68.759  1.00  0.00    -0.322 C  
ENDBRANCH   3   4
BRANCH   3   6
HETATM    6  C   UNL     1     -11.101  13.539  68.876  1.00  0.00    -0.267 C  
BRANCH   6   7
HETATM    7  C   UNL     1     -11.694  12.792  67.667  1.00  0.00    -0.367 C  
BRANCH   7   8
HETATM    8  O   UNL     1     -11.826  11.412  68.068  1.00  0.00    -0.570 OA 
BRANCH   8   9
HETATM    9  C   UNL     1     -10.658  10.829  68.450  1.00  0.00    -0.197 C  
HETATM   10  O   UNL     1     -10.451  10.379  69.564  1.00  0.00    -0.223 OA 
BRANCH   9  11
HETATM   11  C   UNL     1      -9.771  10.670  67.254  1.00  0.00    -0.195 A  
HETATM   12  C   UNL     1      -8.455  11.152  67.231  1.00  0.00    -0.137 A  
HETATM   13  C   UNL     1      -7.624  10.882  66.130  1.00  0.00    -0.119 A  
HETATM   14 CL   UNL     1      -7.730  12.063  68.511  1.00  0.00    -0.130 Cl 
HETATM   15  C   UNL     1      -8.089  10.170  65.025  1.00  0.00    -0.149 A  
HETATM   16  C   UNL     1      -9.374   9.637  65.073  1.00  0.00    -0.319 A  
HETATM   17  N   UNL     1      -7.215   9.797  64.002  1.00  0.00    -0.123 NA 
HETATM   18  H1  UNL     1      -7.554   9.275  63.194  1.00  0.00     0.000 HD 
HETATM   19  C   UNL     1     -10.214   9.902  66.159  1.00  0.00    -0.277 A  
HETATM   20  H2  UNL     1      -6.442   9.275  64.416  1.00  0.00     0.000 HD 
ENDBRANCH   9  11
ENDBRANCH   8   9
ENDBRANCH   7   8
ENDBRANCH   6   7
ENDBRANCH   3   6
ENDBRANCH   2   3
TORSDOF 7
ENDMDL
MODEL      210
REMARK 921   NORMALIZED FREE ENERGY PREDICTED BY IDOCK:   -3.48 KCAL/MOL
REMARK 922        TOTAL FREE ENERGY PREDICTED BY IDOCK:   -5.30 KCAL/MOL
REMARK 923 INTER-LIGAND FREE ENERGY PREDICTED BY IDOCK:   -4.86 KCAL/MOL
REMARK 924 INTRA-LIGAND FREE ENERGY PREDICTED BY IDOCK:   -0.44 KCAL/MOL
REMARK 927      BINDING AFFINITY PREDICTED BY RF-SCORE:    0.00 PKD
ROOT
HETATM    1  C   UNL     1      -9.271   2.708  64.493  1.00  0.00    -0.134 C  
HETATM    2  C   UNL     1      -9.909   4.076  64.702  1.00  0.00    -0.195 C  
ENDROOT
BRANCH   2   3
HETATM    3  N   UNL     1      -9.371   4.849  65.840  1.00  0.00    -0.153 NA 
BRANCH   3   4
HETATM    4  C   UNL     1      -8.487   5.958  65.441  1.00  0.00    -0.153 C  
HETATM    5  C   UNL     1      -6.993   5.650  65.387  1.00  0.00    -0.064 C  
ENDBRANCH   3   4
BRANCH   3   6
HETATM    6  C   UNL     1     -10.496   5.281  66.685  1.00  0.00    -0.290 C  
BRANCH   6   7
HETATM    7  C   UNL     1     -10.490   6.733  67.198  1.00  0.00    -0.293 C  
BRANCH   7   8
HETATM    8  O   UNL     1     -10.991   6.688  68.550  1.00  0.00    -0.258 OA 
BRANCH   8   9
HETATM    9  C   UNL     1     -10.257   7.409  69.440  1.00  0.00    -0.201 C  
HETATM   10  O   UNL     1      -9.049   7.313  69.565  1.00  0.00    -0.143 OA 
BRANCH   9  11
HETATM   11  C   UNL     1     -11.134   8.438  70.084  1.00  0.00    -0.183 A  
HETATM   12  C   UNL     1     -11.947   8.143  71.186  1.00  0.00    -0.273 A  
HETATM   13  C   UNL     1     -12.668   9.166  71.825  1.00  0.00    -0.446 A  
HETATM   14 CL   UNL     1     -12.122   6.564  71.871  1.00  0.00    -0.389 Cl 
HETATM   15  C   UNL     1     -12.627  10.482  71.365  1.00  0.00    -0.434 A  
HETATM   16  C   UNL     1     -11.771  10.789  70.311  1.00  0.00    -0.442 A  
HETATM   17  N   UNL     1     -13.239  11.507  72.089  1.00  0.00    -0.559 NA 
HETATM   18  H1  UNL     1     -13.209  12.469  71.753  1.00  0.00     0.000 HD 
HETATM   19  C   UNL     1     -11.053   9.780  69.660  1.00  0.00    -0.251 A  
HETATM   20  H2  UNL     1     -12.872  11.490  73.041  1.00  0.00     0.000 HD 
ENDBRANCH   9  11
ENDBRANCH   8   9
ENDBRANCH   7   8
ENDBRANCH   6   7
ENDBRANCH   3   6
ENDBRANCH   2   3
TORSDOF 7
ENDMDL
MODEL      211
REMARK 921   NORMALIZED FREE ENERGY PREDICTED BY IDOCK:   -3.47 KCAL/MOL
REMARK 922        TOTAL FREE ENERGY PREDICTED BY IDOCK:   -5.28 KCAL/MOL
REMARK 923 INTER-LIGAND FREE ENERGY PREDICTED BY IDOCK:   -5.34 KCAL/MOL
REMARK 924 INTRA-LIGAND FREE ENERGY PREDICTED BY IDOCK:    0.06 KCAL/MOL
REMARK 927      BINDING AFFINITY PREDICTED BY RF-SCORE:    0.00 PKD
ROOT
HETATM    1  C   UNL     1     -12.512   6.855  71.022  1.00  0.00    -0.364 C  
HETATM    2  C   UNL     1     -13.193   8.134  71.494  1.00  0.00    -0.284 C  
ENDROOT
BRANCH   2   3
HETATM    3  N   UNL     1     -12.315   9.078  72.216  1.00  0.00    -0.356 NA 
BRANCH   3   4
HETATM    4  C   UNL     1     -10.878   8.797  72.056  1.00  0.00    -0.358 C  
HETATM    5  C   UNL     1     -10.250   7.861  73.086  1.00  0.00    -0.358 C  
ENDBRANCH   3   4
BRANCH   3   6
HETATM    6  C   UNL     1     -12.684  10.449  71.826  1.00  0.00    -0.421 C  
BRANCH   6   7
HETATM    7  C   UNL     1     -12.834  10.749  70.324  1.00  0.00    -0.160 C  
BRANCH   7   8
HETATM    8  O   UNL     1     -12.030  11.918  70.061  1.00  0.00    -0.322 OA 
BRANCH   8   9
HETATM    9  C   UNL     1     -10.954  11.686  69.262  1.00  0.00    -0.192 C  
HETATM   10  O   UNL     1     -10.354  10.626  69.215  1.00  0.00    -0.207 OA 
BRANCH   9  11
HETATM   11  C   UNL     1     -10.758  12.853  68.345  1.00  0.00    -0.273 A  
HETATM   12  C   UNL     1     -10.165  12.720  67.082  1.00  0.00    -0.233 A  
HETATM   13  C   UNL     1     -10.102  13.821  66.212  1.00  0.00    -0.304 A  
HETATM   14 CL   UNL     1      -9.502  11.244  66.470  1.00  0.00    -0.205 Cl 
HETATM   15  C   UNL     1     -10.588  15.074  66.588  1.00  0.00    -0.301 A  
HETATM   16  C   UNL     1     -11.234  15.193  67.815  1.00  0.00    -0.327 A  
HETATM   17  N   UNL     1     -10.640  16.121  65.665  1.00  0.00    -0.369 NA 
HETATM   18  H1  UNL     1     -10.995  17.036  65.939  1.00  0.00     0.000 HD 
HETATM   19  C   UNL     1     -11.297  14.107  68.694  1.00  0.00    -0.306 A  
HETATM   20  H2  UNL     1     -11.169  15.805  64.852  1.00  0.00     0.000 HD 
ENDBRANCH   9  11
ENDBRANCH   8   9
ENDBRANCH   7   8
ENDBRANCH   6   7
ENDBRANCH   3   6
ENDBRANCH   2   3
TORSDOF 7
ENDMDL
MODEL      212
REMARK 921   NORMALIZED FREE ENERGY PREDICTED BY IDOCK:   -3.47 KCAL/MOL
REMARK 922        TOTAL FREE ENERGY PREDICTED BY IDOCK:   -5.28 KCAL/MOL
REMARK 923 INTER-LIGAND FREE ENERGY PREDICTED BY IDOCK:   -4.85 KCAL/MOL
REMARK 924 INTRA-LIGAND FREE ENERGY PREDICTED BY IDOCK:   -0.43 KCAL/MOL
REMARK 927      BINDING AFFINITY PREDICTED BY RF-SCORE:    0.00 PKD
ROOT
HETATM    1  C   UNL     1     -11.524   7.734  72.625  1.00  0.00    -0.430 C  
HETATM    2  C   UNL     1     -10.164   7.496  71.981  1.00  0.00    -0.196 C  
ENDROOT
BRANCH   2   3
HETATM    3  N   UNL     1      -9.212   8.619  72.100  1.00  0.00    -0.300 NA 
BRANCH   3   4
HETATM    4  C   UNL     1      -7.984   8.284  72.841  1.00  0.00    -0.141 C  
HETATM    5  C   UNL     1      -8.145   8.015  74.335  1.00  0.00    -0.300 C  
ENDBRANCH   3   4
BRANCH   3   6
HETATM    6  C   UNL     1      -8.947   9.151  70.753  1.00  0.00    -0.242 C  
BRANCH   6   7
HETATM    7  C   UNL     1      -9.584   8.419  69.557  1.00  0.00    -0.170 C  
BRANCH   7   8
HETATM    8  O   UNL     1     -10.599   9.301  69.034  1.00  0.00    -0.218 OA 
BRANCH   8   9
HETATM    9  C   UNL     1     -10.543   9.478  67.687  1.00  0.00    -0.269 C  
HETATM   10  O   UNL     1     -10.588   8.569  66.876  1.00  0.00    -0.298 OA 
BRANCH   9  11
HETATM   11  C   UNL     1     -10.606  10.942  67.378  1.00  0.00    -0.285 A  
HETATM   12  C   UNL     1      -9.689  11.564  66.520  1.00  0.00    -0.203 A  
HETATM   13  C   UNL     1      -9.853  12.916  66.172  1.00  0.00    -0.270 A  
HETATM   14 CL   UNL     1      -8.333  10.766  65.800  1.00  0.00    -0.166 Cl 
HETATM   15  C   UNL     1     -10.896  13.680  66.694  1.00  0.00    -0.283 A  
HETATM   16  C   UNL     1     -11.844  13.048  67.495  1.00  0.00    -0.408 A  
HETATM   17  N   UNL     1     -11.123  14.979  66.236  1.00  0.00    -0.343 NA 
HETATM   18  H1  UNL     1     -11.886  15.538  66.617  1.00  0.00     0.000 HD 
HETATM   19  C   UNL     1     -11.690  11.705  67.855  1.00  0.00    -0.329 A  
HETATM   20  H2  UNL     1     -11.227  14.947  65.221  1.00  0.00     0.000 HD 
ENDBRANCH   9  11
ENDBRANCH   8   9
ENDBRANCH   7   8
ENDBRANCH   6   7
ENDBRANCH   3   6
ENDBRANCH   2   3
TORSDOF 7
ENDMDL
MODEL      213
REMARK 921   NORMALIZED FREE ENERGY PREDICTED BY IDOCK:   -3.46 KCAL/MOL
REMARK 922        TOTAL FREE ENERGY PREDICTED BY IDOCK:   -5.27 KCAL/MOL
REMARK 923 INTER-LIGAND FREE ENERGY PREDICTED BY IDOCK:   -5.08 KCAL/MOL
REMARK 924 INTRA-LIGAND FREE ENERGY PREDICTED BY IDOCK:   -0.19 KCAL/MOL
REMARK 927      BINDING AFFINITY PREDICTED BY RF-SCORE:    0.00 PKD
ROOT
HETATM    1  C   UNL     1      -9.172   7.730  66.701  1.00  0.00    -0.220 C  
HETATM    2  C   UNL     1      -8.313   8.333  67.806  1.00  0.00    -0.128 C  
ENDROOT
BRANCH   2   3
HETATM    3  N   UNL     1      -8.882   8.232  69.165  1.00  0.00    -0.143 NA 
BRANCH   3   4
HETATM    4  C   UNL     1      -8.114   7.358  70.068  1.00  0.00    -0.129 C  
HETATM    5  C   UNL     1      -8.237   7.650  71.562  1.00  0.00    -0.108 C  
ENDBRANCH   3   4
BRANCH   3   6
HETATM    6  C   UNL     1      -9.068   9.593  69.696  1.00  0.00    -0.210 C  
BRANCH   6   7
HETATM    7  C   UNL     1     -10.465  10.227  69.565  1.00  0.00    -0.244 C  
BRANCH   7   8
HETATM    8  O   UNL     1     -10.262  11.549  69.024  1.00  0.00    -0.181 OA 
BRANCH   8   9
HETATM    9  C   UNL     1     -11.380  12.110  68.490  1.00  0.00    -0.275 C  
HETATM   10  O   UNL     1     -11.899  11.742  67.451  1.00  0.00    -0.590 OA 
BRANCH   9  11
HETATM   11  C   UNL     1     -11.950  13.096  69.462  1.00  0.00    -0.354 A  
HETATM   12  C   UNL     1     -12.134  14.446  69.134  1.00  0.00    -0.281 A  
HETATM   13  C   UNL     1     -12.774  15.311  70.038  1.00  0.00    -0.206 A  
HETATM   14 CL   UNL     1     -11.646  15.160  67.635  1.00  0.00    -0.327 Cl 
HETATM   15  C   UNL     1     -13.205  14.867  71.288  1.00  0.00    -0.408 A  
HETATM   16  C   UNL     1     -13.081  13.514  71.590  1.00  0.00    -0.459 A  
HETATM   17  N   UNL     1     -13.957  15.702  72.118  1.00  0.00    -0.496 NA 
HETATM   18  H1  UNL     1     -14.273  15.378  73.031  1.00  0.00     0.000 HD 
HETATM   19  C   UNL     1     -12.440  12.643  70.703  1.00  0.00    -0.323 A  
HETATM   20  H2  UNL     1     -14.772  16.024  71.595  1.00  0.00     0.000 HD 
ENDBRANCH   9  11
ENDBRANCH   8   9
ENDBRANCH   7   8
ENDBRANCH   6   7
ENDBRANCH   3   6
ENDBRANCH   2   3
TORSDOF 7
ENDMDL
MODEL      214
REMARK 921   NORMALIZED FREE ENERGY PREDICTED BY IDOCK:   -3.46 KCAL/MOL
REMARK 922        TOTAL FREE ENERGY PREDICTED BY IDOCK:   -5.26 KCAL/MOL
REMARK 923 INTER-LIGAND FREE ENERGY PREDICTED BY IDOCK:   -4.78 KCAL/MOL
REMARK 924 INTRA-LIGAND FREE ENERGY PREDICTED BY IDOCK:   -0.48 KCAL/MOL
REMARK 927      BINDING AFFINITY PREDICTED BY RF-SCORE:    0.00 PKD
ROOT
HETATM    1  C   UNL     1      -8.746  14.149  68.675  1.00  0.00    -0.126 C  
HETATM    2  C   UNL     1     -10.190  14.514  69.000  1.00  0.00    -0.206 C  
ENDROOT
BRANCH   2   3
HETATM    3  N   UNL     1     -11.210  13.714  68.292  1.00  0.00    -0.259 NA 
BRANCH   3   4
HETATM    4  C   UNL     1     -11.071  13.735  66.826  1.00  0.00    -0.308 C  
HETATM    5  C   UNL     1     -12.361  13.882  66.023  1.00  0.00    -0.511 C  
ENDBRANCH   3   4
BRANCH   3   6
HETATM    6  C   UNL     1     -11.210  12.353  68.854  1.00  0.00    -0.280 C  
BRANCH   6   7
HETATM    7  C   UNL     1     -10.701  11.209  67.958  1.00  0.00    -0.211 C  
BRANCH   7   8
HETATM    8  O   UNL     1      -9.972  10.311  68.820  1.00  0.00    -0.164 OA 
BRANCH   8   9
HETATM    9  C   UNL     1     -10.357   9.010  68.721  1.00  0.00    -0.215 C  
HETATM   10  O   UNL     1     -10.472   8.410  67.667  1.00  0.00    -0.243 OA 
BRANCH   9  11
HETATM   11  C   UNL     1     -10.427   8.410  70.091  1.00  0.00    -0.230 A  
HETATM   12  C   UNL     1      -9.342   7.736  70.668  1.00  0.00    -0.162 A  
HETATM   13  C   UNL     1      -9.417   7.286  71.997  1.00  0.00    -0.151 A  
HETATM   14 CL   UNL     1      -7.846   7.425  69.856  1.00  0.00    -0.112 Cl 
HETATM   15  C   UNL     1     -10.571   7.460  72.761  1.00  0.00    -0.297 A  
HETATM   16  C   UNL     1     -11.626   8.184  72.211  1.00  0.00    -0.436 A  
HETATM   17  N   UNL     1     -10.582   7.129  74.117  1.00  0.00    -0.564 NA 
HETATM   18  H1  UNL     1     -11.426   7.256  74.675  1.00  0.00     0.000 HD 
HETATM   19  C   UNL     1     -11.568   8.631  70.888  1.00  0.00    -0.307 A  
HETATM   20  H2  UNL     1      -9.819   7.628  74.575  1.00  0.00     0.000 HD 
ENDBRANCH   9  11
ENDBRANCH   8   9
ENDBRANCH   7   8
ENDBRANCH   6   7
ENDBRANCH   3   6
ENDBRANCH   2   3
TORSDOF 7
ENDMDL
MODEL      215
REMARK 921   NORMALIZED FREE ENERGY PREDICTED BY IDOCK:   -3.46 KCAL/MOL
REMARK 922        TOTAL FREE ENERGY PREDICTED BY IDOCK:   -5.26 KCAL/MOL
REMARK 923 INTER-LIGAND FREE ENERGY PREDICTED BY IDOCK:   -4.63 KCAL/MOL
REMARK 924 INTRA-LIGAND FREE ENERGY PREDICTED BY IDOCK:   -0.64 KCAL/MOL
REMARK 927      BINDING AFFINITY PREDICTED BY RF-SCORE:    0.00 PKD
ROOT
HETATM    1  C   UNL     1      -7.736   9.788  70.163  1.00  0.00    -0.188 C  
HETATM    2  C   UNL     1      -8.493   8.610  69.563  1.00  0.00    -0.129 C  
ENDROOT
BRANCH   2   3
HETATM    3  N   UNL     1      -9.827   8.363  70.148  1.00  0.00    -0.179 NA 
BRANCH   3   4
HETATM    4  C   UNL     1      -9.993   8.910  71.505  1.00  0.00    -0.320 C  
HETATM    5  C   UNL     1     -11.122   8.316  72.344  1.00  0.00    -0.447 C  
ENDBRANCH   3   4
BRANCH   3   6
HETATM    6  C   UNL     1     -10.848   8.844  69.202  1.00  0.00    -0.070 C  
BRANCH   6   7
HETATM    7  C   UNL     1     -11.151  10.353  69.182  1.00  0.00    -0.246 C  
BRANCH   7   8
HETATM    8  O   UNL     1     -11.776  10.625  67.911  1.00  0.00    -0.506 OA 
BRANCH   8   9
HETATM    9  C   UNL     1     -11.333  11.759  67.303  1.00  0.00    -0.315 C  
HETATM   10  O   UNL     1     -12.046  12.707  67.024  1.00  0.00    -0.480 OA 
BRANCH   9  11
HETATM   11  C   UNL     1      -9.839  11.720  67.213  1.00  0.00    -0.198 A  
HETATM   12  C   UNL     1      -9.165  10.811  66.386  1.00  0.00    -0.170 A  
HETATM   13  C   UNL     1      -7.768  10.884  66.250  1.00  0.00    -0.147 A  
HETATM   14 CL   UNL     1      -9.944   9.576  65.459  1.00  0.00    -0.320 Cl 
HETATM   15  C   UNL     1      -7.016  11.825  66.953  1.00  0.00    -0.101 A  
HETATM   16  C   UNL     1      -7.690  12.768  67.725  1.00  0.00    -0.152 A  
HETATM   17  N   UNL     1      -5.650  11.972  66.705  1.00  0.00    -0.455 NA 
HETATM   18  H1  UNL     1      -5.100  12.660  67.219  1.00  0.00     0.000 HD 
HETATM   19  C   UNL     1      -9.078  12.704  67.876  1.00  0.00    -0.200 A  
HETATM   20  H2  UNL     1      -5.523  12.143  65.707  1.00  0.00     0.000 HD 
ENDBRANCH   9  11
ENDBRANCH   8   9
ENDBRANCH   7   8
ENDBRANCH   6   7
ENDBRANCH   3   6
ENDBRANCH   2   3
TORSDOF 7
ENDMDL
MODEL      216
REMARK 921   NORMALIZED FREE ENERGY PREDICTED BY IDOCK:   -3.43 KCAL/MOL
REMARK 922        TOTAL FREE ENERGY PREDICTED BY IDOCK:   -5.23 KCAL/MOL
REMARK 923 INTER-LIGAND FREE ENERGY PREDICTED BY IDOCK:   -4.75 KCAL/MOL
REMARK 924 INTRA-LIGAND FREE ENERGY PREDICTED BY IDOCK:   -0.48 KCAL/MOL
REMARK 927      BINDING AFFINITY PREDICTED BY RF-SCORE:    0.00 PKD
ROOT
HETATM    1  C   UNL     1     -10.423  14.699  65.267  1.00  0.00    -0.420 C  
HETATM    2  C   UNL     1     -10.091  14.047  66.604  1.00  0.00    -0.276 C  
ENDROOT
BRANCH   2   3
HETATM    3  N   UNL     1     -10.589  12.666  66.766  1.00  0.00    -0.236 NA 
BRANCH   3   4
HETATM    4  C   UNL     1      -9.585  11.632  66.460  1.00  0.00    -0.209 C  
HETATM    5  C   UNL     1      -9.916  10.684  65.310  1.00  0.00    -0.356 C  
ENDBRANCH   3   4
BRANCH   3   6
HETATM    6  C   UNL     1     -11.164  12.533  68.115  1.00  0.00    -0.267 C  
BRANCH   6   7
HETATM    7  C   UNL     1     -11.759  11.168  68.507  1.00  0.00    -0.298 C  
BRANCH   7   8
HETATM    8  O   UNL     1     -11.002  10.707  69.645  1.00  0.00    -0.244 OA 
BRANCH   8   9
HETATM    9  C   UNL     1     -10.575   9.419  69.545  1.00  0.00    -0.222 C  
HETATM   10  O   UNL     1     -10.500   8.804  68.496  1.00  0.00    -0.206 OA 
BRANCH   9  11
HETATM   11  C   UNL     1     -10.052   8.968  70.874  1.00  0.00    -0.329 A  
HETATM   12  C   UNL     1     -10.880   8.841  71.998  1.00  0.00    -0.358 A  
HETATM   13  C   UNL     1     -10.368   8.309  73.194  1.00  0.00     0.027 A  
HETATM   14 CL   UNL     1     -12.554   9.277  72.028  1.00  0.00    -0.453 Cl 
HETATM   15  C   UNL     1      -9.031   7.931  73.309  1.00  0.00    -0.264 A  
HETATM   16  C   UNL     1      -8.224   7.996  72.176  1.00  0.00    -0.178 A  
HETATM   17  N   UNL     1      -8.573   7.281  74.457  1.00  0.00    -0.253 NA 
HETATM   18  H1  UNL     1      -7.595   7.004  74.541  1.00  0.00     0.000 HD 
HETATM   19  C   UNL     1      -8.717   8.530  70.981  1.00  0.00    -0.209 A  
HETATM   20  H2  UNL     1      -9.152   6.455  74.610  1.00  0.00     0.000 HD 
ENDBRANCH   9  11
ENDBRANCH   8   9
ENDBRANCH   7   8
ENDBRANCH   6   7
ENDBRANCH   3   6
ENDBRANCH   2   3
TORSDOF 7
ENDMDL
MODEL      217
REMARK 921   NORMALIZED FREE ENERGY PREDICTED BY IDOCK:   -3.40 KCAL/MOL
REMARK 922        TOTAL FREE ENERGY PREDICTED BY IDOCK:   -5.18 KCAL/MOL
REMARK 923 INTER-LIGAND FREE ENERGY PREDICTED BY IDOCK:   -4.47 KCAL/MOL
REMARK 924 INTRA-LIGAND FREE ENERGY PREDICTED BY IDOCK:   -0.71 KCAL/MOL
REMARK 927      BINDING AFFINITY PREDICTED BY RF-SCORE:    0.00 PKD
ROOT
HETATM    1  C   UNL     1     -11.607  15.293  68.009  1.00  0.00    -0.325 C  
HETATM    2  C   UNL     1     -11.711  14.082  67.091  1.00  0.00    -0.393 C  
ENDROOT
BRANCH   2   3
HETATM    3  N   UNL     1     -10.462  13.720  66.391  1.00  0.00    -0.281 NA 
BRANCH   3   4
HETATM    4  C   UNL     1     -10.520  13.912  64.932  1.00  0.00    -0.426 C  
HETATM    5  C   UNL     1     -11.343  12.894  64.146  1.00  0.00    -0.442 C  
ENDBRANCH   3   4
BRANCH   3   6
HETATM    6  C   UNL     1      -9.346  14.440  67.026  1.00  0.00    -0.242 C  
BRANCH   6   7
HETATM    7  C   UNL     1      -8.059  13.647  67.323  1.00  0.00    -0.139 C  
BRANCH   7   8
HETATM    8  O   UNL     1      -8.464  12.480  68.066  1.00  0.00    -0.156 OA 
BRANCH   8   9
HETATM    9  C   UNL     1      -7.657  11.399  67.888  1.00  0.00    -0.108 C  
HETATM   10  O   UNL     1      -6.858  10.999  68.717  1.00  0.00    -0.062 OA 
BRANCH   9  11
HETATM   11  C   UNL     1      -8.043  10.698  66.622  1.00  0.00    -0.136 A  
HETATM   12  C   UNL     1      -9.364  10.316  66.352  1.00  0.00    -0.165 A  
HETATM   13  C   UNL     1      -9.697   9.761  65.105  1.00  0.00    -0.338 A  
HETATM   14 CL   UNL     1     -10.678  10.506  67.462  1.00  0.00    -0.302 Cl 
HETATM   15  C   UNL     1      -8.730   9.541  64.125  1.00  0.00    -0.215 A  
HETATM   16  C   UNL     1      -7.430   9.978  64.367  1.00  0.00    -0.141 A  
HETATM   17  N   UNL     1      -9.098   9.115  62.847  1.00  0.00    -0.480 NA 
HETATM   18  H1  UNL     1      -8.391   8.955  62.130  1.00  0.00     0.000 HD 
HETATM   19  C   UNL     1      -7.082  10.525  65.606  1.00  0.00    -0.119 A  
HETATM   20  H2  UNL     1      -9.784   9.773  62.476  1.00  0.00     0.000 HD 
ENDBRANCH   9  11
ENDBRANCH   8   9
ENDBRANCH   7   8
ENDBRANCH   6   7
ENDBRANCH   3   6
ENDBRANCH   2   3
TORSDOF 7
ENDMDL
MODEL      218
REMARK 921   NORMALIZED FREE ENERGY PREDICTED BY IDOCK:   -3.37 KCAL/MOL
REMARK 922        TOTAL FREE ENERGY PREDICTED BY IDOCK:   -5.15 KCAL/MOL
REMARK 923 INTER-LIGAND FREE ENERGY PREDICTED BY IDOCK:   -4.54 KCAL/MOL
REMARK 924 INTRA-LIGAND FREE ENERGY PREDICTED BY IDOCK:   -0.60 KCAL/MOL
REMARK 927      BINDING AFFINITY PREDICTED BY RF-SCORE:    0.00 PKD
ROOT
HETATM    1  C   UNL     1      -7.528  10.145  64.513  1.00  0.00    -0.127 C  
HETATM    2  C   UNL     1      -7.603  10.450  66.004  1.00  0.00    -0.137 C  
ENDROOT
BRANCH   2   3
HETATM    3  N   UNL     1      -8.862  11.081  66.450  1.00  0.00    -0.171 NA 
BRANCH   3   4
HETATM    4  C   UNL     1     -10.044  10.214  66.309  1.00  0.00    -0.238 C  
HETATM    5  C   UNL     1     -10.451   9.415  67.545  1.00  0.00    -0.343 C  
ENDBRANCH   3   4
BRANCH   3   6
HETATM    6  C   UNL     1      -8.673  11.583  67.821  1.00  0.00    -0.142 C  
BRANCH   6   7
HETATM    7  C   UNL     1      -9.138  13.019  68.127  1.00  0.00    -0.204 C  
BRANCH   7   8
HETATM    8  O   UNL     1      -8.640  13.845  67.054  1.00  0.00    -0.216 OA 
BRANCH   8   9
HETATM    9  C   UNL     1      -9.605  14.542  66.395  1.00  0.00    -0.303 C  
HETATM   10  O   UNL     1     -10.500  14.026  65.749  1.00  0.00    -0.289 OA 
BRANCH   9  11
HETATM   11  C   UNL     1      -9.490  15.994  66.744  1.00  0.00    -0.250 A  
HETATM   12  C   UNL     1     -10.225  16.571  67.789  1.00  0.00    -0.278 A  
HETATM   13  C   UNL     1     -10.004  17.910  68.151  1.00  0.00    -0.350 A  
HETATM   14 CL   UNL     1     -11.410  15.728  68.727  1.00  0.00    -0.340 Cl 
HETATM   15  C   UNL     1      -9.086  18.707  67.467  1.00  0.00    -0.280 A  
HETATM   16  C   UNL     1      -8.310  18.119  66.472  1.00  0.00    -0.288 A  
HETATM   17  N   UNL     1      -8.781  19.991  67.924  1.00  0.00    -0.291 NA 
HETATM   18  H1  UNL     1      -8.110  20.574  67.424  1.00  0.00     0.000 HD 
HETATM   19  C   UNL     1      -8.525  16.789  66.096  1.00  0.00    -0.298 A  
HETATM   20  H2  UNL     1      -8.481  19.922  68.897  1.00  0.00     0.000 HD 
ENDBRANCH   9  11
ENDBRANCH   8   9
ENDBRANCH   7   8
ENDBRANCH   6   7
ENDBRANCH   3   6
ENDBRANCH   2   3
TORSDOF 7
ENDMDL
MODEL      219
REMARK 921   NORMALIZED FREE ENERGY PREDICTED BY IDOCK:   -3.37 KCAL/MOL
REMARK 922        TOTAL FREE ENERGY PREDICTED BY IDOCK:   -5.14 KCAL/MOL
REMARK 923 INTER-LIGAND FREE ENERGY PREDICTED BY IDOCK:   -4.43 KCAL/MOL
REMARK 924 INTRA-LIGAND FREE ENERGY PREDICTED BY IDOCK:   -0.71 KCAL/MOL
REMARK 927      BINDING AFFINITY PREDICTED BY RF-SCORE:    0.00 PKD
ROOT
HETATM    1  C   UNL     1     -12.737  14.162  70.010  1.00  0.00    -0.155 C  
HETATM    2  C   UNL     1     -11.683  13.464  69.159  1.00  0.00    -0.326 C  
ENDROOT
BRANCH   2   3
HETATM    3  N   UNL     1     -11.462  12.040  69.483  1.00  0.00    -0.291 NA 
BRANCH   3   4
HETATM    4  C   UNL     1     -12.072  11.617  70.755  1.00  0.00    -0.283 C  
HETATM    5  C   UNL     1     -12.513  10.158  70.845  1.00  0.00    -0.455 C  
ENDBRANCH   3   4
BRANCH   3   6
HETATM    6  C   UNL     1     -11.897  11.227  68.334  1.00  0.00    -0.261 C  
BRANCH   6   7
HETATM    7  C   UNL     1     -10.835  10.839  67.289  1.00  0.00    -0.288 C  
BRANCH   7   8
HETATM    8  O   UNL     1      -9.570  11.304  67.804  1.00  0.00    -0.168 OA 
BRANCH   8   9
HETATM    9  C   UNL     1      -8.760  11.867  66.867  1.00  0.00    -0.191 C  
HETATM   10  O   UNL     1      -8.175  11.237  66.004  1.00  0.00    -0.142 OA 
BRANCH   9  11
HETATM   11  C   UNL     1      -8.860  13.358  66.959  1.00  0.00    -0.217 A  
HETATM   12  C   UNL     1      -9.766  14.095  66.184  1.00  0.00    -0.290 A  
HETATM   13  C   UNL     1      -9.902  15.480  66.384  1.00  0.00    -0.298 A  
HETATM   14 CL   UNL     1     -10.794  13.409  64.973  1.00  0.00    -0.317 Cl 
HETATM   15  C   UNL     1      -9.123  16.160  67.319  1.00  0.00    -0.203 A  
HETATM   16  C   UNL     1      -8.269  15.420  68.133  1.00  0.00    -0.144 A  
HETATM   17  N   UNL     1      -9.364  17.507  67.599  1.00  0.00    -0.242 NA 
HETATM   18  H1  UNL     1      -8.795  18.004  68.283  1.00  0.00     0.000 HD 
HETATM   19  C   UNL     1      -8.118  14.044  67.941  1.00  0.00    -0.156 A  
HETATM   20  H2  UNL     1     -10.344  17.608  67.865  1.00  0.00     0.000 HD 
ENDBRANCH   9  11
ENDBRANCH   8   9
ENDBRANCH   7   8
ENDBRANCH   6   7
ENDBRANCH   3   6
ENDBRANCH   2   3
TORSDOF 7
ENDMDL
MODEL      220
REMARK 921   NORMALIZED FREE ENERGY PREDICTED BY IDOCK:   -3.37 KCAL/MOL
REMARK 922        TOTAL FREE ENERGY PREDICTED BY IDOCK:   -5.13 KCAL/MOL
REMARK 923 INTER-LIGAND FREE ENERGY PREDICTED BY IDOCK:   -4.41 KCAL/MOL
REMARK 924 INTRA-LIGAND FREE ENERGY PREDICTED BY IDOCK:   -0.73 KCAL/MOL
REMARK 927      BINDING AFFINITY PREDICTED BY RF-SCORE:    0.00 PKD
ROOT
HETATM    1  C   UNL     1     -13.151   9.676  71.823  1.00  0.00    -0.514 C  
HETATM    2  C   UNL     1     -11.690   9.471  71.442  1.00  0.00    -0.393 C  
ENDROOT
BRANCH   2   3
HETATM    3  N   UNL     1     -11.163   8.115  71.695  1.00  0.00    -0.251 NA 
BRANCH   3   4
HETATM    4  C   UNL     1     -11.103   7.756  73.122  1.00  0.00    -0.275 C  
HETATM    5  C   UNL     1      -9.726   7.402  73.676  1.00  0.00    -0.349 C  
ENDBRANCH   3   4
BRANCH   3   6
HETATM    6  C   UNL     1     -11.937   7.156  70.889  1.00  0.00    -0.334 C  
BRANCH   6   7
HETATM    7  C   UNL     1     -11.204   6.423  69.750  1.00  0.00    -0.419 C  
BRANCH   7   8
HETATM    8  O   UNL     1      -9.795   6.656  69.958  1.00  0.00    -0.165 OA 
BRANCH   8   9
HETATM    9  C   UNL     1      -9.092   6.875  68.814  1.00  0.00    -0.133 C  
HETATM   10  O   UNL     1      -8.589   5.992  68.142  1.00  0.00    -0.115 OA 
BRANCH   9  11
HETATM   11  C   UNL     1      -9.201   8.320  68.436  1.00  0.00    -0.135 A  
HETATM   12  C   UNL     1      -8.724   9.346  69.264  1.00  0.00    -0.145 A  
HETATM   13  C   UNL     1      -8.748  10.679  68.819  1.00  0.00    -0.157 A  
HETATM   14 CL   UNL     1      -8.055   9.094  70.839  1.00  0.00    -0.201 Cl 
HETATM   15  C   UNL     1      -9.274  11.022  67.574  1.00  0.00    -0.145 A  
HETATM   16  C   UNL     1      -9.688   9.998  66.726  1.00  0.00    -0.239 A  
HETATM   17  N   UNL     1      -9.167  12.328  67.094  1.00  0.00    -0.190 NA 
HETATM   18  H1  UNL     1      -9.551  12.579  66.183  1.00  0.00     0.000 HD 
HETATM   19  C   UNL     1      -9.678   8.668  67.157  1.00  0.00    -0.248 A  
HETATM   20  H2  UNL     1      -8.182  12.595  67.109  1.00  0.00     0.000 HD 
ENDBRANCH   9  11
ENDBRANCH   8   9
ENDBRANCH   7   8
ENDBRANCH   6   7
ENDBRANCH   3   6
ENDBRANCH   2   3
TORSDOF 7
ENDMDL
MODEL      221
REMARK 921   NORMALIZED FREE ENERGY PREDICTED BY IDOCK:   -3.36 KCAL/MOL
REMARK 922        TOTAL FREE ENERGY PREDICTED BY IDOCK:   -5.13 KCAL/MOL
REMARK 923 INTER-LIGAND FREE ENERGY PREDICTED BY IDOCK:   -4.57 KCAL/MOL
REMARK 924 INTRA-LIGAND FREE ENERGY PREDICTED BY IDOCK:   -0.56 KCAL/MOL
REMARK 927      BINDING AFFINITY PREDICTED BY RF-SCORE:    0.00 PKD
ROOT
HETATM    1  C   UNL     1      -8.363   6.018  65.121  1.00  0.00    -0.140 C  
HETATM    2  C   UNL     1      -7.799   7.434  65.117  1.00  0.00    -0.123 C  
ENDROOT
BRANCH   2   3
HETATM    3  N   UNL     1      -8.170   8.257  66.286  1.00  0.00    -0.108 NA 
BRANCH   3   4
HETATM    4  C   UNL     1      -7.100   9.160  66.742  1.00  0.00    -0.082 C  
HETATM    5  C   UNL     1      -7.224  10.624  66.328  1.00  0.00    -0.137 C  
ENDBRANCH   3   4
BRANCH   3   6
HETATM    6  C   UNL     1      -9.429   8.958  65.983  1.00  0.00    -0.252 C  
BRANCH   6   7
HETATM    7  C   UNL     1     -10.604   8.774  66.962  1.00  0.00    -0.213 C  
BRANCH   7   8
HETATM    8  O   UNL     1     -10.920  10.087  67.468  1.00  0.00    -0.288 OA 
BRANCH   8   9
HETATM    9  C   UNL     1     -10.460  10.325  68.726  1.00  0.00    -0.203 C  
HETATM   10  O   UNL     1      -9.596   9.663  69.273  1.00  0.00    -0.167 OA 
BRANCH   9  11
HETATM   11  C   UNL     1     -11.041  11.609  69.230  1.00  0.00    -0.291 A  
HETATM   12  C   UNL     1     -10.809  12.836  68.593  1.00  0.00    -0.253 A  
HETATM   13  C   UNL     1     -11.464  13.997  69.037  1.00  0.00    -0.337 A  
HETATM   14 CL   UNL     1      -9.761  13.042  67.232  1.00  0.00    -0.220 Cl 
HETATM   15  C   UNL     1     -12.325  13.972  70.134  1.00  0.00    -0.345 A  
HETATM   16  C   UNL     1     -12.607  12.745  70.727  1.00  0.00    -0.308 A  
HETATM   17  N   UNL     1     -13.070  15.103  70.477  1.00  0.00    -0.646 NA 
HETATM   18  H1  UNL     1     -13.700  15.085  71.279  1.00  0.00     0.000 HD 
HETATM   19  C   UNL     1     -11.957  11.582  70.301  1.00  0.00    -0.455 A  
HETATM   20  H2  UNL     1     -13.604  15.395  69.659  1.00  0.00     0.000 HD 
ENDBRANCH   9  11
ENDBRANCH   8   9
ENDBRANCH   7   8
ENDBRANCH   6   7
ENDBRANCH   3   6
ENDBRANCH   2   3
TORSDOF 7
ENDMDL
MODEL      222
REMARK 921   NORMALIZED FREE ENERGY PREDICTED BY IDOCK:   -3.36 KCAL/MOL
REMARK 922        TOTAL FREE ENERGY PREDICTED BY IDOCK:   -5.13 KCAL/MOL
REMARK 923 INTER-LIGAND FREE ENERGY PREDICTED BY IDOCK:   -4.73 KCAL/MOL
REMARK 924 INTRA-LIGAND FREE ENERGY PREDICTED BY IDOCK:   -0.39 KCAL/MOL
REMARK 927      BINDING AFFINITY PREDICTED BY RF-SCORE:    0.00 PKD
ROOT
HETATM    1  C   UNL     1      -6.414   9.921  68.975  1.00  0.00    -0.048 C  
HETATM    2  C   UNL     1      -7.813  10.442  69.278  1.00  0.00    -0.147 C  
ENDROOT
BRANCH   2   3
HETATM    3  N   UNL     1      -8.113  11.780  68.730  1.00  0.00    -0.096 NA 
BRANCH   3   4
HETATM    4  C   UNL     1      -6.948  12.453  68.130  1.00  0.00    -0.087 C  
HETATM    5  C   UNL     1      -6.303  13.561  68.958  1.00  0.00    -0.099 C  
ENDBRANCH   3   4
BRANCH   3   6
HETATM    6  C   UNL     1      -9.252  11.661  67.805  1.00  0.00    -0.178 C  
BRANCH   6   7
HETATM    7  C   UNL     1      -9.608  12.889  66.946  1.00  0.00    -0.240 C  
BRANCH   7   8
HETATM    8  O   UNL     1     -11.025  13.102  67.110  1.00  0.00    -0.261 OA 
BRANCH   8   9
HETATM    9  C   UNL     1     -11.371  14.399  67.336  1.00  0.00    -0.337 C  
HETATM   10  O   UNL     1     -11.621  15.202  66.454  1.00  0.00    -0.240 OA 
BRANCH   9  11
HETATM   11  C   UNL     1     -11.570  14.609  68.805  1.00  0.00    -0.346 A  
HETATM   12  C   UNL     1     -11.305  15.837  69.426  1.00  0.00    -0.348 A  
HETATM   13  C   UNL     1     -11.611  16.020  70.786  1.00  0.00    -0.431 A  
HETATM   14 CL   UNL     1     -10.634  17.211  68.618  1.00  0.00    -0.359 Cl 
HETATM   15  C   UNL     1     -12.143  14.988  71.557  1.00  0.00    -0.343 A  
HETATM   16  C   UNL     1     -12.466  13.788  70.927  1.00  0.00    -0.451 A  
HETATM   17  N   UNL     1     -12.565  15.225  72.867  1.00  0.00    -0.370 NA 
HETATM   18  H1  UNL     1     -12.955  14.471  73.431  1.00  0.00     0.000 HD 
HETATM   19  C   UNL     1     -12.161  13.589  69.577  1.00  0.00    -0.352 A  
HETATM   20  H2  UNL     1     -13.237  15.992  72.853  1.00  0.00     0.000 HD 
ENDBRANCH   9  11
ENDBRANCH   8   9
ENDBRANCH   7   8
ENDBRANCH   6   7
ENDBRANCH   3   6
ENDBRANCH   2   3
TORSDOF 7
ENDMDL
MODEL      223
REMARK 921   NORMALIZED FREE ENERGY PREDICTED BY IDOCK:   -3.36 KCAL/MOL
REMARK 922        TOTAL FREE ENERGY PREDICTED BY IDOCK:   -5.12 KCAL/MOL
REMARK 923 INTER-LIGAND FREE ENERGY PREDICTED BY IDOCK:   -4.77 KCAL/MOL
REMARK 924 INTRA-LIGAND FREE ENERGY PREDICTED BY IDOCK:   -0.36 KCAL/MOL
REMARK 927      BINDING AFFINITY PREDICTED BY RF-SCORE:    0.00 PKD
ROOT
HETATM    1  C   UNL     1     -11.678  14.182  67.728  1.00  0.00    -0.408 C  
HETATM    2  C   UNL     1     -11.796  14.004  66.219  1.00  0.00    -0.411 C  
ENDROOT
BRANCH   2   3
HETATM    3  N   UNL     1     -12.039  12.618  65.771  1.00  0.00    -0.544 NA 
BRANCH   3   4
HETATM    4  C   UNL     1     -11.566  12.343  64.404  1.00  0.00    -0.354 C  
HETATM    5  C   UNL     1     -12.618  11.874  63.402  1.00  0.00    -0.555 C  
ENDBRANCH   3   4
BRANCH   3   6
HETATM    6  C   UNL     1     -11.478  11.698  66.774  1.00  0.00    -0.225 C  
BRANCH   6   7
HETATM    7  C   UNL     1     -10.659  10.497  66.264  1.00  0.00    -0.133 C  
BRANCH   7   8
HETATM    8  O   UNL     1      -9.710  10.183  67.305  1.00  0.00    -0.159 OA 
BRANCH   8   9
HETATM    9  C   UNL     1     -10.148   9.250  68.193  1.00  0.00    -0.187 C  
HETATM   10  O   UNL     1     -10.798   9.509  69.191  1.00  0.00    -0.222 OA 
BRANCH   9  11
HETATM   11  C   UNL     1      -9.865   7.883  67.654  1.00  0.00    -0.212 A  
HETATM   12  C   UNL     1      -8.572   7.341  67.631  1.00  0.00    -0.126 A  
HETATM   13  C   UNL     1      -8.371   6.013  67.218  1.00  0.00    -0.105 A  
HETATM   14 CL   UNL     1      -7.150   8.198  68.117  1.00  0.00    -0.080 Cl 
HETATM   15  C   UNL     1      -9.431   5.216  66.787  1.00  0.00    -0.141 A  
HETATM   16  C   UNL     1     -10.722   5.731  66.869  1.00  0.00    -0.381 A  
HETATM   17  N   UNL     1      -9.234   3.862  66.509  1.00  0.00    -0.154 NA 
HETATM   18  H1  UNL     1     -10.009   3.279  66.194  1.00  0.00     0.000 HD 
HETATM   19  C   UNL     1     -10.938   7.052  67.271  1.00  0.00    -0.372 A  
HETATM   20  H2  UNL     1      -8.819   3.423  67.331  1.00  0.00     0.000 HD 
ENDBRANCH   9  11
ENDBRANCH   8   9
ENDBRANCH   7   8
ENDBRANCH   6   7
ENDBRANCH   3   6
ENDBRANCH   2   3
TORSDOF 7
ENDMDL
MODEL      224
REMARK 921   NORMALIZED FREE ENERGY PREDICTED BY IDOCK:   -3.34 KCAL/MOL
REMARK 922        TOTAL FREE ENERGY PREDICTED BY IDOCK:   -5.10 KCAL/MOL
REMARK 923 INTER-LIGAND FREE ENERGY PREDICTED BY IDOCK:   -4.66 KCAL/MOL
REMARK 924 INTRA-LIGAND FREE ENERGY PREDICTED BY IDOCK:   -0.44 KCAL/MOL
REMARK 927      BINDING AFFINITY PREDICTED BY RF-SCORE:    0.00 PKD
ROOT
HETATM    1  C   UNL     1     -10.900  16.172  65.362  1.00  0.00    -0.319 C  
HETATM    2  C   UNL     1     -11.442  15.269  64.260  1.00  0.00    -0.153 C  
ENDROOT
BRANCH   2   3
HETATM    3  N   UNL     1     -11.820  13.909  64.697  1.00  0.00    -0.387 NA 
BRANCH   3   4
HETATM    4  C   UNL     1     -12.256  13.031  63.598  1.00  0.00    -0.491 C  
HETATM    5  C   UNL     1     -11.283  11.933  63.179  1.00  0.00    -0.248 C  
ENDBRANCH   3   4
BRANCH   3   6
HETATM    6  C   UNL     1     -10.709  13.345  65.482  1.00  0.00    -0.294 C  
BRANCH   6   7
HETATM    7  C   UNL     1     -11.060  12.358  66.610  1.00  0.00    -0.289 C  
BRANCH   7   8
HETATM    8  O   UNL     1     -10.069  12.550  67.641  1.00  0.00    -0.210 OA 
BRANCH   8   9
HETATM    9  C   UNL     1     -10.507  13.276  68.705  1.00  0.00    -0.169 C  
HETATM   10  O   UNL     1     -11.054  12.794  69.682  1.00  0.00    -0.072 OA 
BRANCH   9  11
HETATM   11  C   UNL     1     -10.047  14.693  68.560  1.00  0.00    -0.238 A  
HETATM   12  C   UNL     1     -10.804  15.776  69.029  1.00  0.00    -0.248 A  
HETATM   13  C   UNL     1     -10.282  17.079  68.970  1.00  0.00    -0.313 A  
HETATM   14 CL   UNL     1     -12.379  15.631  69.730  1.00  0.00    -0.301 Cl 
HETATM   15  C   UNL     1      -9.028  17.337  68.416  1.00  0.00    -0.269 A  
HETATM   16  C   UNL     1      -8.250  16.257  68.008  1.00  0.00    -0.157 A  
HETATM   17  N   UNL     1      -8.470  18.615  68.487  1.00  0.00    -0.335 NA 
HETATM   18  H1  UNL     1      -7.553  18.803  68.082  1.00  0.00     0.000 HD 
HETATM   19  C   UNL     1      -8.758  14.955  68.054  1.00  0.00    -0.165 A  
HETATM   20  H2  UNL     1      -8.451  18.902  69.466  1.00  0.00     0.000 HD 
ENDBRANCH   9  11
ENDBRANCH   8   9
ENDBRANCH   7   8
ENDBRANCH   6   7
ENDBRANCH   3   6
ENDBRANCH   2   3
TORSDOF 7
ENDMDL
MODEL      225
REMARK 921   NORMALIZED FREE ENERGY PREDICTED BY IDOCK:   -3.34 KCAL/MOL
REMARK 922        TOTAL FREE ENERGY PREDICTED BY IDOCK:   -5.10 KCAL/MOL
REMARK 923 INTER-LIGAND FREE ENERGY PREDICTED BY IDOCK:   -4.48 KCAL/MOL
REMARK 924 INTRA-LIGAND FREE ENERGY PREDICTED BY IDOCK:   -0.62 KCAL/MOL
REMARK 927      BINDING AFFINITY PREDICTED BY RF-SCORE:    0.00 PKD
ROOT
HETATM    1  C   UNL     1      -9.388   8.604  69.925  1.00  0.00    -0.160 C  
HETATM    2  C   UNL     1     -10.162   9.567  70.817  1.00  0.00    -0.293 C  
ENDROOT
BRANCH   2   3
HETATM    3  N   UNL     1     -11.631   9.506  70.674  1.00  0.00    -0.277 NA 
BRANCH   3   4
HETATM    4  C   UNL     1     -12.296   8.696  71.710  1.00  0.00    -0.346 C  
HETATM    5  C   UNL     1     -13.743   9.063  72.033  1.00  0.00    -0.516 C  
ENDBRANCH   3   4
BRANCH   3   6
HETATM    6  C   UNL     1     -12.150  10.881  70.593  1.00  0.00    -0.371 C  
BRANCH   6   7
HETATM    7  C   UNL     1     -12.119  11.577  69.220  1.00  0.00    -0.278 C  
BRANCH   7   8
HETATM    8  O   UNL     1     -11.300  12.753  69.379  1.00  0.00    -0.250 OA 
BRANCH   8   9
HETATM    9  C   UNL     1     -10.770  13.225  68.218  1.00  0.00    -0.252 C  
HETATM   10  O   UNL     1     -10.902  14.370  67.823  1.00  0.00    -0.252 OA 
BRANCH   9  11
HETATM   11  C   UNL     1      -9.872  12.184  67.626  1.00  0.00    -0.194 A  
HETATM   12  C   UNL     1     -10.071  11.672  66.336  1.00  0.00    -0.214 A  
HETATM   13  C   UNL     1      -9.140  10.778  65.781  1.00  0.00    -0.208 A  
HETATM   14 CL   UNL     1     -11.407  12.089  65.319  1.00  0.00    -0.378 Cl 
HETATM   15  C   UNL     1      -8.025  10.349  66.499  1.00  0.00    -0.123 A  
HETATM   16  C   UNL     1      -7.792  10.904  67.755  1.00  0.00    -0.109 A  
HETATM   17  N   UNL     1      -7.042   9.569  65.887  1.00  0.00    -0.093 NA 
HETATM   18  H1  UNL     1      -6.226   9.255  66.412  1.00  0.00     0.000 HD 
HETATM   19  C   UNL     1      -8.713  11.789  68.324  1.00  0.00    -0.167 A  
HETATM   20  H2  UNL     1      -6.715  10.061  65.055  1.00  0.00     0.000 HD 
ENDBRANCH   9  11
ENDBRANCH   8   9
ENDBRANCH   7   8
ENDBRANCH   6   7
ENDBRANCH   3   6
ENDBRANCH   2   3
TORSDOF 7
ENDMDL
MODEL      226
REMARK 921   NORMALIZED FREE ENERGY PREDICTED BY IDOCK:   -3.33 KCAL/MOL
REMARK 922        TOTAL FREE ENERGY PREDICTED BY IDOCK:   -5.09 KCAL/MOL
REMARK 923 INTER-LIGAND FREE ENERGY PREDICTED BY IDOCK:   -4.47 KCAL/MOL
REMARK 924 INTRA-LIGAND FREE ENERGY PREDICTED BY IDOCK:   -0.62 KCAL/MOL
REMARK 927      BINDING AFFINITY PREDICTED BY RF-SCORE:    0.00 PKD
ROOT
HETATM    1  C   UNL     1     -12.032   9.391  70.616  1.00  0.00    -0.232 C  
HETATM    2  C   UNL     1     -10.890  10.328  70.245  1.00  0.00    -0.286 C  
ENDROOT
BRANCH   2   3
HETATM    3  N   UNL     1      -9.931   9.785  69.261  1.00  0.00    -0.181 NA 
BRANCH   3   4
HETATM    4  C   UNL     1      -8.851   8.984  69.863  1.00  0.00    -0.158 C  
HETATM    5  C   UNL     1      -7.433   9.529  69.707  1.00  0.00    -0.098 C  
ENDBRANCH   3   4
BRANCH   3   6
HETATM    6  C   UNL     1     -10.684   9.057  68.227  1.00  0.00    -0.103 C  
BRANCH   6   7
HETATM    7  C   UNL     1     -10.650   9.612  66.792  1.00  0.00    -0.139 C  
BRANCH   7   8
HETATM    8  O   UNL     1      -9.612  10.614  66.769  1.00  0.00    -0.164 OA 
BRANCH   8   9
HETATM    9  C   UNL     1      -9.777  11.565  65.810  1.00  0.00    -0.235 C  
HETATM   10  O   UNL     1      -9.746  11.340  64.613  1.00  0.00    -0.236 OA 
BRANCH   9  11
HETATM   11  C   UNL     1     -10.176  12.855  66.457  1.00  0.00    -0.264 A  
HETATM   12  C   UNL     1     -11.444  13.423  66.270  1.00  0.00    -0.325 A  
HETATM   13  C   UNL     1     -11.812  14.576  66.984  1.00  0.00    -0.408 A  
HETATM   14 CL   UNL     1     -12.652  12.779  65.213  1.00  0.00    -0.537 Cl 
HETATM   15  C   UNL     1     -10.927  15.204  67.859  1.00  0.00    -0.302 A  
HETATM   16  C   UNL     1      -9.691  14.606  68.094  1.00  0.00    -0.220 A  
HETATM   17  N   UNL     1     -11.352  16.267  68.660  1.00  0.00    -0.361 NA 
HETATM   18  H1  UNL     1     -10.705  16.726  69.300  1.00  0.00     0.000 HD 
HETATM   19  C   UNL     1      -9.308  13.463  67.385  1.00  0.00    -0.221 A  
HETATM   20  H2  UNL     1     -12.165  15.959  69.194  1.00  0.00     0.000 HD 
ENDBRANCH   9  11
ENDBRANCH   8   9
ENDBRANCH   7   8
ENDBRANCH   6   7
ENDBRANCH   3   6
ENDBRANCH   2   3
TORSDOF 7
ENDMDL
MODEL      227
REMARK 921   NORMALIZED FREE ENERGY PREDICTED BY IDOCK:   -3.32 KCAL/MOL
REMARK 922        TOTAL FREE ENERGY PREDICTED BY IDOCK:   -5.07 KCAL/MOL
REMARK 923 INTER-LIGAND FREE ENERGY PREDICTED BY IDOCK:   -4.62 KCAL/MOL
REMARK 924 INTRA-LIGAND FREE ENERGY PREDICTED BY IDOCK:   -0.44 KCAL/MOL
REMARK 927      BINDING AFFINITY PREDICTED BY RF-SCORE:    0.00 PKD
ROOT
HETATM    1  C   UNL     1      -7.959  11.568  68.624  1.00  0.00    -0.135 C  
HETATM    2  C   UNL     1      -9.175  12.418  68.279  1.00  0.00    -0.189 C  
ENDROOT
BRANCH   2   3
HETATM    3  N   UNL     1     -10.326  11.670  67.735  1.00  0.00    -0.179 NA 
BRANCH   3   4
HETATM    4  C   UNL     1     -11.538  12.488  67.556  1.00  0.00    -0.361 C  
HETATM    5  C   UNL     1     -11.936  13.378  68.730  1.00  0.00    -0.359 C  
ENDBRANCH   3   4
BRANCH   3   6
HETATM    6  C   UNL     1      -9.899  10.989  66.501  1.00  0.00    -0.203 C  
BRANCH   6   7
HETATM    7  C   UNL     1     -10.250   9.498  66.348  1.00  0.00    -0.232 C  
BRANCH   7   8
HETATM    8  O   UNL     1      -9.744   8.839  67.527  1.00  0.00    -0.153 OA 
BRANCH   8   9
HETATM    9  C   UNL     1     -10.342   7.647  67.799  1.00  0.00    -0.219 C  
HETATM   10  O   UNL     1     -10.433   6.731  67.001  1.00  0.00    -0.235 OA 
BRANCH   9  11
HETATM   11  C   UNL     1     -10.687   7.589  69.255  1.00  0.00    -0.185 A  
HETATM   12  C   UNL     1     -10.618   6.399  69.992  1.00  0.00    -0.236 A  
HETATM   13  C   UNL     1     -10.844   6.413  71.379  1.00  0.00    -0.301 A  
HETATM   14 CL   UNL     1     -10.233   4.855  69.313  1.00  0.00    -0.252 Cl 
HETATM   15  C   UNL     1     -11.177   7.590  72.050  1.00  0.00    -0.257 A  
HETATM   16  C   UNL     1     -11.183   8.783  71.331  1.00  0.00    -0.362 A  
HETATM   17  N   UNL     1     -11.266   7.612  73.443  1.00  0.00    -0.582 NA 
HETATM   18  H1  UNL     1     -11.508   8.472  73.934  1.00  0.00     0.000 HD 
HETATM   19  C   UNL     1     -10.967   8.782  69.950  1.00  0.00    -0.184 A  
HETATM   20  H2  UNL     1     -10.386   7.265  73.825  1.00  0.00     0.000 HD 
ENDBRANCH   9  11
ENDBRANCH   8   9
ENDBRANCH   7   8
ENDBRANCH   6   7
ENDBRANCH   3   6
ENDBRANCH   2   3
TORSDOF 7
ENDMDL
MODEL      228
REMARK 921   NORMALIZED FREE ENERGY PREDICTED BY IDOCK:   -3.30 KCAL/MOL
REMARK 922        TOTAL FREE ENERGY PREDICTED BY IDOCK:   -5.05 KCAL/MOL
REMARK 923 INTER-LIGAND FREE ENERGY PREDICTED BY IDOCK:   -4.05 KCAL/MOL
REMARK 924 INTRA-LIGAND FREE ENERGY PREDICTED BY IDOCK:   -1.00 KCAL/MOL
REMARK 927      BINDING AFFINITY PREDICTED BY RF-SCORE:    0.00 PKD
ROOT
HETATM    1  C   UNL     1     -11.021   6.561  68.234  1.00  0.00    -0.362 C  
HETATM    2  C   UNL     1      -9.506   6.508  68.082  1.00  0.00    -0.114 C  
ENDROOT
BRANCH   2   3
HETATM    3  N   UNL     1      -8.871   5.273  68.584  1.00  0.00    -0.096 NA 
BRANCH   3   4
HETATM    4  C   UNL     1      -8.435   4.353  67.519  1.00  0.00    -0.103 C  
HETATM    5  C   UNL     1      -9.170   4.460  66.186  1.00  0.00    -0.141 C  
ENDBRANCH   3   4
BRANCH   3   6
HETATM    6  C   UNL     1      -7.785   5.647  69.505  1.00  0.00    -0.091 C  
BRANCH   6   7
HETATM    7  C   UNL     1      -7.861   5.122  70.951  1.00  0.00    -0.096 C  
BRANCH   7   8
HETATM    8  O   UNL     1      -9.226   5.308  71.379  1.00  0.00    -0.142 OA 
BRANCH   8   9
HETATM    9  C   UNL     1      -9.370   6.177  72.416  1.00  0.00    -0.145 C  
HETATM   10  O   UNL     1      -8.666   6.177  73.411  1.00  0.00    -0.126 OA 
BRANCH   9  11
HETATM   11  C   UNL     1     -10.385   7.217  72.052  1.00  0.00    -0.214 A  
HETATM   12  C   UNL     1     -10.024   8.440  71.472  1.00  0.00    -0.217 A  
HETATM   13  C   UNL     1     -11.018   9.339  71.046  1.00  0.00    -0.390 A  
HETATM   14 CL   UNL     1      -8.393   8.945  71.199  1.00  0.00    -0.219 Cl 
HETATM   15  C   UNL     1     -12.373   9.061  71.219  1.00  0.00    -0.302 A  
HETATM   16  C   UNL     1     -12.734   7.819  71.737  1.00  0.00    -0.354 A  
HETATM   17  N   UNL     1     -13.346   9.899  70.671  1.00  0.00    -0.612 NA 
HETATM   18  H1  UNL     1     -14.337   9.695  70.798  1.00  0.00     0.000 HD 
HETATM   19  C   UNL     1     -11.757   6.919  72.172  1.00  0.00    -0.327 A  
HETATM   20  H2  UNL     1     -13.165   9.989  69.671  1.00  0.00     0.000 HD 
ENDBRANCH   9  11
ENDBRANCH   8   9
ENDBRANCH   7   8
ENDBRANCH   6   7
ENDBRANCH   3   6
ENDBRANCH   2   3
TORSDOF 7
ENDMDL
MODEL      229
REMARK 921   NORMALIZED FREE ENERGY PREDICTED BY IDOCK:   -3.30 KCAL/MOL
REMARK 922        TOTAL FREE ENERGY PREDICTED BY IDOCK:   -5.05 KCAL/MOL
REMARK 923 INTER-LIGAND FREE ENERGY PREDICTED BY IDOCK:   -4.77 KCAL/MOL
REMARK 924 INTRA-LIGAND FREE ENERGY PREDICTED BY IDOCK:   -0.28 KCAL/MOL
REMARK 927      BINDING AFFINITY PREDICTED BY RF-SCORE:    0.00 PKD
ROOT
HETATM    1  C   UNL     1      -9.475   7.521  67.269  1.00  0.00    -0.186 C  
HETATM    2  C   UNL     1     -10.277   8.814  67.192  1.00  0.00    -0.276 C  
ENDROOT
BRANCH   2   3
HETATM    3  N   UNL     1     -10.813   9.293  68.482  1.00  0.00    -0.131 NA 
BRANCH   3   4
HETATM    4  C   UNL     1     -10.658   8.331  69.586  1.00  0.00    -0.222 C  
HETATM    5  C   UNL     1     -10.561   8.919  70.992  1.00  0.00    -0.315 C  
ENDBRANCH   3   4
BRANCH   3   6
HETATM    6  C   UNL     1     -10.221  10.609  68.774  1.00  0.00    -0.190 C  
BRANCH   6   7
HETATM    7  C   UNL     1      -8.735  10.818  68.425  1.00  0.00    -0.142 C  
BRANCH   7   8
HETATM    8  O   UNL     1      -8.654  12.087  67.743  1.00  0.00    -0.143 OA 
BRANCH   8   9
HETATM    9  C   UNL     1      -8.610  11.989  66.387  1.00  0.00    -0.037 C  
HETATM   10  O   UNL     1      -7.866  11.239  65.780  1.00  0.00     0.008 OA 
BRANCH   9  11
HETATM   11  C   UNL     1      -9.727  12.794  65.798  1.00  0.00    -0.167 A  
HETATM   12  C   UNL     1      -9.998  14.107  66.207  1.00  0.00    -0.303 A  
HETATM   13  C   UNL     1     -10.985  14.861  65.549  1.00  0.00    -0.355 A  
HETATM   14 CL   UNL     1      -9.165  14.919  67.487  1.00  0.00    -0.189 Cl 
HETATM   15  C   UNL     1     -11.740  14.321  64.509  1.00  0.00    -0.418 A  
HETATM   16  C   UNL     1     -11.429  13.041  64.059  1.00  0.00    -0.473 A  
HETATM   17  N   UNL     1     -12.620  15.124  63.779  1.00  0.00    -0.899 NA 
HETATM   18  H1  UNL     1     -13.172  14.730  63.018  1.00  0.00     0.000 HD 
HETATM   19  C   UNL     1     -10.456  12.276  64.709  1.00  0.00    -0.328 A  
HETATM   20  H2  UNL     1     -12.097  15.921  63.414  1.00  0.00     0.000 HD 
ENDBRANCH   9  11
ENDBRANCH   8   9
ENDBRANCH   7   8
ENDBRANCH   6   7
ENDBRANCH   3   6
ENDBRANCH   2   3
TORSDOF 7
ENDMDL
MODEL      230
REMARK 921   NORMALIZED FREE ENERGY PREDICTED BY IDOCK:   -3.28 KCAL/MOL
REMARK 922        TOTAL FREE ENERGY PREDICTED BY IDOCK:   -5.01 KCAL/MOL
REMARK 923 INTER-LIGAND FREE ENERGY PREDICTED BY IDOCK:   -4.45 KCAL/MOL
REMARK 924 INTRA-LIGAND FREE ENERGY PREDICTED BY IDOCK:   -0.57 KCAL/MOL
REMARK 927      BINDING AFFINITY PREDICTED BY RF-SCORE:    0.00 PKD
ROOT
HETATM    1  C   UNL     1      -7.222   4.334  65.974  1.00  0.00    -0.072 C  
HETATM    2  C   UNL     1      -7.022   5.226  67.192  1.00  0.00    -0.065 C  
ENDROOT
BRANCH   2   3
HETATM    3  N   UNL     1      -7.927   4.947  68.326  1.00  0.00    -0.085 NA 
BRANCH   3   4
HETATM    4  C   UNL     1      -7.781   3.592  68.884  1.00  0.00    -0.052 C  
HETATM    5  C   UNL     1      -7.002   3.475  70.191  1.00  0.00    -0.034 C  
ENDBRANCH   3   4
BRANCH   3   6
HETATM    6  C   UNL     1      -7.755   6.008  69.332  1.00  0.00    -0.098 C  
BRANCH   6   7
HETATM    7  C   UNL     1      -7.760   7.468  68.841  1.00  0.00    -0.115 C  
BRANCH   7   8
HETATM    8  O   UNL     1      -8.675   8.182  69.697  1.00  0.00    -0.139 OA 
BRANCH   8   9
HETATM    9  C   UNL     1      -9.806   8.607  69.072  1.00  0.00    -0.182 C  
HETATM   10  O   UNL     1      -9.890   8.806  67.873  1.00  0.00    -0.156 OA 
BRANCH   9  11
HETATM   11  C   UNL     1     -10.940   8.608  70.050  1.00  0.00    -0.208 A  
HETATM   12  C   UNL     1     -11.596   7.430  70.432  1.00  0.00    -0.183 A  
HETATM   13  C   UNL     1     -12.581   7.465  71.435  1.00  0.00    -0.405 A  
HETATM   14 CL   UNL     1     -11.262   5.869  69.766  1.00  0.00    -0.433 Cl 
HETATM   15  C   UNL     1     -12.957   8.662  72.045  1.00  0.00    -0.378 A  
HETATM   16  C   UNL     1     -12.261   9.821  71.712  1.00  0.00    -0.449 A  
HETATM   17  N   UNL     1     -13.836   8.660  73.129  1.00  0.00    -0.975 NA 
HETATM   18  H1  UNL     1     -14.111   9.535  73.575  1.00  0.00     0.000 HD 
HETATM   19  C   UNL     1     -11.285   9.803  70.711  1.00  0.00    -0.419 A  
HETATM   20  H2  UNL     1     -13.459   8.041  73.847  1.00  0.00     0.000 HD 
ENDBRANCH   9  11
ENDBRANCH   8   9
ENDBRANCH   7   8
ENDBRANCH   6   7
ENDBRANCH   3   6
ENDBRANCH   2   3
TORSDOF 7
ENDMDL
MODEL      231
REMARK 921   NORMALIZED FREE ENERGY PREDICTED BY IDOCK:   -3.26 KCAL/MOL
REMARK 922        TOTAL FREE ENERGY PREDICTED BY IDOCK:   -4.99 KCAL/MOL
REMARK 923 INTER-LIGAND FREE ENERGY PREDICTED BY IDOCK:   -4.44 KCAL/MOL
REMARK 924 INTRA-LIGAND FREE ENERGY PREDICTED BY IDOCK:   -0.54 KCAL/MOL
REMARK 927      BINDING AFFINITY PREDICTED BY RF-SCORE:    0.00 PKD
ROOT
HETATM    1  C   UNL     1      -8.323  11.090  68.284  1.00  0.00    -0.133 C  
HETATM    2  C   UNL     1      -9.331  11.741  67.345  1.00  0.00    -0.174 C  
ENDROOT
BRANCH   2   3
HETATM    3  N   UNL     1     -10.213  10.800  66.625  1.00  0.00    -0.225 NA 
BRANCH   3   4
HETATM    4  C   UNL     1     -10.769  11.344  65.374  1.00  0.00    -0.253 C  
HETATM    5  C   UNL     1     -10.033  10.977  64.088  1.00  0.00    -0.385 C  
ENDBRANCH   3   4
BRANCH   3   6
HETATM    6  C   UNL     1      -9.486   9.534  66.433  1.00  0.00    -0.195 C  
BRANCH   6   7
HETATM    7  C   UNL     1     -10.262   8.223  66.659  1.00  0.00    -0.263 C  
BRANCH   7   8
HETATM    8  O   UNL     1     -10.531   8.148  68.074  1.00  0.00    -0.216 OA 
BRANCH   8   9
HETATM    9  C   UNL     1     -10.922   6.918  68.502  1.00  0.00    -0.136 C  
HETATM   10  O   UNL     1     -11.133   5.972  67.763  1.00  0.00    -0.300 OA 
BRANCH   9  11
HETATM   11  C   UNL     1     -10.868   6.875  69.998  1.00  0.00    -0.299 A  
HETATM   12  C   UNL     1      -9.658   6.768  70.698  1.00  0.00    -0.169 A  
HETATM   13  C   UNL     1      -9.647   6.843  72.102  1.00  0.00    -0.154 A  
HETATM   14 CL   UNL     1      -8.112   6.573  69.947  1.00  0.00    -0.119 Cl 
HETATM   15  C   UNL     1     -10.826   6.986  72.833  1.00  0.00    -0.301 A  
HETATM   16  C   UNL     1     -12.020   7.156  72.137  1.00  0.00    -0.304 A  
HETATM   17  N   UNL     1     -10.785   7.193  74.213  1.00  0.00    -0.444 NA 
HETATM   18  H1  UNL     1     -11.647   7.298  74.747  1.00  0.00     0.000 HD 
HETATM   19  C   UNL     1     -12.048   7.076  70.741  1.00  0.00    -0.374 A  
HETATM   20  H2  UNL     1     -10.195   8.005  74.397  1.00  0.00     0.000 HD 
ENDBRANCH   9  11
ENDBRANCH   8   9
ENDBRANCH   7   8
ENDBRANCH   6   7
ENDBRANCH   3   6
ENDBRANCH   2   3
TORSDOF 7
ENDMDL
MODEL      232
REMARK 921   NORMALIZED FREE ENERGY PREDICTED BY IDOCK:   -3.22 KCAL/MOL
REMARK 922        TOTAL FREE ENERGY PREDICTED BY IDOCK:   -4.93 KCAL/MOL
REMARK 923 INTER-LIGAND FREE ENERGY PREDICTED BY IDOCK:   -4.58 KCAL/MOL
REMARK 924 INTRA-LIGAND FREE ENERGY PREDICTED BY IDOCK:   -0.35 KCAL/MOL
REMARK 927      BINDING AFFINITY PREDICTED BY RF-SCORE:    0.00 PKD
ROOT
HETATM    1  C   UNL     1      -8.400   9.738  70.311  1.00  0.00    -0.172 C  
HETATM    2  C   UNL     1      -9.172   9.371  69.051  1.00  0.00    -0.145 C  
ENDROOT
BRANCH   2   3
HETATM    3  N   UNL     1     -10.598   9.756  69.057  1.00  0.00    -0.213 NA 
BRANCH   3   4
HETATM    4  C   UNL     1     -11.200   9.789  70.401  1.00  0.00    -0.300 C  
HETATM    5  C   UNL     1     -12.545  10.501  70.526  1.00  0.00    -0.423 C  
ENDBRANCH   3   4
BRANCH   3   6
HETATM    6  C   UNL     1     -10.741  11.028  68.328  1.00  0.00    -0.196 C  
BRANCH   6   7
HETATM    7  C   UNL     1      -9.479  11.629  67.683  1.00  0.00    -0.177 C  
BRANCH   7   8
HETATM    8  O   UNL     1      -9.397  12.993  68.146  1.00  0.00    -0.209 OA 
BRANCH   8   9
HETATM    9  C   UNL     1      -8.517  13.764  67.452  1.00  0.00    -0.202 C  
HETATM   10  O   UNL     1      -7.400  13.402  67.126  1.00  0.00    -0.082 OA 
BRANCH   9  11
HETATM   11  C   UNL     1      -9.203  15.020  67.010  1.00  0.00    -0.246 A  
HETATM   12  C   UNL     1      -9.065  16.230  67.704  1.00  0.00    -0.194 A  
HETATM   13  C   UNL     1      -9.638  17.406  67.191  1.00  0.00    -0.265 A  
HETATM   14 CL   UNL     1      -8.190  16.408  69.185  1.00  0.00    -0.226 Cl 
HETATM   15  C   UNL     1     -10.382  17.399  66.011  1.00  0.00    -0.304 A  
HETATM   16  C   UNL     1     -10.465  16.212  65.288  1.00  0.00    -0.356 A  
HETATM   17  N   UNL     1     -10.828  18.595  65.446  1.00  0.00    -0.488 NA 
HETATM   18  H1  UNL     1     -11.372  18.591  64.583  1.00  0.00     0.000 HD 
HETATM   19  C   UNL     1      -9.907  15.032  65.790  1.00  0.00    -0.386 A  
HETATM   20  H2  UNL     1     -10.022  19.206  65.311  1.00  0.00     0.000 HD 
ENDBRANCH   9  11
ENDBRANCH   8   9
ENDBRANCH   7   8
ENDBRANCH   6   7
ENDBRANCH   3   6
ENDBRANCH   2   3
TORSDOF 7
ENDMDL
MODEL      233
REMARK 921   NORMALIZED FREE ENERGY PREDICTED BY IDOCK:   -3.19 KCAL/MOL
REMARK 922        TOTAL FREE ENERGY PREDICTED BY IDOCK:   -4.88 KCAL/MOL
REMARK 923 INTER-LIGAND FREE ENERGY PREDICTED BY IDOCK:   -4.45 KCAL/MOL
REMARK 924 INTRA-LIGAND FREE ENERGY PREDICTED BY IDOCK:   -0.43 KCAL/MOL
REMARK 927      BINDING AFFINITY PREDICTED BY RF-SCORE:    0.00 PKD
ROOT
HETATM    1  C   UNL     1     -11.007  15.445  65.638  1.00  0.00    -0.330 C  
HETATM    2  C   UNL     1     -11.648  14.492  66.639  1.00  0.00    -0.375 C  
ENDROOT
BRANCH   2   3
HETATM    3  N   UNL     1     -11.113  14.578  68.014  1.00  0.00    -0.267 NA 
BRANCH   3   4
HETATM    4  C   UNL     1     -12.009  15.266  68.959  1.00  0.00    -0.276 C  
HETATM    5  C   UNL     1     -11.337  16.102  70.046  1.00  0.00    -0.332 C  
ENDBRANCH   3   4
BRANCH   3   6
HETATM    6  C   UNL     1     -10.738  13.224  68.454  1.00  0.00    -0.257 C  
BRANCH   6   7
HETATM    7  C   UNL     1      -9.520  12.565  67.780  1.00  0.00    -0.197 C  
BRANCH   7   8
HETATM    8  O   UNL     1     -10.032  11.456  67.012  1.00  0.00    -0.196 OA 
BRANCH   8   9
HETATM    9  C   UNL     1      -9.114  10.484  66.759  1.00  0.00    -0.151 C  
HETATM   10  O   UNL     1      -8.077  10.666  66.146  1.00  0.00    -0.143 OA 
BRANCH   9  11
HETATM   11  C   UNL     1      -9.496   9.240  67.500  1.00  0.00    -0.160 A  
HETATM   12  C   UNL     1      -9.162   9.040  68.846  1.00  0.00    -0.140 A  
HETATM   13  C   UNL     1      -9.636   7.908  69.530  1.00  0.00    -0.160 A  
HETATM   14 CL   UNL     1      -8.198  10.130  69.781  1.00  0.00    -0.182 Cl 
HETATM   15  C   UNL     1     -10.412   6.942  68.889  1.00  0.00    -0.208 A  
HETATM   16  C   UNL     1     -10.798   7.171  67.571  1.00  0.00    -0.311 A  
HETATM   17  N   UNL     1     -10.986   5.896  69.615  1.00  0.00    -0.376 NA 
HETATM   18  H1  UNL     1     -11.553   5.190  69.147  1.00  0.00     0.000 HD 
HETATM   19  C   UNL     1     -10.328   8.289  66.876  1.00  0.00    -0.391 A  
HETATM   20  H2  UNL     1     -11.538   6.297  70.373  1.00  0.00     0.000 HD 
ENDBRANCH   9  11
ENDBRANCH   8   9
ENDBRANCH   7   8
ENDBRANCH   6   7
ENDBRANCH   3   6
ENDBRANCH   2   3
TORSDOF 7
ENDMDL
MODEL      234
REMARK 921   NORMALIZED FREE ENERGY PREDICTED BY IDOCK:   -3.18 KCAL/MOL
REMARK 922        TOTAL FREE ENERGY PREDICTED BY IDOCK:   -4.87 KCAL/MOL
REMARK 923 INTER-LIGAND FREE ENERGY PREDICTED BY IDOCK:   -4.56 KCAL/MOL
REMARK 924 INTRA-LIGAND FREE ENERGY PREDICTED BY IDOCK:   -0.32 KCAL/MOL
REMARK 927      BINDING AFFINITY PREDICTED BY RF-SCORE:    0.00 PKD
ROOT
HETATM    1  C   UNL     1     -10.835  19.423  65.780  1.00  0.00    -0.375 C  
HETATM    2  C   UNL     1     -10.080  18.393  66.611  1.00  0.00    -0.380 C  
ENDROOT
BRANCH   2   3
HETATM    3  N   UNL     1      -8.671  18.733  66.896  1.00  0.00    -0.284 NA 
BRANCH   3   4
HETATM    4  C   UNL     1      -8.426  19.130  68.293  1.00  0.00    -0.332 C  
HETATM    5  C   UNL     1      -7.026  18.861  68.839  1.00  0.00    -0.342 C  
ENDBRANCH   3   4
BRANCH   3   6
HETATM    6  C   UNL     1      -7.823  17.613  66.455  1.00  0.00    -0.283 C  
BRANCH   6   7
HETATM    7  C   UNL     1      -8.444  16.204  66.450  1.00  0.00    -0.334 C  
BRANCH   7   8
HETATM    8  O   UNL     1      -7.955  15.541  67.634  1.00  0.00    -0.132 OA 
BRANCH   8   9
HETATM    9  C   UNL     1      -7.653  14.227  67.453  1.00  0.00    -0.163 C  
HETATM   10  O   UNL     1      -6.534  13.811  67.208  1.00  0.00    -0.281 OA 
BRANCH   9  11
HETATM   11  C   UNL     1      -8.853  13.394  67.780  1.00  0.00    -0.199 A  
HETATM   12  C   UNL     1      -9.064  12.131  67.210  1.00  0.00    -0.181 A  
HETATM   13  C   UNL     1     -10.147  11.339  67.631  1.00  0.00    -0.201 A  
HETATM   14 CL   UNL     1      -8.045  11.425  66.004  1.00  0.00    -0.023 Cl 
HETATM   15  C   UNL     1     -11.054  11.795  68.587  1.00  0.00    -0.238 A  
HETATM   16  C   UNL     1     -10.810  13.021  69.200  1.00  0.00    -0.133 A  
HETATM   17  N   UNL     1     -12.042  10.946  69.090  1.00  0.00    -0.606 NA 
HETATM   18  H1  UNL     1     -12.704  11.278  69.790  1.00  0.00     0.000 HD 
HETATM   19  C   UNL     1      -9.741  13.823  68.787  1.00  0.00    -0.069 A  
HETATM   20  H2  UNL     1     -11.588  10.107  69.454  1.00  0.00     0.000 HD 
ENDBRANCH   9  11
ENDBRANCH   8   9
ENDBRANCH   7   8
ENDBRANCH   6   7
ENDBRANCH   3   6
ENDBRANCH   2   3
TORSDOF 7
ENDMDL
MODEL      235
REMARK 921   NORMALIZED FREE ENERGY PREDICTED BY IDOCK:   -3.18 KCAL/MOL
REMARK 922        TOTAL FREE ENERGY PREDICTED BY IDOCK:   -4.87 KCAL/MOL
REMARK 923 INTER-LIGAND FREE ENERGY PREDICTED BY IDOCK:   -4.68 KCAL/MOL
REMARK 924 INTRA-LIGAND FREE ENERGY PREDICTED BY IDOCK:   -0.20 KCAL/MOL
REMARK 927      BINDING AFFINITY PREDICTED BY RF-SCORE:    0.00 PKD
ROOT
HETATM    1  C   UNL     1      -9.592   7.175  67.777  1.00  0.00    -0.146 C  
HETATM    2  C   UNL     1      -9.627   8.482  66.996  1.00  0.00    -0.188 C  
ENDROOT
BRANCH   2   3
HETATM    3  N   UNL     1      -8.430   9.333  67.148  1.00  0.00    -0.123 NA 
BRANCH   3   4
HETATM    4  C   UNL     1      -7.298   8.926  66.298  1.00  0.00    -0.087 C  
HETATM    5  C   UNL     1      -7.644   8.446  64.891  1.00  0.00    -0.100 C  
ENDBRANCH   3   4
BRANCH   3   6
HETATM    6  C   UNL     1      -8.827  10.737  66.950  1.00  0.00    -0.140 C  
BRANCH   6   7
HETATM    7  C   UNL     1     -10.022  11.018  66.020  1.00  0.00    -0.237 C  
BRANCH   7   8
HETATM    8  O   UNL     1     -10.934  11.847  66.771  1.00  0.00    -0.263 OA 
BRANCH   8   9
HETATM    9  C   UNL     1     -10.659  13.178  66.705  1.00  0.00    -0.279 C  
HETATM   10  O   UNL     1     -10.225  13.737  65.713  1.00  0.00    -0.294 OA 
BRANCH   9  11
HETATM   11  C   UNL     1     -11.143  13.845  67.955  1.00  0.00    -0.278 A  
HETATM   12  C   UNL     1     -11.255  15.238  68.063  1.00  0.00    -0.326 A  
HETATM   13  C   UNL     1     -11.818  15.813  69.215  1.00  0.00    -0.358 A  
HETATM   14 CL   UNL     1     -10.765  16.352  66.834  1.00  0.00    -0.258 Cl 
HETATM   15  C   UNL     1     -12.242  15.028  70.287  1.00  0.00    -0.340 A  
HETATM   16  C   UNL     1     -12.191  13.643  70.156  1.00  0.00    -0.413 A  
HETATM   17  N   UNL     1     -12.920  15.604  71.364  1.00  0.00    -0.481 NA 
HETATM   18  H1  UNL     1     -13.230  15.030  72.148  1.00  0.00     0.000 HD 
HETATM   19  C   UNL     1     -11.626  13.057  69.019  1.00  0.00    -0.367 A  
HETATM   20  H2  UNL     1     -13.728  16.110  71.000  1.00  0.00     0.000 HD 
ENDBRANCH   9  11
ENDBRANCH   8   9
ENDBRANCH   7   8
ENDBRANCH   6   7
ENDBRANCH   3   6
ENDBRANCH   2   3
TORSDOF 7
ENDMDL
MODEL      236
REMARK 921   NORMALIZED FREE ENERGY PREDICTED BY IDOCK:   -3.18 KCAL/MOL
REMARK 922        TOTAL FREE ENERGY PREDICTED BY IDOCK:   -4.87 KCAL/MOL
REMARK 923 INTER-LIGAND FREE ENERGY PREDICTED BY IDOCK:   -4.51 KCAL/MOL
REMARK 924 INTRA-LIGAND FREE ENERGY PREDICTED BY IDOCK:   -0.36 KCAL/MOL
REMARK 927      BINDING AFFINITY PREDICTED BY RF-SCORE:    0.00 PKD
ROOT
HETATM    1  C   UNL     1      -5.370  12.395  67.170  1.00  0.00    -0.019 C  
HETATM    2  C   UNL     1      -6.550  12.449  68.133  1.00  0.00    -0.073 C  
ENDROOT
BRANCH   2   3
HETATM    3  N   UNL     1      -6.922  13.804  68.589  1.00  0.00    -0.096 NA 
BRANCH   3   4
HETATM    4  C   UNL     1      -5.771  14.700  68.794  1.00  0.00    -0.086 C  
HETATM    5  C   UNL     1      -5.826  16.049  68.081  1.00  0.00    -0.118 C  
ENDBRANCH   3   4
BRANCH   3   6
HETATM    6  C   UNL     1      -7.923  14.351  67.659  1.00  0.00    -0.179 C  
BRANCH   6   7
HETATM    7  C   UNL     1      -9.163  13.490  67.354  1.00  0.00    -0.223 C  
BRANCH   7   8
HETATM    8  O   UNL     1     -10.260  14.088  68.075  1.00  0.00    -0.228 OA 
BRANCH   8   9
HETATM    9  C   UNL     1     -11.075  14.861  67.307  1.00  0.00    -0.336 C  
HETATM   10  O   UNL     1     -12.069  14.448  66.735  1.00  0.00    -0.424 OA 
BRANCH   9  11
HETATM   11  C   UNL     1     -10.661  16.294  67.435  1.00  0.00    -0.307 A  
HETATM   12  C   UNL     1     -10.560  16.934  68.677  1.00  0.00    -0.360 A  
HETATM   13  C   UNL     1     -10.062  18.246  68.757  1.00  0.00    -0.393 A  
HETATM   14 CL   UNL     1     -10.988  16.204  70.186  1.00  0.00    -0.358 Cl 
HETATM   15  C   UNL     1      -9.693  18.955  67.614  1.00  0.00    -0.314 A  
HETATM   16  C   UNL     1      -9.732  18.299  66.386  1.00  0.00    -0.334 A  
HETATM   17  N   UNL     1      -9.076  20.203  67.721  1.00  0.00    -0.325 NA 
HETATM   18  H1  UNL     1      -8.806  20.721  66.885  1.00  0.00     0.000 HD 
HETATM   19  C   UNL     1     -10.233  16.997  66.291  1.00  0.00    -0.336 A  
HETATM   20  H2  UNL     1      -8.252  20.103  68.314  1.00  0.00     0.000 HD 
ENDBRANCH   9  11
ENDBRANCH   8   9
ENDBRANCH   7   8
ENDBRANCH   6   7
ENDBRANCH   3   6
ENDBRANCH   2   3
TORSDOF 7
ENDMDL
MODEL      237
REMARK 921   NORMALIZED FREE ENERGY PREDICTED BY IDOCK:   -3.17 KCAL/MOL
REMARK 922        TOTAL FREE ENERGY PREDICTED BY IDOCK:   -4.86 KCAL/MOL
REMARK 923 INTER-LIGAND FREE ENERGY PREDICTED BY IDOCK:   -4.29 KCAL/MOL
REMARK 924 INTRA-LIGAND FREE ENERGY PREDICTED BY IDOCK:   -0.57 KCAL/MOL
REMARK 927      BINDING AFFINITY PREDICTED BY RF-SCORE:    0.00 PKD
ROOT
HETATM    1  C   UNL     1     -12.335  13.378  65.028  1.00  0.00    -0.481 C  
HETATM    2  C   UNL     1     -12.166  13.312  66.541  1.00  0.00    -0.327 C  
ENDROOT
BRANCH   2   3
HETATM    3  N   UNL     1     -10.793  13.022  67.004  1.00  0.00    -0.258 NA 
BRANCH   3   4
HETATM    4  C   UNL     1     -10.591  13.248  68.445  1.00  0.00    -0.252 C  
HETATM    5  C   UNL     1     -11.846  13.509  69.274  1.00  0.00    -0.392 C  
ENDBRANCH   3   4
BRANCH   3   6
HETATM    6  C   UNL     1     -10.434  11.660  66.575  1.00  0.00    -0.239 C  
BRANCH   6   7
HETATM    7  C   UNL     1     -10.908  10.486  67.453  1.00  0.00    -0.291 C  
BRANCH   7   8
HETATM    8  O   UNL     1      -9.766   9.621  67.623  1.00  0.00    -0.143 OA 
BRANCH   8   9
HETATM    9  C   UNL     1      -9.197   9.686  68.857  1.00  0.00    -0.147 C  
HETATM   10  O   UNL     1      -8.666  10.685  69.312  1.00  0.00    -0.149 OA 
BRANCH   9  11
HETATM   11  C   UNL     1      -9.492   8.424  69.605  1.00  0.00    -0.166 A  
HETATM   12  C   UNL     1     -10.536   8.334  70.536  1.00  0.00    -0.210 A  
HETATM   13  C   UNL     1     -10.846   7.100  71.132  1.00  0.00    -0.261 A  
HETATM   14 CL   UNL     1     -11.534   9.665  71.011  1.00  0.00    -0.409 Cl 
HETATM   15  C   UNL     1     -10.110   5.949  70.849  1.00  0.00    -0.197 A  
HETATM   16  C   UNL     1      -9.115   6.023  69.877  1.00  0.00    -0.147 A  
HETATM   17  N   UNL     1     -10.513   4.708  71.344  1.00  0.00    -0.081 NA 
HETATM   18  H1  UNL     1      -9.976   3.867  71.136  1.00  0.00     0.000 HD 
HETATM   19  C   UNL     1      -8.791   7.245  69.281  1.00  0.00    -0.136 A  
HETATM   20  H2  UNL     1     -11.479   4.548  71.057  1.00  0.00     0.000 HD 
ENDBRANCH   9  11
ENDBRANCH   8   9
ENDBRANCH   7   8
ENDBRANCH   6   7
ENDBRANCH   3   6
ENDBRANCH   2   3
TORSDOF 7
ENDMDL
MODEL      238
REMARK 921   NORMALIZED FREE ENERGY PREDICTED BY IDOCK:   -3.17 KCAL/MOL
REMARK 922        TOTAL FREE ENERGY PREDICTED BY IDOCK:   -4.86 KCAL/MOL
REMARK 923 INTER-LIGAND FREE ENERGY PREDICTED BY IDOCK:   -4.43 KCAL/MOL
REMARK 924 INTRA-LIGAND FREE ENERGY PREDICTED BY IDOCK:   -0.43 KCAL/MOL
REMARK 927      BINDING AFFINITY PREDICTED BY RF-SCORE:    0.00 PKD
ROOT
HETATM    1  C   UNL     1     -11.847  15.104  70.093  1.00  0.00    -0.351 C  
HETATM    2  C   UNL     1     -11.746  16.123  68.965  1.00  0.00    -0.254 C  
ENDROOT
BRANCH   2   3
HETATM    3  N   UNL     1     -10.518  16.031  68.149  1.00  0.00    -0.260 NA 
BRANCH   3   4
HETATM    4  C   UNL     1      -9.279  15.971  68.942  1.00  0.00    -0.233 C  
HETATM    5  C   UNL     1      -8.289  17.116  68.743  1.00  0.00    -0.236 C  
ENDBRANCH   3   4
BRANCH   3   6
HETATM    6  C   UNL     1     -10.662  14.901  67.215  1.00  0.00    -0.294 C  
BRANCH   6   7
HETATM    7  C   UNL     1      -9.441  13.986  67.005  1.00  0.00    -0.250 C  
BRANCH   7   8
HETATM    8  O   UNL     1      -9.838  12.672  67.450  1.00  0.00    -0.201 OA 
BRANCH   8   9
HETATM    9  C   UNL     1      -9.020  11.671  67.026  1.00  0.00    -0.182 C  
HETATM   10  O   UNL     1      -7.877  11.840  66.640  1.00  0.00    -0.132 OA 
BRANCH   9  11
HETATM   11  C   UNL     1      -9.680  10.352  67.284  1.00  0.00    -0.195 A  
HETATM   12  C   UNL     1      -9.796   9.368  66.293  1.00  0.00    -0.281 A  
HETATM   13  C   UNL     1     -10.323   8.104  66.612  1.00  0.00    -0.284 A  
HETATM   14 CL   UNL     1      -9.296   9.578  64.650  1.00  0.00    -0.267 Cl 
HETATM   15  C   UNL     1     -10.776   7.808  67.897  1.00  0.00    -0.097 A  
HETATM   16  C   UNL     1     -10.603   8.762  68.897  1.00  0.00    -0.178 A  
HETATM   17  N   UNL     1     -11.171   6.510  68.229  1.00  0.00    -0.548 NA 
HETATM   18  H1  UNL     1     -11.502   6.293  69.168  1.00  0.00     0.000 HD 
HETATM   19  C   UNL     1     -10.087  10.025  68.593  1.00  0.00    -0.187 A  
HETATM   20  H2  UNL     1     -10.403   5.876  68.007  1.00  0.00     0.000 HD 
ENDBRANCH   9  11
ENDBRANCH   8   9
ENDBRANCH   7   8
ENDBRANCH   6   7
ENDBRANCH   3   6
ENDBRANCH   2   3
TORSDOF 7
ENDMDL
MODEL      239
REMARK 921   NORMALIZED FREE ENERGY PREDICTED BY IDOCK:   -3.17 KCAL/MOL
REMARK 922        TOTAL FREE ENERGY PREDICTED BY IDOCK:   -4.86 KCAL/MOL
REMARK 923 INTER-LIGAND FREE ENERGY PREDICTED BY IDOCK:   -4.72 KCAL/MOL
REMARK 924 INTRA-LIGAND FREE ENERGY PREDICTED BY IDOCK:   -0.14 KCAL/MOL
REMARK 927      BINDING AFFINITY PREDICTED BY RF-SCORE:    0.00 PKD
ROOT
HETATM    1  C   UNL     1     -10.901  14.643  67.476  1.00  0.00    -0.286 C  
HETATM    2  C   UNL     1     -10.902  13.830  66.187  1.00  0.00    -0.279 C  
ENDROOT
BRANCH   2   3
HETATM    3  N   UNL     1     -10.986  12.367  66.371  1.00  0.00    -0.265 NA 
BRANCH   3   4
HETATM    4  C   UNL     1     -10.347  11.594  65.292  1.00  0.00    -0.269 C  
HETATM    5  C   UNL     1     -10.388  12.213  63.898  1.00  0.00    -0.441 C  
ENDBRANCH   3   4
BRANCH   3   6
HETATM    6  C   UNL     1     -10.465  12.034  67.708  1.00  0.00    -0.203 C  
BRANCH   6   7
HETATM    7  C   UNL     1      -9.197  11.163  67.785  1.00  0.00    -0.153 C  
BRANCH   7   8
HETATM    8  O   UNL     1      -9.326  10.365  68.979  1.00  0.00    -0.175 OA 
BRANCH   8   9
HETATM    9  C   UNL     1     -10.321   9.439  68.926  1.00  0.00    -0.213 C  
HETATM   10  O   UNL     1     -10.943   9.163  67.915  1.00  0.00    -0.141 OA 
BRANCH   9  11
HETATM   11  C   UNL     1     -10.388   8.709  70.232  1.00  0.00    -0.217 A  
HETATM   12  C   UNL     1     -11.463   8.860  71.117  1.00  0.00    -0.301 A  
HETATM   13  C   UNL     1     -11.536   8.073  72.279  1.00  0.00    -0.424 A  
HETATM   14 CL   UNL     1     -12.776   9.960  70.875  1.00  0.00    -0.391 Cl 
HETATM   15  C   UNL     1     -10.536   7.156  72.601  1.00  0.00    -0.237 A  
HETATM   16  C   UNL     1      -9.500   6.959  71.692  1.00  0.00    -0.157 A  
HETATM   17  N   UNL     1     -10.689   6.289  73.685  1.00  0.00    -0.404 NA 
HETATM   18  H1  UNL     1      -9.958   5.618  73.920  1.00  0.00     0.000 HD 
HETATM   19  C   UNL     1      -9.410   7.741  70.536  1.00  0.00    -0.163 A  
HETATM   20  H2  UNL     1     -11.564   5.777  73.564  1.00  0.00     0.000 HD 
ENDBRANCH   9  11
ENDBRANCH   8   9
ENDBRANCH   7   8
ENDBRANCH   6   7
ENDBRANCH   3   6
ENDBRANCH   2   3
TORSDOF 7
ENDMDL
MODEL      240
REMARK 921   NORMALIZED FREE ENERGY PREDICTED BY IDOCK:   -3.16 KCAL/MOL
REMARK 922        TOTAL FREE ENERGY PREDICTED BY IDOCK:   -4.85 KCAL/MOL
REMARK 923 INTER-LIGAND FREE ENERGY PREDICTED BY IDOCK:   -4.44 KCAL/MOL
REMARK 924 INTRA-LIGAND FREE ENERGY PREDICTED BY IDOCK:   -0.41 KCAL/MOL
REMARK 927      BINDING AFFINITY PREDICTED BY RF-SCORE:    0.00 PKD
ROOT
HETATM    1  C   UNL     1      -5.758   4.954  67.828  1.00  0.00    -0.017 C  
HETATM    2  C   UNL     1      -7.108   5.657  67.782  1.00  0.00    -0.071 C  
ENDROOT
BRANCH   2   3
HETATM    3  N   UNL     1      -7.128   6.922  67.020  1.00  0.00    -0.074 NA 
BRANCH   3   4
HETATM    4  C   UNL     1      -7.778   6.814  65.703  1.00  0.00    -0.102 C  
HETATM    5  C   UNL     1      -8.673   5.597  65.485  1.00  0.00    -0.151 C  
ENDBRANCH   3   4
BRANCH   3   6
HETATM    6  C   UNL     1      -7.717   7.970  67.871  1.00  0.00    -0.114 C  
BRANCH   6   7
HETATM    7  C   UNL     1      -8.688   7.528  68.982  1.00  0.00    -0.136 C  
BRANCH   7   8
HETATM    8  O   UNL     1      -8.003   7.750  70.232  1.00  0.00    -0.097 OA 
BRANCH   8   9
HETATM    9  C   UNL     1      -8.260   8.959  70.800  1.00  0.00    -0.171 C  
HETATM   10  O   UNL     1      -7.497   9.908  70.762  1.00  0.00    -0.313 OA 
BRANCH   9  11
HETATM   11  C   UNL     1      -9.672   8.980  71.300  1.00  0.00    -0.371 A  
HETATM   12  C   UNL     1     -10.685   9.694  70.645  1.00  0.00    -0.322 A  
HETATM   13  C   UNL     1     -12.016   9.595  71.086  1.00  0.00    -0.452 A  
HETATM   14 CL   UNL     1     -10.427  10.704  69.264  1.00  0.00    -0.236 Cl 
HETATM   15  C   UNL     1     -12.359   8.825  72.197  1.00  0.00    -0.389 A  
HETATM   16  C   UNL     1     -11.365   8.066  72.809  1.00  0.00    -0.439 A  
HETATM   17  N   UNL     1     -13.698   8.630  72.540  1.00  0.00    -0.644 NA 
HETATM   18  H1  UNL     1     -13.949   8.067  73.352  1.00  0.00     0.000 HD 
HETATM   19  C   UNL     1     -10.036   8.159  72.386  1.00  0.00    -0.345 A  
HETATM   20  H2  UNL     1     -14.185   8.252  71.727  1.00  0.00     0.000 HD 
ENDBRANCH   9  11
ENDBRANCH   8   9
ENDBRANCH   7   8
ENDBRANCH   6   7
ENDBRANCH   3   6
ENDBRANCH   2   3
TORSDOF 7
ENDMDL
MODEL      241
REMARK 921   NORMALIZED FREE ENERGY PREDICTED BY IDOCK:   -3.16 KCAL/MOL
REMARK 922        TOTAL FREE ENERGY PREDICTED BY IDOCK:   -4.85 KCAL/MOL
REMARK 923 INTER-LIGAND FREE ENERGY PREDICTED BY IDOCK:   -4.21 KCAL/MOL
REMARK 924 INTRA-LIGAND FREE ENERGY PREDICTED BY IDOCK:   -0.63 KCAL/MOL
REMARK 927      BINDING AFFINITY PREDICTED BY RF-SCORE:    0.00 PKD
ROOT
HETATM    1  C   UNL     1     -11.631  14.796  67.586  1.00  0.00    -0.374 C  
HETATM    2  C   UNL     1     -12.099  13.849  66.489  1.00  0.00    -0.449 C  
ENDROOT
BRANCH   2   3
HETATM    3  N   UNL     1     -11.021  13.119  65.791  1.00  0.00    -0.276 NA 
BRANCH   3   4
HETATM    4  C   UNL     1     -11.045  13.278  64.327  1.00  0.00    -0.388 C  
HETATM    5  C   UNL     1     -11.725  12.164  63.535  1.00  0.00    -0.579 C  
ENDBRANCH   3   4
BRANCH   3   6
HETATM    6  C   UNL     1      -9.733  13.503  66.393  1.00  0.00    -0.289 C  
BRANCH   6   7
HETATM    7  C   UNL     1      -8.805  12.374  66.878  1.00  0.00    -0.205 C  
BRANCH   7   8
HETATM    8  O   UNL     1      -9.646  11.423  67.563  1.00  0.00    -0.165 OA 
BRANCH   8   9
HETATM    9  C   UNL     1      -9.520  10.144  67.115  1.00  0.00    -0.158 C  
HETATM   10  O   UNL     1      -9.393   9.841  65.942  1.00  0.00    -0.173 OA 
BRANCH   9  11
HETATM   11  C   UNL     1      -9.379   9.222  68.286  1.00  0.00    -0.141 A  
HETATM   12  C   UNL     1      -8.148   9.003  68.920  1.00  0.00    -0.104 A  
HETATM   13  C   UNL     1      -8.084   8.216  70.083  1.00  0.00    -0.113 A  
HETATM   14 CL   UNL     1      -6.645   9.671  68.384  1.00  0.00    -0.053 Cl 
HETATM   15  C   UNL     1      -9.220   7.607  70.613  1.00  0.00    -0.162 A  
HETATM   16  C   UNL     1     -10.452   7.875  70.022  1.00  0.00    -0.231 A  
HETATM   17  N   UNL     1      -9.163   6.942  71.840  1.00  0.00    -0.142 NA 
HETATM   18  H1  UNL     1      -9.994   6.496  72.228  1.00  0.00     0.000 HD 
HETATM   19  C   UNL     1     -10.531   8.650  68.861  1.00  0.00    -0.211 A  
HETATM   20  H2  UNL     1      -8.792   7.588  72.537  1.00  0.00     0.000 HD 
ENDBRANCH   9  11
ENDBRANCH   8   9
ENDBRANCH   7   8
ENDBRANCH   6   7
ENDBRANCH   3   6
ENDBRANCH   2   3
TORSDOF 7
ENDMDL
MODEL      242
REMARK 921   NORMALIZED FREE ENERGY PREDICTED BY IDOCK:   -3.16 KCAL/MOL
REMARK 922        TOTAL FREE ENERGY PREDICTED BY IDOCK:   -4.84 KCAL/MOL
REMARK 923 INTER-LIGAND FREE ENERGY PREDICTED BY IDOCK:   -4.09 KCAL/MOL
REMARK 924 INTRA-LIGAND FREE ENERGY PREDICTED BY IDOCK:   -0.75 KCAL/MOL
REMARK 927      BINDING AFFINITY PREDICTED BY RF-SCORE:    0.00 PKD
ROOT
HETATM    1  C   UNL     1      -8.600   7.648  73.070  1.00  0.00    -0.197 C  
HETATM    2  C   UNL     1      -9.093   8.643  72.028  1.00  0.00    -0.241 C  
ENDROOT
BRANCH   2   3
HETATM    3  N   UNL     1      -8.382   8.596  70.734  1.00  0.00    -0.136 NA 
BRANCH   3   4
HETATM    4  C   UNL     1      -6.999   8.097  70.833  1.00  0.00    -0.043 C  
HETATM    5  C   UNL     1      -5.896   9.153  70.851  1.00  0.00    -0.046 C  
ENDBRANCH   3   4
BRANCH   3   6
HETATM    6  C   UNL     1      -9.204   7.838  69.777  1.00  0.00    -0.150 C  
BRANCH   6   7
HETATM    7  C   UNL     1     -10.692   8.215  69.656  1.00  0.00    -0.195 C  
BRANCH   7   8
HETATM    8  O   UNL     1     -10.785   9.157  68.568  1.00  0.00    -0.196 OA 
BRANCH   8   9
HETATM    9  C   UNL     1     -11.064  10.431  68.957  1.00  0.00    -0.248 C  
HETATM   10  O   UNL     1     -11.388  10.743  70.089  1.00  0.00    -0.290 OA 
BRANCH   9  11
HETATM   11  C   UNL     1     -10.731  11.372  67.841  1.00  0.00    -0.242 A  
HETATM   12  C   UNL     1      -9.410  11.645  67.463  1.00  0.00    -0.168 A  
HETATM   13  C   UNL     1      -9.148  12.448  66.340  1.00  0.00    -0.149 A  
HETATM   14 CL   UNL     1      -8.016  11.025  68.280  1.00  0.00    -0.118 Cl 
HETATM   15  C   UNL     1     -10.182  13.023  65.600  1.00  0.00    -0.287 A  
HETATM   16  C   UNL     1     -11.494  12.702  65.936  1.00  0.00    -0.407 A  
HETATM   17  N   UNL     1      -9.910  13.705  64.412  1.00  0.00    -0.679 NA 
HETATM   18  H1  UNL     1     -10.666  14.124  63.871  1.00  0.00     0.000 HD 
HETATM   19  C   UNL     1     -11.770  11.909  67.055  1.00  0.00    -0.304 A  
HETATM   20  H2  UNL     1      -9.386  13.082  63.798  1.00  0.00     0.000 HD 
ENDBRANCH   9  11
ENDBRANCH   8   9
ENDBRANCH   7   8
ENDBRANCH   6   7
ENDBRANCH   3   6
ENDBRANCH   2   3
TORSDOF 7
ENDMDL
MODEL      243
REMARK 921   NORMALIZED FREE ENERGY PREDICTED BY IDOCK:   -3.16 KCAL/MOL
REMARK 922        TOTAL FREE ENERGY PREDICTED BY IDOCK:   -4.84 KCAL/MOL
REMARK 923 INTER-LIGAND FREE ENERGY PREDICTED BY IDOCK:   -4.36 KCAL/MOL
REMARK 924 INTRA-LIGAND FREE ENERGY PREDICTED BY IDOCK:   -0.48 KCAL/MOL
REMARK 927      BINDING AFFINITY PREDICTED BY RF-SCORE:    0.00 PKD
ROOT
HETATM    1  C   UNL     1      -9.905   4.730  65.670  1.00  0.00    -0.193 C  
HETATM    2  C   UNL     1     -10.474   5.678  66.718  1.00  0.00    -0.291 C  
ENDROOT
BRANCH   2   3
HETATM    3  N   UNL     1      -9.701   6.920  66.921  1.00  0.00    -0.163 NA 
BRANCH   3   4
HETATM    4  C   UNL     1      -8.494   7.014  66.083  1.00  0.00    -0.135 C  
HETATM    5  C   UNL     1      -7.158   7.076  66.819  1.00  0.00    -0.082 C  
ENDBRANCH   3   4
BRANCH   3   6
HETATM    6  C   UNL     1     -10.610   8.067  66.759  1.00  0.00    -0.155 C  
BRANCH   6   7
HETATM    7  C   UNL     1     -10.200   9.403  67.406  1.00  0.00    -0.239 C  
BRANCH   7   8
HETATM    8  O   UNL     1     -11.174  10.377  66.979  1.00  0.00    -0.207 OA 
BRANCH   8   9
HETATM    9  C   UNL     1     -10.690  11.301  66.105  1.00  0.00    -0.250 C  
HETATM   10  O   UNL     1     -10.445  11.070  64.934  1.00  0.00    -0.309 OA 
BRANCH   9  11
HETATM   11  C   UNL     1     -10.691  12.648  66.759  1.00  0.00    -0.261 A  
HETATM   12  C   UNL     1      -9.519  13.243  67.244  1.00  0.00    -0.233 A  
HETATM   13  C   UNL     1      -9.551  14.554  67.750  1.00  0.00    -0.215 A  
HETATM   14 CL   UNL     1      -7.968  12.478  67.245  1.00  0.00    -0.179 Cl 
HETATM   15  C   UNL     1     -10.740  15.279  67.820  1.00  0.00    -0.286 A  
HETATM   16  C   UNL     1     -11.893  14.713  67.280  1.00  0.00    -0.375 A  
HETATM   17  N   UNL     1     -10.732  16.623  68.198  1.00  0.00    -0.337 NA 
HETATM   18  H1  UNL     1     -11.602  17.153  68.249  1.00  0.00     0.000 HD 
HETATM   19  C   UNL     1     -11.878  13.408  66.780  1.00  0.00    -0.452 A  
HETATM   20  H2  UNL     1     -10.088  17.124  67.585  1.00  0.00     0.000 HD 
ENDBRANCH   9  11
ENDBRANCH   8   9
ENDBRANCH   7   8
ENDBRANCH   6   7
ENDBRANCH   3   6
ENDBRANCH   2   3
TORSDOF 7
ENDMDL
MODEL      244
REMARK 921   NORMALIZED FREE ENERGY PREDICTED BY IDOCK:   -3.15 KCAL/MOL
REMARK 922        TOTAL FREE ENERGY PREDICTED BY IDOCK:   -4.84 KCAL/MOL
REMARK 923 INTER-LIGAND FREE ENERGY PREDICTED BY IDOCK:   -4.28 KCAL/MOL
REMARK 924 INTRA-LIGAND FREE ENERGY PREDICTED BY IDOCK:   -0.55 KCAL/MOL
REMARK 927      BINDING AFFINITY PREDICTED BY RF-SCORE:    0.00 PKD
ROOT
HETATM    1  C   UNL     1     -12.836  11.171  71.816  1.00  0.00    -0.479 C  
HETATM    2  C   UNL     1     -12.476   9.693  71.896  1.00  0.00    -0.377 C  
ENDROOT
BRANCH   2   3
HETATM    3  N   UNL     1     -11.643   9.192  70.783  1.00  0.00    -0.281 NA 
BRANCH   3   4
HETATM    4  C   UNL     1     -10.906  10.248  70.069  1.00  0.00    -0.307 C  
HETATM    5  C   UNL     1     -11.229  10.420  68.587  1.00  0.00    -0.305 C  
ENDBRANCH   3   4
BRANCH   3   6
HETATM    6  C   UNL     1     -10.771   8.123  71.297  1.00  0.00    -0.227 C  
BRANCH   6   7
HETATM    7  C   UNL     1     -11.184   6.666  71.018  1.00  0.00    -0.300 C  
BRANCH   7   8
HETATM    8  O   UNL     1     -10.195   5.834  71.657  1.00  0.00    -0.191 OA 
BRANCH   8   9
HETATM    9  C   UNL     1      -9.018   5.748  70.980  1.00  0.00    -0.142 C  
HETATM   10  O   UNL     1      -7.940   6.082  71.439  1.00  0.00    -0.110 OA 
BRANCH   9  11
HETATM   11  C   UNL     1      -9.243   5.021  69.690  1.00  0.00    -0.168 A  
HETATM   12  C   UNL     1      -9.147   5.660  68.447  1.00  0.00    -0.117 A  
HETATM   13  C   UNL     1      -9.257   4.914  67.260  1.00  0.00    -0.133 A  
HETATM   14 CL   UNL     1      -8.865   7.354  68.242  1.00  0.00    -0.128 Cl 
HETATM   15  C   UNL     1      -9.499   3.541  67.283  1.00  0.00    -0.187 A  
HETATM   16  C   UNL     1      -9.531   2.895  68.516  1.00  0.00    -0.200 A  
HETATM   17  N   UNL     1      -9.471   2.795  66.103  1.00  0.00    -0.379 NA 
HETATM   18  H1  UNL     1      -9.648   1.791  66.120  1.00  0.00     0.000 HD 
HETATM   19  C   UNL     1      -9.430   3.624  69.705  1.00  0.00    -0.254 A  
HETATM   20  H2  UNL     1      -8.573   2.953  65.646  1.00  0.00     0.000 HD 
ENDBRANCH   9  11
ENDBRANCH   8   9
ENDBRANCH   7   8
ENDBRANCH   6   7
ENDBRANCH   3   6
ENDBRANCH   2   3
TORSDOF 7
ENDMDL
MODEL      245
REMARK 921   NORMALIZED FREE ENERGY PREDICTED BY IDOCK:   -3.15 KCAL/MOL
REMARK 922        TOTAL FREE ENERGY PREDICTED BY IDOCK:   -4.83 KCAL/MOL
REMARK 923 INTER-LIGAND FREE ENERGY PREDICTED BY IDOCK:   -4.57 KCAL/MOL
REMARK 924 INTRA-LIGAND FREE ENERGY PREDICTED BY IDOCK:   -0.25 KCAL/MOL
REMARK 927      BINDING AFFINITY PREDICTED BY RF-SCORE:    0.00 PKD
ROOT
HETATM    1  C   UNL     1     -11.005   6.645  66.914  1.00  0.00    -0.396 C  
HETATM    2  C   UNL     1     -10.177   7.907  67.126  1.00  0.00    -0.290 C  
ENDROOT
BRANCH   2   3
HETATM    3  N   UNL     1      -9.008   8.044  66.233  1.00  0.00    -0.163 NA 
BRANCH   3   4
HETATM    4  C   UNL     1      -9.031   9.262  65.406  1.00  0.00    -0.207 C  
HETATM    5  C   UNL     1      -7.740   9.605  64.667  1.00  0.00    -0.130 C  
ENDBRANCH   3   4
BRANCH   3   6
HETATM    6  C   UNL     1      -7.785   7.916  67.042  1.00  0.00    -0.100 C  
BRANCH   6   7
HETATM    7  C   UNL     1      -7.945   7.830  68.572  1.00  0.00    -0.122 C  
BRANCH   7   8
HETATM    8  O   UNL     1      -7.849   9.181  69.067  1.00  0.00    -0.087 OA 
BRANCH   8   9
HETATM    9  C   UNL     1      -7.908   9.283  70.422  1.00  0.00    -0.148 C  
HETATM   10  O   UNL     1      -6.942   9.499  71.134  1.00  0.00    -0.270 OA 
BRANCH   9  11
HETATM   11  C   UNL     1      -9.341   9.273  70.856  1.00  0.00    -0.313 A  
HETATM   12  C   UNL     1     -10.328  10.011  70.190  1.00  0.00    -0.266 A  
HETATM   13  C   UNL     1     -11.677   9.884  70.564  1.00  0.00    -0.373 A  
HETATM   14 CL   UNL     1     -10.015  11.088  68.872  1.00  0.00    -0.209 Cl 
HETATM   15  C   UNL     1     -12.065   9.061  71.620  1.00  0.00    -0.352 A  
HETATM   16  C   UNL     1     -11.094   8.278  72.241  1.00  0.00    -0.429 A  
HETATM   17  N   UNL     1     -13.417   8.843  71.891  1.00  0.00    -0.387 NA 
HETATM   18  H1  UNL     1     -13.701   8.240  72.663  1.00  0.00     0.000 HD 
HETATM   19  C   UNL     1      -9.748   8.399  71.884  1.00  0.00    -0.331 A  
HETATM   20  H2  UNL     1     -13.863   8.501  71.040  1.00  0.00     0.000 HD 
ENDBRANCH   9  11
ENDBRANCH   8   9
ENDBRANCH   7   8
ENDBRANCH   6   7
ENDBRANCH   3   6
ENDBRANCH   2   3
TORSDOF 7
ENDMDL
MODEL      246
REMARK 921   NORMALIZED FREE ENERGY PREDICTED BY IDOCK:   -3.14 KCAL/MOL
REMARK 922        TOTAL FREE ENERGY PREDICTED BY IDOCK:   -4.81 KCAL/MOL
REMARK 923 INTER-LIGAND FREE ENERGY PREDICTED BY IDOCK:   -4.37 KCAL/MOL
REMARK 924 INTRA-LIGAND FREE ENERGY PREDICTED BY IDOCK:   -0.44 KCAL/MOL
REMARK 927      BINDING AFFINITY PREDICTED BY RF-SCORE:    0.00 PKD
ROOT
HETATM    1  C   UNL     1     -11.301  12.781  68.327  1.00  0.00    -0.335 C  
HETATM    2  C   UNL     1     -10.132  12.491  67.394  1.00  0.00    -0.210 C  
ENDROOT
BRANCH   2   3
HETATM    3  N   UNL     1     -10.209  11.200  66.680  1.00  0.00    -0.224 NA 
BRANCH   3   4
HETATM    4  C   UNL     1      -9.876  11.291  65.248  1.00  0.00    -0.246 C  
HETATM    5  C   UNL     1     -10.473  12.472  64.486  1.00  0.00    -0.366 C  
ENDBRANCH   3   4
BRANCH   3   6
HETATM    6  C   UNL     1      -9.387  10.216  67.403  1.00  0.00    -0.148 C  
BRANCH   6   7
HETATM    7  C   UNL     1      -9.256   8.807  66.795  1.00  0.00    -0.169 C  
BRANCH   7   8
HETATM    8  O   UNL     1      -9.225   7.887  67.905  1.00  0.00    -0.135 OA 
BRANCH   8   9
HETATM    9  C   UNL     1     -10.332   7.102  68.007  1.00  0.00    -0.194 C  
HETATM   10  O   UNL     1     -11.123   6.915  67.100  1.00  0.00    -0.370 OA 
BRANCH   9  11
HETATM   11  C   UNL     1     -10.308   6.384  69.321  1.00  0.00    -0.248 A  
HETATM   12  C   UNL     1     -10.862   6.936  70.484  1.00  0.00    -0.253 A  
HETATM   13  C   UNL     1     -10.915   6.180  71.668  1.00  0.00    -0.320 A  
HETATM   14 CL   UNL     1     -11.540   8.525  70.580  1.00  0.00    -0.254 Cl 
HETATM   15  C   UNL     1     -10.391   4.889  71.731  1.00  0.00    -0.179 A  
HETATM   16  C   UNL     1      -9.899   4.316  70.561  1.00  0.00    -0.269 A  
HETATM   17  N   UNL     1     -10.571   4.104  72.872  1.00  0.00    -0.175 NA 
HETATM   18  H1  UNL     1     -10.189   3.161  72.918  1.00  0.00     0.000 HD 
HETATM   19  C   UNL     1      -9.833   5.058  69.378  1.00  0.00    -0.273 A  
HETATM   20  H2  UNL     1     -11.571   4.053  73.070  1.00  0.00     0.000 HD 
ENDBRANCH   9  11
ENDBRANCH   8   9
ENDBRANCH   7   8
ENDBRANCH   6   7
ENDBRANCH   3   6
ENDBRANCH   2   3
TORSDOF 7
ENDMDL
MODEL      247
REMARK 921   NORMALIZED FREE ENERGY PREDICTED BY IDOCK:   -3.13 KCAL/MOL
REMARK 922        TOTAL FREE ENERGY PREDICTED BY IDOCK:   -4.81 KCAL/MOL
REMARK 923 INTER-LIGAND FREE ENERGY PREDICTED BY IDOCK:   -4.50 KCAL/MOL
REMARK 924 INTRA-LIGAND FREE ENERGY PREDICTED BY IDOCK:   -0.31 KCAL/MOL
REMARK 927      BINDING AFFINITY PREDICTED BY RF-SCORE:    0.00 PKD
ROOT
HETATM    1  C   UNL     1     -12.266  14.726  64.464  1.00  0.00    -0.443 C  
HETATM    2  C   UNL     1     -12.107  14.106  65.846  1.00  0.00    -0.426 C  
ENDROOT
BRANCH   2   3
HETATM    3  N   UNL     1     -10.747  13.622  66.161  1.00  0.00    -0.284 NA 
BRANCH   3   4
HETATM    4  C   UNL     1     -10.602  13.103  67.531  1.00  0.00    -0.235 C  
HETATM    5  C   UNL     1     -11.877  13.027  68.367  1.00  0.00    -0.370 C  
ENDBRANCH   3   4
BRANCH   3   6
HETATM    6  C   UNL     1     -10.347  12.651  65.129  1.00  0.00    -0.292 C  
BRANCH   6   7
HETATM    7  C   UNL     1     -10.119  11.193  65.569  1.00  0.00    -0.257 C  
BRANCH   7   8
HETATM    8  O   UNL     1      -8.702  10.948  65.445  1.00  0.00    -0.188 OA 
BRANCH   8   9
HETATM    9  C   UNL     1      -8.130  10.415  66.559  1.00  0.00    -0.122 C  
HETATM   10  O   UNL     1      -7.105  10.834  67.067  1.00  0.00    -0.093 OA 
BRANCH   9  11
HETATM   11  C   UNL     1      -9.047   9.384  67.139  1.00  0.00    -0.148 A  
HETATM   12  C   UNL     1      -9.234   8.130  66.541  1.00  0.00    -0.188 A  
HETATM   13  C   UNL     1     -10.018   7.154  67.180  1.00  0.00    -0.270 A  
HETATM   14 CL   UNL     1      -8.530   7.655  65.035  1.00  0.00    -0.079 Cl 
HETATM   15  C   UNL     1     -10.655   7.412  68.394  1.00  0.00    -0.152 A  
HETATM   16  C   UNL     1     -10.418   8.633  69.020  1.00  0.00    -0.216 A  
HETATM   17  N   UNL     1     -11.317   6.391  69.079  1.00  0.00    -0.581 NA 
HETATM   18  H1  UNL     1     -11.782   6.579  69.967  1.00  0.00     0.000 HD 
HETATM   19  C   UNL     1      -9.647   9.616  68.393  1.00  0.00    -0.154 A  
HETATM   20  H2  UNL     1     -10.661   5.622  69.220  1.00  0.00     0.000 HD 
ENDBRANCH   9  11
ENDBRANCH   8   9
ENDBRANCH   7   8
ENDBRANCH   6   7
ENDBRANCH   3   6
ENDBRANCH   2   3
TORSDOF 7
ENDMDL
MODEL      248
REMARK 921   NORMALIZED FREE ENERGY PREDICTED BY IDOCK:   -3.13 KCAL/MOL
REMARK 922        TOTAL FREE ENERGY PREDICTED BY IDOCK:   -4.80 KCAL/MOL
REMARK 923 INTER-LIGAND FREE ENERGY PREDICTED BY IDOCK:   -3.94 KCAL/MOL
REMARK 924 INTRA-LIGAND FREE ENERGY PREDICTED BY IDOCK:   -0.86 KCAL/MOL
REMARK 927      BINDING AFFINITY PREDICTED BY RF-SCORE:    0.00 PKD
ROOT
HETATM    1  C   UNL     1     -10.516   7.600  67.652  1.00  0.00    -0.313 C  
HETATM    2  C   UNL     1      -9.102   7.958  67.212  1.00  0.00    -0.135 C  
ENDROOT
BRANCH   2   3
HETATM    3  N   UNL     1      -8.085   6.919  67.474  1.00  0.00    -0.115 NA 
BRANCH   3   4
HETATM    4  C   UNL     1      -7.288   6.555  66.290  1.00  0.00    -0.073 C  
HETATM    5  C   UNL     1      -7.904   6.878  64.931  1.00  0.00    -0.122 C  
ENDBRANCH   3   4
BRANCH   3   6
HETATM    6  C   UNL     1      -7.262   7.348  68.616  1.00  0.00    -0.090 C  
BRANCH   6   7
HETATM    7  C   UNL     1      -7.187   6.411  69.836  1.00  0.00    -0.074 C  
BRANCH   7   8
HETATM    8  O   UNL     1      -8.547   6.192  70.264  1.00  0.00    -0.136 OA 
BRANCH   8   9
HETATM    9  C   UNL     1      -8.809   6.621  71.528  1.00  0.00    -0.138 C  
HETATM   10  O   UNL     1      -8.062   6.451  72.475  1.00  0.00    -0.102 OA 
BRANCH   9  11
HETATM   11  C   UNL     1     -10.041   7.472  71.515  1.00  0.00    -0.201 A  
HETATM   12  C   UNL     1     -11.257   7.033  72.058  1.00  0.00    -0.253 A  
HETATM   13  C   UNL     1     -12.356   7.907  72.122  1.00  0.00    -0.331 A  
HETATM   14 CL   UNL     1     -11.519   5.451  72.707  1.00  0.00    -0.359 Cl 
HETATM   15  C   UNL     1     -12.283   9.206  71.621  1.00  0.00    -0.361 A  
HETATM   16  C   UNL     1     -11.059   9.664  71.141  1.00  0.00    -0.444 A  
HETATM   17  N   UNL     1     -13.337  10.102  71.815  1.00  0.00    -0.399 NA 
HETATM   18  H1  UNL     1     -13.284  11.052  71.449  1.00  0.00     0.000 HD 
HETATM   19  C   UNL     1      -9.959   8.804  71.063  1.00  0.00    -0.297 A  
HETATM   20  H2  UNL     1     -13.532  10.156  72.815  1.00  0.00     0.000 HD 
ENDBRANCH   9  11
ENDBRANCH   8   9
ENDBRANCH   7   8
ENDBRANCH   6   7
ENDBRANCH   3   6
ENDBRANCH   2   3
TORSDOF 7
ENDMDL
MODEL      249
REMARK 921   NORMALIZED FREE ENERGY PREDICTED BY IDOCK:   -3.12 KCAL/MOL
REMARK 922        TOTAL FREE ENERGY PREDICTED BY IDOCK:   -4.79 KCAL/MOL
REMARK 923 INTER-LIGAND FREE ENERGY PREDICTED BY IDOCK:   -4.10 KCAL/MOL
REMARK 924 INTRA-LIGAND FREE ENERGY PREDICTED BY IDOCK:   -0.69 KCAL/MOL
REMARK 927      BINDING AFFINITY PREDICTED BY RF-SCORE:    0.00 PKD
ROOT
HETATM    1  C   UNL     1      -6.864  12.505  67.343  1.00  0.00    -0.145 C  
HETATM    2  C   UNL     1      -7.412  11.094  67.522  1.00  0.00    -0.104 C  
ENDROOT
BRANCH   2   3
HETATM    3  N   UNL     1      -8.620  10.788  66.729  1.00  0.00    -0.133 NA 
BRANCH   3   4
HETATM    4  C   UNL     1      -9.548   9.858  67.394  1.00  0.00    -0.155 C  
HETATM    5  C   UNL     1      -8.915   8.705  68.169  1.00  0.00    -0.141 C  
ENDBRANCH   3   4
BRANCH   3   6
HETATM    6  C   UNL     1      -9.255  12.057  66.337  1.00  0.00    -0.216 C  
BRANCH   6   7
HETATM    7  C   UNL     1     -10.620  12.398  66.964  1.00  0.00    -0.225 C  
BRANCH   7   8
HETATM    8  O   UNL     1     -10.352  13.308  68.051  1.00  0.00    -0.229 OA 
BRANCH   8   9
HETATM    9  C   UNL     1     -11.110  14.437  68.031  1.00  0.00    -0.272 C  
HETATM   10  O   UNL     1     -12.276  14.484  68.385  1.00  0.00    -0.251 OA 
BRANCH   9  11
HETATM   11  C   UNL     1     -10.242  15.609  67.692  1.00  0.00    -0.261 A  
HETATM   12  C   UNL     1     -10.142  16.112  66.388  1.00  0.00    -0.308 A  
HETATM   13  C   UNL     1      -9.402  17.280  66.137  1.00  0.00    -0.196 A  
HETATM   14 CL   UNL     1     -10.908  15.401  65.009  1.00  0.00    -0.441 Cl 
HETATM   15  C   UNL     1      -8.723  17.945  67.157  1.00  0.00    -0.243 A  
HETATM   16  C   UNL     1      -8.873  17.484  68.462  1.00  0.00    -0.282 A  
HETATM   17  N   UNL     1      -8.106  19.174  66.916  1.00  0.00    -0.255 NA 
HETATM   18  H1  UNL     1      -7.610  19.660  67.662  1.00  0.00     0.000 HD 
HETATM   19  C   UNL     1      -9.600  16.319  68.727  1.00  0.00    -0.242 A  
HETATM   20  H2  UNL     1      -8.803  19.811  66.529  1.00  0.00     0.000 HD 
ENDBRANCH   9  11
ENDBRANCH   8   9
ENDBRANCH   7   8
ENDBRANCH   6   7
ENDBRANCH   3   6
ENDBRANCH   2   3
TORSDOF 7
ENDMDL
MODEL      250
REMARK 921   NORMALIZED FREE ENERGY PREDICTED BY IDOCK:   -3.12 KCAL/MOL
REMARK 922        TOTAL FREE ENERGY PREDICTED BY IDOCK:   -4.78 KCAL/MOL
REMARK 923 INTER-LIGAND FREE ENERGY PREDICTED BY IDOCK:   -4.09 KCAL/MOL
REMARK 924 INTRA-LIGAND FREE ENERGY PREDICTED BY IDOCK:   -0.69 KCAL/MOL
REMARK 927      BINDING AFFINITY PREDICTED BY RF-SCORE:    0.00 PKD
ROOT
HETATM    1  C   UNL     1     -12.818  13.931  70.641  1.00  0.00    -0.291 C  
HETATM    2  C   UNL     1     -11.618  13.497  69.808  1.00  0.00    -0.244 C  
ENDROOT
BRANCH   2   3
HETATM    3  N   UNL     1     -11.404  12.038  69.733  1.00  0.00    -0.184 NA 
BRANCH   3   4
HETATM    4  C   UNL     1     -11.961  11.295  70.877  1.00  0.00    -0.214 C  
HETATM    5  C   UNL     1     -12.974  10.201  70.548  1.00  0.00    -0.214 C  
ENDBRANCH   3   4
BRANCH   3   6
HETATM    6  C   UNL     1     -11.903  11.559  68.433  1.00  0.00    -0.283 C  
BRANCH   6   7
HETATM    7  C   UNL     1     -11.905  12.553  67.257  1.00  0.00    -0.311 C  
BRANCH   7   8
HETATM    8  O   UNL     1     -11.540  11.795  66.085  1.00  0.00    -0.418 OA 
BRANCH   8   9
HETATM    9  C   UNL     1     -10.449  12.276  65.428  1.00  0.00    -0.269 C  
HETATM   10  O   UNL     1     -10.369  13.404  64.974  1.00  0.00    -0.331 OA 
BRANCH   9  11
HETATM   11  C   UNL     1      -9.336  11.280  65.524  1.00  0.00    -0.243 A  
HETATM   12  C   UNL     1      -8.342  11.363  66.509  1.00  0.00    -0.164 A  
HETATM   13  C   UNL     1      -7.381  10.345  66.628  1.00  0.00    -0.114 A  
HETATM   14 CL   UNL     1      -8.213  12.652  67.655  1.00  0.00    -0.161 Cl 
HETATM   15  C   UNL     1      -7.363   9.255  65.758  1.00  0.00    -0.094 A  
HETATM   16  C   UNL     1      -8.386   9.139  64.821  1.00  0.00    -0.176 A  
HETATM   17  N   UNL     1      -6.487   8.189  65.974  1.00  0.00    -0.046 NA 
HETATM   18  H1  UNL     1      -6.474   7.391  65.338  1.00  0.00     0.000 HD 
HETATM   19  C   UNL     1      -9.345  10.147  64.686  1.00  0.00    -0.334 A  
HETATM   20  H2  UNL     1      -6.636   7.839  66.921  1.00  0.00     0.000 HD 
ENDBRANCH   9  11
ENDBRANCH   8   9
ENDBRANCH   7   8
ENDBRANCH   6   7
ENDBRANCH   3   6
ENDBRANCH   2   3
TORSDOF 7
ENDMDL
MODEL      251
REMARK 921   NORMALIZED FREE ENERGY PREDICTED BY IDOCK:   -3.11 KCAL/MOL
REMARK 922        TOTAL FREE ENERGY PREDICTED BY IDOCK:   -4.78 KCAL/MOL
REMARK 923 INTER-LIGAND FREE ENERGY PREDICTED BY IDOCK:   -4.85 KCAL/MOL
REMARK 924 INTRA-LIGAND FREE ENERGY PREDICTED BY IDOCK:    0.07 KCAL/MOL
REMARK 927      BINDING AFFINITY PREDICTED BY RF-SCORE:    0.00 PKD
ROOT
HETATM    1  C   UNL     1      -8.866  19.209  69.004  1.00  0.00    -0.242 C  
HETATM    2  C   UNL     1      -9.833  18.041  68.849  1.00  0.00    -0.314 C  
ENDROOT
BRANCH   2   3
HETATM    3  N   UNL     1     -10.822  18.190  67.763  1.00  0.00    -0.325 NA 
BRANCH   3   4
HETATM    4  C   UNL     1     -10.885  19.548  67.197  1.00  0.00    -0.437 C  
HETATM    5  C   UNL     1     -10.319  19.725  65.790  1.00  0.00    -0.522 C  
ENDBRANCH   3   4
BRANCH   3   6
HETATM    6  C   UNL     1     -10.564  17.153  66.750  1.00  0.00    -0.192 C  
BRANCH   6   7
HETATM    7  C   UNL     1      -9.252  16.354  66.863  1.00  0.00    -0.218 C  
BRANCH   7   8
HETATM    8  O   UNL     1      -9.629  14.964  66.943  1.00  0.00    -0.228 OA 
BRANCH   8   9
HETATM    9  C   UNL     1      -8.576  14.101  66.957  1.00  0.00    -0.184 C  
HETATM   10  O   UNL     1      -7.431  14.426  67.215  1.00  0.00    -0.183 OA 
BRANCH   9  11
HETATM   11  C   UNL     1      -9.083  12.702  66.792  1.00  0.00    -0.214 A  
HETATM   12  C   UNL     1     -10.150  12.390  65.939  1.00  0.00    -0.253 A  
HETATM   13  C   UNL     1     -10.519  11.049  65.732  1.00  0.00    -0.290 A  
HETATM   14 CL   UNL     1     -11.071  13.563  65.063  1.00  0.00    -0.321 Cl 
HETATM   15  C   UNL     1      -9.867  10.006  66.388  1.00  0.00    -0.224 A  
HETATM   16  C   UNL     1      -8.766  10.309  67.185  1.00  0.00    -0.131 A  
HETATM   17  N   UNL     1     -10.155   8.677  66.070  1.00  0.00    -0.421 NA 
HETATM   18  H1  UNL     1      -9.679   7.914  66.549  1.00  0.00     0.000 HD 
HETATM   19  C   UNL     1      -8.393  11.638  67.407  1.00  0.00    -0.152 A  
HETATM   20  H2  UNL     1     -10.025   8.553  65.066  1.00  0.00     0.000 HD 
ENDBRANCH   9  11
ENDBRANCH   8   9
ENDBRANCH   7   8
ENDBRANCH   6   7
ENDBRANCH   3   6
ENDBRANCH   2   3
TORSDOF 7
ENDMDL
MODEL      252
REMARK 921   NORMALIZED FREE ENERGY PREDICTED BY IDOCK:   -3.11 KCAL/MOL
REMARK 922        TOTAL FREE ENERGY PREDICTED BY IDOCK:   -4.78 KCAL/MOL
REMARK 923 INTER-LIGAND FREE ENERGY PREDICTED BY IDOCK:   -4.26 KCAL/MOL
REMARK 924 INTRA-LIGAND FREE ENERGY PREDICTED BY IDOCK:   -0.52 KCAL/MOL
REMARK 927      BINDING AFFINITY PREDICTED BY RF-SCORE:    0.00 PKD
ROOT
HETATM    1  C   UNL     1      -8.558   5.071  64.349  1.00  0.00    -0.135 C  
HETATM    2  C   UNL     1      -8.223   6.534  64.610  1.00  0.00    -0.052 C  
ENDROOT
BRANCH   2   3
HETATM    3  N   UNL     1      -8.403   6.976  66.008  1.00  0.00    -0.128 NA 
BRANCH   3   4
HETATM    4  C   UNL     1      -7.155   7.004  66.789  1.00  0.00    -0.082 C  
HETATM    5  C   UNL     1      -7.222   6.421  68.199  1.00  0.00    -0.085 C  
ENDBRANCH   3   4
BRANCH   3   6
HETATM    6  C   UNL     1      -9.112   8.266  66.003  1.00  0.00    -0.176 C  
BRANCH   6   7
HETATM    7  C   UNL     1     -10.395   8.382  66.846  1.00  0.00    -0.307 C  
BRANCH   7   8
HETATM    8  O   UNL     1     -10.245   9.567  67.654  1.00  0.00    -0.191 OA 
BRANCH   8   9
HETATM    9  C   UNL     1      -9.649   9.348  68.858  1.00  0.00    -0.155 C  
HETATM   10  O   UNL     1      -8.533   9.741  69.149  1.00  0.00    -0.124 OA 
BRANCH   9  11
HETATM   11  C   UNL     1     -10.640   8.727  69.793  1.00  0.00    -0.227 A  
HETATM   12  C   UNL     1     -11.588   9.489  70.490  1.00  0.00    -0.254 A  
HETATM   13  C   UNL     1     -12.568   8.854  71.271  1.00  0.00    -0.309 A  
HETATM   14 CL   UNL     1     -11.672  11.217  70.444  1.00  0.00    -0.420 Cl 
HETATM   15  C   UNL     1     -12.604   7.466  71.406  1.00  0.00    -0.370 A  
HETATM   16  C   UNL     1     -11.704   6.705  70.665  1.00  0.00    -0.452 A  
HETATM   17  N   UNL     1     -13.662   6.845  72.074  1.00  0.00    -0.532 NA 
HETATM   18  H1  UNL     1     -13.688   5.830  72.172  1.00  0.00     0.000 HD 
HETATM   19  C   UNL     1     -10.719   7.324  69.889  1.00  0.00    -0.257 A  
HETATM   20  H2  UNL     1     -14.535   7.146  71.641  1.00  0.00     0.000 HD 
ENDBRANCH   9  11
ENDBRANCH   8   9
ENDBRANCH   7   8
ENDBRANCH   6   7
ENDBRANCH   3   6
ENDBRANCH   2   3
TORSDOF 7
ENDMDL
MODEL      253
REMARK 921   NORMALIZED FREE ENERGY PREDICTED BY IDOCK:   -3.08 KCAL/MOL
REMARK 922        TOTAL FREE ENERGY PREDICTED BY IDOCK:   -4.73 KCAL/MOL
REMARK 923 INTER-LIGAND FREE ENERGY PREDICTED BY IDOCK:   -4.47 KCAL/MOL
REMARK 924 INTRA-LIGAND FREE ENERGY PREDICTED BY IDOCK:   -0.26 KCAL/MOL
REMARK 927      BINDING AFFINITY PREDICTED BY RF-SCORE:    0.00 PKD
ROOT
HETATM    1  C   UNL     1      -9.390  11.338  62.914  1.00  0.00    -0.376 C  
HETATM    2  C   UNL     1     -10.678  11.896  63.506  1.00  0.00    -0.442 C  
ENDROOT
BRANCH   2   3
HETATM    3  N   UNL     1     -10.583  12.325  64.916  1.00  0.00    -0.282 NA 
BRANCH   3   4
HETATM    4  C   UNL     1     -11.889  12.515  65.570  1.00  0.00    -0.439 C  
HETATM    5  C   UNL     1     -12.099  13.844  66.293  1.00  0.00    -0.484 C  
ENDBRANCH   3   4
BRANCH   3   6
HETATM    6  C   UNL     1      -9.709  11.381  65.633  1.00  0.00    -0.231 C  
BRANCH   6   7
HETATM    7  C   UNL     1     -10.307  10.022  66.042  1.00  0.00    -0.152 C  
BRANCH   7   8
HETATM    8  O   UNL     1     -10.077   9.888  67.460  1.00  0.00    -0.175 OA 
BRANCH   8   9
HETATM    9  C   UNL     1      -8.954   9.188  67.778  1.00  0.00    -0.127 C  
HETATM   10  O   UNL     1      -7.998   9.662  68.366  1.00  0.00    -0.095 OA 
BRANCH   9  11
HETATM   11  C   UNL     1      -9.166   7.741  67.459  1.00  0.00    -0.147 A  
HETATM   12  C   UNL     1     -10.028   6.930  68.211  1.00  0.00    -0.153 A  
HETATM   13  C   UNL     1     -10.281   5.607  67.809  1.00  0.00    -0.238 A  
HETATM   14 CL   UNL     1     -10.862   7.452  69.633  1.00  0.00    -0.242 Cl 
HETATM   15  C   UNL     1      -9.662   5.056  66.687  1.00  0.00    -0.177 A  
HETATM   16  C   UNL     1      -8.856   5.879  65.904  1.00  0.00    -0.154 A  
HETATM   17  N   UNL     1     -10.025   3.790  66.225  1.00  0.00    -0.417 NA 
HETATM   18  H1  UNL     1      -9.573   3.387  65.405  1.00  0.00     0.000 HD 
HETATM   19  C   UNL     1      -8.589   7.195  66.295  1.00  0.00    -0.143 A  
HETATM   20  H2  UNL     1     -11.033   3.784  66.068  1.00  0.00     0.000 HD 
ENDBRANCH   9  11
ENDBRANCH   8   9
ENDBRANCH   7   8
ENDBRANCH   6   7
ENDBRANCH   3   6
ENDBRANCH   2   3
TORSDOF 7
ENDMDL
MODEL      254
REMARK 921   NORMALIZED FREE ENERGY PREDICTED BY IDOCK:   -3.08 KCAL/MOL
REMARK 922        TOTAL FREE ENERGY PREDICTED BY IDOCK:   -4.73 KCAL/MOL
REMARK 923 INTER-LIGAND FREE ENERGY PREDICTED BY IDOCK:   -4.58 KCAL/MOL
REMARK 924 INTRA-LIGAND FREE ENERGY PREDICTED BY IDOCK:   -0.15 KCAL/MOL
REMARK 927      BINDING AFFINITY PREDICTED BY RF-SCORE:    0.00 PKD
ROOT
HETATM    1  C   UNL     1      -7.858   6.418  63.690  1.00  0.00    -0.110 C  
HETATM    2  C   UNL     1      -6.668   7.349  63.880  1.00  0.00    -0.052 C  
ENDROOT
BRANCH   2   3
HETATM    3  N   UNL     1      -6.966   8.786  63.706  1.00  0.00    -0.087 NA 
BRANCH   3   4
HETATM    4  C   UNL     1      -6.573   9.320  62.391  1.00  0.00    -0.092 C  
HETATM    5  C   UNL     1      -6.089  10.767  62.362  1.00  0.00    -0.133 C  
ENDBRANCH   3   4
BRANCH   3   6
HETATM    6  C   UNL     1      -8.386   9.010  64.020  1.00  0.00    -0.176 C  
BRANCH   6   7
HETATM    7  C   UNL     1      -8.750  10.266  64.833  1.00  0.00    -0.185 C  
BRANCH   7   8
HETATM    8  O   UNL     1     -10.181  10.418  64.728  1.00  0.00    -0.345 OA 
BRANCH   8   9
HETATM    9  C   UNL     1     -10.586  11.681  64.428  1.00  0.00    -0.323 C  
HETATM   10  O   UNL     1     -10.763  12.090  63.294  1.00  0.00    -0.408 OA 
BRANCH   9  11
HETATM   11  C   UNL     1     -10.948  12.397  65.692  1.00  0.00    -0.321 A  
HETATM   12  C   UNL     1     -10.965  13.796  65.780  1.00  0.00    -0.280 A  
HETATM   13  C   UNL     1     -11.417  14.424  66.953  1.00  0.00    -0.379 A  
HETATM   14 CL   UNL     1     -10.483  14.857  64.501  1.00  0.00    -0.119 Cl 
HETATM   15  C   UNL     1     -11.822  13.686  68.064  1.00  0.00    -0.362 A  
HETATM   16  C   UNL     1     -11.866  12.298  67.957  1.00  0.00    -0.368 A  
HETATM   17  N   UNL     1     -12.393  14.320  69.169  1.00  0.00    -0.539 NA 
HETATM   18  H1  UNL     1     -12.689  13.780  69.982  1.00  0.00     0.000 HD 
HETATM   19  C   UNL     1     -11.412  11.659  66.799  1.00  0.00    -0.299 A  
HETATM   20  H2  UNL     1     -13.188  14.871  68.845  1.00  0.00     0.000 HD 
ENDBRANCH   9  11
ENDBRANCH   8   9
ENDBRANCH   7   8
ENDBRANCH   6   7
ENDBRANCH   3   6
ENDBRANCH   2   3
TORSDOF 7
ENDMDL
MODEL      255
REMARK 921   NORMALIZED FREE ENERGY PREDICTED BY IDOCK:   -3.08 KCAL/MOL
REMARK 922        TOTAL FREE ENERGY PREDICTED BY IDOCK:   -4.73 KCAL/MOL
REMARK 923 INTER-LIGAND FREE ENERGY PREDICTED BY IDOCK:   -4.12 KCAL/MOL
REMARK 924 INTRA-LIGAND FREE ENERGY PREDICTED BY IDOCK:   -0.61 KCAL/MOL
REMARK 927      BINDING AFFINITY PREDICTED BY RF-SCORE:    0.00 PKD
ROOT
HETATM    1  C   UNL     1      -7.467   7.917  70.895  1.00  0.00    -0.073 C  
HETATM    2  C   UNL     1      -8.736   8.760  70.856  1.00  0.00    -0.194 C  
ENDROOT
BRANCH   2   3
HETATM    3  N   UNL     1      -9.045   9.363  69.543  1.00  0.00    -0.154 NA 
BRANCH   3   4
HETATM    4  C   UNL     1      -8.146   8.926  68.462  1.00  0.00    -0.108 C  
HETATM    5  C   UNL     1      -7.339  10.019  67.766  1.00  0.00    -0.089 C  
ENDBRANCH   3   4
BRANCH   3   6
HETATM    6  C   UNL     1     -10.467   9.127  69.245  1.00  0.00    -0.221 C  
BRANCH   6   7
HETATM    7  C   UNL     1     -10.932   9.307  67.788  1.00  0.00    -0.004 C  
BRANCH   7   8
HETATM    8  O   UNL     1     -11.566  10.601  67.722  1.00  0.00    -0.501 OA 
BRANCH   8   9
HETATM    9  C   UNL     1     -10.772  11.586  67.222  1.00  0.00    -0.244 C  
HETATM   10  O   UNL     1     -10.249  11.550  66.122  1.00  0.00    -0.218 OA 
BRANCH   9  11
HETATM   11  C   UNL     1     -10.805  12.764  68.146  1.00  0.00    -0.249 A  
HETATM   12  C   UNL     1      -9.784  13.724  68.169  1.00  0.00    -0.227 A  
HETATM   13  C   UNL     1      -9.911  14.869  68.974  1.00  0.00    -0.235 A  
HETATM   14 CL   UNL     1      -8.336  13.627  67.228  1.00  0.00    -0.191 Cl 
HETATM   15  C   UNL     1     -11.023  15.064  69.792  1.00  0.00    -0.273 A  
HETATM   16  C   UNL     1     -12.066  14.144  69.723  1.00  0.00    -0.409 A  
HETATM   17  N   UNL     1     -11.196  16.267  70.481  1.00  0.00    -0.423 NA 
HETATM   18  H1  UNL     1     -12.009  16.410  71.079  1.00  0.00     0.000 HD 
HETATM   19  C   UNL     1     -11.951  12.996  68.933  1.00  0.00    -0.303 A  
HETATM   20  H2  UNL     1     -11.159  17.030  69.805  1.00  0.00     0.000 HD 
ENDBRANCH   9  11
ENDBRANCH   8   9
ENDBRANCH   7   8
ENDBRANCH   6   7
ENDBRANCH   3   6
ENDBRANCH   2   3
TORSDOF 7
ENDMDL
MODEL      256
REMARK 921   NORMALIZED FREE ENERGY PREDICTED BY IDOCK:   -3.07 KCAL/MOL
REMARK 922        TOTAL FREE ENERGY PREDICTED BY IDOCK:   -4.72 KCAL/MOL
REMARK 923 INTER-LIGAND FREE ENERGY PREDICTED BY IDOCK:   -4.30 KCAL/MOL
REMARK 924 INTRA-LIGAND FREE ENERGY PREDICTED BY IDOCK:   -0.42 KCAL/MOL
REMARK 927      BINDING AFFINITY PREDICTED BY RF-SCORE:    0.00 PKD
ROOT
HETATM    1  C   UNL     1     -10.043  13.995  67.056  1.00  0.00    -0.255 C  
HETATM    2  C   UNL     1     -10.872  13.984  65.777  1.00  0.00    -0.291 C  
ENDROOT
BRANCH   2   3
HETATM    3  N   UNL     1     -11.058  12.653  65.165  1.00  0.00    -0.287 NA 
BRANCH   3   4
HETATM    4  C   UNL     1     -11.356  12.697  63.723  1.00  0.00    -0.467 C  
HETATM    5  C   UNL     1     -12.623  11.976  63.269  1.00  0.00    -0.512 C  
ENDBRANCH   3   4
BRANCH   3   6
HETATM    6  C   UNL     1      -9.886  11.822  65.489  1.00  0.00    -0.234 C  
BRANCH   6   7
HETATM    7  C   UNL     1      -9.815  10.414  64.870  1.00  0.00    -0.334 C  
BRANCH   7   8
HETATM    8  O   UNL     1     -10.191   9.492  65.914  1.00  0.00    -0.266 OA 
BRANCH   8   9
HETATM    9  C   UNL     1      -9.179   8.687  66.337  1.00  0.00    -0.193 C  
HETATM   10  O   UNL     1      -8.791   7.703  65.732  1.00  0.00    -0.162 OA 
BRANCH   9  11
HETATM   11  C   UNL     1      -8.522   9.305  67.532  1.00  0.00    -0.115 A  
HETATM   12  C   UNL     1      -9.083   9.229  68.814  1.00  0.00    -0.136 A  
HETATM   13  C   UNL     1      -8.378   9.728  69.923  1.00  0.00    -0.198 A  
HETATM   14 CL   UNL     1     -10.621   8.518  69.163  1.00  0.00    -0.219 Cl 
HETATM   15  C   UNL     1      -7.133  10.339  69.779  1.00  0.00    -0.140 A  
HETATM   16  C   UNL     1      -6.547  10.358  68.517  1.00  0.00    -0.052 A  
HETATM   17  N   UNL     1      -6.388  10.706  70.902  1.00  0.00    -0.350 NA 
HETATM   18  H1  UNL     1      -5.478  11.153  70.797  1.00  0.00     0.000 HD 
HETATM   19  C   UNL     1      -7.239   9.872  67.403  1.00  0.00    -0.086 A  
HETATM   20  H2  UNL     1      -6.273   9.883  71.493  1.00  0.00     0.000 HD 
ENDBRANCH   9  11
ENDBRANCH   8   9
ENDBRANCH   7   8
ENDBRANCH   6   7
ENDBRANCH   3   6
ENDBRANCH   2   3
TORSDOF 7
ENDMDL
MODEL      257
REMARK 921   NORMALIZED FREE ENERGY PREDICTED BY IDOCK:   -3.07 KCAL/MOL
REMARK 922        TOTAL FREE ENERGY PREDICTED BY IDOCK:   -4.71 KCAL/MOL
REMARK 923 INTER-LIGAND FREE ENERGY PREDICTED BY IDOCK:   -4.56 KCAL/MOL
REMARK 924 INTRA-LIGAND FREE ENERGY PREDICTED BY IDOCK:   -0.15 KCAL/MOL
REMARK 927      BINDING AFFINITY PREDICTED BY RF-SCORE:    0.00 PKD
ROOT
HETATM    1  C   UNL     1      -9.477  11.163  63.064  1.00  0.00    -0.386 C  
HETATM    2  C   UNL     1     -10.748  11.694  63.717  1.00  0.00    -0.419 C  
ENDROOT
BRANCH   2   3
HETATM    3  N   UNL     1     -10.544  12.404  64.995  1.00  0.00    -0.288 NA 
BRANCH   3   4
HETATM    4  C   UNL     1     -11.793  12.852  65.634  1.00  0.00    -0.417 C  
HETATM    5  C   UNL     1     -12.401  14.147  65.102  1.00  0.00    -0.460 C  
ENDBRANCH   3   4
BRANCH   3   6
HETATM    6  C   UNL     1      -9.716  11.559  65.872  1.00  0.00    -0.232 C  
BRANCH   6   7
HETATM    7  C   UNL     1     -10.437  10.523  66.755  1.00  0.00    -0.242 C  
BRANCH   7   8
HETATM    8  O   UNL     1     -10.374  11.027  68.105  1.00  0.00    -0.171 OA 
BRANCH   8   9
HETATM    9  C   UNL     1      -9.230  10.705  68.767  1.00  0.00    -0.180 C  
HETATM   10  O   UNL     1      -8.280  11.458  68.894  1.00  0.00    -0.133 OA 
BRANCH   9  11
HETATM   11  C   UNL     1      -9.409   9.385  69.450  1.00  0.00    -0.172 A  
HETATM   12  C   UNL     1     -10.550   9.083  70.205  1.00  0.00    -0.224 A  
HETATM   13  C   UNL     1     -10.725   7.793  70.735  1.00  0.00    -0.230 A  
HETATM   14 CL   UNL     1     -11.828  10.204  70.528  1.00  0.00    -0.380 Cl 
HETATM   15  C   UNL     1      -9.763   6.798  70.560  1.00  0.00    -0.176 A  
HETATM   16  C   UNL     1      -8.660   7.077  69.758  1.00  0.00    -0.141 A  
HETATM   17  N   UNL     1     -10.012   5.489  70.977  1.00  0.00    -0.185 NA 
HETATM   18  H1  UNL     1      -9.309   4.761  70.849  1.00  0.00     0.000 HD 
HETATM   19  C   UNL     1      -8.470   8.358  69.230  1.00  0.00    -0.125 A  
HETATM   20  H2  UNL     1     -10.880   5.174  70.541  1.00  0.00     0.000 HD 
ENDBRANCH   9  11
ENDBRANCH   8   9
ENDBRANCH   7   8
ENDBRANCH   6   7
ENDBRANCH   3   6
ENDBRANCH   2   3
TORSDOF 7
ENDMDL
MODEL      258
REMARK 921   NORMALIZED FREE ENERGY PREDICTED BY IDOCK:   -3.06 KCAL/MOL
REMARK 922        TOTAL FREE ENERGY PREDICTED BY IDOCK:   -4.71 KCAL/MOL
REMARK 923 INTER-LIGAND FREE ENERGY PREDICTED BY IDOCK:   -4.15 KCAL/MOL
REMARK 924 INTRA-LIGAND FREE ENERGY PREDICTED BY IDOCK:   -0.56 KCAL/MOL
REMARK 927      BINDING AFFINITY PREDICTED BY RF-SCORE:    0.00 PKD
ROOT
HETATM    1  C   UNL     1     -12.128   9.851  71.109  1.00  0.00    -0.466 C  
HETATM    2  C   UNL     1     -10.698   9.754  70.591  1.00  0.00    -0.326 C  
ENDROOT
BRANCH   2   3
HETATM    3  N   UNL     1     -10.080   8.418  70.709  1.00  0.00    -0.190 NA 
BRANCH   3   4
HETATM    4  C   UNL     1      -9.293   8.233  71.941  1.00  0.00    -0.216 C  
HETATM    5  C   UNL     1      -7.867   7.717  71.764  1.00  0.00    -0.098 C  
ENDBRANCH   3   4
BRANCH   3   6
HETATM    6  C   UNL     1     -11.130   7.400  70.535  1.00  0.00    -0.261 C  
BRANCH   6   7
HETATM    7  C   UNL     1     -10.844   6.234  69.572  1.00  0.00    -0.340 C  
BRANCH   7   8
HETATM    8  O   UNL     1      -9.812   6.693  68.674  1.00  0.00    -0.134 OA 
BRANCH   8   9
HETATM    9  C   UNL     1     -10.226   6.862  67.390  1.00  0.00    -0.203 C  
HETATM   10  O   UNL     1     -11.245   6.375  66.930  1.00  0.00    -0.368 OA 
BRANCH   9  11
HETATM   11  C   UNL     1      -9.347   7.869  66.716  1.00  0.00    -0.232 A  
HETATM   12  C   UNL     1      -8.002   7.606  66.420  1.00  0.00    -0.107 A  
HETATM   13  C   UNL     1      -7.246   8.538  65.688  1.00  0.00    -0.079 A  
HETATM   14 CL   UNL     1      -7.170   6.159  66.874  1.00  0.00    -0.073 Cl 
HETATM   15  C   UNL     1      -7.791   9.753  65.273  1.00  0.00    -0.120 A  
HETATM   16  C   UNL     1      -9.143   9.987  65.510  1.00  0.00    -0.227 A  
HETATM   17  N   UNL     1      -7.070  10.605  64.435  1.00  0.00    -0.351 NA 
HETATM   18  H1  UNL     1      -7.468  11.493  64.131  1.00  0.00     0.000 HD 
HETATM   19  C   UNL     1      -9.906   9.073  66.243  1.00  0.00    -0.361 A  
HETATM   20  H2  UNL     1      -6.793  10.080  63.605  1.00  0.00     0.000 HD 
ENDBRANCH   9  11
ENDBRANCH   8   9
ENDBRANCH   7   8
ENDBRANCH   6   7
ENDBRANCH   3   6
ENDBRANCH   2   3
TORSDOF 7
ENDMDL
MODEL      259
REMARK 921   NORMALIZED FREE ENERGY PREDICTED BY IDOCK:   -3.05 KCAL/MOL
REMARK 922        TOTAL FREE ENERGY PREDICTED BY IDOCK:   -4.69 KCAL/MOL
REMARK 923 INTER-LIGAND FREE ENERGY PREDICTED BY IDOCK:   -4.42 KCAL/MOL
REMARK 924 INTRA-LIGAND FREE ENERGY PREDICTED BY IDOCK:   -0.27 KCAL/MOL
REMARK 927      BINDING AFFINITY PREDICTED BY RF-SCORE:    0.00 PKD
ROOT
HETATM    1  C   UNL     1     -12.408  10.017  71.374  1.00  0.00    -0.512 C  
HETATM    2  C   UNL     1     -11.351   9.228  70.611  1.00  0.00    -0.275 C  
ENDROOT
BRANCH   2   3
HETATM    3  N   UNL     1     -10.012   9.214  71.233  1.00  0.00    -0.302 NA 
BRANCH   3   4
HETATM    4  C   UNL     1      -9.894   8.288  72.372  1.00  0.00    -0.304 C  
HETATM    5  C   UNL     1     -10.103   6.807  72.068  1.00  0.00    -0.198 C  
ENDBRANCH   3   4
BRANCH   3   6
HETATM    6  C   UNL     1      -9.011   8.968  70.182  1.00  0.00    -0.184 C  
BRANCH   6   7
HETATM    7  C   UNL     1      -8.256  10.185  69.614  1.00  0.00    -0.165 C  
BRANCH   7   8
HETATM    8  O   UNL     1      -9.214  10.929  68.833  1.00  0.00    -0.184 OA 
BRANCH   8   9
HETATM    9  C   UNL     1      -8.655  11.791  67.941  1.00  0.00    -0.156 C  
HETATM   10  O   UNL     1      -8.016  12.780  68.256  1.00  0.00    -0.139 OA 
BRANCH   9  11
HETATM   11  C   UNL     1      -8.796  11.233  66.559  1.00  0.00    -0.180 A  
HETATM   12  C   UNL     1      -7.887  10.306  66.032  1.00  0.00    -0.133 A  
HETATM   13  C   UNL     1      -8.120   9.727  64.773  1.00  0.00    -0.146 A  
HETATM   14 CL   UNL     1      -6.457   9.773  66.848  1.00  0.00    -0.066 Cl 
HETATM   15  C   UNL     1      -9.228  10.079  64.004  1.00  0.00    -0.272 A  
HETATM   16  C   UNL     1     -10.165  10.951  64.552  1.00  0.00    -0.422 A  
HETATM   17  N   UNL     1      -9.516   9.398  62.819  1.00  0.00    -0.510 NA 
HETATM   18  H1  UNL     1     -10.327   9.655  62.257  1.00  0.00     0.000 HD 
HETATM   19  C   UNL     1      -9.943  11.541  65.800  1.00  0.00    -0.271 A  
HETATM   20  H2  UNL     1      -9.578   8.402  63.030  1.00  0.00     0.000 HD 
ENDBRANCH   9  11
ENDBRANCH   8   9
ENDBRANCH   7   8
ENDBRANCH   6   7
ENDBRANCH   3   6
ENDBRANCH   2   3
TORSDOF 7
ENDMDL
MODEL      260
REMARK 921   NORMALIZED FREE ENERGY PREDICTED BY IDOCK:   -3.04 KCAL/MOL
REMARK 922        TOTAL FREE ENERGY PREDICTED BY IDOCK:   -4.68 KCAL/MOL
REMARK 923 INTER-LIGAND FREE ENERGY PREDICTED BY IDOCK:   -4.10 KCAL/MOL
REMARK 924 INTRA-LIGAND FREE ENERGY PREDICTED BY IDOCK:   -0.58 KCAL/MOL
REMARK 927      BINDING AFFINITY PREDICTED BY RF-SCORE:    0.00 PKD
ROOT
HETATM    1  C   UNL     1      -8.752   7.209  68.218  1.00  0.00    -0.128 C  
HETATM    2  C   UNL     1      -9.669   8.404  68.449  1.00  0.00    -0.156 C  
ENDROOT
BRANCH   2   3
HETATM    3  N   UNL     1      -9.332   9.610  67.667  1.00  0.00    -0.127 NA 
BRANCH   3   4
HETATM    4  C   UNL     1      -8.803   9.321  66.324  1.00  0.00    -0.146 C  
HETATM    5  C   UNL     1      -7.530  10.061  65.921  1.00  0.00    -0.115 C  
ENDBRANCH   3   4
BRANCH   3   6
HETATM    6  C   UNL     1     -10.508  10.497  67.647  1.00  0.00    -0.234 C  
BRANCH   6   7
HETATM    7  C   UNL     1     -10.306  11.962  68.076  1.00  0.00    -0.196 C  
BRANCH   7   8
HETATM    8  O   UNL     1      -9.919  12.683  66.888  1.00  0.00    -0.223 OA 
BRANCH   8   9
HETATM    9  C   UNL     1      -8.890  13.553  67.075  1.00  0.00    -0.211 C  
HETATM   10  O   UNL     1      -7.726  13.215  67.207  1.00  0.00    -0.160 OA 
BRANCH   9  11
HETATM   11  C   UNL     1      -9.389  14.954  66.908  1.00  0.00    -0.258 A  
HETATM   12  C   UNL     1      -9.179  15.943  67.878  1.00  0.00    -0.198 A  
HETATM   13  C   UNL     1      -9.569  17.270  67.629  1.00  0.00    -0.256 A  
HETATM   14 CL   UNL     1      -8.421  15.660  69.407  1.00  0.00    -0.258 Cl 
HETATM   15  C   UNL     1     -10.203  17.631  66.441  1.00  0.00    -0.364 A  
HETATM   16  C   UNL     1     -10.356  16.664  65.451  1.00  0.00    -0.214 A  
HETATM   17  N   UNL     1     -10.462  18.973  66.154  1.00  0.00    -0.463 NA 
HETATM   18  H1  UNL     1     -10.926  19.238  65.285  1.00  0.00     0.000 HD 
HETATM   19  C   UNL     1      -9.979  15.338  65.687  1.00  0.00    -0.397 A  
HETATM   20  H2  UNL     1      -9.584  19.489  66.216  1.00  0.00     0.000 HD 
ENDBRANCH   9  11
ENDBRANCH   8   9
ENDBRANCH   7   8
ENDBRANCH   6   7
ENDBRANCH   3   6
ENDBRANCH   2   3
TORSDOF 7
ENDMDL
MODEL      261
REMARK 921   NORMALIZED FREE ENERGY PREDICTED BY IDOCK:   -3.04 KCAL/MOL
REMARK 922        TOTAL FREE ENERGY PREDICTED BY IDOCK:   -4.67 KCAL/MOL
REMARK 923 INTER-LIGAND FREE ENERGY PREDICTED BY IDOCK:   -4.15 KCAL/MOL
REMARK 924 INTRA-LIGAND FREE ENERGY PREDICTED BY IDOCK:   -0.53 KCAL/MOL
REMARK 927      BINDING AFFINITY PREDICTED BY RF-SCORE:    0.00 PKD
ROOT
HETATM    1  C   UNL     1      -8.681  10.568  63.188  1.00  0.00    -0.200 C  
HETATM    2  C   UNL     1      -8.808   9.650  64.398  1.00  0.00    -0.230 C  
ENDROOT
BRANCH   2   3
HETATM    3  N   UNL     1      -9.836  10.049  65.380  1.00  0.00    -0.301 NA 
BRANCH   3   4
HETATM    4  C   UNL     1      -9.551   9.605  66.755  1.00  0.00    -0.173 C  
HETATM    5  C   UNL     1      -8.730   8.327  66.899  1.00  0.00    -0.141 C  
ENDBRANCH   3   4
BRANCH   3   6
HETATM    6  C   UNL     1     -10.044  11.503  65.272  1.00  0.00    -0.269 C  
BRANCH   6   7
HETATM    7  C   UNL     1     -10.080  12.319  66.578  1.00  0.00    -0.215 C  
BRANCH   7   8
HETATM    8  O   UNL     1     -11.462  12.665  66.803  1.00  0.00    -0.310 OA 
BRANCH   8   9
HETATM    9  C   UNL     1     -11.820  13.880  66.305  1.00  0.00    -0.408 C  
HETATM   10  O   UNL     1     -12.660  14.042  65.437  1.00  0.00    -0.483 OA 
BRANCH   9  11
HETATM   11  C   UNL     1     -11.164  14.957  67.112  1.00  0.00    -0.345 A  
HETATM   12  C   UNL     1     -10.260  15.867  66.548  1.00  0.00    -0.290 A  
HETATM   13  C   UNL     1      -9.754  16.928  67.318  1.00  0.00    -0.251 A  
HETATM   14 CL   UNL     1      -9.715  15.807  64.907  1.00  0.00     0.399 Cl 
HETATM   15  C   UNL     1     -10.101  17.084  68.659  1.00  0.00    -0.303 A  
HETATM   16  C   UNL     1     -11.047  16.220  69.203  1.00  0.00    -0.322 A  
HETATM   17  N   UNL     1      -9.698  18.216  69.370  1.00  0.00     0.050 NA 
HETATM   18  H1  UNL     1      -9.952  18.331  70.351  1.00  0.00     0.000 HD 
HETATM   19  C   UNL     1     -11.554  15.155  68.452  1.00  0.00    -0.356 A  
HETATM   20  H2  UNL     1     -10.012  19.043  68.861  1.00  0.00     0.000 HD 
ENDBRANCH   9  11
ENDBRANCH   8   9
ENDBRANCH   7   8
ENDBRANCH   6   7
ENDBRANCH   3   6
ENDBRANCH   2   3
TORSDOF 7
ENDMDL
MODEL      262
REMARK 921   NORMALIZED FREE ENERGY PREDICTED BY IDOCK:   -3.03 KCAL/MOL
REMARK 922        TOTAL FREE ENERGY PREDICTED BY IDOCK:   -4.67 KCAL/MOL
REMARK 923 INTER-LIGAND FREE ENERGY PREDICTED BY IDOCK:   -4.16 KCAL/MOL
REMARK 924 INTRA-LIGAND FREE ENERGY PREDICTED BY IDOCK:   -0.51 KCAL/MOL
REMARK 927      BINDING AFFINITY PREDICTED BY RF-SCORE:    0.00 PKD
ROOT
HETATM    1  C   UNL     1      -6.120  12.111  67.219  1.00  0.00    -0.153 C  
HETATM    2  C   UNL     1      -6.961  11.347  68.234  1.00  0.00    -0.072 C  
ENDROOT
BRANCH   2   3
HETATM    3  N   UNL     1      -8.421  11.516  68.088  1.00  0.00    -0.147 NA 
BRANCH   3   4
HETATM    4  C   UNL     1      -8.869  11.649  66.691  1.00  0.00    -0.187 C  
HETATM    5  C   UNL     1      -9.703  12.883  66.359  1.00  0.00    -0.263 C  
ENDBRANCH   3   4
BRANCH   3   6
HETATM    6  C   UNL     1      -9.092  10.422  68.809  1.00  0.00    -0.165 C  
BRANCH   6   7
HETATM    7  C   UNL     1      -9.846   9.370  67.974  1.00  0.00    -0.164 C  
BRANCH   7   8
HETATM    8  O   UNL     1      -9.478   8.084  68.513  1.00  0.00    -0.142 OA 
BRANCH   8   9
HETATM    9  C   UNL     1     -10.509   7.200  68.598  1.00  0.00    -0.197 C  
HETATM   10  O   UNL     1     -11.128   6.780  67.636  1.00  0.00    -0.274 OA 
BRANCH   9  11
HETATM   11  C   UNL     1     -10.622   6.707  70.007  1.00  0.00    -0.266 A  
HETATM   12  C   UNL     1     -11.247   7.458  71.012  1.00  0.00    -0.264 A  
HETATM   13  C   UNL     1     -11.428   6.908  72.293  1.00  0.00    -0.313 A  
HETATM   14 CL   UNL     1     -11.864   9.059  70.791  1.00  0.00    -0.283 Cl 
HETATM   15  C   UNL     1     -10.965   5.631  72.610  1.00  0.00    -0.270 A  
HETATM   16  C   UNL     1     -10.402   4.861  71.595  1.00  0.00    -0.241 A  
HETATM   17  N   UNL     1     -11.271   5.050  73.842  1.00  0.00    -0.421 NA 
HETATM   18  H1  UNL     1     -10.932   4.116  74.073  1.00  0.00     0.000 HD 
HETATM   19  C   UNL     1     -10.209   5.397  70.318  1.00  0.00    -0.338 A  
HETATM   20  H2  UNL     1     -12.285   5.059  73.957  1.00  0.00     0.000 HD 
ENDBRANCH   9  11
ENDBRANCH   8   9
ENDBRANCH   7   8
ENDBRANCH   6   7
ENDBRANCH   3   6
ENDBRANCH   2   3
TORSDOF 7
ENDMDL
MODEL      263
REMARK 921   NORMALIZED FREE ENERGY PREDICTED BY IDOCK:   -3.03 KCAL/MOL
REMARK 922        TOTAL FREE ENERGY PREDICTED BY IDOCK:   -4.66 KCAL/MOL
REMARK 923 INTER-LIGAND FREE ENERGY PREDICTED BY IDOCK:   -3.82 KCAL/MOL
REMARK 924 INTRA-LIGAND FREE ENERGY PREDICTED BY IDOCK:   -0.83 KCAL/MOL
REMARK 927      BINDING AFFINITY PREDICTED BY RF-SCORE:    0.00 PKD
ROOT
HETATM    1  C   UNL     1      -7.571   6.303  72.979  1.00  0.00    -0.096 C  
HETATM    2  C   UNL     1      -8.822   5.795  72.274  1.00  0.00    -0.135 C  
ENDROOT
BRANCH   2   3
HETATM    3  N   UNL     1     -10.083   5.997  73.016  1.00  0.00    -0.176 NA 
BRANCH   3   4
HETATM    4  C   UNL     1     -10.162   5.234  74.273  1.00  0.00    -0.266 C  
HETATM    5  C   UNL     1     -10.638   3.787  74.160  1.00  0.00    -0.274 C  
ENDBRANCH   3   4
BRANCH   3   6
HETATM    6  C   UNL     1     -10.288   7.443  73.203  1.00  0.00    -0.334 C  
BRANCH   6   7
HETATM    7  C   UNL     1     -11.611   8.049  72.700  1.00  0.00    -0.387 C  
BRANCH   7   8
HETATM    8  O   UNL     1     -11.767   7.607  71.336  1.00  0.00    -0.269 OA 
BRANCH   8   9
HETATM    9  C   UNL     1     -11.210   8.437  70.413  1.00  0.00    -0.213 C  
HETATM   10  O   UNL     1     -11.275   9.653  70.462  1.00  0.00    -0.255 OA 
BRANCH   9  11
HETATM   11  C   UNL     1     -10.372   7.634  69.467  1.00  0.00    -0.217 A  
HETATM   12  C   UNL     1      -8.986   7.811  69.364  1.00  0.00    -0.142 A  
HETATM   13  C   UNL     1      -8.226   6.959  68.543  1.00  0.00    -0.121 A  
HETATM   14 CL   UNL     1      -8.092   9.020  70.218  1.00  0.00    -0.120 Cl 
HETATM   15  C   UNL     1      -8.824   5.951  67.788  1.00  0.00    -0.109 A  
HETATM   16  C   UNL     1     -10.191   5.733  67.939  1.00  0.00    -0.231 A  
HETATM   17  N   UNL     1      -8.043   5.031  67.086  1.00  0.00    -0.107 NA 
HETATM   18  H1  UNL     1      -8.481   4.293  66.534  1.00  0.00     0.000 HD 
HETATM   19  C   UNL     1     -10.961   6.577  68.746  1.00  0.00    -0.371 A  
HETATM   20  H2  UNL     1      -7.394   4.596  67.742  1.00  0.00     0.000 HD 
ENDBRANCH   9  11
ENDBRANCH   8   9
ENDBRANCH   7   8
ENDBRANCH   6   7
ENDBRANCH   3   6
ENDBRANCH   2   3
TORSDOF 7
ENDMDL
MODEL      264
REMARK 921   NORMALIZED FREE ENERGY PREDICTED BY IDOCK:   -3.02 KCAL/MOL
REMARK 922        TOTAL FREE ENERGY PREDICTED BY IDOCK:   -4.64 KCAL/MOL
REMARK 923 INTER-LIGAND FREE ENERGY PREDICTED BY IDOCK:   -3.95 KCAL/MOL
REMARK 924 INTRA-LIGAND FREE ENERGY PREDICTED BY IDOCK:   -0.70 KCAL/MOL
REMARK 927      BINDING AFFINITY PREDICTED BY RF-SCORE:    0.00 PKD
ROOT
HETATM    1  C   UNL     1     -11.856  14.749  69.060  1.00  0.00    -0.337 C  
HETATM    2  C   UNL     1     -10.796  13.658  68.981  1.00  0.00    -0.204 C  
ENDROOT
BRANCH   2   3
HETATM    3  N   UNL     1     -10.199  13.463  67.644  1.00  0.00    -0.226 NA 
BRANCH   3   4
HETATM    4  C   UNL     1     -11.174  13.522  66.542  1.00  0.00    -0.306 C  
HETATM    5  C   UNL     1     -10.603  13.490  65.126  1.00  0.00    -0.364 C  
ENDBRANCH   3   4
BRANCH   3   6
HETATM    6  C   UNL     1      -9.088  14.418  67.485  1.00  0.00    -0.195 C  
BRANCH   6   7
HETATM    7  C   UNL     1      -7.662  13.846  67.389  1.00  0.00    -0.148 C  
BRANCH   7   8
HETATM    8  O   UNL     1      -7.687  12.574  68.069  1.00  0.00    -0.117 OA 
BRANCH   8   9
HETATM    9  C   UNL     1      -7.213  11.536  67.328  1.00  0.00    -0.132 C  
HETATM   10  O   UNL     1      -6.114  11.519  66.801  1.00  0.00    -0.133 OA 
BRANCH   9  11
HETATM   11  C   UNL     1      -8.164  10.384  67.427  1.00  0.00    -0.117 A  
HETATM   12  C   UNL     1      -8.379   9.694  68.628  1.00  0.00    -0.114 A  
HETATM   13  C   UNL     1      -9.361   8.691  68.699  1.00  0.00    -0.142 A  
HETATM   14 CL   UNL     1      -7.521  10.007  70.097  1.00  0.00    -0.175 Cl 
HETATM   15  C   UNL     1     -10.115   8.330  67.583  1.00  0.00    -0.209 A  
HETATM   16  C   UNL     1      -9.947   9.057  66.407  1.00  0.00    -0.370 A  
HETATM   17  N   UNL     1     -11.175   7.429  67.703  1.00  0.00    -0.490 NA 
HETATM   18  H1  UNL     1     -11.727   7.166  66.887  1.00  0.00     0.000 HD 
HETATM   19  C   UNL     1      -8.969  10.052  66.319  1.00  0.00    -0.170 A  
HETATM   20  H2  UNL     1     -11.812   7.779  68.419  1.00  0.00     0.000 HD 
ENDBRANCH   9  11
ENDBRANCH   8   9
ENDBRANCH   7   8
ENDBRANCH   6   7
ENDBRANCH   3   6
ENDBRANCH   2   3
TORSDOF 7
ENDMDL
MODEL      265
REMARK 921   NORMALIZED FREE ENERGY PREDICTED BY IDOCK:   -3.00 KCAL/MOL
REMARK 922        TOTAL FREE ENERGY PREDICTED BY IDOCK:   -4.63 KCAL/MOL
REMARK 923 INTER-LIGAND FREE ENERGY PREDICTED BY IDOCK:   -3.92 KCAL/MOL
REMARK 924 INTRA-LIGAND FREE ENERGY PREDICTED BY IDOCK:   -0.71 KCAL/MOL
REMARK 927      BINDING AFFINITY PREDICTED BY RF-SCORE:    0.00 PKD
ROOT
HETATM    1  C   UNL     1      -7.453   8.372  69.271  1.00  0.00    -0.084 C  
HETATM    2  C   UNL     1      -8.169   7.983  70.558  1.00  0.00    -0.118 C  
ENDROOT
BRANCH   2   3
HETATM    3  N   UNL     1      -9.629   7.795  70.428  1.00  0.00    -0.175 NA 
BRANCH   3   4
HETATM    4  C   UNL     1     -10.102   6.477  70.885  1.00  0.00    -0.185 C  
HETATM    5  C   UNL     1     -10.557   5.505  69.800  1.00  0.00    -0.388 C  
ENDBRANCH   3   4
BRANCH   3   6
HETATM    6  C   UNL     1     -10.306   8.917  71.099  1.00  0.00    -0.268 C  
BRANCH   6   7
HETATM    7  C   UNL     1     -11.414   9.652  70.321  1.00  0.00    -0.233 C  
BRANCH   7   8
HETATM    8  O   UNL     1     -10.790  10.804  69.717  1.00  0.00    -0.256 OA 
BRANCH   8   9
HETATM    9  C   UNL     1     -10.541  10.668  68.386  1.00  0.00    -0.199 C  
HETATM   10  O   UNL     1     -10.964   9.753  67.702  1.00  0.00    -0.280 OA 
BRANCH   9  11
HETATM   11  C   UNL     1      -9.842  11.895  67.887  1.00  0.00    -0.190 A  
HETATM   12  C   UNL     1     -10.539  13.047  67.501  1.00  0.00    -0.230 A  
HETATM   13  C   UNL     1      -9.837  14.211  67.145  1.00  0.00    -0.253 A  
HETATM   14 CL   UNL     1     -12.264  13.170  67.452  1.00  0.00    -0.288 Cl 
HETATM   15  C   UNL     1      -8.442  14.243  67.128  1.00  0.00    -0.200 A  
HETATM   16  C   UNL     1      -7.749  13.120  67.572  1.00  0.00    -0.168 A  
HETATM   17  N   UNL     1      -7.762  15.442  66.903  1.00  0.00    -0.253 NA 
HETATM   18  H1  UNL     1      -6.743  15.465  66.891  1.00  0.00     0.000 HD 
HETATM   19  C   UNL     1      -8.434  11.953  67.923  1.00  0.00    -0.154 A  
HETATM   20  H2  UNL     1      -8.089  16.128  67.584  1.00  0.00     0.000 HD 
ENDBRANCH   9  11
ENDBRANCH   8   9
ENDBRANCH   7   8
ENDBRANCH   6   7
ENDBRANCH   3   6
ENDBRANCH   2   3
TORSDOF 7
ENDMDL
MODEL      266
REMARK 921   NORMALIZED FREE ENERGY PREDICTED BY IDOCK:   -3.00 KCAL/MOL
REMARK 922        TOTAL FREE ENERGY PREDICTED BY IDOCK:   -4.62 KCAL/MOL
REMARK 923 INTER-LIGAND FREE ENERGY PREDICTED BY IDOCK:   -4.17 KCAL/MOL
REMARK 924 INTRA-LIGAND FREE ENERGY PREDICTED BY IDOCK:   -0.46 KCAL/MOL
REMARK 927      BINDING AFFINITY PREDICTED BY RF-SCORE:    0.00 PKD
ROOT
HETATM    1  C   UNL     1      -9.456   3.117  64.364  1.00  0.00    -0.145 C  
HETATM    2  C   UNL     1      -8.505   3.551  65.472  1.00  0.00    -0.107 C  
ENDROOT
BRANCH   2   3
HETATM    3  N   UNL     1      -9.160   4.048  66.699  1.00  0.00    -0.131 NA 
BRANCH   3   4
HETATM    4  C   UNL     1      -9.380   3.009  67.719  1.00  0.00    -0.202 C  
HETATM    5  C   UNL     1      -9.368   3.471  69.174  1.00  0.00    -0.242 C  
ENDBRANCH   3   4
BRANCH   3   6
HETATM    6  C   UNL     1      -8.394   5.201  67.203  1.00  0.00    -0.107 C  
BRANCH   6   7
HETATM    7  C   UNL     1      -8.806   6.602  66.714  1.00  0.00    -0.130 C  
BRANCH   7   8
HETATM    8  O   UNL     1      -9.010   7.401  67.898  1.00  0.00    -0.132 OA 
BRANCH   8   9
HETATM    9  C   UNL     1     -10.058   8.265  67.812  1.00  0.00    -0.206 C  
HETATM   10  O   UNL     1     -10.516   8.681  66.762  1.00  0.00    -0.291 OA 
BRANCH   9  11
HETATM   11  C   UNL     1     -10.649   8.460  69.173  1.00  0.00    -0.177 A  
HETATM   12  C   UNL     1     -10.885   9.733  69.710  1.00  0.00    -0.257 A  
HETATM   13  C   UNL     1     -11.543   9.868  70.944  1.00  0.00    -0.456 A  
HETATM   14 CL   UNL     1     -10.440  11.214  68.933  1.00  0.00    -0.217 Cl 
HETATM   15  C   UNL     1     -11.942   8.754  71.682  1.00  0.00    -0.332 A  
HETATM   16  C   UNL     1     -11.767   7.492  71.121  1.00  0.00    -0.315 A  
HETATM   17  N   UNL     1     -12.712   8.906  72.837  1.00  0.00    -0.487 NA 
HETATM   18  H1  UNL     1     -13.005   8.091  73.376  1.00  0.00     0.000 HD 
HETATM   19  C   UNL     1     -11.107   7.341  69.898  1.00  0.00    -0.233 A  
HETATM   20  H2  UNL     1     -13.544   9.446  72.599  1.00  0.00     0.000 HD 
ENDBRANCH   9  11
ENDBRANCH   8   9
ENDBRANCH   7   8
ENDBRANCH   6   7
ENDBRANCH   3   6
ENDBRANCH   2   3
TORSDOF 7
ENDMDL
MODEL      267
REMARK 921   NORMALIZED FREE ENERGY PREDICTED BY IDOCK:   -3.00 KCAL/MOL
REMARK 922        TOTAL FREE ENERGY PREDICTED BY IDOCK:   -4.62 KCAL/MOL
REMARK 923 INTER-LIGAND FREE ENERGY PREDICTED BY IDOCK:   -3.95 KCAL/MOL
REMARK 924 INTRA-LIGAND FREE ENERGY PREDICTED BY IDOCK:   -0.67 KCAL/MOL
REMARK 927      BINDING AFFINITY PREDICTED BY RF-SCORE:    0.00 PKD
ROOT
HETATM    1  C   UNL     1      -8.188  10.023  65.540  1.00  0.00    -0.146 C  
HETATM    2  C   UNL     1      -9.684  10.276  65.407  1.00  0.00    -0.278 C  
ENDROOT
BRANCH   2   3
HETATM    3  N   UNL     1     -10.172  11.501  66.073  1.00  0.00    -0.233 NA 
BRANCH   3   4
HETATM    4  C   UNL     1     -10.770  12.482  65.151  1.00  0.00    -0.292 C  
HETATM    5  C   UNL     1     -12.283  12.662  65.239  1.00  0.00    -0.532 C  
ENDBRANCH   3   4
BRANCH   3   6
HETATM    6  C   UNL     1     -11.077  11.109  67.167  1.00  0.00    -0.287 C  
BRANCH   6   7
HETATM    7  C   UNL     1     -10.573  11.288  68.611  1.00  0.00    -0.202 C  
BRANCH   7   8
HETATM    8  O   UNL     1      -9.663  10.198  68.862  1.00  0.00    -0.169 OA 
BRANCH   8   9
HETATM    9  C   UNL     1     -10.274   9.024  69.179  1.00  0.00    -0.205 C  
HETATM   10  O   UNL     1     -11.116   8.907  70.053  1.00  0.00    -0.237 OA 
BRANCH   9  11
HETATM   11  C   UNL     1      -9.886   7.979  68.180  1.00  0.00    -0.195 A  
HETATM   12  C   UNL     1      -8.552   7.606  67.970  1.00  0.00    -0.123 A  
HETATM   13  C   UNL     1      -8.244   6.544  67.102  1.00  0.00    -0.113 A  
HETATM   14 CL   UNL     1      -7.198   8.357  68.742  1.00  0.00    -0.077 Cl 
HETATM   15  C   UNL     1      -9.241   5.863  66.404  1.00  0.00    -0.150 A  
HETATM   16  C   UNL     1     -10.570   6.189  66.661  1.00  0.00    -0.296 A  
HETATM   17  N   UNL     1      -8.932   4.727  65.653  1.00  0.00    -0.137 NA 
HETATM   18  H1  UNL     1      -9.661   4.228  65.143  1.00  0.00     0.000 HD 
HETATM   19  C   UNL     1     -10.891   7.248  67.515  1.00  0.00    -0.284 A  
HETATM   20  H2  UNL     1      -8.456   4.060  66.262  1.00  0.00     0.000 HD 
ENDBRANCH   9  11
ENDBRANCH   8   9
ENDBRANCH   7   8
ENDBRANCH   6   7
ENDBRANCH   3   6
ENDBRANCH   2   3
TORSDOF 7
ENDMDL
MODEL      268
REMARK 921   NORMALIZED FREE ENERGY PREDICTED BY IDOCK:   -3.00 KCAL/MOL
REMARK 922        TOTAL FREE ENERGY PREDICTED BY IDOCK:   -4.62 KCAL/MOL
REMARK 923 INTER-LIGAND FREE ENERGY PREDICTED BY IDOCK:   -3.52 KCAL/MOL
REMARK 924 INTRA-LIGAND FREE ENERGY PREDICTED BY IDOCK:   -1.10 KCAL/MOL
REMARK 927      BINDING AFFINITY PREDICTED BY RF-SCORE:    0.00 PKD
ROOT
HETATM    1  C   UNL     1      -7.856  10.416  65.355  1.00  0.00    -0.143 C  
HETATM    2  C   UNL     1      -9.348  10.513  65.066  1.00  0.00    -0.222 C  
ENDROOT
BRANCH   2   3
HETATM    3  N   UNL     1     -10.022  11.692  65.648  1.00  0.00    -0.231 NA 
BRANCH   3   4
HETATM    4  C   UNL     1     -10.698  12.543  64.654  1.00  0.00    -0.311 C  
HETATM    5  C   UNL     1     -12.185  12.802  64.881  1.00  0.00    -0.519 C  
ENDBRANCH   3   4
BRANCH   3   6
HETATM    6  C   UNL     1     -10.918  11.234  66.723  1.00  0.00    -0.281 C  
BRANCH   6   7
HETATM    7  C   UNL     1     -10.649  11.752  68.148  1.00  0.00    -0.203 C  
BRANCH   7   8
HETATM    8  O   UNL     1      -9.439  11.105  68.593  1.00  0.00    -0.190 OA 
BRANCH   8   9
HETATM    9  C   UNL     1      -9.641   9.907  69.207  1.00  0.00    -0.205 C  
HETATM   10  O   UNL     1     -10.560   9.680  69.974  1.00  0.00    -0.222 OA 
BRANCH   9  11
HETATM   11  C   UNL     1      -8.685   8.899  68.649  1.00  0.00    -0.134 A  
HETATM   12  C   UNL     1      -9.084   7.922  67.727  1.00  0.00    -0.134 A  
HETATM   13  C   UNL     1      -8.130   7.067  67.147  1.00  0.00    -0.118 A  
HETATM   14 CL   UNL     1     -10.715   7.690  67.198  1.00  0.00    -0.401 Cl 
HETATM   15  C   UNL     1      -6.782   7.139  67.496  1.00  0.00    -0.064 A  
HETATM   16  C   UNL     1      -6.375   8.149  68.364  1.00  0.00    -0.050 A  
HETATM   17  N   UNL     1      -5.830   6.376  66.815  1.00  0.00    -0.020 NA 
HETATM   18  H1  UNL     1      -4.845   6.429  67.070  1.00  0.00     0.000 HD 
HETATM   19  C   UNL     1      -7.313   9.002  68.953  1.00  0.00    -0.074 A  
HETATM   20  H2  UNL     1      -5.913   6.578  65.818  1.00  0.00     0.000 HD 
ENDBRANCH   9  11
ENDBRANCH   8   9
ENDBRANCH   7   8
ENDBRANCH   6   7
ENDBRANCH   3   6
ENDBRANCH   2   3
TORSDOF 7
ENDMDL
MODEL      269
REMARK 921   NORMALIZED FREE ENERGY PREDICTED BY IDOCK:   -3.00 KCAL/MOL
REMARK 922        TOTAL FREE ENERGY PREDICTED BY IDOCK:   -4.62 KCAL/MOL
REMARK 923 INTER-LIGAND FREE ENERGY PREDICTED BY IDOCK:   -4.06 KCAL/MOL
REMARK 924 INTRA-LIGAND FREE ENERGY PREDICTED BY IDOCK:   -0.55 KCAL/MOL
REMARK 927      BINDING AFFINITY PREDICTED BY RF-SCORE:    0.00 PKD
ROOT
HETATM    1  C   UNL     1      -6.910   8.962  64.306  1.00  0.00    -0.082 C  
HETATM    2  C   UNL     1      -6.498   8.903  65.772  1.00  0.00    -0.060 C  
ENDROOT
BRANCH   2   3
HETATM    3  N   UNL     1      -7.579   8.536  66.709  1.00  0.00    -0.089 NA 
BRANCH   3   4
HETATM    4  C   UNL     1      -7.782   7.083  66.845  1.00  0.00    -0.103 C  
HETATM    5  C   UNL     1      -6.612   6.285  67.417  1.00  0.00    -0.052 C  
ENDBRANCH   3   4
BRANCH   3   6
HETATM    6  C   UNL     1      -7.330   9.208  67.995  1.00  0.00    -0.083 C  
BRANCH   6   7
HETATM    7  C   UNL     1      -8.447  10.103  68.563  1.00  0.00    -0.121 C  
BRANCH   7   8
HETATM    8  O   UNL     1      -9.345  10.375  67.467  1.00  0.00    -0.147 OA 
BRANCH   8   9
HETATM    9  C   UNL     1     -10.663  10.276  67.790  1.00  0.00    -0.275 C  
HETATM   10  O   UNL     1     -11.258   9.220  67.916  1.00  0.00     0.004 OA 
BRANCH   9  11
HETATM   11  C   UNL     1     -11.190  11.634  68.138  1.00  0.00    -0.325 A  
HETATM   12  C   UNL     1     -11.631  11.955  69.429  1.00  0.00    -0.325 A  
HETATM   13  C   UNL     1     -12.013  13.272  69.737  1.00  0.00    -0.391 A  
HETATM   14 CL   UNL     1     -11.721  10.826  70.736  1.00  0.00    -0.424 Cl 
HETATM   15  C   UNL     1     -12.002  14.278  68.770  1.00  0.00    -0.311 A  
HETATM   16  C   UNL     1     -11.503  13.975  67.506  1.00  0.00    -0.369 A  
HETATM   17  N   UNL     1     -12.254  15.605  69.123  1.00  0.00    -0.589 NA 
HETATM   18  H1  UNL     1     -12.245  16.340  68.417  1.00  0.00     0.000 HD 
HETATM   19  C   UNL     1     -11.126  12.668  67.183  1.00  0.00    -0.321 A  
HETATM   20  H2  UNL     1     -11.605  15.868  69.866  1.00  0.00     0.000 HD 
ENDBRANCH   9  11
ENDBRANCH   8   9
ENDBRANCH   7   8
ENDBRANCH   6   7
ENDBRANCH   3   6
ENDBRANCH   2   3
TORSDOF 7
ENDMDL
MODEL      270
REMARK 921   NORMALIZED FREE ENERGY PREDICTED BY IDOCK:   -2.99 KCAL/MOL
REMARK 922        TOTAL FREE ENERGY PREDICTED BY IDOCK:   -4.61 KCAL/MOL
REMARK 923 INTER-LIGAND FREE ENERGY PREDICTED BY IDOCK:   -4.60 KCAL/MOL
REMARK 924 INTRA-LIGAND FREE ENERGY PREDICTED BY IDOCK:   -0.01 KCAL/MOL
REMARK 927      BINDING AFFINITY PREDICTED BY RF-SCORE:    0.00 PKD
ROOT
HETATM    1  C   UNL     1      -8.448   5.394  64.583  1.00  0.00    -0.126 C  
HETATM    2  C   UNL     1      -8.222   5.270  66.085  1.00  0.00    -0.110 C  
ENDROOT
BRANCH   2   3
HETATM    3  N   UNL     1      -9.354   4.697  66.841  1.00  0.00    -0.131 NA 
BRANCH   3   4
HETATM    4  C   UNL     1      -9.105   4.580  68.288  1.00  0.00    -0.124 C  
HETATM    5  C   UNL     1      -9.197   3.176  68.882  1.00  0.00    -0.226 C  
ENDBRANCH   3   4
BRANCH   3   6
HETATM    6  C   UNL     1     -10.567   5.469  66.524  1.00  0.00    -0.279 C  
BRANCH   6   7
HETATM    7  C   UNL     1     -11.026   6.531  67.541  1.00  0.00    -0.359 C  
BRANCH   7   8
HETATM    8  O   UNL     1      -9.963   7.503  67.621  1.00  0.00    -0.151 OA 
BRANCH   8   9
HETATM    9  C   UNL     1     -10.312   8.659  68.247  1.00  0.00    -0.207 C  
HETATM   10  O   UNL     1     -10.429   8.773  69.454  1.00  0.00    -0.218 OA 
BRANCH   9  11
HETATM   11  C   UNL     1     -10.340   9.773  67.247  1.00  0.00    -0.308 A  
HETATM   12  C   UNL     1     -11.095  10.936  67.446  1.00  0.00    -0.307 A  
HETATM   13  C   UNL     1     -11.005  12.001  66.533  1.00  0.00    -0.337 A  
HETATM   14 CL   UNL     1     -12.152  11.192  68.791  1.00  0.00    -0.337 Cl 
HETATM   15  C   UNL     1     -10.200  11.920  65.397  1.00  0.00    -0.263 A  
HETATM   16  C   UNL     1      -9.401  10.791  65.231  1.00  0.00    -0.247 A  
HETATM   17  N   UNL     1     -10.017  13.033  64.574  1.00  0.00    -0.609 NA 
HETATM   18  H1  UNL     1      -9.429  12.974  63.744  1.00  0.00     0.000 HD 
HETATM   19  C   UNL     1      -9.486   9.721  66.127  1.00  0.00    -0.261 A  
HETATM   20  H2  UNL     1      -9.679  13.804  65.151  1.00  0.00     0.000 HD 
ENDBRANCH   9  11
ENDBRANCH   8   9
ENDBRANCH   7   8
ENDBRANCH   6   7
ENDBRANCH   3   6
ENDBRANCH   2   3
TORSDOF 7
ENDMDL
MODEL      271
REMARK 921   NORMALIZED FREE ENERGY PREDICTED BY IDOCK:   -2.99 KCAL/MOL
REMARK 922        TOTAL FREE ENERGY PREDICTED BY IDOCK:   -4.61 KCAL/MOL
REMARK 923 INTER-LIGAND FREE ENERGY PREDICTED BY IDOCK:   -4.12 KCAL/MOL
REMARK 924 INTRA-LIGAND FREE ENERGY PREDICTED BY IDOCK:   -0.49 KCAL/MOL
REMARK 927      BINDING AFFINITY PREDICTED BY RF-SCORE:    0.00 PKD
ROOT
HETATM    1  C   UNL     1     -10.744   6.304  67.158  1.00  0.00    -0.432 C  
HETATM    2  C   UNL     1     -10.555   7.812  67.273  1.00  0.00    -0.306 C  
ENDROOT
BRANCH   2   3
HETATM    3  N   UNL     1      -9.354   8.344  66.598  1.00  0.00    -0.176 NA 
BRANCH   3   4
HETATM    4  C   UNL     1      -9.629   9.479  65.700  1.00  0.00    -0.277 C  
HETATM    5  C   UNL     1      -8.942   9.449  64.337  1.00  0.00    -0.215 C  
ENDBRANCH   3   4
BRANCH   3   6
HETATM    6  C   UNL     1      -8.339   8.647  67.621  1.00  0.00    -0.121 C  
BRANCH   6   7
HETATM    7  C   UNL     1      -8.833   8.985  69.040  1.00  0.00    -0.136 C  
BRANCH   7   8
HETATM    8  O   UNL     1      -8.694  10.413  69.189  1.00  0.00    -0.154 OA 
BRANCH   8   9
HETATM    9  C   UNL     1      -9.825  11.115  68.907  1.00  0.00    -0.162 C  
HETATM   10  O   UNL     1     -10.922  10.856  69.368  1.00  0.00    -0.222 OA 
BRANCH   9  11
HETATM   11  C   UNL     1      -9.465  12.331  68.111  1.00  0.00    -0.213 A  
HETATM   12  C   UNL     1     -10.424  13.076  67.412  1.00  0.00    -0.234 A  
HETATM   13  C   UNL     1     -10.058  14.272  66.770  1.00  0.00    -0.264 A  
HETATM   14 CL   UNL     1     -12.095  12.644  67.293  1.00  0.00    -0.298 Cl 
HETATM   15  C   UNL     1      -8.740  14.728  66.777  1.00  0.00    -0.224 A  
HETATM   16  C   UNL     1      -7.800  14.023  67.524  1.00  0.00    -0.197 A  
HETATM   17  N   UNL     1      -8.419  15.981  66.252  1.00  0.00    -0.326 NA 
HETATM   18  H1  UNL     1      -7.456  16.315  66.257  1.00  0.00     0.000 HD 
HETATM   19  C   UNL     1      -8.147  12.828  68.162  1.00  0.00    -0.158 A  
HETATM   20  H2  UNL     1      -9.001  16.680  66.714  1.00  0.00     0.000 HD 
ENDBRANCH   9  11
ENDBRANCH   8   9
ENDBRANCH   7   8
ENDBRANCH   6   7
ENDBRANCH   3   6
ENDBRANCH   2   3
TORSDOF 7
ENDMDL
MODEL      272
REMARK 921   NORMALIZED FREE ENERGY PREDICTED BY IDOCK:   -2.98 KCAL/MOL
REMARK 922        TOTAL FREE ENERGY PREDICTED BY IDOCK:   -4.59 KCAL/MOL
REMARK 923 INTER-LIGAND FREE ENERGY PREDICTED BY IDOCK:   -4.20 KCAL/MOL
REMARK 924 INTRA-LIGAND FREE ENERGY PREDICTED BY IDOCK:   -0.39 KCAL/MOL
REMARK 927      BINDING AFFINITY PREDICTED BY RF-SCORE:    0.00 PKD
ROOT
HETATM    1  C   UNL     1      -9.900   4.033  64.788  1.00  0.00    -0.201 C  
HETATM    2  C   UNL     1      -8.833   5.083  65.071  1.00  0.00    -0.149 C  
ENDROOT
BRANCH   2   3
HETATM    3  N   UNL     1      -9.227   6.131  66.033  1.00  0.00    -0.135 NA 
BRANCH   3   4
HETATM    4  C   UNL     1      -9.758   5.605  67.302  1.00  0.00    -0.135 C  
HETATM    5  C   UNL     1     -11.094   6.179  67.769  1.00  0.00    -0.306 C  
ENDBRANCH   3   4
BRANCH   3   6
HETATM    6  C   UNL     1      -8.089   7.047  66.218  1.00  0.00    -0.115 C  
BRANCH   6   7
HETATM    7  C   UNL     1      -7.878   8.148  65.162  1.00  0.00    -0.118 C  
BRANCH   7   8
HETATM    8  O   UNL     1      -8.370   9.372  65.748  1.00  0.00    -0.116 OA 
BRANCH   8   9
HETATM    9  C   UNL     1      -8.570  10.376  64.852  1.00  0.00    -0.182 C  
HETATM   10  O   UNL     1      -8.051  10.423  63.751  1.00  0.00    -0.159 OA 
BRANCH   9  11
HETATM   11  C   UNL     1      -9.647  11.284  65.361  1.00  0.00    -0.261 A  
HETATM   12  C   UNL     1      -9.440  12.160  66.434  1.00  0.00    -0.233 A  
HETATM   13  C   UNL     1     -10.444  13.071  66.806  1.00  0.00    -0.264 A  
HETATM   14 CL   UNL     1      -7.980  12.238  67.359  1.00  0.00    -0.162 Cl 
HETATM   15  C   UNL     1     -11.675  13.104  66.151  1.00  0.00    -0.381 A  
HETATM   16  C   UNL     1     -11.859  12.278  65.045  1.00  0.00    -0.412 A  
HETATM   17  N   UNL     1     -12.608  14.101  66.443  1.00  0.00    -0.516 NA 
HETATM   18  H1  UNL     1     -13.508  14.126  65.964  1.00  0.00     0.000 HD 
HETATM   19  C   UNL     1     -10.872  11.362  64.668  1.00  0.00    -0.359 A  
HETATM   20  H2  UNL     1     -12.156  15.008  66.319  1.00  0.00     0.000 HD 
ENDBRANCH   9  11
ENDBRANCH   8   9
ENDBRANCH   7   8
ENDBRANCH   6   7
ENDBRANCH   3   6
ENDBRANCH   2   3
TORSDOF 7
ENDMDL
MODEL      273
REMARK 921   NORMALIZED FREE ENERGY PREDICTED BY IDOCK:   -2.98 KCAL/MOL
REMARK 922        TOTAL FREE ENERGY PREDICTED BY IDOCK:   -4.59 KCAL/MOL
REMARK 923 INTER-LIGAND FREE ENERGY PREDICTED BY IDOCK:   -4.02 KCAL/MOL
REMARK 924 INTRA-LIGAND FREE ENERGY PREDICTED BY IDOCK:   -0.57 KCAL/MOL
REMARK 927      BINDING AFFINITY PREDICTED BY RF-SCORE:    0.00 PKD
ROOT
HETATM    1  C   UNL     1      -7.382   6.868  68.636  1.00  0.00    -0.094 C  
HETATM    2  C   UNL     1      -8.246   8.110  68.812  1.00  0.00    -0.125 C  
ENDROOT
BRANCH   2   3
HETATM    3  N   UNL     1      -7.715   9.335  68.179  1.00  0.00    -0.087 NA 
BRANCH   3   4
HETATM    4  C   UNL     1      -7.021   9.092  66.903  1.00  0.00    -0.081 C  
HETATM    5  C   UNL     1      -7.796   9.435  65.633  1.00  0.00    -0.099 C  
ENDBRANCH   3   4
BRANCH   3   6
HETATM    6  C   UNL     1      -8.809  10.314  68.066  1.00  0.00    -0.122 C  
BRANCH   6   7
HETATM    7  C   UNL     1      -8.533  11.753  68.539  1.00  0.00    -0.125 C  
BRANCH   7   8
HETATM    8  O   UNL     1      -8.323  12.539  67.348  1.00  0.00    -0.164 OA 
BRANCH   8   9
HETATM    9  C   UNL     1      -9.095  13.657  67.276  1.00  0.00    -0.228 C  
HETATM   10  O   UNL     1      -8.879  14.678  67.906  1.00  0.00    -0.161 OA 
BRANCH   9  11
HETATM   11  C   UNL     1     -10.107  13.489  66.186  1.00  0.00    -0.307 A  
HETATM   12  C   UNL     1     -11.398  14.028  66.277  1.00  0.00    -0.333 A  
HETATM   13  C   UNL     1     -12.278  13.939  65.184  1.00  0.00    -0.443 A  
HETATM   14 CL   UNL     1     -12.014  14.851  67.668  1.00  0.00    -0.272 Cl 
HETATM   15  C   UNL     1     -11.912  13.289  64.006  1.00  0.00    -0.465 A  
HETATM   16  C   UNL     1     -10.609  12.810  63.891  1.00  0.00    -0.427 A  
HETATM   17  N   UNL     1     -12.744  13.327  62.885  1.00  0.00    -0.537 NA 
HETATM   18  H1  UNL     1     -12.477  12.852  62.024  1.00  0.00     0.000 HD 
HETATM   19  C   UNL     1      -9.726  12.884  64.972  1.00  0.00     0.049 A  
HETATM   20  H2  UNL     1     -12.938  14.304  62.664  1.00  0.00     0.000 HD 
ENDBRANCH   9  11
ENDBRANCH   8   9
ENDBRANCH   7   8
ENDBRANCH   6   7
ENDBRANCH   3   6
ENDBRANCH   2   3
TORSDOF 7
ENDMDL
MODEL      274
REMARK 921   NORMALIZED FREE ENERGY PREDICTED BY IDOCK:   -2.96 KCAL/MOL
REMARK 922        TOTAL FREE ENERGY PREDICTED BY IDOCK:   -4.57 KCAL/MOL
REMARK 923 INTER-LIGAND FREE ENERGY PREDICTED BY IDOCK:   -3.89 KCAL/MOL
REMARK 924 INTRA-LIGAND FREE ENERGY PREDICTED BY IDOCK:   -0.68 KCAL/MOL
REMARK 927      BINDING AFFINITY PREDICTED BY RF-SCORE:    0.00 PKD
ROOT
HETATM    1  C   UNL     1     -12.859  13.956  70.661  1.00  0.00    -0.291 C  
HETATM    2  C   UNL     1     -11.680  13.393  69.877  1.00  0.00    -0.267 C  
ENDROOT
BRANCH   2   3
HETATM    3  N   UNL     1     -11.556  11.921  69.906  1.00  0.00    -0.286 NA 
BRANCH   3   4
HETATM    4  C   UNL     1     -12.231  11.290  71.053  1.00  0.00    -0.311 C  
HETATM    5  C   UNL     1     -13.022  10.018  70.760  1.00  0.00    -0.330 C  
ENDBRANCH   3   4
BRANCH   3   6
HETATM    6  C   UNL     1     -12.003  11.389  68.608  1.00  0.00    -0.249 C  
BRANCH   6   7
HETATM    7  C   UNL     1     -11.162  11.735  67.365  1.00  0.00    -0.297 C  
BRANCH   7   8
HETATM    8  O   UNL     1     -11.101  10.534  66.569  1.00  0.00    -0.068 OA 
BRANCH   8   9
HETATM    9  C   UNL     1      -9.839  10.080  66.340  1.00  0.00    -0.224 C  
HETATM   10  O   UNL     1      -9.007  10.680  65.682  1.00  0.00    -0.171 OA 
BRANCH   9  11
HETATM   11  C   UNL     1      -9.598   8.853  67.164  1.00  0.00    -0.225 A  
HETATM   12  C   UNL     1      -8.979   8.907  68.420  1.00  0.00    -0.134 A  
HETATM   13  C   UNL     1      -8.873   7.746  69.205  1.00  0.00    -0.138 A  
HETATM   14 CL   UNL     1      -8.333  10.348  69.126  1.00  0.00    -0.149 Cl 
HETATM   15  C   UNL     1      -9.341   6.514  68.748  1.00  0.00    -0.130 A  
HETATM   16  C   UNL     1     -10.012   6.471  67.529  1.00  0.00    -0.169 A  
HETATM   17  N   UNL     1      -9.350   5.401  69.591  1.00  0.00    -0.130 NA 
HETATM   18  H1  UNL     1      -9.692   4.500  69.258  1.00  0.00     0.000 HD 
HETATM   19  C   UNL     1     -10.119   7.616  66.734  1.00  0.00    -0.325 A  
HETATM   20  H2  UNL     1      -9.866   5.645  70.437  1.00  0.00     0.000 HD 
ENDBRANCH   9  11
ENDBRANCH   8   9
ENDBRANCH   7   8
ENDBRANCH   6   7
ENDBRANCH   3   6
ENDBRANCH   2   3
TORSDOF 7
ENDMDL
MODEL      275
REMARK 921   NORMALIZED FREE ENERGY PREDICTED BY IDOCK:   -2.96 KCAL/MOL
REMARK 922        TOTAL FREE ENERGY PREDICTED BY IDOCK:   -4.56 KCAL/MOL
REMARK 923 INTER-LIGAND FREE ENERGY PREDICTED BY IDOCK:   -3.79 KCAL/MOL
REMARK 924 INTRA-LIGAND FREE ENERGY PREDICTED BY IDOCK:   -0.77 KCAL/MOL
REMARK 927      BINDING AFFINITY PREDICTED BY RF-SCORE:    0.00 PKD
ROOT
HETATM    1  C   UNL     1     -12.646  14.318  70.545  1.00  0.00    -0.418 C  
HETATM    2  C   UNL     1     -11.647  13.714  69.566  1.00  0.00    -0.301 C  
ENDROOT
BRANCH   2   3
HETATM    3  N   UNL     1     -11.571  12.239  69.583  1.00  0.00    -0.295 NA 
BRANCH   3   4
HETATM    4  C   UNL     1     -12.277  11.619  70.718  1.00  0.00    -0.344 C  
HETATM    5  C   UNL     1     -12.871  10.234  70.473  1.00  0.00    -0.293 C  
ENDBRANCH   3   4
BRANCH   3   6
HETATM    6  C   UNL     1     -12.021  11.733  68.276  1.00  0.00    -0.165 C  
BRANCH   6   7
HETATM    7  C   UNL     1     -10.944  11.265  67.280  1.00  0.00    -0.286 C  
BRANCH   7   8
HETATM    8  O   UNL     1      -9.712  11.179  68.025  1.00  0.00    -0.167 OA 
BRANCH   8   9
HETATM    9  C   UNL     1      -8.600  11.482  67.302  1.00  0.00    -0.150 C  
HETATM   10  O   UNL     1      -8.357  11.024  66.199  1.00  0.00    -0.166 OA 
BRANCH   9  11
HETATM   11  C   UNL     1      -7.850  12.582  67.987  1.00  0.00    -0.147 A  
HETATM   12  C   UNL     1      -8.141  13.935  67.766  1.00  0.00    -0.172 A  
HETATM   13  C   UNL     1      -7.486  14.928  68.514  1.00  0.00    -0.118 A  
HETATM   14 CL   UNL     1      -9.308  14.506  66.624  1.00  0.00    -0.286 Cl 
HETATM   15  C   UNL     1      -6.512  14.605  69.459  1.00  0.00    -0.138 A  
HETATM   16  C   UNL     1      -6.268  13.260  69.725  1.00  0.00    -0.110 A  
HETATM   17  N   UNL     1      -5.970  15.591  70.285  1.00  0.00    -0.139 NA 
HETATM   18  H1  UNL     1      -5.258  15.355  70.977  1.00  0.00     0.000 HD 
HETATM   19  C   UNL     1      -6.907  12.261  68.984  1.00  0.00    -0.094 A  
HETATM   20  H2  UNL     1      -6.736  16.063  70.766  1.00  0.00     0.000 HD 
ENDBRANCH   9  11
ENDBRANCH   8   9
ENDBRANCH   7   8
ENDBRANCH   6   7
ENDBRANCH   3   6
ENDBRANCH   2   3
TORSDOF 7
ENDMDL
MODEL      276
REMARK 921   NORMALIZED FREE ENERGY PREDICTED BY IDOCK:   -2.96 KCAL/MOL
REMARK 922        TOTAL FREE ENERGY PREDICTED BY IDOCK:   -4.56 KCAL/MOL
REMARK 923 INTER-LIGAND FREE ENERGY PREDICTED BY IDOCK:   -4.00 KCAL/MOL
REMARK 924 INTRA-LIGAND FREE ENERGY PREDICTED BY IDOCK:   -0.56 KCAL/MOL
REMARK 927      BINDING AFFINITY PREDICTED BY RF-SCORE:    0.00 PKD
ROOT
HETATM    1  C   UNL     1     -12.779   9.934  71.940  1.00  0.00    -0.501 C  
HETATM    2  C   UNL     1     -12.039   9.192  70.834  1.00  0.00    -0.214 C  
ENDROOT
BRANCH   2   3
HETATM    3  N   UNL     1     -10.597   8.984  71.078  1.00  0.00    -0.246 NA 
BRANCH   3   4
HETATM    4  C   UNL     1     -10.284   8.530  72.444  1.00  0.00    -0.299 C  
HETATM    5  C   UNL     1     -10.603   7.072  72.765  1.00  0.00    -0.284 C  
ENDBRANCH   3   4
BRANCH   3   6
HETATM    6  C   UNL     1     -10.072   8.086  70.036  1.00  0.00    -0.196 C  
BRANCH   6   7
HETATM    7  C   UNL     1      -9.785   8.691  68.649  1.00  0.00    -0.163 C  
BRANCH   7   8
HETATM    8  O   UNL     1      -9.372  10.053  68.878  1.00  0.00    -0.156 OA 
BRANCH   8   9
HETATM    9  C   UNL     1      -9.212  10.785  67.742  1.00  0.00    -0.152 C  
HETATM   10  O   UNL     1      -9.126  10.304  66.626  1.00  0.00    -0.142 OA 
BRANCH   9  11
HETATM   11  C   UNL     1      -9.345  12.240  68.069  1.00  0.00    -0.195 A  
HETATM   12  C   UNL     1     -10.585  12.833  68.344  1.00  0.00    -0.248 A  
HETATM   13  C   UNL     1     -10.649  14.176  68.754  1.00  0.00    -0.258 A  
HETATM   14 CL   UNL     1     -12.102  12.008  68.245  1.00  0.00    -0.218 Cl 
HETATM   15  C   UNL     1      -9.501  14.960  68.862  1.00  0.00    -0.209 A  
HETATM   16  C   UNL     1      -8.264  14.356  68.651  1.00  0.00    -0.148 A  
HETATM   17  N   UNL     1      -9.568  16.248  69.398  1.00  0.00    -0.216 NA 
HETATM   18  H1  UNL     1      -8.728  16.821  69.477  1.00  0.00     0.000 HD 
HETATM   19  C   UNL     1      -8.185  13.023  68.236  1.00  0.00    -0.150 A  
HETATM   20  H2  UNL     1     -10.001  16.189  70.319  1.00  0.00     0.000 HD 
ENDBRANCH   9  11
ENDBRANCH   8   9
ENDBRANCH   7   8
ENDBRANCH   6   7
ENDBRANCH   3   6
ENDBRANCH   2   3
TORSDOF 7
ENDMDL
MODEL      277
REMARK 921   NORMALIZED FREE ENERGY PREDICTED BY IDOCK:   -2.96 KCAL/MOL
REMARK 922        TOTAL FREE ENERGY PREDICTED BY IDOCK:   -4.56 KCAL/MOL
REMARK 923 INTER-LIGAND FREE ENERGY PREDICTED BY IDOCK:   -4.37 KCAL/MOL
REMARK 924 INTRA-LIGAND FREE ENERGY PREDICTED BY IDOCK:   -0.19 KCAL/MOL
REMARK 927      BINDING AFFINITY PREDICTED BY RF-SCORE:    0.00 PKD
ROOT
HETATM    1  C   UNL     1      -8.024   8.101  71.946  1.00  0.00    -0.153 C  
HETATM    2  C   UNL     1      -8.771   6.862  71.469  1.00  0.00    -0.122 C  
ENDROOT
BRANCH   2   3
HETATM    3  N   UNL     1     -10.059   7.130  70.798  1.00  0.00    -0.190 NA 
BRANCH   3   4
HETATM    4  C   UNL     1     -11.196   6.394  71.376  1.00  0.00    -0.288 C  
HETATM    5  C   UNL     1     -11.133   6.116  72.876  1.00  0.00    -0.281 C  
ENDBRANCH   3   4
BRANCH   3   6
HETATM    6  C   UNL     1     -10.272   8.586  70.759  1.00  0.00    -0.198 C  
BRANCH   6   7
HETATM    7  C   UNL     1     -10.422   9.251  69.378  1.00  0.00    -0.219 C  
BRANCH   7   8
HETATM    8  O   UNL     1      -9.716   8.409  68.444  1.00  0.00    -0.150 OA 
BRANCH   8   9
HETATM    9  C   UNL     1     -10.311   8.311  67.224  1.00  0.00    -0.302 C  
HETATM   10  O   UNL     1     -10.988   7.362  66.869  1.00  0.00    -0.324 OA 
BRANCH   9  11
HETATM   11  C   UNL     1     -10.153   9.607  66.491  1.00  0.00    -0.314 A  
HETATM   12  C   UNL     1      -9.144   9.808  65.539  1.00  0.00    -0.196 A  
HETATM   13  C   UNL     1      -9.102  11.001  64.797  1.00  0.00    -0.154 A  
HETATM   14 CL   UNL     1      -7.914   8.651  65.165  1.00  0.00    -0.120 Cl 
HETATM   15  C   UNL     1     -10.027  12.023  65.010  1.00  0.00    -0.233 A  
HETATM   16  C   UNL     1     -11.066  11.800  65.909  1.00  0.00    -0.355 A  
HETATM   17  N   UNL     1     -10.053  13.142  64.175  1.00  0.00    -0.721 NA 
HETATM   18  H1  UNL     1     -10.730  13.889  64.330  1.00  0.00     0.000 HD 
HETATM   19  C   UNL     1     -11.117  10.621  66.659  1.00  0.00    -0.053 A  
HETATM   20  H2  UNL     1     -10.149  12.820  63.211  1.00  0.00     0.000 HD 
ENDBRANCH   9  11
ENDBRANCH   8   9
ENDBRANCH   7   8
ENDBRANCH   6   7
ENDBRANCH   3   6
ENDBRANCH   2   3
TORSDOF 7
ENDMDL
MODEL      278
REMARK 921   NORMALIZED FREE ENERGY PREDICTED BY IDOCK:   -2.95 KCAL/MOL
REMARK 922        TOTAL FREE ENERGY PREDICTED BY IDOCK:   -4.55 KCAL/MOL
REMARK 923 INTER-LIGAND FREE ENERGY PREDICTED BY IDOCK:   -3.94 KCAL/MOL
REMARK 924 INTRA-LIGAND FREE ENERGY PREDICTED BY IDOCK:   -0.61 KCAL/MOL
REMARK 927      BINDING AFFINITY PREDICTED BY RF-SCORE:    0.00 PKD
ROOT
HETATM    1  C   UNL     1      -8.207   5.983  65.127  1.00  0.00    -0.142 C  
HETATM    2  C   UNL     1      -7.959   7.483  65.038  1.00  0.00    -0.132 C  
ENDROOT
BRANCH   2   3
HETATM    3  N   UNL     1      -8.155   8.224  66.301  1.00  0.00    -0.106 NA 
BRANCH   3   4
HETATM    4  C   UNL     1      -7.606   9.591  66.280  1.00  0.00    -0.097 C  
HETATM    5  C   UNL     1      -6.604   9.938  67.378  1.00  0.00    -0.069 C  
ENDBRANCH   3   4
BRANCH   3   6
HETATM    6  C   UNL     1      -9.584   8.180  66.652  1.00  0.00    -0.229 C  
BRANCH   6   7
HETATM    7  C   UNL     1      -9.952   7.846  68.110  1.00  0.00    -0.180 C  
BRANCH   7   8
HETATM    8  O   UNL     1     -10.681   8.984  68.615  1.00  0.00    -0.188 OA 
BRANCH   8   9
HETATM    9  C   UNL     1      -9.928   9.848  69.347  1.00  0.00    -0.212 C  
HETATM   10  O   UNL     1      -9.612  10.964  68.973  1.00  0.00    -0.200 OA 
BRANCH   9  11
HETATM   11  C   UNL     1      -9.721   9.284  70.718  1.00  0.00    -0.348 A  
HETATM   12  C   UNL     1     -10.792   8.978  71.569  1.00  0.00    -0.346 A  
HETATM   13  C   UNL     1     -10.555   8.348  72.803  1.00  0.00    -0.212 A  
HETATM   14 CL   UNL     1     -12.451   9.299  71.200  1.00  0.00    -0.355 Cl 
HETATM   15  C   UNL     1      -9.262   8.046  73.229  1.00  0.00    -0.278 A  
HETATM   16  C   UNL     1      -8.203   8.290  72.359  1.00  0.00    -0.214 A  
HETATM   17  N   UNL     1      -9.053   7.301  74.392  1.00  0.00    -0.385 NA 
HETATM   18  H1  UNL     1      -8.108   7.080  74.704  1.00  0.00     0.000 HD 
HETATM   19  C   UNL     1      -8.423   8.923  71.131  1.00  0.00    -0.250 A  
HETATM   20  H2  UNL     1      -9.575   6.428  74.311  1.00  0.00     0.000 HD 
ENDBRANCH   9  11
ENDBRANCH   8   9
ENDBRANCH   7   8
ENDBRANCH   6   7
ENDBRANCH   3   6
ENDBRANCH   2   3
TORSDOF 7
ENDMDL
MODEL      279
REMARK 921   NORMALIZED FREE ENERGY PREDICTED BY IDOCK:   -2.95 KCAL/MOL
REMARK 922        TOTAL FREE ENERGY PREDICTED BY IDOCK:   -4.54 KCAL/MOL
REMARK 923 INTER-LIGAND FREE ENERGY PREDICTED BY IDOCK:   -4.14 KCAL/MOL
REMARK 924 INTRA-LIGAND FREE ENERGY PREDICTED BY IDOCK:   -0.41 KCAL/MOL
REMARK 927      BINDING AFFINITY PREDICTED BY RF-SCORE:    0.00 PKD
ROOT
HETATM    1  C   UNL     1     -10.832  14.580  64.906  1.00  0.00    -0.436 C  
HETATM    2  C   UNL     1     -11.525  14.813  66.242  1.00  0.00    -0.316 C  
ENDROOT
BRANCH   2   3
HETATM    3  N   UNL     1     -10.633  15.229  67.344  1.00  0.00    -0.276 NA 
BRANCH   3   4
HETATM    4  C   UNL     1     -10.890  16.593  67.836  1.00  0.00    -0.321 C  
HETATM    5  C   UNL     1      -9.665  17.471  68.076  1.00  0.00    -0.287 C  
ENDBRANCH   3   4
BRANCH   3   6
HETATM    6  C   UNL     1     -10.695  14.210  68.405  1.00  0.00    -0.256 C  
BRANCH   6   7
HETATM    7  C   UNL     1      -9.749  13.000  68.290  1.00  0.00    -0.221 C  
BRANCH   7   8
HETATM    8  O   UNL     1     -10.514  11.847  68.700  1.00  0.00    -0.211 OA 
BRANCH   8   9
HETATM    9  C   UNL     1     -10.648  10.896  67.737  1.00  0.00    -0.217 C  
HETATM   10  O   UNL     1     -11.097  11.110  66.624  1.00  0.00    -0.270 OA 
BRANCH   9  11
HETATM   11  C   UNL     1      -9.996   9.630  68.199  1.00  0.00    -0.185 A  
HETATM   12  C   UNL     1     -10.459   8.915  69.312  1.00  0.00    -0.224 A  
HETATM   13  C   UNL     1      -9.885   7.675  69.642  1.00  0.00    -0.181 A  
HETATM   14 CL   UNL     1     -11.749   9.439  70.338  1.00  0.00    -0.239 Cl 
HETATM   15  C   UNL     1      -8.828   7.143  68.905  1.00  0.00    -0.130 A  
HETATM   16  C   UNL     1      -8.410   7.820  67.762  1.00  0.00    -0.125 A  
HETATM   17  N   UNL     1      -8.360   5.852  69.163  1.00  0.00    -0.106 NA 
HETATM   18  H1  UNL     1      -7.587   5.463  68.624  1.00  0.00     0.000 HD 
HETATM   19  C   UNL     1      -8.966   9.058  67.426  1.00  0.00    -0.135 A  
HETATM   20  H2  UNL     1      -9.149   5.208  69.100  1.00  0.00     0.000 HD 
ENDBRANCH   9  11
ENDBRANCH   8   9
ENDBRANCH   7   8
ENDBRANCH   6   7
ENDBRANCH   3   6
ENDBRANCH   2   3
TORSDOF 7
ENDMDL
MODEL      280
REMARK 921   NORMALIZED FREE ENERGY PREDICTED BY IDOCK:   -2.94 KCAL/MOL
REMARK 922        TOTAL FREE ENERGY PREDICTED BY IDOCK:   -4.54 KCAL/MOL
REMARK 923 INTER-LIGAND FREE ENERGY PREDICTED BY IDOCK:   -3.98 KCAL/MOL
REMARK 924 INTRA-LIGAND FREE ENERGY PREDICTED BY IDOCK:   -0.56 KCAL/MOL
REMARK 927      BINDING AFFINITY PREDICTED BY RF-SCORE:    0.00 PKD
ROOT
HETATM    1  C   UNL     1     -12.841  10.209  71.706  1.00  0.00    -0.554 C  
HETATM    2  C   UNL     1     -12.590   8.708  71.760  1.00  0.00    -0.349 C  
ENDROOT
BRANCH   2   3
HETATM    3  N   UNL     1     -11.291   8.272  71.208  1.00  0.00    -0.259 NA 
BRANCH   3   4
HETATM    4  C   UNL     1     -10.133   8.978  71.783  1.00  0.00    -0.303 C  
HETATM    5  C   UNL     1      -9.467   8.320  72.988  1.00  0.00    -0.298 C  
ENDBRANCH   3   4
BRANCH   3   6
HETATM    6  C   UNL     1     -11.198   6.808  71.335  1.00  0.00    -0.268 C  
BRANCH   6   7
HETATM    7  C   UNL     1     -10.995   5.989  70.046  1.00  0.00    -0.380 C  
BRANCH   7   8
HETATM    8  O   UNL     1      -9.837   5.159  70.271  1.00  0.00    -0.187 OA 
BRANCH   8   9
HETATM    9  C   UNL     1      -8.650   5.791  70.067  1.00  0.00    -0.128 C  
HETATM   10  O   UNL     1      -7.793   5.929  70.922  1.00  0.00    -0.098 OA 
BRANCH   9  11
HETATM   11  C   UNL     1      -8.504   6.108  68.611  1.00  0.00    -0.114 A  
HETATM   12  C   UNL     1      -8.379   5.108  67.637  1.00  0.00    -0.105 A  
HETATM   13  C   UNL     1      -8.355   5.449  66.274  1.00  0.00    -0.115 A  
HETATM   14 CL   UNL     1      -8.275   3.417  67.987  1.00  0.00    -0.083 Cl 
HETATM   15  C   UNL     1      -8.417   6.778  65.855  1.00  0.00    -0.144 A  
HETATM   16  C   UNL     1      -8.605   7.768  66.817  1.00  0.00    -0.133 A  
HETATM   17  N   UNL     1      -8.528   7.091  64.499  1.00  0.00    -0.343 NA 
HETATM   18  H1  UNL     1      -8.574   8.062  64.193  1.00  0.00     0.000 HD 
HETATM   19  C   UNL     1      -8.623   7.444  68.177  1.00  0.00    -0.123 A  
HETATM   20  H2  UNL     1      -9.340   6.600  64.123  1.00  0.00     0.000 HD 
ENDBRANCH   9  11
ENDBRANCH   8   9
ENDBRANCH   7   8
ENDBRANCH   6   7
ENDBRANCH   3   6
ENDBRANCH   2   3
TORSDOF 7
ENDMDL
MODEL      281
REMARK 921   NORMALIZED FREE ENERGY PREDICTED BY IDOCK:   -2.94 KCAL/MOL
REMARK 922        TOTAL FREE ENERGY PREDICTED BY IDOCK:   -4.53 KCAL/MOL
REMARK 923 INTER-LIGAND FREE ENERGY PREDICTED BY IDOCK:   -4.23 KCAL/MOL
REMARK 924 INTRA-LIGAND FREE ENERGY PREDICTED BY IDOCK:   -0.30 KCAL/MOL
REMARK 927      BINDING AFFINITY PREDICTED BY RF-SCORE:    0.00 PKD
ROOT
HETATM    1  C   UNL     1      -6.681   9.978  64.238  1.00  0.00    -0.128 C  
HETATM    2  C   UNL     1      -6.757   9.469  65.671  1.00  0.00    -0.076 C  
ENDROOT
BRANCH   2   3
HETATM    3  N   UNL     1      -8.111   9.470  66.264  1.00  0.00    -0.111 NA 
BRANCH   3   4
HETATM    4  C   UNL     1      -8.949   8.337  65.835  1.00  0.00    -0.163 C  
HETATM    5  C   UNL     1      -8.803   7.045  66.634  1.00  0.00    -0.139 C  
ENDBRANCH   3   4
BRANCH   3   6
HETATM    6  C   UNL     1      -7.980   9.573  67.726  1.00  0.00    -0.099 C  
BRANCH   6   7
HETATM    7  C   UNL     1      -8.862  10.605  68.453  1.00  0.00    -0.145 C  
BRANCH   7   8
HETATM    8  O   UNL     1      -9.329  11.523  67.442  1.00  0.00    -0.164 OA 
BRANCH   8   9
HETATM    9  C   UNL     1     -10.681  11.546  67.293  1.00  0.00    -0.244 C  
HETATM   10  O   UNL     1     -11.260  11.242  66.265  1.00  0.00    -0.232 OA 
BRANCH   9  11
HETATM   11  C   UNL     1     -11.320  11.817  68.619  1.00  0.00    -0.327 A  
HETATM   12  C   UNL     1     -11.437  13.113  69.141  1.00  0.00    -0.305 A  
HETATM   13  C   UNL     1     -12.141  13.331  70.337  1.00  0.00    -0.401 A  
HETATM   14 CL   UNL     1     -10.783  14.527  68.389  1.00  0.00    -0.237 Cl 
HETATM   15  C   UNL     1     -12.706  12.276  71.052  1.00  0.00    -0.225 A  
HETATM   16  C   UNL     1     -12.647  10.997  70.503  1.00  0.00    -0.390 A  
HETATM   17  N   UNL     1     -13.516  12.523  72.163  1.00  0.00    -0.513 NA 
HETATM   18  H1  UNL     1     -13.929  11.751  72.686  1.00  0.00     0.000 HD 
HETATM   19  C   UNL     1     -11.943  10.764  69.318  1.00  0.00    -0.334 A  
HETATM   20  H2  UNL     1     -14.266  13.153  71.879  1.00  0.00     0.000 HD 
ENDBRANCH   9  11
ENDBRANCH   8   9
ENDBRANCH   7   8
ENDBRANCH   6   7
ENDBRANCH   3   6
ENDBRANCH   2   3
TORSDOF 7
ENDMDL
MODEL      282
REMARK 921   NORMALIZED FREE ENERGY PREDICTED BY IDOCK:   -2.93 KCAL/MOL
REMARK 922        TOTAL FREE ENERGY PREDICTED BY IDOCK:   -4.52 KCAL/MOL
REMARK 923 INTER-LIGAND FREE ENERGY PREDICTED BY IDOCK:   -4.38 KCAL/MOL
REMARK 924 INTRA-LIGAND FREE ENERGY PREDICTED BY IDOCK:   -0.14 KCAL/MOL
REMARK 927      BINDING AFFINITY PREDICTED BY RF-SCORE:    0.00 PKD
ROOT
HETATM    1  C   UNL     1      -9.005   2.534  65.075  1.00  0.00    -0.128 C  
HETATM    2  C   UNL     1      -8.301   2.189  66.382  1.00  0.00    -0.095 C  
ENDROOT
BRANCH   2   3
HETATM    3  N   UNL     1      -8.116   3.324  67.309  1.00  0.00    -0.082 NA 
BRANCH   3   4
HETATM    4  C   UNL     1      -7.365   4.451  66.728  1.00  0.00    -0.080 C  
HETATM    5  C   UNL     1      -8.173   5.701  66.387  1.00  0.00    -0.107 C  
ENDBRANCH   3   4
BRANCH   3   6
HETATM    6  C   UNL     1      -9.434   3.717  67.835  1.00  0.00    -0.170 C  
BRANCH   6   7
HETATM    7  C   UNL     1      -9.527   4.085  69.328  1.00  0.00    -0.190 C  
BRANCH   7   8
HETATM    8  O   UNL     1     -10.392   5.237  69.408  1.00  0.00    -0.247 OA 
BRANCH   8   9
HETATM    9  C   UNL     1      -9.813   6.330  69.976  1.00  0.00    -0.169 C  
HETATM   10  O   UNL     1      -8.667   6.685  69.761  1.00  0.00    -0.138 OA 
BRANCH   9  11
HETATM   11  C   UNL     1     -10.849   7.099  70.735  1.00  0.00    -0.267 A  
HETATM   12  C   UNL     1     -10.609   8.389  71.227  1.00  0.00    -0.222 A  
HETATM   13  C   UNL     1     -11.646   9.116  71.837  1.00  0.00    -0.430 A  
HETATM   14 CL   UNL     1      -9.088   9.206  71.117  1.00  0.00    -0.304 Cl 
HETATM   15  C   UNL     1     -12.918   8.569  72.002  1.00  0.00    -0.371 A  
HETATM   16  C   UNL     1     -13.176   7.314  71.457  1.00  0.00    -0.434 A  
HETATM   17  N   UNL     1     -13.970   9.351  72.486  1.00  0.00    -0.653 NA 
HETATM   18  H1  UNL     1     -14.900   8.951  72.607  1.00  0.00     0.000 HD 
HETATM   19  C   UNL     1     -12.152   6.576  70.855  1.00  0.00    -0.293 A  
HETATM   20  H2  UNL     1     -14.052  10.178  71.894  1.00  0.00     0.000 HD 
ENDBRANCH   9  11
ENDBRANCH   8   9
ENDBRANCH   7   8
ENDBRANCH   6   7
ENDBRANCH   3   6
ENDBRANCH   2   3
TORSDOF 7
ENDMDL
MODEL      283
REMARK 921   NORMALIZED FREE ENERGY PREDICTED BY IDOCK:   -2.93 KCAL/MOL
REMARK 922        TOTAL FREE ENERGY PREDICTED BY IDOCK:   -4.52 KCAL/MOL
REMARK 923 INTER-LIGAND FREE ENERGY PREDICTED BY IDOCK:   -4.01 KCAL/MOL
REMARK 924 INTRA-LIGAND FREE ENERGY PREDICTED BY IDOCK:   -0.51 KCAL/MOL
REMARK 927      BINDING AFFINITY PREDICTED BY RF-SCORE:    0.00 PKD
ROOT
HETATM    1  C   UNL     1      -9.518  11.247  63.044  1.00  0.00    -0.385 C  
HETATM    2  C   UNL     1     -10.688  11.868  63.796  1.00  0.00    -0.418 C  
ENDROOT
BRANCH   2   3
HETATM    3  N   UNL     1     -10.330  12.541  65.062  1.00  0.00    -0.294 NA 
BRANCH   3   4
HETATM    4  C   UNL     1     -11.468  13.194  65.731  1.00  0.00    -0.325 C  
HETATM    5  C   UNL     1     -12.472  13.905  64.826  1.00  0.00    -0.386 C  
ENDBRANCH   3   4
BRANCH   3   6
HETATM    6  C   UNL     1      -9.630  11.574  65.923  1.00  0.00    -0.230 C  
BRANCH   6   7
HETATM    7  C   UNL     1     -10.334  11.129  67.218  1.00  0.00    -0.208 C  
BRANCH   7   8
HETATM    8  O   UNL     1      -9.493  11.563  68.307  1.00  0.00    -0.178 OA 
BRANCH   8   9
HETATM    9  C   UNL     1      -8.387  10.795  68.497  1.00  0.00    -0.138 C  
HETATM   10  O   UNL     1      -7.247  11.178  68.297  1.00  0.00    -0.076 OA 
BRANCH   9  11
HETATM   11  C   UNL     1      -8.785   9.509  69.153  1.00  0.00    -0.146 A  
HETATM   12  C   UNL     1      -8.494   8.261  68.586  1.00  0.00    -0.125 A  
HETATM   13  C   UNL     1      -8.789   7.081  69.289  1.00  0.00    -0.139 A  
HETATM   14 CL   UNL     1      -7.745   8.044  67.041  1.00  0.00    -0.099 Cl 
HETATM   15  C   UNL     1      -9.406   7.113  70.539  1.00  0.00    -0.158 A  
HETATM   16  C   UNL     1      -9.637   8.352  71.132  1.00  0.00    -0.226 A  
HETATM   17  N   UNL     1      -9.569   5.942  71.282  1.00  0.00    -0.167 NA 
HETATM   18  H1  UNL     1     -10.019   5.966  72.196  1.00  0.00     0.000 HD 
HETATM   19  C   UNL     1      -9.356   9.535  70.441  1.00  0.00    -0.311 A  
HETATM   20  H2  UNL     1      -8.655   5.501  71.388  1.00  0.00     0.000 HD 
ENDBRANCH   9  11
ENDBRANCH   8   9
ENDBRANCH   7   8
ENDBRANCH   6   7
ENDBRANCH   3   6
ENDBRANCH   2   3
TORSDOF 7
ENDMDL
MODEL      284
REMARK 921   NORMALIZED FREE ENERGY PREDICTED BY IDOCK:   -2.92 KCAL/MOL
REMARK 922        TOTAL FREE ENERGY PREDICTED BY IDOCK:   -4.51 KCAL/MOL
REMARK 923 INTER-LIGAND FREE ENERGY PREDICTED BY IDOCK:   -4.56 KCAL/MOL
REMARK 924 INTRA-LIGAND FREE ENERGY PREDICTED BY IDOCK:    0.05 KCAL/MOL
REMARK 927      BINDING AFFINITY PREDICTED BY RF-SCORE:    0.00 PKD
ROOT
HETATM    1  C   UNL     1      -6.044   9.274  69.677  1.00  0.00    -0.039 C  
HETATM    2  C   UNL     1      -7.446   9.829  69.888  1.00  0.00    -0.141 C  
ENDROOT
BRANCH   2   3
HETATM    3  N   UNL     1      -7.634  11.231  69.460  1.00  0.00     0.043 NA 
BRANCH   3   4
HETATM    4  C   UNL     1      -6.379  11.922  69.118  1.00  0.00    -0.092 C  
HETATM    5  C   UNL     1      -6.035  13.155  69.949  1.00  0.00    -0.138 C  
ENDBRANCH   3   4
BRANCH   3   6
HETATM    6  C   UNL     1      -8.624  11.258  68.371  1.00  0.00    -0.155 C  
BRANCH   6   7
HETATM    7  C   UNL     1      -9.158  12.631  67.924  1.00  0.00    -0.200 C  
BRANCH   7   8
HETATM    8  O   UNL     1     -10.585  12.483  67.774  1.00  0.00    -0.212 OA 
BRANCH   8   9
HETATM    9  C   UNL     1     -11.273  13.657  67.796  1.00  0.00    -0.285 C  
HETATM   10  O   UNL     1     -11.409  14.387  66.830  1.00  0.00    -0.329 OA 
BRANCH   9  11
HETATM   11  C   UNL     1     -11.967  13.798  69.115  1.00  0.00    -0.403 A  
HETATM   12  C   UNL     1     -12.338  12.688  69.886  1.00  0.00    -0.057 A  
HETATM   13  C   UNL     1     -12.887  12.871  71.167  1.00  0.00    -0.326 A  
HETATM   14 CL   UNL     1     -12.142  11.045  69.384  1.00  0.00    -0.407 Cl 
HETATM   15  C   UNL     1     -13.112  14.145  71.688  1.00  0.00    -0.351 A  
HETATM   16  C   UNL     1     -12.685  15.246  70.950  1.00  0.00    -0.496 A  
HETATM   17  N   UNL     1     -13.531  14.308  73.010  1.00  0.00    -0.635 NA 
HETATM   18  H1  UNL     1     -13.695  15.240  73.391  1.00  0.00     0.000 HD 
HETATM   19  C   UNL     1     -12.144  15.081  69.672  1.00  0.00    -0.337 A  
HETATM   20  H2  UNL     1     -12.867  13.827  73.618  1.00  0.00     0.000 HD 
ENDBRANCH   9  11
ENDBRANCH   8   9
ENDBRANCH   7   8
ENDBRANCH   6   7
ENDBRANCH   3   6
ENDBRANCH   2   3
TORSDOF 7
ENDMDL
MODEL      285
REMARK 921   NORMALIZED FREE ENERGY PREDICTED BY IDOCK:   -2.92 KCAL/MOL
REMARK 922        TOTAL FREE ENERGY PREDICTED BY IDOCK:   -4.50 KCAL/MOL
REMARK 923 INTER-LIGAND FREE ENERGY PREDICTED BY IDOCK:   -3.97 KCAL/MOL
REMARK 924 INTRA-LIGAND FREE ENERGY PREDICTED BY IDOCK:   -0.53 KCAL/MOL
REMARK 927      BINDING AFFINITY PREDICTED BY RF-SCORE:    0.00 PKD
ROOT
HETATM    1  C   UNL     1      -9.865   8.597  66.796  1.00  0.00    -0.322 C  
HETATM    2  C   UNL     1     -10.284  10.057  66.917  1.00  0.00    -0.238 C  
ENDROOT
BRANCH   2   3
HETATM    3  N   UNL     1     -10.064  10.661  68.247  1.00  0.00    -0.153 NA 
BRANCH   3   4
HETATM    4  C   UNL     1     -11.297  10.831  69.035  1.00  0.00    -0.284 C  
HETATM    5  C   UNL     1     -11.770  12.265  69.256  1.00  0.00    -0.388 C  
ENDBRANCH   3   4
BRANCH   3   6
HETATM    6  C   UNL     1      -9.032   9.881  68.949  1.00  0.00    -0.153 C  
BRANCH   6   7
HETATM    7  C   UNL     1      -9.216   9.647  70.460  1.00  0.00    -0.152 C  
BRANCH   7   8
HETATM    8  O   UNL     1      -8.830   8.280  70.709  1.00  0.00    -0.137 OA 
BRANCH   8   9
HETATM    9  C   UNL     1      -8.463   8.030  71.996  1.00  0.00    -0.144 C  
HETATM   10  O   UNL     1      -7.868   8.825  72.702  1.00  0.00    -0.369 OA 
BRANCH   9  11
HETATM   11  C   UNL     1      -9.062   6.731  72.437  1.00  0.00    -0.142 A  
HETATM   12  C   UNL     1     -10.401   6.624  72.838  1.00  0.00    -0.213 A  
HETATM   13  C   UNL     1     -10.948   5.365  73.138  1.00  0.00    -0.353 A  
HETATM   14 CL   UNL     1     -11.487   7.963  72.972  1.00  0.00    -0.365 Cl 
HETATM   15  C   UNL     1     -10.177   4.204  73.084  1.00  0.00    -0.157 A  
HETATM   16  C   UNL     1      -8.866   4.300  72.624  1.00  0.00    -0.113 A  
HETATM   17  N   UNL     1     -10.769   2.950  73.253  1.00  0.00    -0.167 NA 
HETATM   18  H1  UNL     1     -10.205   2.101  73.213  1.00  0.00     0.000 HD 
HETATM   19  C   UNL     1      -8.306   5.547  72.329  1.00  0.00    -0.119 A  
HETATM   20  H2  UNL     1     -11.528   2.861  72.578  1.00  0.00     0.000 HD 
ENDBRANCH   9  11
ENDBRANCH   8   9
ENDBRANCH   7   8
ENDBRANCH   6   7
ENDBRANCH   3   6
ENDBRANCH   2   3
TORSDOF 7
ENDMDL
MODEL      286
REMARK 921   NORMALIZED FREE ENERGY PREDICTED BY IDOCK:   -2.90 KCAL/MOL
REMARK 922        TOTAL FREE ENERGY PREDICTED BY IDOCK:   -4.47 KCAL/MOL
REMARK 923 INTER-LIGAND FREE ENERGY PREDICTED BY IDOCK:   -3.96 KCAL/MOL
REMARK 924 INTRA-LIGAND FREE ENERGY PREDICTED BY IDOCK:   -0.51 KCAL/MOL
REMARK 927      BINDING AFFINITY PREDICTED BY RF-SCORE:    0.00 PKD
ROOT
HETATM    1  C   UNL     1     -11.895  15.064  71.009  1.00  0.00    -0.373 C  
HETATM    2  C   UNL     1     -11.307  14.106  69.981  1.00  0.00    -0.134 C  
ENDROOT
BRANCH   2   3
HETATM    3  N   UNL     1     -11.407  14.559  68.578  1.00  0.00    -0.271 NA 
BRANCH   3   4
HETATM    4  C   UNL     1     -10.208  15.264  68.093  1.00  0.00    -0.230 C  
HETATM    5  C   UNL     1      -8.943  14.425  67.937  1.00  0.00    -0.186 C  
ENDBRANCH   3   4
BRANCH   3   6
HETATM    6  C   UNL     1     -11.777  13.405  67.741  1.00  0.00    -0.359 C  
BRANCH   6   7
HETATM    7  C   UNL     1     -12.040  12.063  68.448  1.00  0.00    -0.027 C  
BRANCH   7   8
HETATM    8  O   UNL     1     -11.467  11.042  67.607  1.00  0.00    -0.445 OA 
BRANCH   8   9
HETATM    9  C   UNL     1     -10.168  10.750  67.891  1.00  0.00    -0.176 C  
HETATM   10  O   UNL     1      -9.624  11.018  68.948  1.00  0.00    -0.196 OA 
BRANCH   9  11
HETATM   11  C   UNL     1      -9.599   9.907  66.793  1.00  0.00    -0.231 A  
HETATM   12  C   UNL     1      -9.635  10.306  65.450  1.00  0.00    -0.251 A  
HETATM   13  C   UNL     1      -8.991   9.535  64.467  1.00  0.00    -0.256 A  
HETATM   14 CL   UNL     1     -10.412  11.744  64.882  1.00  0.00    -0.318 Cl 
HETATM   15  C   UNL     1      -8.339   8.344  64.788  1.00  0.00    -0.141 A  
HETATM   16  C   UNL     1      -8.248   7.979  66.128  1.00  0.00    -0.116 A  
HETATM   17  N   UNL     1      -7.592   7.662  63.825  1.00  0.00    -0.112 NA 
HETATM   18  H1  UNL     1      -7.115   6.792  64.059  1.00  0.00     0.000 HD 
HETATM   19  C   UNL     1      -8.890   8.733  67.116  1.00  0.00    -0.137 A  
HETATM   20  H2  UNL     1      -6.905   8.308  63.436  1.00  0.00     0.000 HD 
ENDBRANCH   9  11
ENDBRANCH   8   9
ENDBRANCH   7   8
ENDBRANCH   6   7
ENDBRANCH   3   6
ENDBRANCH   2   3
TORSDOF 7
ENDMDL
MODEL      287
REMARK 921   NORMALIZED FREE ENERGY PREDICTED BY IDOCK:   -2.88 KCAL/MOL
REMARK 922        TOTAL FREE ENERGY PREDICTED BY IDOCK:   -4.45 KCAL/MOL
REMARK 923 INTER-LIGAND FREE ENERGY PREDICTED BY IDOCK:   -4.02 KCAL/MOL
REMARK 924 INTRA-LIGAND FREE ENERGY PREDICTED BY IDOCK:   -0.43 KCAL/MOL
REMARK 927      BINDING AFFINITY PREDICTED BY RF-SCORE:    0.00 PKD
ROOT
HETATM    1  C   UNL     1     -10.536  10.832  66.484  1.00  0.00    -0.299 C  
HETATM    2  C   UNL     1     -11.160  12.015  67.215  1.00  0.00    -0.285 C  
ENDROOT
BRANCH   2   3
HETATM    3  N   UNL     1     -10.912  12.050  68.670  1.00  0.00    -0.227 NA 
BRANCH   3   4
HETATM    4  C   UNL     1     -12.088  12.447  69.464  1.00  0.00    -0.189 C  
HETATM    5  C   UNL     1     -12.080  13.867  70.025  1.00  0.00    -0.411 C  
ENDBRANCH   3   4
BRANCH   3   6
HETATM    6  C   UNL     1     -10.349  10.753  69.080  1.00  0.00    -0.215 C  
BRANCH   6   7
HETATM    7  C   UNL     1     -10.964  10.063  70.312  1.00  0.00    -0.316 C  
BRANCH   7   8
HETATM    8  O   UNL     1      -9.857   9.603  71.114  1.00  0.00    -0.190 OA 
BRANCH   8   9
HETATM    9  C   UNL     1     -10.057   8.389  71.696  1.00  0.00    -0.239 C  
HETATM   10  O   UNL     1     -10.517   8.235  72.813  1.00  0.00    -0.333 OA 
BRANCH   9  11
HETATM   11  C   UNL     1      -9.801   7.311  70.689  1.00  0.00    -0.179 A  
HETATM   12  C   UNL     1      -8.543   7.121  70.101  1.00  0.00    -0.140 A  
HETATM   13  C   UNL     1      -8.322   6.028  69.246  1.00  0.00    -0.115 A  
HETATM   14 CL   UNL     1      -7.176   8.144  70.376  1.00  0.00    -0.047 Cl 
HETATM   15  C   UNL     1      -9.343   5.133  68.928  1.00  0.00    -0.125 A  
HETATM   16  C   UNL     1     -10.575   5.284  69.560  1.00  0.00    -0.244 A  
HETATM   17  N   UNL     1      -9.074   3.981  68.187  1.00  0.00    -0.126 NA 
HETATM   18  H1  UNL     1      -9.821   3.327  67.955  1.00  0.00     0.000 HD 
HETATM   19  C   UNL     1     -10.812   6.370  70.408  1.00  0.00    -0.343 A  
HETATM   20  H2  UNL     1      -8.331   3.464  68.658  1.00  0.00     0.000 HD 
ENDBRANCH   9  11
ENDBRANCH   8   9
ENDBRANCH   7   8
ENDBRANCH   6   7
ENDBRANCH   3   6
ENDBRANCH   2   3
TORSDOF 7
ENDMDL
MODEL      288
REMARK 921   NORMALIZED FREE ENERGY PREDICTED BY IDOCK:   -2.88 KCAL/MOL
REMARK 922        TOTAL FREE ENERGY PREDICTED BY IDOCK:   -4.45 KCAL/MOL
REMARK 923 INTER-LIGAND FREE ENERGY PREDICTED BY IDOCK:   -3.69 KCAL/MOL
REMARK 924 INTRA-LIGAND FREE ENERGY PREDICTED BY IDOCK:   -0.76 KCAL/MOL
REMARK 927      BINDING AFFINITY PREDICTED BY RF-SCORE:    0.00 PKD
ROOT
HETATM    1  C   UNL     1      -5.621   4.681  67.617  1.00  0.00    -0.017 C  
HETATM    2  C   UNL     1      -6.884   5.520  67.472  1.00  0.00    -0.060 C  
ENDROOT
BRANCH   2   3
HETATM    3  N   UNL     1      -6.694   6.825  66.806  1.00  0.00    -0.054 NA 
BRANCH   3   4
HETATM    4  C   UNL     1      -7.268   6.891  65.451  1.00  0.00    -0.073 C  
HETATM    5  C   UNL     1      -8.379   5.893  65.135  1.00  0.00    -0.143 C  
ENDBRANCH   3   4
BRANCH   3   6
HETATM    6  C   UNL     1      -7.195   7.883  67.699  1.00  0.00    -0.088 C  
BRANCH   6   7
HETATM    7  C   UNL     1      -7.649   9.207  67.057  1.00  0.00    -0.091 C  
BRANCH   7   8
HETATM    8  O   UNL     1      -8.608   9.790  67.963  1.00  0.00    -0.121 OA 
BRANCH   8   9
HETATM    9  C   UNL     1      -9.898   9.437  67.711  1.00  0.00    -0.170 C  
HETATM   10  O   UNL     1     -10.374   9.340  66.593  1.00  0.00    -0.259 OA 
BRANCH   9  11
HETATM   11  C   UNL     1     -10.554   9.018  68.990  1.00  0.00    -0.209 A  
HETATM   12  C   UNL     1     -10.780   7.672  69.308  1.00  0.00    -0.161 A  
HETATM   13  C   UNL     1     -11.298   7.322  70.567  1.00  0.00    -0.308 A  
HETATM   14 CL   UNL     1     -10.434   6.350  68.248  1.00  0.00    -0.230 Cl 
HETATM   15  C   UNL     1     -11.633   8.292  71.511  1.00  0.00    -0.279 A  
HETATM   16  C   UNL     1     -11.350   9.624  71.222  1.00  0.00    -0.458 A  
HETATM   17  N   UNL     1     -12.019   7.923  72.802  1.00  0.00    -0.615 NA 
HETATM   18  H1  UNL     1     -12.264   8.632  73.493  1.00  0.00     0.000 HD 
HETATM   19  C   UNL     1     -10.842   9.988  69.971  1.00  0.00    -0.352 A  
HETATM   20  H2  UNL     1     -11.287   7.332  73.198  1.00  0.00     0.000 HD 
ENDBRANCH   9  11
ENDBRANCH   8   9
ENDBRANCH   7   8
ENDBRANCH   6   7
ENDBRANCH   3   6
ENDBRANCH   2   3
TORSDOF 7
ENDMDL
MODEL      289
REMARK 921   NORMALIZED FREE ENERGY PREDICTED BY IDOCK:   -2.87 KCAL/MOL
REMARK 922        TOTAL FREE ENERGY PREDICTED BY IDOCK:   -4.44 KCAL/MOL
REMARK 923 INTER-LIGAND FREE ENERGY PREDICTED BY IDOCK:   -4.00 KCAL/MOL
REMARK 924 INTRA-LIGAND FREE ENERGY PREDICTED BY IDOCK:   -0.44 KCAL/MOL
REMARK 927      BINDING AFFINITY PREDICTED BY RF-SCORE:    0.00 PKD
ROOT
HETATM    1  C   UNL     1      -6.284  11.923  67.028  1.00  0.00    -0.145 C  
HETATM    2  C   UNL     1      -7.219  11.077  67.883  1.00  0.00    -0.086 C  
ENDROOT
BRANCH   2   3
HETATM    3  N   UNL     1      -8.611  10.997  67.395  1.00  0.00    -0.131 NA 
BRANCH   3   4
HETATM    4  C   UNL     1      -8.721  10.731  65.951  1.00  0.00    -0.181 C  
HETATM    5  C   UNL     1      -9.752  11.557  65.185  1.00  0.00    -0.268 C  
ENDBRANCH   3   4
BRANCH   3   6
HETATM    6  C   UNL     1      -9.339  10.020  68.221  1.00  0.00    -0.132 C  
BRANCH   6   7
HETATM    7  C   UNL     1     -10.171  10.559  69.400  1.00  0.00    -0.221 C  
BRANCH   7   8
HETATM    8  O   UNL     1     -11.208   9.585  69.643  1.00  0.00    -0.206 OA 
BRANCH   8   9
HETATM    9  C   UNL     1     -11.681   9.582  70.919  1.00  0.00    -0.317 C  
HETATM   10  O   UNL     1     -12.265  10.519  71.433  1.00  0.00    -0.354 OA 
BRANCH   9  11
HETATM   11  C   UNL     1     -11.531   8.209  71.498  1.00  0.00    -0.310 A  
HETATM   12  C   UNL     1     -10.337   7.775  72.089  1.00  0.00    -0.224 A  
HETATM   13  C   UNL     1     -10.277   6.519  72.716  1.00  0.00    -0.206 A  
HETATM   14 CL   UNL     1      -8.879   8.705  72.137  1.00  0.00    -0.280 Cl 
HETATM   15  C   UNL     1     -11.377   5.662  72.737  1.00  0.00    -0.299 A  
HETATM   16  C   UNL     1     -12.581   6.118  72.207  1.00  0.00     0.071 A  
HETATM   17  N   UNL     1     -11.343   4.479  73.479  1.00  0.00    -0.305 NA 
HETATM   18  H1  UNL     1     -12.147   3.853  73.495  1.00  0.00     0.000 HD 
HETATM   19  C   UNL     1     -12.654   7.362  71.573  1.00  0.00    -0.401 A  
HETATM   20  H2  UNL     1     -11.102   4.713  74.442  1.00  0.00     0.000 HD 
ENDBRANCH   9  11
ENDBRANCH   8   9
ENDBRANCH   7   8
ENDBRANCH   6   7
ENDBRANCH   3   6
ENDBRANCH   2   3
TORSDOF 7
ENDMDL
MODEL      290
REMARK 921   NORMALIZED FREE ENERGY PREDICTED BY IDOCK:   -2.87 KCAL/MOL
REMARK 922        TOTAL FREE ENERGY PREDICTED BY IDOCK:   -4.44 KCAL/MOL
REMARK 923 INTER-LIGAND FREE ENERGY PREDICTED BY IDOCK:   -3.99 KCAL/MOL
REMARK 924 INTRA-LIGAND FREE ENERGY PREDICTED BY IDOCK:   -0.44 KCAL/MOL
REMARK 927      BINDING AFFINITY PREDICTED BY RF-SCORE:    0.00 PKD
ROOT
HETATM    1  C   UNL     1      -8.056   6.292  64.728  1.00  0.00    -0.127 C  
HETATM    2  C   UNL     1      -7.814   7.685  64.160  1.00  0.00    -0.133 C  
ENDROOT
BRANCH   2   3
HETATM    3  N   UNL     1      -8.256   8.798  65.024  1.00  0.00    -0.147 NA 
BRANCH   3   4
HETATM    4  C   UNL     1      -8.917   9.892  64.293  1.00  0.00    -0.243 C  
HETATM    5  C   UNL     1      -9.097   9.694  62.790  1.00  0.00    -0.254 C  
ENDBRANCH   3   4
BRANCH   3   6
HETATM    6  C   UNL     1      -9.082   8.246  66.111  1.00  0.00    -0.189 C  
BRANCH   6   7
HETATM    7  C   UNL     1      -8.551   8.377  67.550  1.00  0.00    -0.129 C  
BRANCH   7   8
HETATM    8  O   UNL     1      -9.669   8.799  68.358  1.00  0.00    -0.155 OA 
BRANCH   8   9
HETATM    9  C   UNL     1      -9.396   9.845  69.185  1.00  0.00    -0.193 C  
HETATM   10  O   UNL     1      -8.579   9.806  70.088  1.00  0.00    -0.203 OA 
BRANCH   9  11
HETATM   11  C   UNL     1     -10.110  11.065  68.691  1.00  0.00    -0.207 A  
HETATM   12  C   UNL     1      -9.575  11.890  67.692  1.00  0.00    -0.185 A  
HETATM   13  C   UNL     1     -10.329  12.960  67.183  1.00  0.00    -0.239 A  
HETATM   14 CL   UNL     1      -8.011  11.674  66.986  1.00  0.00    -0.159 Cl 
HETATM   15  C   UNL     1     -11.601  13.254  67.674  1.00  0.00    -0.346 A  
HETATM   16  C   UNL     1     -12.159  12.398  68.620  1.00  0.00    -0.139 A  
HETATM   17  N   UNL     1     -12.389  14.234  67.067  1.00  0.00    -0.580 NA 
HETATM   18  H1  UNL     1     -13.319  14.448  67.426  1.00  0.00     0.000 HD 
HETATM   19  C   UNL     1     -11.418  11.333  69.142  1.00  0.00    -0.364 A  
HETATM   20  H2  UNL     1     -12.474  14.006  66.076  1.00  0.00     0.000 HD 
ENDBRANCH   9  11
ENDBRANCH   8   9
ENDBRANCH   7   8
ENDBRANCH   6   7
ENDBRANCH   3   6
ENDBRANCH   2   3
TORSDOF 7
ENDMDL
MODEL      291
REMARK 921   NORMALIZED FREE ENERGY PREDICTED BY IDOCK:   -2.86 KCAL/MOL
REMARK 922        TOTAL FREE ENERGY PREDICTED BY IDOCK:   -4.43 KCAL/MOL
REMARK 923 INTER-LIGAND FREE ENERGY PREDICTED BY IDOCK:   -4.10 KCAL/MOL
REMARK 924 INTRA-LIGAND FREE ENERGY PREDICTED BY IDOCK:   -0.32 KCAL/MOL
REMARK 927      BINDING AFFINITY PREDICTED BY RF-SCORE:    0.00 PKD
ROOT
HETATM    1  C   UNL     1      -7.621   6.502  72.991  1.00  0.00    -0.093 C  
HETATM    2  C   UNL     1      -7.736   6.690  71.483  1.00  0.00    -0.098 C  
ENDROOT
BRANCH   2   3
HETATM    3  N   UNL     1      -9.106   6.578  70.943  1.00  0.00    -0.154 NA 
BRANCH   3   4
HETATM    4  C   UNL     1      -9.716   5.251  71.136  1.00  0.00    -0.174 C  
HETATM    5  C   UNL     1      -9.040   4.083  70.423  1.00  0.00    -0.183 C  
ENDBRANCH   3   4
BRANCH   3   6
HETATM    6  C   UNL     1      -9.917   7.675  71.497  1.00  0.00    -0.173 C  
BRANCH   6   7
HETATM    7  C   UNL     1     -11.206   8.061  70.747  1.00  0.00    -0.265 C  
BRANCH   7   8
HETATM    8  O   UNL     1     -10.798   8.891  69.640  1.00  0.00    -0.233 OA 
BRANCH   8   9
HETATM    9  C   UNL     1     -11.115  10.206  69.784  1.00  0.00    -0.279 C  
HETATM   10  O   UNL     1     -11.488  10.708  70.830  1.00  0.00    -0.301 OA 
BRANCH   9  11
HETATM   11  C   UNL     1     -10.758  10.941  68.530  1.00  0.00    -0.239 A  
HETATM   12  C   UNL     1      -9.457  10.941  68.009  1.00  0.00    -0.163 A  
HETATM   13  C   UNL     1      -9.193  11.552  66.771  1.00  0.00    -0.187 A  
HETATM   14 CL   UNL     1      -8.100  10.196  68.781  1.00  0.00    -0.104 Cl 
HETATM   15  C   UNL     1     -10.195  12.201  66.051  1.00  0.00    -0.237 A  
HETATM   16  C   UNL     1     -11.499  12.147  66.535  1.00  0.00    -0.430 A  
HETATM   17  N   UNL     1      -9.946  12.684  64.764  1.00  0.00    -0.491 NA 
HETATM   18  H1  UNL     1     -10.679  13.158  64.237  1.00  0.00     0.000 HD 
HETATM   19  C   UNL     1     -11.776  11.549  67.768  1.00  0.00    -0.299 A  
HETATM   20  H2  UNL     1      -9.593  11.913  64.196  1.00  0.00     0.000 HD 
ENDBRANCH   9  11
ENDBRANCH   8   9
ENDBRANCH   7   8
ENDBRANCH   6   7
ENDBRANCH   3   6
ENDBRANCH   2   3
TORSDOF 7
ENDMDL
MODEL      292
REMARK 921   NORMALIZED FREE ENERGY PREDICTED BY IDOCK:   -2.84 KCAL/MOL
REMARK 922        TOTAL FREE ENERGY PREDICTED BY IDOCK:   -4.39 KCAL/MOL
REMARK 923 INTER-LIGAND FREE ENERGY PREDICTED BY IDOCK:   -4.53 KCAL/MOL
REMARK 924 INTRA-LIGAND FREE ENERGY PREDICTED BY IDOCK:    0.14 KCAL/MOL
REMARK 927      BINDING AFFINITY PREDICTED BY RF-SCORE:    0.00 PKD
ROOT
HETATM    1  C   UNL     1     -11.499  11.942  65.219  1.00  0.00    -0.313 C  
HETATM    2  C   UNL     1     -11.350  12.197  66.713  1.00  0.00    -0.342 C  
ENDROOT
BRANCH   2   3
HETATM    3  N   UNL     1     -10.037  12.732  67.128  1.00  0.00    -0.232 NA 
BRANCH   3   4
HETATM    4  C   UNL     1      -9.960  14.203  67.103  1.00  0.00    -0.255 C  
HETATM    5  C   UNL     1      -8.558  14.809  67.113  1.00  0.00    -0.248 C  
ENDBRANCH   3   4
BRANCH   3   6
HETATM    6  C   UNL     1      -9.691  12.156  68.438  1.00  0.00    -0.193 C  
BRANCH   6   7
HETATM    7  C   UNL     1     -10.581  11.022  68.978  1.00  0.00    -0.225 C  
BRANCH   7   8
HETATM    8  O   UNL     1      -9.819   9.805  68.836  1.00  0.00    -0.162 OA 
BRANCH   8   9
HETATM    9  C   UNL     1      -9.156   9.428  69.962  1.00  0.00    -0.220 C  
HETATM   10  O   UNL     1      -8.146   9.970  70.374  1.00  0.00    -0.187 OA 
BRANCH   9  11
HETATM   11  C   UNL     1      -9.960   8.391  70.684  1.00  0.00    -0.212 A  
HETATM   12  C   UNL     1      -9.651   7.982  71.989  1.00  0.00    -0.201 A  
HETATM   13  C   UNL     1     -10.497   7.088  72.666  1.00  0.00    -0.254 A  
HETATM   14 CL   UNL     1      -8.274   8.530  72.880  1.00  0.00    -0.165 Cl 
HETATM   15  C   UNL     1     -11.634   6.558  72.057  1.00  0.00    -0.311 A  
HETATM   16  C   UNL     1     -11.977   7.012  70.786  1.00  0.00    -0.392 A  
HETATM   17  N   UNL     1     -12.534   5.779  72.787  1.00  0.00    -0.411 NA 
HETATM   18  H1  UNL     1     -13.366   5.392  72.342  1.00  0.00     0.000 HD 
HETATM   19  C   UNL     1     -11.141   7.896  70.096  1.00  0.00    -0.204 A  
HETATM   20  H2  UNL     1     -12.830   6.314  73.605  1.00  0.00     0.000 HD 
ENDBRANCH   9  11
ENDBRANCH   8   9
ENDBRANCH   7   8
ENDBRANCH   6   7
ENDBRANCH   3   6
ENDBRANCH   2   3
TORSDOF 7
ENDMDL
MODEL      293
REMARK 921   NORMALIZED FREE ENERGY PREDICTED BY IDOCK:   -2.83 KCAL/MOL
REMARK 922        TOTAL FREE ENERGY PREDICTED BY IDOCK:   -4.38 KCAL/MOL
REMARK 923 INTER-LIGAND FREE ENERGY PREDICTED BY IDOCK:   -3.43 KCAL/MOL
REMARK 924 INTRA-LIGAND FREE ENERGY PREDICTED BY IDOCK:   -0.94 KCAL/MOL
REMARK 927      BINDING AFFINITY PREDICTED BY RF-SCORE:    0.00 PKD
ROOT
HETATM    1  C   UNL     1      -9.682   3.862  64.978  1.00  0.00    -0.192 C  
HETATM    2  C   UNL     1      -8.613   4.825  65.481  1.00  0.00    -0.131 C  
ENDROOT
BRANCH   2   3
HETATM    3  N   UNL     1      -8.935   5.505  66.753  1.00  0.00    -0.113 NA 
BRANCH   3   4
HETATM    4  C   UNL     1      -9.876   6.628  66.605  1.00  0.00    -0.149 C  
HETATM    5  C   UNL     1     -11.058   6.655  67.571  1.00  0.00    -0.374 C  
ENDBRANCH   3   4
BRANCH   3   6
HETATM    6  C   UNL     1      -9.389   4.493  67.722  1.00  0.00    -0.147 C  
BRANCH   6   7
HETATM    7  C   UNL     1      -8.320   3.810  68.596  1.00  0.00    -0.074 C  
BRANCH   7   8
HETATM    8  O   UNL     1      -8.943   3.553  69.871  1.00  0.00    -0.084 OA 
BRANCH   8   9
HETATM    9  C   UNL     1      -8.394   4.241  70.908  1.00  0.00    -0.079 C  
HETATM   10  O   UNL     1      -7.245   4.099  71.290  1.00  0.00    -0.038 OA 
BRANCH   9  11
HETATM   11  C   UNL     1      -9.351   5.300  71.360  1.00  0.00    -0.184 A  
HETATM   12  C   UNL     1      -9.289   6.616  70.881  1.00  0.00    -0.157 A  
HETATM   13  C   UNL     1     -10.275   7.548  71.250  1.00  0.00    -0.198 A  
HETATM   14 CL   UNL     1      -8.067   7.205  69.808  1.00  0.00    -0.127 Cl 
HETATM   15  C   UNL     1     -11.309   7.207  72.121  1.00  0.00    -0.264 A  
HETATM   16  C   UNL     1     -11.408   5.885  72.546  1.00  0.00    -0.352 A  
HETATM   17  N   UNL     1     -12.352   8.101  72.369  1.00  0.00    -0.514 NA 
HETATM   18  H1  UNL     1     -13.109   7.852  73.006  1.00  0.00     0.000 HD 
HETATM   19  C   UNL     1     -10.431   4.949  72.194  1.00  0.00    -0.257 A  
HETATM   20  H2  UNL     1     -12.764   8.370  71.475  1.00  0.00     0.000 HD 
ENDBRANCH   9  11
ENDBRANCH   8   9
ENDBRANCH   7   8
ENDBRANCH   6   7
ENDBRANCH   3   6
ENDBRANCH   2   3
TORSDOF 7
ENDMDL
MODEL      294
REMARK 921   NORMALIZED FREE ENERGY PREDICTED BY IDOCK:   -2.81 KCAL/MOL
REMARK 922        TOTAL FREE ENERGY PREDICTED BY IDOCK:   -4.35 KCAL/MOL
REMARK 923 INTER-LIGAND FREE ENERGY PREDICTED BY IDOCK:   -4.48 KCAL/MOL
REMARK 924 INTRA-LIGAND FREE ENERGY PREDICTED BY IDOCK:    0.13 KCAL/MOL
REMARK 927      BINDING AFFINITY PREDICTED BY RF-SCORE:    0.00 PKD
ROOT
HETATM    1  C   UNL     1      -8.030   7.485  69.073  1.00  0.00    -0.122 C  
HETATM    2  C   UNL     1      -9.088   7.761  68.012  1.00  0.00    -0.128 C  
ENDROOT
BRANCH   2   3
HETATM    3  N   UNL     1      -8.721   8.789  67.017  1.00  0.00    -0.122 NA 
BRANCH   3   4
HETATM    4  C   UNL     1      -8.011   8.254  65.843  1.00  0.00    -0.097 C  
HETATM    5  C   UNL     1      -6.499   8.094  65.979  1.00  0.00    -0.046 C  
ENDBRANCH   3   4
BRANCH   3   6
HETATM    6  C   UNL     1      -9.931   9.550  66.664  1.00  0.00    -0.247 C  
BRANCH   6   7
HETATM    7  C   UNL     1      -9.748  10.999  66.176  1.00  0.00    -0.217 C  
BRANCH   7   8
HETATM    8  O   UNL     1      -9.741  11.827  67.357  1.00  0.00    -0.177 OA 
BRANCH   8   9
HETATM    9  C   UNL     1     -10.980  12.174  67.801  1.00  0.00    -0.233 C  
HETATM   10  O   UNL     1     -11.816  11.375  68.183  1.00  0.00    -0.530 OA 
BRANCH   9  11
HETATM   11  C   UNL     1     -11.065  13.665  67.913  1.00  0.00    -0.283 A  
HETATM   12  C   UNL     1     -11.600  14.299  69.043  1.00  0.00    -0.305 A  
HETATM   13  C   UNL     1     -11.558  15.700  69.151  1.00  0.00    -0.393 A  
HETATM   14 CL   UNL     1     -12.310  13.466  70.382  1.00  0.00    -0.403 Cl 
HETATM   15  C   UNL     1     -11.025  16.493  68.135  1.00  0.00    -0.336 A  
HETATM   16  C   UNL     1     -10.436  15.862  67.042  1.00  0.00    -0.306 A  
HETATM   17  N   UNL     1     -10.869  17.869  68.316  1.00  0.00    -0.264 NA 
HETATM   18  H1  UNL     1     -10.479  18.448  67.574  1.00  0.00     0.000 HD 
HETATM   19  C   UNL     1     -10.477  14.470  66.918  1.00  0.00    -0.269 A  
HETATM   20  H2  UNL     1     -10.318  18.020  69.161  1.00  0.00     0.000 HD 
ENDBRANCH   9  11
ENDBRANCH   8   9
ENDBRANCH   7   8
ENDBRANCH   6   7
ENDBRANCH   3   6
ENDBRANCH   2   3
TORSDOF 7
ENDMDL
MODEL      295
REMARK 921   NORMALIZED FREE ENERGY PREDICTED BY IDOCK:   -2.80 KCAL/MOL
REMARK 922        TOTAL FREE ENERGY PREDICTED BY IDOCK:   -4.34 KCAL/MOL
REMARK 923 INTER-LIGAND FREE ENERGY PREDICTED BY IDOCK:   -4.11 KCAL/MOL
REMARK 924 INTRA-LIGAND FREE ENERGY PREDICTED BY IDOCK:   -0.23 KCAL/MOL
REMARK 927      BINDING AFFINITY PREDICTED BY RF-SCORE:    0.00 PKD
ROOT
HETATM    1  C   UNL     1      -7.593  10.070  65.420  1.00  0.00    -0.138 C  
HETATM    2  C   UNL     1      -9.106  10.030  65.593  1.00  0.00    -0.183 C  
ENDROOT
BRANCH   2   3
HETATM    3  N   UNL     1      -9.611  10.679  66.820  1.00  0.00    -0.166 NA 
BRANCH   3   4
HETATM    4  C   UNL     1     -10.535  11.797  66.564  1.00  0.00    -0.230 C  
HETATM    5  C   UNL     1     -11.769  11.877  67.460  1.00  0.00    -0.335 C  
ENDBRANCH   3   4
BRANCH   3   6
HETATM    6  C   UNL     1     -10.185   9.642  67.694  1.00  0.00    -0.216 C  
BRANCH   6   7
HETATM    7  C   UNL     1      -9.214   8.651  68.362  1.00  0.00    -0.138 C  
BRANCH   7   8
HETATM    8  O   UNL     1      -9.290   7.431  67.596  1.00  0.00    -0.132 OA 
BRANCH   8   9
HETATM    9  C   UNL     1     -10.465   6.759  67.734  1.00  0.00    -0.222 C  
HETATM   10  O   UNL     1     -11.286   6.630  66.843  1.00  0.00    -0.391 OA 
BRANCH   9  11
HETATM   11  C   UNL     1     -10.488   6.071  69.063  1.00  0.00    -0.319 A  
HETATM   12  C   UNL     1      -9.716   4.932  69.328  1.00  0.00    -0.188 A  
HETATM   13  C   UNL     1      -9.685   4.386  70.623  1.00  0.00    -0.283 A  
HETATM   14 CL   UNL     1      -8.734   4.128  68.153  1.00  0.00    -0.110 Cl 
HETATM   15  C   UNL     1     -10.442   4.930  71.660  1.00  0.00    -0.126 A  
HETATM   16  C   UNL     1     -11.159   6.098  71.415  1.00  0.00    -0.346 A  
HETATM   17  N   UNL     1     -10.297   4.459  72.967  1.00  0.00    -0.170 NA 
HETATM   18  H1  UNL     1     -10.850   4.857  73.726  1.00  0.00     0.000 HD 
HETATM   19  C   UNL     1     -11.205   6.648  70.131  1.00  0.00    -0.416 A  
HETATM   20  H2  UNL     1      -9.311   4.524  73.223  1.00  0.00     0.000 HD 
ENDBRANCH   9  11
ENDBRANCH   8   9
ENDBRANCH   7   8
ENDBRANCH   6   7
ENDBRANCH   3   6
ENDBRANCH   2   3
TORSDOF 7
ENDMDL
MODEL      296
REMARK 921   NORMALIZED FREE ENERGY PREDICTED BY IDOCK:   -2.80 KCAL/MOL
REMARK 922        TOTAL FREE ENERGY PREDICTED BY IDOCK:   -4.34 KCAL/MOL
REMARK 923 INTER-LIGAND FREE ENERGY PREDICTED BY IDOCK:   -4.29 KCAL/MOL
REMARK 924 INTRA-LIGAND FREE ENERGY PREDICTED BY IDOCK:   -0.04 KCAL/MOL
REMARK 927      BINDING AFFINITY PREDICTED BY RF-SCORE:    0.00 PKD
ROOT
HETATM    1  C   UNL     1      -7.740   8.042  65.064  1.00  0.00    -0.112 C  
HETATM    2  C   UNL     1      -7.773   9.551  65.275  1.00  0.00    -0.111 C  
ENDROOT
BRANCH   2   3
HETATM    3  N   UNL     1      -9.082  10.188  65.027  1.00  0.00    -0.186 NA 
BRANCH   3   4
HETATM    4  C   UNL     1      -9.438  10.281  63.601  1.00  0.00    -0.299 C  
HETATM    5  C   UNL     1     -10.156  11.555  63.162  1.00  0.00    -0.395 C  
ENDBRANCH   3   4
BRANCH   3   6
HETATM    6  C   UNL     1     -10.099   9.494  65.833  1.00  0.00    -0.214 C  
BRANCH   6   7
HETATM    7  C   UNL     1     -10.996  10.350  66.746  1.00  0.00    -0.046 C  
BRANCH   7   8
HETATM    8  O   UNL     1     -11.343   9.518  67.872  1.00  0.00     0.023 OA 
BRANCH   8   9
HETATM    9  C   UNL     1     -10.617   9.769  68.995  1.00  0.00    -0.219 C  
HETATM   10  O   UNL     1      -9.977  10.790  69.181  1.00  0.00    -0.208 OA 
BRANCH   9  11
HETATM   11  C   UNL     1     -10.883   8.697  70.006  1.00  0.00    -0.226 A  
HETATM   12  C   UNL     1     -11.008   7.348  69.648  1.00  0.00    -0.172 A  
HETATM   13  C   UNL     1     -11.148   6.364  70.642  1.00  0.00    -0.376 A  
HETATM   14 CL   UNL     1     -10.975   6.766  68.019  1.00  0.00    -0.298 Cl 
HETATM   15  C   UNL     1     -11.204   6.699  71.994  1.00  0.00    -0.266 A  
HETATM   16  C   UNL     1     -11.016   8.031  72.355  1.00  0.00    -0.402 A  
HETATM   17  N   UNL     1     -11.207   5.703  72.973  1.00  0.00    -0.387 NA 
HETATM   18  H1  UNL     1     -11.247   5.948  73.962  1.00  0.00     0.000 HD 
HETATM   19  C   UNL     1     -10.883   9.021  71.377  1.00  0.00    -0.400 A  
HETATM   20  H2  UNL     1     -10.393   5.106  72.825  1.00  0.00     0.000 HD 
ENDBRANCH   9  11
ENDBRANCH   8   9
ENDBRANCH   7   8
ENDBRANCH   6   7
ENDBRANCH   3   6
ENDBRANCH   2   3
TORSDOF 7
ENDMDL
MODEL      297
REMARK 921   NORMALIZED FREE ENERGY PREDICTED BY IDOCK:   -2.80 KCAL/MOL
REMARK 922        TOTAL FREE ENERGY PREDICTED BY IDOCK:   -4.33 KCAL/MOL
REMARK 923 INTER-LIGAND FREE ENERGY PREDICTED BY IDOCK:   -4.50 KCAL/MOL
REMARK 924 INTRA-LIGAND FREE ENERGY PREDICTED BY IDOCK:    0.16 KCAL/MOL
REMARK 927      BINDING AFFINITY PREDICTED BY RF-SCORE:    0.00 PKD
ROOT
HETATM    1  C   UNL     1      -9.043   5.308  65.916  1.00  0.00    -0.159 C  
HETATM    2  C   UNL     1      -7.752   6.107  65.792  1.00  0.00    -0.094 C  
ENDROOT
BRANCH   2   3
HETATM    3  N   UNL     1      -7.933   7.551  65.544  1.00  0.00    -0.114 NA 
BRANCH   3   4
HETATM    4  C   UNL     1      -7.689   7.951  64.147  1.00  0.00    -0.132 C  
HETATM    5  C   UNL     1      -6.500   8.876  63.903  1.00  0.00    -0.087 C  
ENDBRANCH   3   4
BRANCH   3   6
HETATM    6  C   UNL     1      -9.263   7.946  66.035  1.00  0.00    -0.104 C  
BRANCH   6   7
HETATM    7  C   UNL     1      -9.642   9.437  65.955  1.00  0.00    -0.261 C  
BRANCH   7   8
HETATM    8  O   UNL     1      -9.426   9.982  67.273  1.00  0.00    -0.150 OA 
BRANCH   8   9
HETATM    9  C   UNL     1     -10.471   9.807  68.126  1.00  0.00    -0.216 C  
HETATM   10  O   UNL     1     -10.732   8.754  68.680  1.00  0.00    -0.175 OA 
BRANCH   9  11
HETATM   11  C   UNL     1     -11.109  11.133  68.403  1.00  0.00    -0.303 A  
HETATM   12  C   UNL     1     -11.641  11.458  69.659  1.00  0.00    -0.330 A  
HETATM   13  C   UNL     1     -12.130  12.753  69.904  1.00  0.00    -0.329 A  
HETATM   14 CL   UNL     1     -11.721  10.362  70.995  1.00  0.00    -0.442 Cl 
HETATM   15  C   UNL     1     -12.136  13.729  68.909  1.00  0.00    -0.313 A  
HETATM   16  C   UNL     1     -11.551  13.428  67.682  1.00  0.00    -0.377 A  
HETATM   17  N   UNL     1     -12.499  15.044  69.206  1.00  0.00    -0.581 NA 
HETATM   18  H1  UNL     1     -12.504  15.759  68.478  1.00  0.00     0.000 HD 
HETATM   19  C   UNL     1     -11.067  12.142  67.421  1.00  0.00    -0.330 A  
HETATM   20  H2  UNL     1     -11.911  15.373  69.972  1.00  0.00     0.000 HD 
ENDBRANCH   9  11
ENDBRANCH   8   9
ENDBRANCH   7   8
ENDBRANCH   6   7
ENDBRANCH   3   6
ENDBRANCH   2   3
TORSDOF 7
ENDMDL
MODEL      298
REMARK 921   NORMALIZED FREE ENERGY PREDICTED BY IDOCK:   -2.75 KCAL/MOL
REMARK 922        TOTAL FREE ENERGY PREDICTED BY IDOCK:   -4.27 KCAL/MOL
REMARK 923 INTER-LIGAND FREE ENERGY PREDICTED BY IDOCK:   -4.14 KCAL/MOL
REMARK 924 INTRA-LIGAND FREE ENERGY PREDICTED BY IDOCK:   -0.13 KCAL/MOL
REMARK 927      BINDING AFFINITY PREDICTED BY RF-SCORE:    0.00 PKD
ROOT
HETATM    1  C   UNL     1     -12.200  14.158  64.845  1.00  0.00    -0.451 C  
HETATM    2  C   UNL     1     -12.080  13.549  66.236  1.00  0.00    -0.428 C  
ENDROOT
BRANCH   2   3
HETATM    3  N   UNL     1     -10.854  13.914  66.974  1.00  0.00    -0.284 NA 
BRANCH   3   4
HETATM    4  C   UNL     1     -11.098  14.332  68.365  1.00  0.00    -0.256 C  
HETATM    5  C   UNL     1     -11.773  15.688  68.557  1.00  0.00    -0.339 C  
ENDBRANCH   3   4
BRANCH   3   6
HETATM    6  C   UNL     1      -9.895  12.801  66.865  1.00  0.00    -0.236 C  
BRANCH   6   7
HETATM    7  C   UNL     1     -10.463  11.373  66.782  1.00  0.00    -0.244 C  
BRANCH   7   8
HETATM    8  O   UNL     1     -10.112  10.723  68.021  1.00  0.00    -0.169 OA 
BRANCH   8   9
HETATM    9  C   UNL     1     -10.535   9.433  68.113  1.00  0.00    -0.220 C  
HETATM   10  O   UNL     1     -11.074   8.825  67.205  1.00  0.00     0.023 OA 
BRANCH   9  11
HETATM   11  C   UNL     1     -10.070   8.853  69.413  1.00  0.00    -0.202 A  
HETATM   12  C   UNL     1     -10.187   7.487  69.704  1.00  0.00    -0.205 A  
HETATM   13  C   UNL     1      -9.637   6.970  70.890  1.00  0.00    -0.167 A  
HETATM   14 CL   UNL     1     -10.957   6.333  68.671  1.00  0.00    -0.394 Cl 
HETATM   15  C   UNL     1      -9.001   7.794  71.818  1.00  0.00    -0.123 A  
HETATM   16  C   UNL     1      -8.828   9.139  71.500  1.00  0.00    -0.045 A  
HETATM   17  N   UNL     1      -8.344   7.246  72.922  1.00  0.00    -0.108 NA 
HETATM   18  H1  UNL     1      -7.879   7.849  73.600  1.00  0.00     0.000 HD 
HETATM   19  C   UNL     1      -9.376   9.669  70.328  1.00  0.00    -0.292 A  
HETATM   20  H2  UNL     1      -7.666   6.563  72.584  1.00  0.00     0.000 HD 
ENDBRANCH   9  11
ENDBRANCH   8   9
ENDBRANCH   7   8
ENDBRANCH   6   7
ENDBRANCH   3   6
ENDBRANCH   2   3
TORSDOF 7
ENDMDL
MODEL      299
REMARK 921   NORMALIZED FREE ENERGY PREDICTED BY IDOCK:   -2.74 KCAL/MOL
REMARK 922        TOTAL FREE ENERGY PREDICTED BY IDOCK:   -4.25 KCAL/MOL
REMARK 923 INTER-LIGAND FREE ENERGY PREDICTED BY IDOCK:   -3.80 KCAL/MOL
REMARK 924 INTRA-LIGAND FREE ENERGY PREDICTED BY IDOCK:   -0.46 KCAL/MOL
REMARK 927      BINDING AFFINITY PREDICTED BY RF-SCORE:    0.00 PKD
ROOT
HETATM    1  C   UNL     1     -12.912  10.218  71.705  1.00  0.00    -0.570 C  
HETATM    2  C   UNL     1     -12.722   8.728  71.958  1.00  0.00    -0.387 C  
ENDROOT
BRANCH   2   3
HETATM    3  N   UNL     1     -11.329   8.249  71.848  1.00  0.00    -0.286 NA 
BRANCH   3   4
HETATM    4  C   UNL     1     -10.874   7.473  73.014  1.00  0.00    -0.392 C  
HETATM    5  C   UNL     1     -11.086   5.963  72.950  1.00  0.00    -0.306 C  
ENDBRANCH   3   4
BRANCH   3   6
HETATM    6  C   UNL     1     -11.184   7.522  70.577  1.00  0.00    -0.269 C  
BRANCH   6   7
HETATM    7  C   UNL     1     -10.703   8.317  69.349  1.00  0.00    -0.151 C  
BRANCH   7   8
HETATM    8  O   UNL     1     -10.259   7.342  68.382  1.00  0.00    -0.173 OA 
BRANCH   8   9
HETATM    9  C   UNL     1      -8.923   7.088  68.421  1.00  0.00    -0.122 C  
HETATM   10  O   UNL     1      -8.134   7.690  69.129  1.00  0.00    -0.121 OA 
BRANCH   9  11
HETATM   11  C   UNL     1      -8.630   5.860  67.616  1.00  0.00    -0.102 A  
HETATM   12  C   UNL     1      -9.026   4.582  68.032  1.00  0.00    -0.116 A  
HETATM   13  C   UNL     1      -8.827   3.473  67.192  1.00  0.00    -0.146 A  
HETATM   14 CL   UNL     1      -9.798   4.246  69.544  1.00  0.00    -0.269 Cl 
HETATM   15  C   UNL     1      -8.203   3.603  65.952  1.00  0.00    -0.101 A  
HETATM   16  C   UNL     1      -7.867   4.880  65.510  1.00  0.00    -0.095 A  
HETATM   17  N   UNL     1      -8.135   2.518  65.074  1.00  0.00    -0.082 NA 
HETATM   18  H1  UNL     1      -7.679   2.613  64.167  1.00  0.00     0.000 HD 
HETATM   19  C   UNL     1      -8.052   5.991  66.338  1.00  0.00    -0.110 A  
HETATM   20  H2  UNL     1      -9.082   2.171  64.921  1.00  0.00     0.000 HD 
ENDBRANCH   9  11
ENDBRANCH   8   9
ENDBRANCH   7   8
ENDBRANCH   6   7
ENDBRANCH   3   6
ENDBRANCH   2   3
TORSDOF 7
ENDMDL
MODEL      300
REMARK 921   NORMALIZED FREE ENERGY PREDICTED BY IDOCK:   -2.74 KCAL/MOL
REMARK 922        TOTAL FREE ENERGY PREDICTED BY IDOCK:   -4.25 KCAL/MOL
REMARK 923 INTER-LIGAND FREE ENERGY PREDICTED BY IDOCK:   -3.78 KCAL/MOL
REMARK 924 INTRA-LIGAND FREE ENERGY PREDICTED BY IDOCK:   -0.47 KCAL/MOL
REMARK 927      BINDING AFFINITY PREDICTED BY RF-SCORE:    0.00 PKD
ROOT
HETATM    1  C   UNL     1     -12.196   8.964  72.216  1.00  0.00    -0.413 C  
HETATM    2  C   UNL     1     -10.975   8.566  71.397  1.00  0.00    -0.264 C  
ENDROOT
BRANCH   2   3
HETATM    3  N   UNL     1     -10.622   7.133  71.457  1.00  0.00    -0.208 NA 
BRANCH   3   4
HETATM    4  C   UNL     1     -10.999   6.480  72.723  1.00  0.00    -0.253 C  
HETATM    5  C   UNL     1     -10.897   4.957  72.758  1.00  0.00    -0.293 C  
ENDBRANCH   3   4
BRANCH   3   6
HETATM    6  C   UNL     1     -11.184   6.464  70.272  1.00  0.00    -0.382 C  
BRANCH   6   7
HETATM    7  C   UNL     1     -10.376   5.307  69.654  1.00  0.00    -0.278 C  
BRANCH   7   8
HETATM    8  O   UNL     1      -9.010   5.761  69.577  1.00  0.00    -0.122 OA 
BRANCH   8   9
HETATM    9  C   UNL     1      -8.696   6.385  68.409  1.00  0.00    -0.113 C  
HETATM   10  O   UNL     1      -8.898   5.911  67.305  1.00  0.00    -0.109 OA 
BRANCH   9  11
HETATM   11  C   UNL     1      -8.249   7.784  68.702  1.00  0.00    -0.128 A  
HETATM   12  C   UNL     1      -9.002   8.903  68.321  1.00  0.00    -0.137 A  
HETATM   13  C   UNL     1      -8.599  10.191  68.713  1.00  0.00    -0.133 A  
HETATM   14 CL   UNL     1     -10.462   8.825  67.395  1.00  0.00    -0.348 Cl 
HETATM   15  C   UNL     1      -7.434  10.396  69.450  1.00  0.00    -0.135 A  
HETATM   16  C   UNL     1      -6.719   9.282  69.883  1.00  0.00    -0.050 A  
HETATM   17  N   UNL     1      -7.120  11.664  69.945  1.00  0.00    -0.358 NA 
HETATM   18  H1  UNL     1      -6.268  11.814  70.485  1.00  0.00     0.000 HD 
HETATM   19  C   UNL     1      -7.104   7.995  69.495  1.00  0.00    -0.058 A  
HETATM   20  H2  UNL     1      -7.910  11.996  70.499  1.00  0.00     0.000 HD 
ENDBRANCH   9  11
ENDBRANCH   8   9
ENDBRANCH   7   8
ENDBRANCH   6   7
ENDBRANCH   3   6
ENDBRANCH   2   3
TORSDOF 7
ENDMDL
MODEL      301
REMARK 921   NORMALIZED FREE ENERGY PREDICTED BY IDOCK:   -2.73 KCAL/MOL
REMARK 922        TOTAL FREE ENERGY PREDICTED BY IDOCK:   -4.24 KCAL/MOL
REMARK 923 INTER-LIGAND FREE ENERGY PREDICTED BY IDOCK:   -3.91 KCAL/MOL
REMARK 924 INTRA-LIGAND FREE ENERGY PREDICTED BY IDOCK:   -0.34 KCAL/MOL
REMARK 927      BINDING AFFINITY PREDICTED BY RF-SCORE:    0.00 PKD
ROOT
HETATM    1  C   UNL     1     -10.774   5.943  70.896  1.00  0.00    -0.338 C  
HETATM    2  C   UNL     1     -10.078   7.227  71.329  1.00  0.00    -0.189 C  
ENDROOT
BRANCH   2   3
HETATM    3  N   UNL     1      -8.626   7.272  71.060  1.00  0.00    -0.128 NA 
BRANCH   3   4
HETATM    4  C   UNL     1      -8.046   5.965  70.708  1.00  0.00    -0.119 C  
HETATM    5  C   UNL     1      -7.229   5.269  71.794  1.00  0.00    -0.080 C  
ENDBRANCH   3   4
BRANCH   3   6
HETATM    6  C   UNL     1      -8.370   8.310  70.049  1.00  0.00    -0.121 C  
BRANCH   6   7
HETATM    7  C   UNL     1      -9.587   9.008  69.415  1.00  0.00    -0.160 C  
BRANCH   7   8
HETATM    8  O   UNL     1      -9.317   9.092  68.001  1.00  0.00    -0.141 OA 
BRANCH   8   9
HETATM    9  C   UNL     1      -8.596  10.186  67.635  1.00  0.00    -0.118 C  
HETATM   10  O   UNL     1      -7.408  10.161  67.365  1.00  0.00    -0.088 OA 
BRANCH   9  11
HETATM   11  C   UNL     1      -9.521  11.347  67.446  1.00  0.00    -0.174 A  
HETATM   12  C   UNL     1     -10.352  11.465  66.323  1.00  0.00    -0.243 A  
HETATM   13  C   UNL     1     -11.283  12.514  66.242  1.00  0.00    -0.359 A  
HETATM   14 CL   UNL     1     -10.346  10.365  64.989  1.00  0.00    -0.332 Cl 
HETATM   15  C   UNL     1     -11.382  13.479  67.244  1.00  0.00    -0.315 A  
HETATM   16  C   UNL     1     -10.604  13.328  68.388  1.00  0.00    -0.263 A  
HETATM   17  N   UNL     1     -12.401  14.434  67.212  1.00  0.00    -0.594 NA 
HETATM   18  H1  UNL     1     -12.474  15.139  67.945  1.00  0.00     0.000 HD 
HETATM   19  C   UNL     1      -9.667  12.293  68.480  1.00  0.00    -0.142 A  
HETATM   20  H2  UNL     1     -13.295  13.946  67.149  1.00  0.00     0.000 HD 
ENDBRANCH   9  11
ENDBRANCH   8   9
ENDBRANCH   7   8
ENDBRANCH   6   7
ENDBRANCH   3   6
ENDBRANCH   2   3
TORSDOF 7
ENDMDL
MODEL      302
REMARK 921   NORMALIZED FREE ENERGY PREDICTED BY IDOCK:   -2.72 KCAL/MOL
REMARK 922        TOTAL FREE ENERGY PREDICTED BY IDOCK:   -4.22 KCAL/MOL
REMARK 923 INTER-LIGAND FREE ENERGY PREDICTED BY IDOCK:   -3.71 KCAL/MOL
REMARK 924 INTRA-LIGAND FREE ENERGY PREDICTED BY IDOCK:   -0.52 KCAL/MOL
REMARK 927      BINDING AFFINITY PREDICTED BY RF-SCORE:    0.00 PKD
ROOT
HETATM    1  C   UNL     1      -9.391  10.495  62.945  1.00  0.00    -0.347 C  
HETATM    2  C   UNL     1     -10.154  10.484  64.263  1.00  0.00    -0.310 C  
ENDROOT
BRANCH   2   3
HETATM    3  N   UNL     1     -10.569  11.813  64.756  1.00  0.00    -0.286 NA 
BRANCH   3   4
HETATM    4  C   UNL     1     -11.070  12.710  63.701  1.00  0.00    -0.443 C  
HETATM    5  C   UNL     1     -12.482  12.435  63.190  1.00  0.00    -0.281 C  
ENDBRANCH   3   4
BRANCH   3   6
HETATM    6  C   UNL     1     -11.527  11.624  65.858  1.00  0.00    -0.121 C  
BRANCH   6   7
HETATM    7  C   UNL     1     -11.882  12.852  66.716  1.00  0.00    -0.385 C  
BRANCH   7   8
HETATM    8  O   UNL     1     -11.770  12.433  68.091  1.00  0.00    -0.322 OA 
BRANCH   8   9
HETATM    9  C   UNL     1     -10.695  12.952  68.745  1.00  0.00    -0.218 C  
HETATM   10  O   UNL     1     -10.746  13.925  69.478  1.00  0.00    -0.096 OA 
BRANCH   9  11
HETATM   11  C   UNL     1      -9.521  12.041  68.566  1.00  0.00    -0.136 A  
HETATM   12  C   UNL     1      -8.381  12.425  67.846  1.00  0.00    -0.165 A  
HETATM   13  C   UNL     1      -7.259  11.579  67.797  1.00  0.00    -0.094 A  
HETATM   14 CL   UNL     1      -8.223  13.927  67.002  1.00  0.00    -0.130 Cl 
HETATM   15  C   UNL     1      -7.259  10.333  68.424  1.00  0.00    -0.080 A  
HETATM   16  C   UNL     1      -8.365   9.978  69.192  1.00  0.00    -0.146 A  
HETATM   17  N   UNL     1      -6.094   9.566  68.479  1.00  0.00    -0.044 NA 
HETATM   18  H1  UNL     1      -6.094   8.655  68.937  1.00  0.00     0.000 HD 
HETATM   19  C   UNL     1      -9.491  10.806  69.243  1.00  0.00    -0.103 A  
HETATM   20  H2  UNL     1      -5.357  10.134  68.898  1.00  0.00     0.000 HD 
ENDBRANCH   9  11
ENDBRANCH   8   9
ENDBRANCH   7   8
ENDBRANCH   6   7
ENDBRANCH   3   6
ENDBRANCH   2   3
TORSDOF 7
ENDMDL
MODEL      303
REMARK 921   NORMALIZED FREE ENERGY PREDICTED BY IDOCK:   -2.71 KCAL/MOL
REMARK 922        TOTAL FREE ENERGY PREDICTED BY IDOCK:   -4.21 KCAL/MOL
REMARK 923 INTER-LIGAND FREE ENERGY PREDICTED BY IDOCK:   -3.75 KCAL/MOL
REMARK 924 INTRA-LIGAND FREE ENERGY PREDICTED BY IDOCK:   -0.46 KCAL/MOL
REMARK 927      BINDING AFFINITY PREDICTED BY RF-SCORE:    0.00 PKD
ROOT
HETATM    1  C   UNL     1     -10.945  15.432  65.491  1.00  0.00    -0.350 C  
HETATM    2  C   UNL     1     -11.608  14.759  66.687  1.00  0.00    -0.313 C  
ENDROOT
BRANCH   2   3
HETATM    3  N   UNL     1     -10.912  14.950  67.975  1.00  0.00    -0.270 NA 
BRANCH   3   4
HETATM    4  C   UNL     1     -11.551  15.943  68.856  1.00  0.00    -0.388 C  
HETATM    5  C   UNL     1     -10.616  16.803  69.702  1.00  0.00    -0.242 C  
ENDBRANCH   3   4
BRANCH   3   6
HETATM    6  C   UNL     1     -10.742  13.635  68.614  1.00  0.00    -0.256 C  
BRANCH   6   7
HETATM    7  C   UNL     1     -10.074  12.519  67.789  1.00  0.00    -0.218 C  
BRANCH   7   8
HETATM    8  O   UNL     1     -10.392  11.278  68.451  1.00  0.00    -0.178 OA 
BRANCH   8   9
HETATM    9  C   UNL     1      -9.587  10.238  68.102  1.00  0.00    -0.140 C  
HETATM   10  O   UNL     1      -9.392   9.881  66.954  1.00  0.00    -0.147 OA 
BRANCH   9  11
HETATM   11  C   UNL     1      -8.861   9.747  69.316  1.00  0.00    -0.171 A  
HETATM   12  C   UNL     1      -7.522  10.076  69.569  1.00  0.00    -0.123 A  
HETATM   13  C   UNL     1      -6.916   9.684  70.775  1.00  0.00    -0.087 A  
HETATM   14 CL   UNL     1      -6.523  10.987  68.490  1.00  0.00    -0.053 Cl 
HETATM   15  C   UNL     1      -7.606   8.934  71.727  1.00  0.00     0.031 A  
HETATM   16  C   UNL     1      -8.953   8.661  71.505  1.00  0.00    -0.302 A  
HETATM   17  N   UNL     1      -7.034   8.669  72.973  1.00  0.00    -0.309 NA 
HETATM   18  H1  UNL     1      -7.538   8.120  73.669  1.00  0.00     0.000 HD 
HETATM   19  C   UNL     1      -9.568   9.038  70.307  1.00  0.00    -0.230 A  
HETATM   20  H2  UNL     1      -6.768   9.557  73.399  1.00  0.00     0.000 HD 
ENDBRANCH   9  11
ENDBRANCH   8   9
ENDBRANCH   7   8
ENDBRANCH   6   7
ENDBRANCH   3   6
ENDBRANCH   2   3
TORSDOF 7
ENDMDL
MODEL      304
REMARK 921   NORMALIZED FREE ENERGY PREDICTED BY IDOCK:   -2.70 KCAL/MOL
REMARK 922        TOTAL FREE ENERGY PREDICTED BY IDOCK:   -4.20 KCAL/MOL
REMARK 923 INTER-LIGAND FREE ENERGY PREDICTED BY IDOCK:   -3.59 KCAL/MOL
REMARK 924 INTRA-LIGAND FREE ENERGY PREDICTED BY IDOCK:   -0.60 KCAL/MOL
REMARK 927      BINDING AFFINITY PREDICTED BY RF-SCORE:    0.00 PKD
ROOT
HETATM    1  C   UNL     1      -5.782   5.123  67.916  1.00  0.00    -0.017 C  
HETATM    2  C   UNL     1      -6.890   6.164  67.823  1.00  0.00    -0.063 C  
ENDROOT
BRANCH   2   3
HETATM    3  N   UNL     1      -6.518   7.412  67.126  1.00  0.00    -0.058 NA 
BRANCH   3   4
HETATM    4  C   UNL     1      -7.199   7.597  65.833  1.00  0.00    -0.069 C  
HETATM    5  C   UNL     1      -8.445   6.746  65.594  1.00  0.00    -0.142 C  
ENDBRANCH   3   4
BRANCH   3   6
HETATM    6  C   UNL     1      -6.716   8.541  68.050  1.00  0.00    -0.065 C  
BRANCH   6   7
HETATM    7  C   UNL     1      -7.703   8.346  69.216  1.00  0.00    -0.098 C  
BRANCH   7   8
HETATM    8  O   UNL     1      -8.860   9.150  68.908  1.00  0.00    -0.136 OA 
BRANCH   8   9
HETATM    9  C   UNL     1      -9.993   8.432  68.680  1.00  0.00    -0.184 C  
HETATM   10  O   UNL     1     -10.538   8.342  67.595  1.00  0.00    -0.243 OA 
BRANCH   9  11
HETATM   11  C   UNL     1     -10.334   7.646  69.908  1.00  0.00    -0.225 A  
HETATM   12  C   UNL     1     -10.941   8.234  71.027  1.00  0.00    -0.245 A  
HETATM   13  C   UNL     1     -11.343   7.436  72.112  1.00  0.00    -0.311 A  
HETATM   14 CL   UNL     1     -11.276   9.924  71.175  1.00  0.00    -0.432 Cl 
HETATM   15  C   UNL     1     -11.119   6.060  72.126  1.00  0.00    -0.279 A  
HETATM   16  C   UNL     1     -10.575   5.466  70.990  1.00  0.00    -0.275 A  
HETATM   17  N   UNL     1     -11.643   5.266  73.148  1.00  0.00    -0.522 NA 
HETATM   18  H1  UNL     1     -11.480   4.259  73.158  1.00  0.00     0.000 HD 
HETATM   19  C   UNL     1     -10.163   6.247  69.906  1.00  0.00    -0.232 A  
HETATM   20  H2  UNL     1     -12.650   5.426  73.193  1.00  0.00     0.000 HD 
ENDBRANCH   9  11
ENDBRANCH   8   9
ENDBRANCH   7   8
ENDBRANCH   6   7
ENDBRANCH   3   6
ENDBRANCH   2   3
TORSDOF 7
ENDMDL
MODEL      305
REMARK 921   NORMALIZED FREE ENERGY PREDICTED BY IDOCK:   -2.66 KCAL/MOL
REMARK 922        TOTAL FREE ENERGY PREDICTED BY IDOCK:   -4.13 KCAL/MOL
REMARK 923 INTER-LIGAND FREE ENERGY PREDICTED BY IDOCK:   -3.72 KCAL/MOL
REMARK 924 INTRA-LIGAND FREE ENERGY PREDICTED BY IDOCK:   -0.42 KCAL/MOL
REMARK 927      BINDING AFFINITY PREDICTED BY RF-SCORE:    0.00 PKD
ROOT
HETATM    1  C   UNL     1      -7.797   7.882  71.955  1.00  0.00    -0.123 C  
HETATM    2  C   UNL     1      -7.487   7.483  70.518  1.00  0.00    -0.080 C  
ENDROOT
BRANCH   2   3
HETATM    3  N   UNL     1      -8.625   6.914  69.768  1.00  0.00    -0.140 NA 
BRANCH   3   4
HETATM    4  C   UNL     1      -9.077   5.607  70.275  1.00  0.00    -0.143 C  
HETATM    5  C   UNL     1      -9.788   4.700  69.274  1.00  0.00    -0.260 C  
ENDBRANCH   3   4
BRANCH   3   6
HETATM    6  C   UNL     1      -9.700   7.918  69.717  1.00  0.00    -0.176 C  
BRANCH   6   7
HETATM    7  C   UNL     1     -10.013   8.563  68.354  1.00  0.00    -0.187 C  
BRANCH   7   8
HETATM    8  O   UNL     1      -9.754   9.974  68.504  1.00  0.00    -0.150 OA 
BRANCH   8   9
HETATM    9  C   UNL     1     -10.210  10.736  67.472  1.00  0.00    -0.196 C  
HETATM   10  O   UNL     1     -10.459  10.303  66.361  1.00  0.00    -0.224 OA 
BRANCH   9  11
HETATM   11  C   UNL     1     -10.521  12.112  67.975  1.00  0.00    -0.227 A  
HETATM   12  C   UNL     1      -9.680  13.205  67.728  1.00  0.00    -0.218 A  
HETATM   13  C   UNL     1     -10.067  14.497  68.123  1.00  0.00    -0.227 A  
HETATM   14 CL   UNL     1      -8.155  13.096  66.917  1.00  0.00    -0.019 Cl 
HETATM   15  C   UNL     1     -11.266  14.723  68.799  1.00  0.00    -0.270 A  
HETATM   16  C   UNL     1     -12.132  13.648  68.988  1.00  0.00    -0.348 A  
HETATM   17  N   UNL     1     -11.698  16.024  69.064  1.00  0.00    -0.356 NA 
HETATM   18  H1  UNL     1     -12.575  16.189  69.557  1.00  0.00     0.000 HD 
HETATM   19  C   UNL     1     -11.757  12.356  68.606  1.00  0.00    -0.372 A  
HETATM   20  H2  UNL     1     -11.726  16.538  68.183  1.00  0.00     0.000 HD 
ENDBRANCH   9  11
ENDBRANCH   8   9
ENDBRANCH   7   8
ENDBRANCH   6   7
ENDBRANCH   3   6
ENDBRANCH   2   3
TORSDOF 7
ENDMDL
MODEL      306
REMARK 921   NORMALIZED FREE ENERGY PREDICTED BY IDOCK:   -2.65 KCAL/MOL
REMARK 922        TOTAL FREE ENERGY PREDICTED BY IDOCK:   -4.13 KCAL/MOL
REMARK 923 INTER-LIGAND FREE ENERGY PREDICTED BY IDOCK:   -3.47 KCAL/MOL
REMARK 924 INTRA-LIGAND FREE ENERGY PREDICTED BY IDOCK:   -0.65 KCAL/MOL
REMARK 927      BINDING AFFINITY PREDICTED BY RF-SCORE:    0.00 PKD
ROOT
HETATM    1  C   UNL     1      -7.785   6.073  64.680  1.00  0.00    -0.099 C  
HETATM    2  C   UNL     1      -7.429   7.419  64.062  1.00  0.00    -0.100 C  
ENDROOT
BRANCH   2   3
HETATM    3  N   UNL     1      -7.720   8.592  64.911  1.00  0.00    -0.098 NA 
BRANCH   3   4
HETATM    4  C   UNL     1      -8.554   9.612  64.253  1.00  0.00    -0.191 C  
HETATM    5  C   UNL     1      -9.496  10.405  65.155  1.00  0.00    -0.303 C  
ENDBRANCH   3   4
BRANCH   3   6
HETATM    6  C   UNL     1      -8.285   8.117  66.186  1.00  0.00    -0.117 C  
BRANCH   6   7
HETATM    7  C   UNL     1      -7.484   8.396  67.471  1.00  0.00    -0.094 C  
BRANCH   7   8
HETATM    8  O   UNL     1      -8.454   8.562  68.526  1.00  0.00    -0.129 OA 
BRANCH   8   9
HETATM    9  C   UNL     1      -8.232   9.642  69.323  1.00  0.00    -0.123 C  
HETATM   10  O   UNL     1      -7.259   9.768  70.045  1.00  0.00    -0.093 OA 
BRANCH   9  11
HETATM   11  C   UNL     1      -9.255  10.694  69.026  1.00  0.00    -0.177 A  
HETATM   12  C   UNL     1     -10.560  10.631  69.534  1.00  0.00    -0.230 A  
HETATM   13  C   UNL     1     -11.452  11.695  69.320  1.00  0.00    -0.364 A  
HETATM   14 CL   UNL     1     -11.179   9.310  70.463  1.00  0.00    -0.298 Cl 
HETATM   15  C   UNL     1     -11.084  12.815  68.575  1.00  0.00    -0.266 A  
HETATM   16  C   UNL     1      -9.770  12.909  68.125  1.00  0.00    -0.227 A  
HETATM   17  N   UNL     1     -11.934  13.920  68.486  1.00  0.00    -0.390 NA 
HETATM   18  H1  UNL     1     -11.665  14.739  67.942  1.00  0.00     0.000 HD 
HETATM   19  C   UNL     1      -8.873  11.854  68.323  1.00  0.00    -0.174 A  
HETATM   20  H2  UNL     1     -12.160  14.227  69.433  1.00  0.00     0.000 HD 
ENDBRANCH   9  11
ENDBRANCH   8   9
ENDBRANCH   7   8
ENDBRANCH   6   7
ENDBRANCH   3   6
ENDBRANCH   2   3
TORSDOF 7
ENDMDL
MODEL      307
REMARK 921   NORMALIZED FREE ENERGY PREDICTED BY IDOCK:   -2.65 KCAL/MOL
REMARK 922        TOTAL FREE ENERGY PREDICTED BY IDOCK:   -4.12 KCAL/MOL
REMARK 923 INTER-LIGAND FREE ENERGY PREDICTED BY IDOCK:   -3.60 KCAL/MOL
REMARK 924 INTRA-LIGAND FREE ENERGY PREDICTED BY IDOCK:   -0.52 KCAL/MOL
REMARK 927      BINDING AFFINITY PREDICTED BY RF-SCORE:    0.00 PKD
ROOT
HETATM    1  C   UNL     1      -7.691   5.677  63.614  1.00  0.00    -0.095 C  
HETATM    2  C   UNL     1      -8.570   4.525  63.144  1.00  0.00    -0.113 C  
ENDROOT
BRANCH   2   3
HETATM    3  N   UNL     1      -9.717   4.216  64.021  1.00  0.00    -0.154 NA 
BRANCH   3   4
HETATM    4  C   UNL     1     -10.574   3.128  63.519  1.00  0.00    -0.251 C  
HETATM    5  C   UNL     1      -9.899   1.777  63.300  1.00  0.00    -0.112 C  
ENDBRANCH   3   4
BRANCH   3   6
HETATM    6  C   UNL     1      -9.212   3.973  65.382  1.00  0.00    -0.150 C  
BRANCH   6   7
HETATM    7  C   UNL     1     -10.060   4.482  66.562  1.00  0.00    -0.228 C  
BRANCH   7   8
HETATM    8  O   UNL     1      -9.579   5.807  66.867  1.00  0.00    -0.129 OA 
BRANCH   8   9
HETATM    9  C   UNL     1      -8.904   5.897  68.045  1.00  0.00    -0.109 C  
HETATM   10  O   UNL     1      -7.690   5.870  68.140  1.00  0.00    -0.097 OA 
BRANCH   9  11
HETATM   11  C   UNL     1      -9.870   6.215  69.144  1.00  0.00    -0.176 A  
HETATM   12  C   UNL     1     -10.254   5.263  70.098  1.00  0.00    -0.280 A  
HETATM   13  C   UNL     1     -11.077   5.636  71.175  1.00  0.00    -0.202 A  
HETATM   14 CL   UNL     1      -9.757   3.606  70.076  1.00  0.00    -0.238 Cl 
HETATM   15  C   UNL     1     -11.560   6.938  71.305  1.00  0.00    -0.310 A  
HETATM   16  C   UNL     1     -11.128   7.899  70.395  1.00  0.00    -0.249 A  
HETATM   17  N   UNL     1     -12.262   7.324  72.449  1.00  0.00    -0.502 NA 
HETATM   18  H1  UNL     1     -12.615   8.275  72.544  1.00  0.00     0.000 HD 
HETATM   19  C   UNL     1     -10.316   7.541  69.314  1.00  0.00    -0.209 A  
HETATM   20  H2  UNL     1     -11.686   7.115  73.264  1.00  0.00     0.000 HD 
ENDBRANCH   9  11
ENDBRANCH   8   9
ENDBRANCH   7   8
ENDBRANCH   6   7
ENDBRANCH   3   6
ENDBRANCH   2   3
TORSDOF 7
ENDMDL
MODEL      308
REMARK 921   NORMALIZED FREE ENERGY PREDICTED BY IDOCK:   -2.64 KCAL/MOL
REMARK 922        TOTAL FREE ENERGY PREDICTED BY IDOCK:   -4.12 KCAL/MOL
REMARK 923 INTER-LIGAND FREE ENERGY PREDICTED BY IDOCK:   -3.83 KCAL/MOL
REMARK 924 INTRA-LIGAND FREE ENERGY PREDICTED BY IDOCK:   -0.29 KCAL/MOL
REMARK 927      BINDING AFFINITY PREDICTED BY RF-SCORE:    0.00 PKD
ROOT
HETATM    1  C   UNL     1      -5.282   8.970  68.738  1.00  0.00    -0.034 C  
HETATM    2  C   UNL     1      -6.443   9.646  69.457  1.00  0.00    -0.045 C  
ENDROOT
BRANCH   2   3
HETATM    3  N   UNL     1      -6.989  10.838  68.777  1.00  0.00    -0.069 NA 
BRANCH   3   4
HETATM    4  C   UNL     1      -5.995  11.899  68.545  1.00  0.00    -0.049 C  
HETATM    5  C   UNL     1      -6.170  13.182  69.354  1.00  0.00    -0.111 C  
ENDBRANCH   3   4
BRANCH   3   6
HETATM    6  C   UNL     1      -7.668  10.402  67.545  1.00  0.00    -0.094 C  
BRANCH   6   7
HETATM    7  C   UNL     1      -8.550  11.430  66.812  1.00  0.00    -0.166 C  
BRANCH   7   8
HETATM    8  O   UNL     1      -9.674  10.697  66.283  1.00  0.00    -0.186 OA 
BRANCH   8   9
HETATM    9  C   UNL     1     -10.885  11.156  66.701  1.00  0.00    -0.253 C  
HETATM   10  O   UNL     1     -11.720  11.649  65.964  1.00  0.00    -0.382 OA 
BRANCH   9  11
HETATM   11  C   UNL     1     -11.081  10.790  68.140  1.00  0.00    -0.337 A  
HETATM   12  C   UNL     1     -11.589  11.698  69.079  1.00  0.00    -0.316 A  
HETATM   13  C   UNL     1     -11.860  11.277  70.392  1.00  0.00    -0.443 A  
HETATM   14 CL   UNL     1     -11.953  13.353  68.734  1.00  0.00    -0.378 Cl 
HETATM   15  C   UNL     1     -11.600   9.971  70.806  1.00  0.00    -0.360 A  
HETATM   16  C   UNL     1     -11.156   9.052  69.859  1.00  0.00    -0.155 A  
HETATM   17  N   UNL     1     -11.999   9.534  72.071  1.00  0.00    -0.305 NA 
HETATM   18  H1  UNL     1     -11.809   8.579  72.374  1.00  0.00     0.000 HD 
HETATM   19  C   UNL     1     -10.875   9.458  68.551  1.00  0.00    -0.149 A  
HETATM   20  H2  UNL     1     -13.000   9.706  72.168  1.00  0.00     0.000 HD 
ENDBRANCH   9  11
ENDBRANCH   8   9
ENDBRANCH   7   8
ENDBRANCH   6   7
ENDBRANCH   3   6
ENDBRANCH   2   3
TORSDOF 7
ENDMDL
MODEL      309
REMARK 921   NORMALIZED FREE ENERGY PREDICTED BY IDOCK:   -2.64 KCAL/MOL
REMARK 922        TOTAL FREE ENERGY PREDICTED BY IDOCK:   -4.12 KCAL/MOL
REMARK 923 INTER-LIGAND FREE ENERGY PREDICTED BY IDOCK:   -4.39 KCAL/MOL
REMARK 924 INTRA-LIGAND FREE ENERGY PREDICTED BY IDOCK:    0.27 KCAL/MOL
REMARK 927      BINDING AFFINITY PREDICTED BY RF-SCORE:    0.00 PKD
ROOT
HETATM    1  C   UNL     1     -14.404   7.789  71.653  1.00  0.00    -0.607 C  
HETATM    2  C   UNL     1     -13.489   8.931  72.076  1.00  0.00    -0.433 C  
ENDROOT
BRANCH   2   3
HETATM    3  N   UNL     1     -12.086   8.805  71.631  1.00  0.00    -0.316 NA 
BRANCH   3   4
HETATM    4  C   UNL     1     -11.467   7.513  71.972  1.00  0.00    -0.279 C  
HETATM    5  C   UNL     1     -10.742   7.440  73.313  1.00  0.00    -0.441 C  
ENDBRANCH   3   4
BRANCH   3   6
HETATM    6  C   UNL     1     -12.023   9.116  70.193  1.00  0.00     0.256 C  
BRANCH   6   7
HETATM    7  C   UNL     1     -11.003  10.174  69.733  1.00  0.00    -0.280 C  
BRANCH   7   8
HETATM    8  O   UNL     1      -9.788   9.912  70.465  1.00  0.00    -0.226 OA 
BRANCH   8   9
HETATM    9  C   UNL     1      -8.789   9.377  69.712  1.00  0.00    -0.183 C  
HETATM   10  O   UNL     1      -7.859   8.735  70.168  1.00  0.00    -0.082 OA 
BRANCH   9  11
HETATM   11  C   UNL     1      -9.119   9.547  68.262  1.00  0.00    -0.127 A  
HETATM   12  C   UNL     1      -8.901  10.753  67.582  1.00  0.00    -0.132 A  
HETATM   13  C   UNL     1      -9.122  10.832  66.197  1.00  0.00    -0.193 A  
HETATM   14 CL   UNL     1      -8.330  12.203  68.333  1.00  0.00    -0.161 Cl 
HETATM   15  C   UNL     1      -9.596   9.739  65.472  1.00  0.00    -0.282 A  
HETATM   16  C   UNL     1      -9.752   8.524  66.132  1.00  0.00    -0.259 A  
HETATM   17  N   UNL     1      -9.682   9.794  64.079  1.00  0.00    -0.449 NA 
HETATM   18  H1  UNL     1     -10.027   8.995  63.549  1.00  0.00     0.000 HD 
HETATM   19  C   UNL     1      -9.543   8.431  67.512  1.00  0.00    -0.194 A  
HETATM   20  H2  UNL     1      -8.764  10.048  63.711  1.00  0.00     0.000 HD 
ENDBRANCH   9  11
ENDBRANCH   8   9
ENDBRANCH   7   8
ENDBRANCH   6   7
ENDBRANCH   3   6
ENDBRANCH   2   3
TORSDOF 7
ENDMDL
MODEL      310
REMARK 921   NORMALIZED FREE ENERGY PREDICTED BY IDOCK:   -2.64 KCAL/MOL
REMARK 922        TOTAL FREE ENERGY PREDICTED BY IDOCK:   -4.12 KCAL/MOL
REMARK 923 INTER-LIGAND FREE ENERGY PREDICTED BY IDOCK:   -3.49 KCAL/MOL
REMARK 924 INTRA-LIGAND FREE ENERGY PREDICTED BY IDOCK:   -0.63 KCAL/MOL
REMARK 927      BINDING AFFINITY PREDICTED BY RF-SCORE:    0.00 PKD
ROOT
HETATM    1  C   UNL     1      -8.926  15.113  68.630  1.00  0.00    -0.191 C  
HETATM    2  C   UNL     1     -10.293  14.470  68.432  1.00  0.00    -0.241 C  
ENDROOT
BRANCH   2   3
HETATM    3  N   UNL     1     -10.373  13.507  67.315  1.00  0.00    -0.241 NA 
BRANCH   3   4
HETATM    4  C   UNL     1     -11.387  13.852  66.303  1.00  0.00    -0.324 C  
HETATM    5  C   UNL     1     -10.896  14.639  65.091  1.00  0.00    -0.414 C  
ENDBRANCH   3   4
BRANCH   3   6
HETATM    6  C   UNL     1      -9.025  13.335  66.748  1.00  0.00    -0.174 C  
BRANCH   6   7
HETATM    7  C   UNL     1      -8.515  11.897  66.539  1.00  0.00    -0.097 C  
BRANCH   7   8
HETATM    8  O   UNL     1      -9.351  11.047  67.351  1.00  0.00    -0.155 OA 
BRANCH   8   9
HETATM    9  C   UNL     1      -8.729  10.543  68.451  1.00  0.00    -0.137 C  
HETATM   10  O   UNL     1      -7.987  11.187  69.172  1.00  0.00    -0.125 OA 
BRANCH   9  11
HETATM   11  C   UNL     1      -9.245   9.163  68.721  1.00  0.00    -0.136 A  
HETATM   12  C   UNL     1      -8.833   8.053  67.972  1.00  0.00    -0.128 A  
HETATM   13  C   UNL     1      -9.258   6.762  68.331  1.00  0.00    -0.123 A  
HETATM   14 CL   UNL     1      -7.779   8.139  66.603  1.00  0.00    -0.093 Cl 
HETATM   15  C   UNL     1     -10.122   6.554  69.406  1.00  0.00    -0.172 A  
HETATM   16  C   UNL     1     -10.480   7.648  70.190  1.00  0.00    -0.227 A  
HETATM   17  N   UNL     1     -10.426   5.259  69.831  1.00  0.00    -0.307 NA 
HETATM   18  H1  UNL     1     -11.057   5.106  70.618  1.00  0.00     0.000 HD 
HETATM   19  C   UNL     1     -10.071   8.938  69.840  1.00  0.00    -0.204 A  
HETATM   20  H2  UNL     1      -9.551   4.772  70.026  1.00  0.00     0.000 HD 
ENDBRANCH   9  11
ENDBRANCH   8   9
ENDBRANCH   7   8
ENDBRANCH   6   7
ENDBRANCH   3   6
ENDBRANCH   2   3
TORSDOF 7
ENDMDL
MODEL      311
REMARK 921   NORMALIZED FREE ENERGY PREDICTED BY IDOCK:   -2.64 KCAL/MOL
REMARK 922        TOTAL FREE ENERGY PREDICTED BY IDOCK:   -4.11 KCAL/MOL
REMARK 923 INTER-LIGAND FREE ENERGY PREDICTED BY IDOCK:   -3.71 KCAL/MOL
REMARK 924 INTRA-LIGAND FREE ENERGY PREDICTED BY IDOCK:   -0.40 KCAL/MOL
REMARK 927      BINDING AFFINITY PREDICTED BY RF-SCORE:    0.00 PKD
ROOT
HETATM    1  C   UNL     1      -8.853  10.367  67.702  1.00  0.00    -0.124 C  
HETATM    2  C   UNL     1      -9.843  11.439  67.263  1.00  0.00    -0.189 C  
ENDROOT
BRANCH   2   3
HETATM    3  N   UNL     1      -9.490  12.139  66.012  1.00  0.00    -0.233 NA 
BRANCH   3   4
HETATM    4  C   UNL     1     -10.515  12.034  64.960  1.00  0.00    -0.287 C  
HETATM    5  C   UNL     1     -10.846  10.625  64.474  1.00  0.00     0.181 C  
ENDBRANCH   3   4
BRANCH   3   6
HETATM    6  C   UNL     1      -9.138  13.531  66.339  1.00  0.00    -0.044 C  
BRANCH   6   7
HETATM    7  C   UNL     1      -9.404  14.017  67.776  1.00  0.00    -0.205 C  
BRANCH   7   8
HETATM    8  O   UNL     1      -8.410  15.025  68.054  1.00  0.00    -0.141 OA 
BRANCH   8   9
HETATM    9  C   UNL     1      -8.717  15.834  69.104  1.00  0.00    -0.253 C  
HETATM   10  O   UNL     1      -9.388  15.488  70.061  1.00  0.00    -0.157 OA 
BRANCH   9  11
HETATM   11  C   UNL     1      -7.957  17.118  68.977  1.00  0.00    -0.136 A  
HETATM   12  C   UNL     1      -8.538  18.281  68.454  1.00  0.00    -0.299 A  
HETATM   13  C   UNL     1      -7.821  19.490  68.456  1.00  0.00    -0.382 A  
HETATM   14 CL   UNL     1     -10.140  18.362  67.806  1.00  0.00    -0.351 Cl 
HETATM   15  C   UNL     1      -6.514  19.560  68.937  1.00  0.00    -0.291 A  
HETATM   16  C   UNL     1      -5.959  18.422  69.515  1.00  0.00    -0.257 A  
HETATM   17  N   UNL     1      -5.866  20.792  69.056  1.00  0.00    -0.360 NA 
HETATM   18  H1  UNL     1      -4.911  20.843  69.408  1.00  0.00     0.000 HD 
HETATM   19  C   UNL     1      -6.657  17.210  69.513  1.00  0.00    -0.181 A  
HETATM   20  H2  UNL     1      -6.449  21.406  69.625  1.00  0.00     0.000 HD 
ENDBRANCH   9  11
ENDBRANCH   8   9
ENDBRANCH   7   8
ENDBRANCH   6   7
ENDBRANCH   3   6
ENDBRANCH   2   3
TORSDOF 7
ENDMDL
MODEL      312
REMARK 921   NORMALIZED FREE ENERGY PREDICTED BY IDOCK:   -2.62 KCAL/MOL
REMARK 922        TOTAL FREE ENERGY PREDICTED BY IDOCK:   -4.09 KCAL/MOL
REMARK 923 INTER-LIGAND FREE ENERGY PREDICTED BY IDOCK:   -3.31 KCAL/MOL
REMARK 924 INTRA-LIGAND FREE ENERGY PREDICTED BY IDOCK:   -0.78 KCAL/MOL
REMARK 927      BINDING AFFINITY PREDICTED BY RF-SCORE:    0.00 PKD
ROOT
HETATM    1  C   UNL     1     -11.159   6.336  67.935  1.00  0.00    -0.360 C  
HETATM    2  C   UNL     1     -10.053   6.330  68.983  1.00  0.00    -0.172 C  
ENDROOT
BRANCH   2   3
HETATM    3  N   UNL     1     -10.482   6.710  70.345  1.00  0.00    -0.205 NA 
BRANCH   3   4
HETATM    4  C   UNL     1     -10.559   5.576  71.282  1.00  0.00    -0.236 C  
HETATM    5  C   UNL     1     -11.261   5.841  72.612  1.00  0.00    -0.348 C  
ENDBRANCH   3   4
BRANCH   3   6
HETATM    6  C   UNL     1      -9.611   7.797  70.822  1.00  0.00    -0.165 C  
BRANCH   6   7
HETATM    7  C   UNL     1     -10.250   9.180  71.047  1.00  0.00    -0.302 C  
BRANCH   7   8
HETATM    8  O   UNL     1      -9.635  10.071  70.094  1.00  0.00    -0.225 OA 
BRANCH   8   9
HETATM    9  C   UNL     1     -10.095   9.930  68.822  1.00  0.00    -0.174 C  
HETATM   10  O   UNL     1     -11.273   9.829  68.529  1.00  0.00    -0.143 OA 
BRANCH   9  11
HETATM   11  C   UNL     1      -8.958  10.106  67.863  1.00  0.00    -0.128 A  
HETATM   12  C   UNL     1      -8.421  11.365  67.565  1.00  0.00    -0.137 A  
HETATM   13  C   UNL     1      -7.284  11.471  66.745  1.00  0.00    -0.111 A  
HETATM   14 CL   UNL     1      -9.049  12.860  68.169  1.00  0.00    -0.205 Cl 
HETATM   15  C   UNL     1      -6.686  10.345  66.180  1.00  0.00    -0.117 A  
HETATM   16  C   UNL     1      -7.180   9.089  66.527  1.00  0.00    -0.085 A  
HETATM   17  N   UNL     1      -5.483  10.454  65.481  1.00  0.00    -0.084 NA 
HETATM   18  H1  UNL     1      -5.046   9.631  65.068  1.00  0.00     0.000 HD 
HETATM   19  C   UNL     1      -8.314   8.969  67.335  1.00  0.00    -0.112 A  
HETATM   20  H2  UNL     1      -4.800  10.907  66.089  1.00  0.00     0.000 HD 
ENDBRANCH   9  11
ENDBRANCH   8   9
ENDBRANCH   7   8
ENDBRANCH   6   7
ENDBRANCH   3   6
ENDBRANCH   2   3
TORSDOF 7
ENDMDL
MODEL      313
REMARK 921   NORMALIZED FREE ENERGY PREDICTED BY IDOCK:   -2.62 KCAL/MOL
REMARK 922        TOTAL FREE ENERGY PREDICTED BY IDOCK:   -4.08 KCAL/MOL
REMARK 923 INTER-LIGAND FREE ENERGY PREDICTED BY IDOCK:   -3.49 KCAL/MOL
REMARK 924 INTRA-LIGAND FREE ENERGY PREDICTED BY IDOCK:   -0.59 KCAL/MOL
REMARK 927      BINDING AFFINITY PREDICTED BY RF-SCORE:    0.00 PKD
ROOT
HETATM    1  C   UNL     1     -11.570  12.691  67.823  1.00  0.00    -0.403 C  
HETATM    2  C   UNL     1     -10.169  12.853  67.247  1.00  0.00    -0.234 C  
ENDROOT
BRANCH   2   3
HETATM    3  N   UNL     1      -9.807  11.876  66.200  1.00  0.00    -0.226 NA 
BRANCH   3   4
HETATM    4  C   UNL     1     -10.145  12.314  64.834  1.00  0.00    -0.250 C  
HETATM    5  C   UNL     1     -10.680  11.241  63.889  1.00  0.00    -0.451 C  
ENDBRANCH   3   4
BRANCH   3   6
HETATM    6  C   UNL     1      -8.387  11.524  66.360  1.00  0.00    -0.118 C  
BRANCH   6   7
HETATM    7  C   UNL     1      -7.916  10.172  65.791  1.00  0.00    -0.140 C  
BRANCH   7   8
HETATM    8  O   UNL     1      -8.509   9.153  66.622  1.00  0.00    -0.120 OA 
BRANCH   8   9
HETATM    9  C   UNL     1      -7.657   8.617  67.538  1.00  0.00    -0.094 C  
HETATM   10  O   UNL     1      -6.468   8.440  67.343  1.00  0.00    -0.056 OA 
BRANCH   9  11
HETATM   11  C   UNL     1      -8.371   8.462  68.845  1.00  0.00    -0.119 A  
HETATM   12  C   UNL     1      -8.294   9.429  69.857  1.00  0.00    -0.167 A  
HETATM   13  C   UNL     1      -9.068   9.294  71.022  1.00  0.00    -0.253 A  
HETATM   14 CL   UNL     1      -7.306  10.846  69.775  1.00  0.00    -0.082 Cl 
HETATM   15  C   UNL     1      -9.897   8.190  71.221  1.00  0.00    -0.164 A  
HETATM   16  C   UNL     1     -10.024   7.262  70.191  1.00  0.00    -0.184 A  
HETATM   17  N   UNL     1     -10.758   8.138  72.319  1.00  0.00    -0.287 NA 
HETATM   18  H1  UNL     1     -11.365   7.331  72.465  1.00  0.00     0.000 HD 
HETATM   19  C   UNL     1      -9.254   7.379  69.029  1.00  0.00    -0.146 A  
HETATM   20  H2  UNL     1     -11.340   8.976  72.309  1.00  0.00     0.000 HD 
ENDBRANCH   9  11
ENDBRANCH   8   9
ENDBRANCH   7   8
ENDBRANCH   6   7
ENDBRANCH   3   6
ENDBRANCH   2   3
TORSDOF 7
ENDMDL
MODEL      314
REMARK 921   NORMALIZED FREE ENERGY PREDICTED BY IDOCK:   -2.61 KCAL/MOL
REMARK 922        TOTAL FREE ENERGY PREDICTED BY IDOCK:   -4.07 KCAL/MOL
REMARK 923 INTER-LIGAND FREE ENERGY PREDICTED BY IDOCK:   -3.48 KCAL/MOL
REMARK 924 INTRA-LIGAND FREE ENERGY PREDICTED BY IDOCK:   -0.59 KCAL/MOL
REMARK 927      BINDING AFFINITY PREDICTED BY RF-SCORE:    0.00 PKD
ROOT
HETATM    1  C   UNL     1      -7.907   6.634  64.631  1.00  0.00    -0.116 C  
HETATM    2  C   UNL     1      -8.033   5.400  65.516  1.00  0.00    -0.109 C  
ENDROOT
BRANCH   2   3
HETATM    3  N   UNL     1      -9.403   5.103  65.982  1.00  0.00    -0.154 NA 
BRANCH   3   4
HETATM    4  C   UNL     1      -9.965   3.862  65.422  1.00  0.00    -0.137 C  
HETATM    5  C   UNL     1      -9.116   2.602  65.574  1.00  0.00    -0.127 C  
ENDBRANCH   3   4
BRANCH   3   6
HETATM    6  C   UNL     1      -9.412   5.129  67.454  1.00  0.00    -0.132 C  
BRANCH   6   7
HETATM    7  C   UNL     1      -8.095   5.480  68.171  1.00  0.00    -0.096 C  
BRANCH   7   8
HETATM    8  O   UNL     1      -8.295   6.773  68.778  1.00  0.00    -0.119 OA 
BRANCH   8   9
HETATM    9  C   UNL     1      -8.177   6.776  70.134  1.00  0.00    -0.133 C  
HETATM   10  O   UNL     1      -7.113   6.822  70.726  1.00  0.00    -0.065 OA 
BRANCH   9  11
HETATM   11  C   UNL     1      -9.537   6.900  70.747  1.00  0.00    -0.167 A  
HETATM   12  C   UNL     1     -10.216   8.124  70.817  1.00  0.00    -0.194 A  
HETATM   13  C   UNL     1     -11.535   8.172  71.301  1.00  0.00    -0.299 A  
HETATM   14 CL   UNL     1      -9.550   9.637  70.308  1.00  0.00    -0.302 Cl 
HETATM   15  C   UNL     1     -12.185   7.026  71.757  1.00  0.00    -0.351 A  
HETATM   16  C   UNL     1     -11.536   5.801  71.629  1.00  0.00    -0.164 A  
HETATM   17  N   UNL     1     -13.537   7.068  72.107  1.00  0.00    -0.542 NA 
HETATM   18  H1  UNL     1     -14.012   6.230  72.440  1.00  0.00     0.000 HD 
HETATM   19  C   UNL     1     -10.222   5.738  71.156  1.00  0.00    -0.275 A  
HETATM   20  H2  UNL     1     -14.061   7.439  71.315  1.00  0.00     0.000 HD 
ENDBRANCH   9  11
ENDBRANCH   8   9
ENDBRANCH   7   8
ENDBRANCH   6   7
ENDBRANCH   3   6
ENDBRANCH   2   3
TORSDOF 7
ENDMDL
MODEL      315
REMARK 921   NORMALIZED FREE ENERGY PREDICTED BY IDOCK:   -2.61 KCAL/MOL
REMARK 922        TOTAL FREE ENERGY PREDICTED BY IDOCK:   -4.07 KCAL/MOL
REMARK 923 INTER-LIGAND FREE ENERGY PREDICTED BY IDOCK:   -4.57 KCAL/MOL
REMARK 924 INTRA-LIGAND FREE ENERGY PREDICTED BY IDOCK:    0.50 KCAL/MOL
REMARK 927      BINDING AFFINITY PREDICTED BY RF-SCORE:    0.00 PKD
ROOT
HETATM    1  C   UNL     1     -13.024   7.263  71.378  1.00  0.00    -0.420 C  
HETATM    2  C   UNL     1     -12.393   8.598  71.754  1.00  0.00    -0.346 C  
ENDROOT
BRANCH   2   3
HETATM    3  N   UNL     1     -10.917   8.626  71.709  1.00  0.00    -0.300 NA 
BRANCH   3   4
HETATM    4  C   UNL     1     -10.302   7.301  71.513  1.00  0.00    -0.201 C  
HETATM    5  C   UNL     1      -9.293   7.183  70.374  1.00  0.00    -0.159 C  
ENDBRANCH   3   4
BRANCH   3   6
HETATM    6  C   UNL     1     -10.499   9.612  70.699  1.00  0.00    -0.312 C  
BRANCH   6   7
HETATM    7  C   UNL     1     -11.604  10.380  69.949  1.00  0.00    -0.284 C  
BRANCH   7   8
HETATM    8  O   UNL     1     -10.936  11.391  69.167  1.00  0.00    -0.220 OA 
BRANCH   8   9
HETATM    9  C   UNL     1     -11.225  11.348  67.838  1.00  0.00    -0.288 C  
HETATM   10  O   UNL     1     -12.123  11.983  67.313  1.00  0.00    -0.572 OA 
BRANCH   9  11
HETATM   11  C   UNL     1     -10.167  10.562  67.127  1.00  0.00    -0.270 A  
HETATM   12  C   UNL     1      -9.840  10.793  65.784  1.00  0.00    -0.240 A  
HETATM   13  C   UNL     1      -8.766  10.107  65.191  1.00  0.00    -0.189 A  
HETATM   14 CL   UNL     1     -10.665  11.919  64.762  1.00  0.00    -0.339 Cl 
HETATM   15  C   UNL     1      -8.027   9.161  65.900  1.00  0.00    -0.106 A  
HETATM   16  C   UNL     1      -8.309   8.977  67.252  1.00  0.00    -0.111 A  
HETATM   17  N   UNL     1      -6.883   8.589  65.341  1.00  0.00    -0.070 NA 
HETATM   18  H1  UNL     1      -6.341   7.897  65.859  1.00  0.00     0.000 HD 
HETATM   19  C   UNL     1      -9.379   9.647  67.853  1.00  0.00    -0.141 A  
HETATM   20  H2  UNL     1      -6.253   9.341  65.060  1.00  0.00     0.000 HD 
ENDBRANCH   9  11
ENDBRANCH   8   9
ENDBRANCH   7   8
ENDBRANCH   6   7
ENDBRANCH   3   6
ENDBRANCH   2   3
TORSDOF 7
ENDMDL
MODEL      316
REMARK 921   NORMALIZED FREE ENERGY PREDICTED BY IDOCK:   -2.61 KCAL/MOL
REMARK 922        TOTAL FREE ENERGY PREDICTED BY IDOCK:   -4.07 KCAL/MOL
REMARK 923 INTER-LIGAND FREE ENERGY PREDICTED BY IDOCK:   -3.53 KCAL/MOL
REMARK 924 INTRA-LIGAND FREE ENERGY PREDICTED BY IDOCK:   -0.54 KCAL/MOL
REMARK 927      BINDING AFFINITY PREDICTED BY RF-SCORE:    0.00 PKD
ROOT
HETATM    1  C   UNL     1      -8.310   5.023  64.375  1.00  0.00    -0.136 C  
HETATM    2  C   UNL     1      -7.848   6.454  64.131  1.00  0.00    -0.116 C  
ENDROOT
BRANCH   2   3
HETATM    3  N   UNL     1      -7.953   7.353  65.299  1.00  0.00    -0.121 NA 
BRANCH   3   4
HETATM    4  C   UNL     1      -7.603   6.710  66.577  1.00  0.00    -0.090 C  
HETATM    5  C   UNL     1      -8.591   6.901  67.725  1.00  0.00    -0.122 C  
ENDBRANCH   3   4
BRANCH   3   6
HETATM    6  C   UNL     1      -7.165   8.566  65.026  1.00  0.00    -0.084 C  
BRANCH   6   7
HETATM    7  C   UNL     1      -7.928   9.896  64.878  1.00  0.00    -0.138 C  
BRANCH   7   8
HETATM    8  O   UNL     1      -7.367  10.797  65.854  1.00  0.00    -0.146 OA 
BRANCH   8   9
HETATM    9  C   UNL     1      -8.012  10.792  67.052  1.00  0.00    -0.124 C  
HETATM   10  O   UNL     1      -7.589  10.242  68.053  1.00  0.00    -0.087 OA 
BRANCH   9  11
HETATM   11  C   UNL     1      -9.196  11.706  66.979  1.00  0.00    -0.185 A  
HETATM   12  C   UNL     1      -9.065  13.102  67.009  1.00  0.00    -0.231 A  
HETATM   13  C   UNL     1     -10.193  13.920  66.827  1.00  0.00    -0.268 A  
HETATM   14 CL   UNL     1      -7.565  13.934  67.233  1.00  0.00    -0.145 Cl 
HETATM   15  C   UNL     1     -11.465  13.377  66.651  1.00  0.00    -0.344 A  
HETATM   16  C   UNL     1     -11.588  11.993  66.557  1.00  0.00    -0.384 A  
HETATM   17  N   UNL     1     -12.550  14.198  66.338  1.00  0.00    -0.516 NA 
HETATM   18  H1  UNL     1     -13.481  13.802  66.209  1.00  0.00     0.000 HD 
HETATM   19  C   UNL     1     -10.476  11.166  66.744  1.00  0.00    -0.297 A  
HETATM   20  H2  UNL     1     -12.314  14.736  65.504  1.00  0.00     0.000 HD 
ENDBRANCH   9  11
ENDBRANCH   8   9
ENDBRANCH   7   8
ENDBRANCH   6   7
ENDBRANCH   3   6
ENDBRANCH   2   3
TORSDOF 7
ENDMDL
MODEL      317
REMARK 921   NORMALIZED FREE ENERGY PREDICTED BY IDOCK:   -2.61 KCAL/MOL
REMARK 922        TOTAL FREE ENERGY PREDICTED BY IDOCK:   -4.07 KCAL/MOL
REMARK 923 INTER-LIGAND FREE ENERGY PREDICTED BY IDOCK:   -3.90 KCAL/MOL
REMARK 924 INTRA-LIGAND FREE ENERGY PREDICTED BY IDOCK:   -0.16 KCAL/MOL
REMARK 927      BINDING AFFINITY PREDICTED BY RF-SCORE:    0.00 PKD
ROOT
HETATM    1  C   UNL     1      -5.774  13.424  67.705  1.00  0.00    -0.072 C  
HETATM    2  C   UNL     1      -6.834  13.638  68.778  1.00  0.00    -0.107 C  
ENDROOT
BRANCH   2   3
HETATM    3  N   UNL     1      -7.081  15.049  69.139  1.00  0.00    -0.136 NA 
BRANCH   3   4
HETATM    4  C   UNL     1      -6.060  15.981  68.632  1.00  0.00    -0.108 C  
HETATM    5  C   UNL     1      -6.574  17.267  67.989  1.00  0.00    -0.168 C  
ENDBRANCH   3   4
BRANCH   3   6
HETATM    6  C   UNL     1      -8.448  15.405  68.723  1.00  0.00    -0.188 C  
BRANCH   6   7
HETATM    7  C   UNL     1      -9.282  14.325  68.008  1.00  0.00    -0.192 C  
BRANCH   7   8
HETATM    8  O   UNL     1     -10.658  14.575  68.362  1.00  0.00    -0.233 OA 
BRANCH   8   9
HETATM    9  C   UNL     1     -11.384  13.450  68.600  1.00  0.00    -0.286 C  
HETATM   10  O   UNL     1     -12.121  13.303  69.560  1.00  0.00    -0.303 OA 
BRANCH   9  11
HETATM   11  C   UNL     1     -11.272  12.531  67.424  1.00  0.00    -0.344 A  
HETATM   12  C   UNL     1     -11.795  12.860  66.166  1.00  0.00    -0.429 A  
HETATM   13  C   UNL     1     -11.570  12.016  65.065  1.00  0.00    -0.323 A  
HETATM   14 CL   UNL     1     -12.709  14.292  65.837  1.00  0.00    -0.415 Cl 
HETATM   15  C   UNL     1     -10.860  10.823  65.196  1.00  0.00     0.013 A  
HETATM   16  C   UNL     1     -10.285  10.526  66.429  1.00  0.00    -0.296 A  
HETATM   17  N   UNL     1     -10.530  10.066  64.070  1.00  0.00    -0.081 NA 
HETATM   18  H1  UNL     1     -10.011   9.194  64.165  1.00  0.00     0.000 HD 
HETATM   19  C   UNL     1     -10.507  11.352  67.535  1.00  0.00    -0.233 A  
HETATM   20  H2  UNL     1     -10.027  10.667  63.416  1.00  0.00     0.000 HD 
ENDBRANCH   9  11
ENDBRANCH   8   9
ENDBRANCH   7   8
ENDBRANCH   6   7
ENDBRANCH   3   6
ENDBRANCH   2   3
TORSDOF 7
ENDMDL
MODEL      318
REMARK 921   NORMALIZED FREE ENERGY PREDICTED BY IDOCK:   -2.61 KCAL/MOL
REMARK 922        TOTAL FREE ENERGY PREDICTED BY IDOCK:   -4.06 KCAL/MOL
REMARK 923 INTER-LIGAND FREE ENERGY PREDICTED BY IDOCK:   -3.59 KCAL/MOL
REMARK 924 INTRA-LIGAND FREE ENERGY PREDICTED BY IDOCK:   -0.47 KCAL/MOL
REMARK 927      BINDING AFFINITY PREDICTED BY RF-SCORE:    0.00 PKD
ROOT
HETATM    1  C   UNL     1     -10.325   5.011  66.457  1.00  0.00    -0.325 C  
HETATM    2  C   UNL     1     -10.487   5.701  67.806  1.00  0.00    -0.211 C  
ENDROOT
BRANCH   2   3
HETATM    3  N   UNL     1      -9.358   6.568  68.204  1.00  0.00    -0.111 NA 
BRANCH   3   4
HETATM    4  C   UNL     1      -8.754   6.203  69.496  1.00  0.00    -0.130 C  
HETATM    5  C   UNL     1      -9.300   6.921  70.728  1.00  0.00    -0.161 C  
ENDBRANCH   3   4
BRANCH   3   6
HETATM    6  C   UNL     1      -8.385   6.603  67.099  1.00  0.00    -0.113 C  
BRANCH   6   7
HETATM    7  C   UNL     1      -7.716   7.952  66.778  1.00  0.00    -0.099 C  
BRANCH   7   8
HETATM    8  O   UNL     1      -8.516   8.965  67.422  1.00  0.00    -0.115 OA 
BRANCH   8   9
HETATM    9  C   UNL     1      -9.359   9.626  66.583  1.00  0.00    -0.156 C  
HETATM   10  O   UNL     1      -9.615   9.263  65.448  1.00  0.00    -0.259 OA 
BRANCH   9  11
HETATM   11  C   UNL     1     -10.039  10.728  67.333  1.00  0.00    -0.227 A  
HETATM   12  C   UNL     1      -9.407  11.951  67.599  1.00  0.00    -0.183 A  
HETATM   13  C   UNL     1     -10.122  12.996  68.209  1.00  0.00    -0.239 A  
HETATM   14 CL   UNL     1      -7.762  12.304  67.197  1.00  0.00    -0.156 Cl 
HETATM   15  C   UNL     1     -11.452  12.839  68.598  1.00  0.00    -0.303 A  
HETATM   16  C   UNL     1     -12.099  11.649  68.277  1.00  0.00    -0.067 A  
HETATM   17  N   UNL     1     -12.185  13.926  69.078  1.00  0.00    -0.452 NA 
HETATM   18  H1  UNL     1     -13.157  13.812  69.362  1.00  0.00     0.000 HD 
HETATM   19  C   UNL     1     -11.400  10.597  67.677  1.00  0.00    -0.284 A  
HETATM   20  H2  UNL     1     -12.141  14.673  68.384  1.00  0.00     0.000 HD 
ENDBRANCH   9  11
ENDBRANCH   8   9
ENDBRANCH   7   8
ENDBRANCH   6   7
ENDBRANCH   3   6
ENDBRANCH   2   3
TORSDOF 7
ENDMDL
MODEL      319
REMARK 921   NORMALIZED FREE ENERGY PREDICTED BY IDOCK:   -2.60 KCAL/MOL
REMARK 922        TOTAL FREE ENERGY PREDICTED BY IDOCK:   -4.05 KCAL/MOL
REMARK 923 INTER-LIGAND FREE ENERGY PREDICTED BY IDOCK:   -3.51 KCAL/MOL
REMARK 924 INTRA-LIGAND FREE ENERGY PREDICTED BY IDOCK:   -0.54 KCAL/MOL
REMARK 927      BINDING AFFINITY PREDICTED BY RF-SCORE:    0.00 PKD
ROOT
HETATM    1  C   UNL     1      -8.536   2.704  66.548  1.00  0.00    -0.104 C  
HETATM    2  C   UNL     1      -9.422   3.935  66.691  1.00  0.00    -0.199 C  
ENDROOT
BRANCH   2   3
HETATM    3  N   UNL     1      -9.174   4.746  67.901  1.00  0.00    -0.117 NA 
BRANCH   3   4
HETATM    4  C   UNL     1      -9.596   6.151  67.772  1.00  0.00    -0.114 C  
HETATM    5  C   UNL     1     -10.970   6.393  67.152  1.00  0.00    -0.476 C  
ENDBRANCH   3   4
BRANCH   3   6
HETATM    6  C   UNL     1      -9.783   4.062  69.054  1.00  0.00    -0.091 C  
BRANCH   6   7
HETATM    7  C   UNL     1      -9.976   4.874  70.347  1.00  0.00    -0.246 C  
BRANCH   7   8
HETATM    8  O   UNL     1      -8.657   5.259  70.786  1.00  0.00    -0.124 OA 
BRANCH   8   9
HETATM    9  C   UNL     1      -8.642   6.301  71.661  1.00  0.00    -0.133 C  
HETATM   10  O   UNL     1      -8.395   6.192  72.849  1.00  0.00    -0.116 OA 
BRANCH   9  11
HETATM   11  C   UNL     1      -8.791   7.584  70.903  1.00  0.00    -0.144 A  
HETATM   12  C   UNL     1      -9.883   8.442  71.094  1.00  0.00    -0.192 A  
HETATM   13  C   UNL     1      -9.924   9.687  70.443  1.00  0.00    -0.330 A  
HETATM   14 CL   UNL     1     -11.224   8.095  72.131  1.00  0.00    -0.363 Cl 
HETATM   15  C   UNL     1      -8.914  10.085  69.568  1.00  0.00    -0.205 A  
HETATM   16  C   UNL     1      -7.799   9.262  69.426  1.00  0.00    -0.083 A  
HETATM   17  N   UNL     1      -8.903  11.375  69.035  1.00  0.00    -0.382 NA 
HETATM   18  H1  UNL     1      -8.164  11.667  68.396  1.00  0.00     0.000 HD 
HETATM   19  C   UNL     1      -7.747   8.018  70.062  1.00  0.00    -0.088 A  
HETATM   20  H2  UNL     1      -8.937  12.041  69.808  1.00  0.00     0.000 HD 
ENDBRANCH   9  11
ENDBRANCH   8   9
ENDBRANCH   7   8
ENDBRANCH   6   7
ENDBRANCH   3   6
ENDBRANCH   2   3
TORSDOF 7
ENDMDL
MODEL      320
REMARK 921   NORMALIZED FREE ENERGY PREDICTED BY IDOCK:   -2.55 KCAL/MOL
REMARK 922        TOTAL FREE ENERGY PREDICTED BY IDOCK:   -3.98 KCAL/MOL
REMARK 923 INTER-LIGAND FREE ENERGY PREDICTED BY IDOCK:   -3.67 KCAL/MOL
REMARK 924 INTRA-LIGAND FREE ENERGY PREDICTED BY IDOCK:   -0.31 KCAL/MOL
REMARK 927      BINDING AFFINITY PREDICTED BY RF-SCORE:    0.00 PKD
ROOT
HETATM    1  C   UNL     1      -8.982   2.764  65.389  1.00  0.00    -0.137 C  
HETATM    2  C   UNL     1      -9.760   4.074  65.407  1.00  0.00    -0.196 C  
ENDROOT
BRANCH   2   3
HETATM    3  N   UNL     1      -9.688   4.825  66.676  1.00  0.00    -0.172 NA 
BRANCH   3   4
HETATM    4  C   UNL     1      -8.375   5.443  66.929  1.00  0.00    -0.108 C  
HETATM    5  C   UNL     1      -7.907   6.483  65.913  1.00  0.00    -0.106 C  
ENDBRANCH   3   4
BRANCH   3   6
HETATM    6  C   UNL     1     -10.799   5.792  66.710  1.00  0.00    -0.248 C  
BRANCH   6   7
HETATM    7  C   UNL     1     -10.887   6.737  67.922  1.00  0.00    -0.247 C  
BRANCH   7   8
HETATM    8  O   UNL     1     -11.078   5.897  69.079  1.00  0.00    -0.336 OA 
BRANCH   8   9
HETATM    9  C   UNL     1     -11.083   6.571  70.262  1.00  0.00    -0.335 C  
HETATM   10  O   UNL     1     -11.838   6.324  71.185  1.00  0.00    -0.305 OA 
BRANCH   9  11
HETATM   11  C   UNL     1      -9.916   7.508  70.301  1.00  0.00    -0.192 A  
HETATM   12  C   UNL     1     -10.073   8.889  70.484  1.00  0.00    -0.205 A  
HETATM   13  C   UNL     1      -8.945   9.715  70.624  1.00  0.00    -0.103 A  
HETATM   14 CL   UNL     1     -11.604   9.689  70.585  1.00  0.00    -0.349 Cl 
HETATM   15  C   UNL     1      -7.651   9.199  70.548  1.00  0.00    -0.125 A  
HETATM   16  C   UNL     1      -7.494   7.820  70.430  1.00  0.00    -0.078 A  
HETATM   17  N   UNL     1      -6.547  10.008  70.823  1.00  0.00    -0.286 NA 
HETATM   18  H1  UNL     1      -5.601   9.631  70.768  1.00  0.00     0.000 HD 
HETATM   19  C   UNL     1      -8.607   6.987  70.282  1.00  0.00    -0.140 A  
HETATM   20  H2  UNL     1      -6.673  10.418  71.749  1.00  0.00     0.000 HD 
ENDBRANCH   9  11
ENDBRANCH   8   9
ENDBRANCH   7   8
ENDBRANCH   6   7
ENDBRANCH   3   6
ENDBRANCH   2   3
TORSDOF 7
ENDMDL
MODEL      321
REMARK 921   NORMALIZED FREE ENERGY PREDICTED BY IDOCK:   -2.54 KCAL/MOL
REMARK 922        TOTAL FREE ENERGY PREDICTED BY IDOCK:   -3.98 KCAL/MOL
REMARK 923 INTER-LIGAND FREE ENERGY PREDICTED BY IDOCK:   -3.41 KCAL/MOL
REMARK 924 INTRA-LIGAND FREE ENERGY PREDICTED BY IDOCK:   -0.56 KCAL/MOL
REMARK 927      BINDING AFFINITY PREDICTED BY RF-SCORE:    0.00 PKD
ROOT
HETATM    1  C   UNL     1      -7.044   6.138  67.163  1.00  0.00    -0.070 C  
HETATM    2  C   UNL     1      -8.063   7.211  67.526  1.00  0.00    -0.113 C  
ENDROOT
BRANCH   2   3
HETATM    3  N   UNL     1      -8.600   7.975  66.381  1.00  0.00    -0.137 NA 
BRANCH   3   4
HETATM    4  C   UNL     1     -10.032   8.300  66.502  1.00  0.00    -0.250 C  
HETATM    5  C   UNL     1     -10.776   7.662  67.673  1.00  0.00    -0.246 C  
ENDBRANCH   3   4
BRANCH   3   6
HETATM    6  C   UNL     1      -7.753   9.161  66.172  1.00  0.00    -0.095 C  
BRANCH   6   7
HETATM    7  C   UNL     1      -8.456  10.516  65.972  1.00  0.00    -0.156 C  
BRANCH   7   8
HETATM    8  O   UNL     1      -8.003  11.371  67.042  1.00  0.00    -0.144 OA 
BRANCH   8   9
HETATM    9  C   UNL     1      -8.975  11.714  67.929  1.00  0.00    -0.170 C  
HETATM   10  O   UNL     1      -9.546  10.922  68.658  1.00  0.00    -0.176 OA 
BRANCH   9  11
HETATM   11  C   UNL     1      -9.084  13.206  67.989  1.00  0.00    -0.207 A  
HETATM   12  C   UNL     1     -10.314  13.870  67.883  1.00  0.00    -0.240 A  
HETATM   13  C   UNL     1     -10.381  15.264  68.055  1.00  0.00    -0.244 A  
HETATM   14 CL   UNL     1     -11.822  13.082  67.574  1.00  0.00    -0.415 Cl 
HETATM   15  C   UNL     1      -9.236  16.023  68.296  1.00  0.00    -0.191 A  
HETATM   16  C   UNL     1      -8.024  15.359  68.464  1.00  0.00    -0.140 A  
HETATM   17  N   UNL     1      -9.336  17.383  68.597  1.00  0.00    -0.272 NA 
HETATM   18  H1  UNL     1      -8.499  17.938  68.773  1.00  0.00     0.000 HD 
HETATM   19  C   UNL     1      -7.941  13.974  68.289  1.00  0.00    -0.146 A  
HETATM   20  H2  UNL     1      -9.962  17.488  69.396  1.00  0.00     0.000 HD 
ENDBRANCH   9  11
ENDBRANCH   8   9
ENDBRANCH   7   8
ENDBRANCH   6   7
ENDBRANCH   3   6
ENDBRANCH   2   3
TORSDOF 7
ENDMDL
MODEL      322
REMARK 921   NORMALIZED FREE ENERGY PREDICTED BY IDOCK:   -2.52 KCAL/MOL
REMARK 922        TOTAL FREE ENERGY PREDICTED BY IDOCK:   -3.94 KCAL/MOL
REMARK 923 INTER-LIGAND FREE ENERGY PREDICTED BY IDOCK:   -3.46 KCAL/MOL
REMARK 924 INTRA-LIGAND FREE ENERGY PREDICTED BY IDOCK:   -0.48 KCAL/MOL
REMARK 927      BINDING AFFINITY PREDICTED BY RF-SCORE:    0.00 PKD
ROOT
HETATM    1  C   UNL     1      -7.396   5.921  63.703  1.00  0.00    -0.064 C  
HETATM    2  C   UNL     1      -7.837   4.554  63.195  1.00  0.00    -0.069 C  
ENDROOT
BRANCH   2   3
HETATM    3  N   UNL     1      -8.759   3.824  64.089  1.00  0.00    -0.105 NA 
BRANCH   3   4
HETATM    4  C   UNL     1      -9.238   2.546  63.534  1.00  0.00    -0.094 C  
HETATM    5  C   UNL     1     -10.738   2.440  63.268  1.00  0.00    -0.222 C  
ENDBRANCH   3   4
BRANCH   3   6
HETATM    6  C   UNL     1      -8.116   3.679  65.405  1.00  0.00    -0.097 C  
BRANCH   6   7
HETATM    7  C   UNL     1      -9.022   3.387  66.616  1.00  0.00    -0.152 C  
BRANCH   7   8
HETATM    8  O   UNL     1      -9.084   4.608  67.381  1.00  0.00    -0.115 OA 
BRANCH   8   9
HETATM    9  C   UNL     1     -10.198   5.353  67.152  1.00  0.00    -0.224 C  
HETATM   10  O   UNL     1     -10.987   5.142  66.248  1.00  0.00    -0.236 OA 
BRANCH   9  11
HETATM   11  C   UNL     1     -10.382   6.325  68.276  1.00  0.00    -0.233 A  
HETATM   12  C   UNL     1      -9.855   7.624  68.234  1.00  0.00    -0.166 A  
HETATM   13  C   UNL     1     -10.146   8.537  69.262  1.00  0.00    -0.203 A  
HETATM   14 CL   UNL     1      -8.860   8.229  66.955  1.00  0.00    -0.144 Cl 
HETATM   15  C   UNL     1     -10.925   8.173  70.360  1.00  0.00    -0.247 A  
HETATM   16  C   UNL     1     -11.501   6.905  70.372  1.00  0.00    -0.387 A  
HETATM   17  N   UNL     1     -11.315   9.127  71.302  1.00  0.00    -0.306 NA 
HETATM   18  H1  UNL     1     -11.885   8.861  72.104  1.00  0.00     0.000 HD 
HETATM   19  C   UNL     1     -11.215   5.983  69.360  1.00  0.00    -0.397 A  
HETATM   20  H2  UNL     1     -11.789   9.885  70.811  1.00  0.00     0.000 HD 
ENDBRANCH   9  11
ENDBRANCH   8   9
ENDBRANCH   7   8
ENDBRANCH   6   7
ENDBRANCH   3   6
ENDBRANCH   2   3
TORSDOF 7
ENDMDL
MODEL      323
REMARK 921   NORMALIZED FREE ENERGY PREDICTED BY IDOCK:   -2.51 KCAL/MOL
REMARK 922        TOTAL FREE ENERGY PREDICTED BY IDOCK:   -3.93 KCAL/MOL
REMARK 923 INTER-LIGAND FREE ENERGY PREDICTED BY IDOCK:   -3.41 KCAL/MOL
REMARK 924 INTRA-LIGAND FREE ENERGY PREDICTED BY IDOCK:   -0.52 KCAL/MOL
REMARK 927      BINDING AFFINITY PREDICTED BY RF-SCORE:    0.00 PKD
ROOT
HETATM    1  C   UNL     1      -8.937  10.488  62.469  1.00  0.00    -0.303 C  
HETATM    2  C   UNL     1      -8.901   9.357  63.490  1.00  0.00    -0.172 C  
ENDROOT
BRANCH   2   3
HETATM    3  N   UNL     1      -9.050   9.780  64.897  1.00  0.00    -0.214 NA 
BRANCH   3   4
HETATM    4  C   UNL     1      -7.800  10.266  65.507  1.00  0.00    -0.152 C  
HETATM    5  C   UNL     1      -6.509   9.612  65.023  1.00  0.00    -0.090 C  
ENDBRANCH   3   4
BRANCH   3   6
HETATM    6  C   UNL     1     -10.150  10.755  64.977  1.00  0.00    -0.313 C  
BRANCH   6   7
HETATM    7  C   UNL     1      -9.817  12.170  65.488  1.00  0.00    -0.221 C  
BRANCH   7   8
HETATM    8  O   UNL     1     -10.631  12.379  66.661  1.00  0.00    -0.227 OA 
BRANCH   8   9
HETATM    9  C   UNL     1      -9.953  12.891  67.724  1.00  0.00    -0.230 C  
HETATM   10  O   UNL     1      -9.930  14.074  68.014  1.00  0.00    -0.223 OA 
BRANCH   9  11
HETATM   11  C   UNL     1      -9.415  11.767  68.554  1.00  0.00    -0.165 A  
HETATM   12  C   UNL     1     -10.222  10.704  68.984  1.00  0.00    -0.215 A  
HETATM   13  C   UNL     1      -9.651   9.616  69.667  1.00  0.00    -0.225 A  
HETATM   14 CL   UNL     1     -11.927  10.602  68.708  1.00  0.00    -0.191 Cl 
HETATM   15  C   UNL     1      -8.289   9.579  69.967  1.00  0.00    -0.179 A  
HETATM   16  C   UNL     1      -7.477  10.602  69.486  1.00  0.00    -0.132 A  
HETATM   17  N   UNL     1      -7.716   8.434  70.525  1.00  0.00    -0.075 NA 
HETATM   18  H1  UNL     1      -6.721   8.407  70.744  1.00  0.00     0.000 HD 
HETATM   19  C   UNL     1      -8.032  11.694  68.811  1.00  0.00    -0.086 A  
HETATM   20  H2  UNL     1      -7.931   7.642  69.920  1.00  0.00     0.000 HD 
ENDBRANCH   9  11
ENDBRANCH   8   9
ENDBRANCH   7   8
ENDBRANCH   6   7
ENDBRANCH   3   6
ENDBRANCH   2   3
TORSDOF 7
ENDMDL
MODEL      324
REMARK 921   NORMALIZED FREE ENERGY PREDICTED BY IDOCK:   -2.51 KCAL/MOL
REMARK 922        TOTAL FREE ENERGY PREDICTED BY IDOCK:   -3.93 KCAL/MOL
REMARK 923 INTER-LIGAND FREE ENERGY PREDICTED BY IDOCK:   -3.81 KCAL/MOL
REMARK 924 INTRA-LIGAND FREE ENERGY PREDICTED BY IDOCK:   -0.12 KCAL/MOL
REMARK 927      BINDING AFFINITY PREDICTED BY RF-SCORE:    0.00 PKD
ROOT
HETATM    1  C   UNL     1      -7.529  18.370  68.226  1.00  0.00    -0.293 C  
HETATM    2  C   UNL     1      -7.799  17.039  68.917  1.00  0.00    -0.224 C  
ENDROOT
BRANCH   2   3
HETATM    3  N   UNL     1      -8.623  16.089  68.142  1.00  0.00    -0.169 NA 
BRANCH   3   4
HETATM    4  C   UNL     1      -8.997  16.580  66.805  1.00  0.00    -0.234 C  
HETATM    5  C   UNL     1     -10.336  16.095  66.254  1.00  0.00    -0.337 C  
ENDBRANCH   3   4
BRANCH   3   6
HETATM    6  C   UNL     1      -7.931  14.790  68.110  1.00  0.00    -0.129 C  
BRANCH   6   7
HETATM    7  C   UNL     1      -8.797  13.522  67.991  1.00  0.00    -0.181 C  
BRANCH   7   8
HETATM    8  O   UNL     1      -8.224  12.738  66.924  1.00  0.00    -0.135 OA 
BRANCH   8   9
HETATM    9  C   UNL     1      -7.712  11.543  67.324  1.00  0.00    -0.150 C  
HETATM   10  O   UNL     1      -6.528  11.257  67.279  1.00  0.00    -0.068 OA 
BRANCH   9  11
HETATM   11  C   UNL     1      -8.791  10.738  67.981  1.00  0.00    -0.132 A  
HETATM   12  C   UNL     1      -9.687   9.950  67.246  1.00  0.00    -0.171 A  
HETATM   13  C   UNL     1     -10.611   9.126  67.911  1.00  0.00    -0.272 A  
HETATM   14 CL   UNL     1      -9.731   9.880  65.518  1.00  0.00    -0.349 Cl 
HETATM   15  C   UNL     1     -10.691   9.098  69.303  1.00  0.00    -0.183 A  
HETATM   16  C   UNL     1      -9.760   9.831  70.035  1.00  0.00    -0.292 A  
HETATM   17  N   UNL     1     -11.519   8.178  69.949  1.00  0.00    -0.449 NA 
HETATM   18  H1  UNL     1     -11.577   8.156  70.967  1.00  0.00     0.000 HD 
HETATM   19  C   UNL     1      -8.839  10.661  69.387  1.00  0.00    -0.037 A  
HETATM   20  H2  UNL     1     -11.273   7.242  69.624  1.00  0.00     0.000 HD 
ENDBRANCH   9  11
ENDBRANCH   8   9
ENDBRANCH   7   8
ENDBRANCH   6   7
ENDBRANCH   3   6
ENDBRANCH   2   3
TORSDOF 7
ENDMDL
MODEL      325
REMARK 921   NORMALIZED FREE ENERGY PREDICTED BY IDOCK:   -2.50 KCAL/MOL
REMARK 922        TOTAL FREE ENERGY PREDICTED BY IDOCK:   -3.92 KCAL/MOL
REMARK 923 INTER-LIGAND FREE ENERGY PREDICTED BY IDOCK:   -3.43 KCAL/MOL
REMARK 924 INTRA-LIGAND FREE ENERGY PREDICTED BY IDOCK:   -0.49 KCAL/MOL
REMARK 927      BINDING AFFINITY PREDICTED BY RF-SCORE:    0.00 PKD
ROOT
HETATM    1  C   UNL     1     -11.933   8.667  72.184  1.00  0.00    -0.449 C  
HETATM    2  C   UNL     1     -11.417   7.653  71.170  1.00  0.00    -0.275 C  
ENDROOT
BRANCH   2   3
HETATM    3  N   UNL     1      -9.960   7.693  70.933  1.00  0.00    -0.181 NA 
BRANCH   3   4
HETATM    4  C   UNL     1      -9.381   6.390  70.564  1.00  0.00    -0.162 C  
HETATM    5  C   UNL     1     -10.330   5.195  70.585  1.00  0.00    -0.305 C  
ENDBRANCH   3   4
BRANCH   3   6
HETATM    6  C   UNL     1      -9.676   8.752  69.951  1.00  0.00    -0.178 C  
BRANCH   6   7
HETATM    7  C   UNL     1      -9.967   8.450  68.469  1.00  0.00    -0.187 C  
BRANCH   7   8
HETATM    8  O   UNL     1      -8.866   9.002  67.718  1.00  0.00    -0.125 OA 
BRANCH   8   9
HETATM    9  C   UNL     1      -9.222   9.986  66.849  1.00  0.00    -0.147 C  
HETATM   10  O   UNL     1      -9.644   9.784  65.724  1.00  0.00    -0.213 OA 
BRANCH   9  11
HETATM   11  C   UNL     1      -9.187  11.306  67.556  1.00  0.00    -0.159 A  
HETATM   12  C   UNL     1      -7.986  11.975  67.829  1.00  0.00    -0.147 A  
HETATM   13  C   UNL     1      -8.008  13.261  68.395  1.00  0.00    -0.132 A  
HETATM   14 CL   UNL     1      -6.416  11.335  67.487  1.00  0.00    -0.067 Cl 
HETATM   15  C   UNL     1      -9.208  13.887  68.733  1.00  0.00    -0.012 A  
HETATM   16  C   UNL     1     -10.402  13.251  68.404  1.00  0.00    -0.254 A  
HETATM   17  N   UNL     1      -9.219  15.214  69.168  1.00  0.00    -0.230 NA 
HETATM   18  H1  UNL     1     -10.096  15.672  69.415  1.00  0.00     0.000 HD 
HETATM   19  C   UNL     1     -10.396  11.968  67.847  1.00  0.00    -0.209 A  
HETATM   20  H2  UNL     1      -8.747  15.784  68.466  1.00  0.00     0.000 HD 
ENDBRANCH   9  11
ENDBRANCH   8   9
ENDBRANCH   7   8
ENDBRANCH   6   7
ENDBRANCH   3   6
ENDBRANCH   2   3
TORSDOF 7
ENDMDL
MODEL      326
REMARK 921   NORMALIZED FREE ENERGY PREDICTED BY IDOCK:   -2.49 KCAL/MOL
REMARK 922        TOTAL FREE ENERGY PREDICTED BY IDOCK:   -3.89 KCAL/MOL
REMARK 923 INTER-LIGAND FREE ENERGY PREDICTED BY IDOCK:   -3.77 KCAL/MOL
REMARK 924 INTRA-LIGAND FREE ENERGY PREDICTED BY IDOCK:   -0.12 KCAL/MOL
REMARK 927      BINDING AFFINITY PREDICTED BY RF-SCORE:    0.00 PKD
ROOT
HETATM    1  C   UNL     1     -11.875  15.071  71.016  1.00  0.00    -0.373 C  
HETATM    2  C   UNL     1     -11.106  14.178  70.050  1.00  0.00     0.028 C  
ENDROOT
BRANCH   2   3
HETATM    3  N   UNL     1     -11.146  14.606  68.637  1.00  0.00    -0.251 NA 
BRANCH   3   4
HETATM    4  C   UNL     1     -10.072  15.544  68.269  1.00  0.00    -0.218 C  
HETATM    5  C   UNL     1     -10.453  17.022  68.207  1.00  0.00    -0.363 C  
ENDBRANCH   3   4
BRANCH   3   6
HETATM    6  C   UNL     1     -11.182  13.405  67.786  1.00  0.00    -0.279 C  
BRANCH   6   7
HETATM    7  C   UNL     1     -12.391  12.462  67.931  1.00  0.00     0.557 C  
BRANCH   7   8
HETATM    8  O   UNL     1     -11.864  11.119  67.901  1.00  0.00    -0.601 OA 
BRANCH   8   9
HETATM    9  C   UNL     1     -11.538  10.622  69.125  1.00  0.00    -0.271 C  
HETATM   10  O   UNL     1     -11.983  11.049  70.176  1.00  0.00    -0.297 OA 
BRANCH   9  11
HETATM   11  C   UNL     1     -10.715   9.384  68.952  1.00  0.00    -0.203 A  
HETATM   12  C   UNL     1     -10.497   8.479  70.000  1.00  0.00    -0.223 A  
HETATM   13  C   UNL     1      -9.811   7.275  69.762  1.00  0.00    -0.177 A  
HETATM   14 CL   UNL     1     -11.050   8.717  71.622  1.00  0.00    -0.372 Cl 
HETATM   15  C   UNL     1      -9.300   6.966  68.502  1.00  0.00    -0.134 A  
HETATM   16  C   UNL     1      -9.571   7.832  67.446  1.00  0.00    -0.192 A  
HETATM   17  N   UNL     1      -8.742   5.711  68.251  1.00  0.00    -0.107 NA 
HETATM   18  H1  UNL     1      -8.368   5.484  67.330  1.00  0.00     0.000 HD 
HETATM   19  C   UNL     1     -10.245   9.037  67.669  1.00  0.00    -0.300 A  
HETATM   20  H2  UNL     1      -9.429   4.999  68.501  1.00  0.00     0.000 HD 
ENDBRANCH   9  11
ENDBRANCH   8   9
ENDBRANCH   7   8
ENDBRANCH   6   7
ENDBRANCH   3   6
ENDBRANCH   2   3
TORSDOF 7
ENDMDL
MODEL      327
REMARK 921   NORMALIZED FREE ENERGY PREDICTED BY IDOCK:   -2.48 KCAL/MOL
REMARK 922        TOTAL FREE ENERGY PREDICTED BY IDOCK:   -3.88 KCAL/MOL
REMARK 923 INTER-LIGAND FREE ENERGY PREDICTED BY IDOCK:   -2.75 KCAL/MOL
REMARK 924 INTRA-LIGAND FREE ENERGY PREDICTED BY IDOCK:   -1.13 KCAL/MOL
REMARK 927      BINDING AFFINITY PREDICTED BY RF-SCORE:    0.00 PKD
ROOT
HETATM    1  C   UNL     1      -7.893   6.709  63.648  1.00  0.00    -0.109 C  
HETATM    2  C   UNL     1      -7.054   6.838  64.913  1.00  0.00    -0.060 C  
ENDROOT
BRANCH   2   3
HETATM    3  N   UNL     1      -7.775   7.364  66.090  1.00  0.00    -0.091 NA 
BRANCH   3   4
HETATM    4  C   UNL     1      -8.514   8.610  65.828  1.00  0.00    -0.151 C  
HETATM    5  C   UNL     1      -9.990   8.619  66.218  1.00  0.00    -0.287 C  
ENDBRANCH   3   4
BRANCH   3   6
HETATM    6  C   UNL     1      -8.625   6.291  66.635  1.00  0.00    -0.119 C  
BRANCH   6   7
HETATM    7  C   UNL     1      -8.343   5.815  68.072  1.00  0.00    -0.103 C  
BRANCH   7   8
HETATM    8  O   UNL     1      -9.485   6.210  68.861  1.00  0.00    -0.123 OA 
BRANCH   8   9
HETATM    9  C   UNL     1      -9.169   6.898  69.991  1.00  0.00    -0.155 C  
HETATM   10  O   UNL     1      -8.594   6.411  70.949  1.00  0.00    -0.133 OA 
BRANCH   9  11
HETATM   11  C   UNL     1      -9.470   8.350  69.786  1.00  0.00    -0.162 A  
HETATM   12  C   UNL     1      -8.471   9.284  69.479  1.00  0.00    -0.144 A  
HETATM   13  C   UNL     1      -8.815  10.615  69.187  1.00  0.00    -0.133 A  
HETATM   14 CL   UNL     1      -6.783   8.912  69.399  1.00  0.00    -0.048 Cl 
HETATM   15  C   UNL     1     -10.139  11.050  69.230  1.00  0.00    -0.095 A  
HETATM   16  C   UNL     1     -11.138  10.110  69.472  1.00  0.00    -0.295 A  
HETATM   17  N   UNL     1     -10.478  12.337  68.807  1.00  0.00    -0.347 NA 
HETATM   18  H1  UNL     1     -11.446  12.656  68.838  1.00  0.00     0.000 HD 
HETATM   19  C   UNL     1     -10.811   8.785  69.772  1.00  0.00    -0.196 A  
HETATM   20  H2  UNL     1     -10.131  12.463  67.856  1.00  0.00     0.000 HD 
ENDBRANCH   9  11
ENDBRANCH   8   9
ENDBRANCH   7   8
ENDBRANCH   6   7
ENDBRANCH   3   6
ENDBRANCH   2   3
TORSDOF 7
ENDMDL
MODEL      328
REMARK 921   NORMALIZED FREE ENERGY PREDICTED BY IDOCK:   -2.48 KCAL/MOL
REMARK 922        TOTAL FREE ENERGY PREDICTED BY IDOCK:   -3.88 KCAL/MOL
REMARK 923 INTER-LIGAND FREE ENERGY PREDICTED BY IDOCK:   -3.48 KCAL/MOL
REMARK 924 INTRA-LIGAND FREE ENERGY PREDICTED BY IDOCK:   -0.40 KCAL/MOL
REMARK 927      BINDING AFFINITY PREDICTED BY RF-SCORE:    0.00 PKD
ROOT
HETATM    1  C   UNL     1      -6.388   7.776  66.346  1.00  0.00    -0.046 C  
HETATM    2  C   UNL     1      -6.365   6.776  65.198  1.00  0.00    -0.042 C  
ENDROOT
BRANCH   2   3
HETATM    3  N   UNL     1      -7.633   6.051  64.976  1.00  0.00    -0.085 NA 
BRANCH   3   4
HETATM    4  C   UNL     1      -7.601   5.136  63.821  1.00  0.00    -0.069 C  
HETATM    5  C   UNL     1      -7.174   3.699  64.105  1.00  0.00    -0.058 C  
ENDBRANCH   3   4
BRANCH   3   6
HETATM    6  C   UNL     1      -8.015   5.384  66.231  1.00  0.00    -0.105 C  
BRANCH   6   7
HETATM    7  C   UNL     1      -9.486   4.960  66.397  1.00  0.00    -0.155 C  
BRANCH   7   8
HETATM    8  O   UNL     1      -9.793   5.100  67.800  1.00  0.00    -0.142 OA 
BRANCH   8   9
HETATM    9  C   UNL     1     -10.438   6.256  68.116  1.00  0.00    -0.226 C  
HETATM   10  O   UNL     1     -10.987   6.977  67.302  1.00  0.00    -0.325 OA 
BRANCH   9  11
HETATM   11  C   UNL     1     -10.516   6.386  69.606  1.00  0.00    -0.278 A  
HETATM   12  C   UNL     1      -9.391   6.673  70.391  1.00  0.00    -0.159 A  
HETATM   13  C   UNL     1      -9.532   6.895  71.771  1.00  0.00    -0.155 A  
HETATM   14 CL   UNL     1      -7.782   6.811  69.771  1.00  0.00    -0.110 Cl 
HETATM   15  C   UNL     1     -10.773   6.800  72.401  1.00  0.00    -0.226 A  
HETATM   16  C   UNL     1     -11.900   6.578  71.613  1.00  0.00    -0.384 A  
HETATM   17  N   UNL     1     -10.917   7.154  73.744  1.00  0.00    -0.526 NA 
HETATM   18  H1  UNL     1     -11.824   7.086  74.204  1.00  0.00     0.000 HD 
HETATM   19  C   UNL     1     -11.774   6.349  70.240  1.00  0.00    -0.389 A  
HETATM   20  H2  UNL     1     -10.571   8.107  73.862  1.00  0.00     0.000 HD 
ENDBRANCH   9  11
ENDBRANCH   8   9
ENDBRANCH   7   8
ENDBRANCH   6   7
ENDBRANCH   3   6
ENDBRANCH   2   3
TORSDOF 7
ENDMDL
MODEL      329
REMARK 921   NORMALIZED FREE ENERGY PREDICTED BY IDOCK:   -2.47 KCAL/MOL
REMARK 922        TOTAL FREE ENERGY PREDICTED BY IDOCK:   -3.88 KCAL/MOL
REMARK 923 INTER-LIGAND FREE ENERGY PREDICTED BY IDOCK:   -3.34 KCAL/MOL
REMARK 924 INTRA-LIGAND FREE ENERGY PREDICTED BY IDOCK:   -0.54 KCAL/MOL
REMARK 927      BINDING AFFINITY PREDICTED BY RF-SCORE:    0.00 PKD
ROOT
HETATM    1  C   UNL     1      -8.163   5.501  64.284  1.00  0.00    -0.124 C  
HETATM    2  C   UNL     1      -8.081   6.997  64.564  1.00  0.00    -0.069 C  
ENDROOT
BRANCH   2   3
HETATM    3  N   UNL     1      -8.443   7.396  65.939  1.00  0.00    -0.146 NA 
BRANCH   3   4
HETATM    4  C   UNL     1      -9.496   8.423  66.003  1.00  0.00    -0.154 C  
HETATM    5  C   UNL     1      -9.467   9.352  67.214  1.00  0.00    -0.169 C  
ENDBRANCH   3   4
BRANCH   3   6
HETATM    6  C   UNL     1      -8.771   6.183  66.706  1.00  0.00    -0.116 C  
BRANCH   6   7
HETATM    7  C   UNL     1      -8.238   6.081  68.147  1.00  0.00    -0.113 C  
BRANCH   7   8
HETATM    8  O   UNL     1      -9.244   5.376  68.903  1.00  0.00    -0.115 OA 
BRANCH   8   9
HETATM    9  C   UNL     1     -10.265   6.161  69.340  1.00  0.00    -0.197 C  
HETATM   10  O   UNL     1     -11.333   6.275  68.765  1.00  0.00    -0.356 OA 
BRANCH   9  11
HETATM   11  C   UNL     1      -9.932   6.694  70.699  1.00  0.00    -0.201 A  
HETATM   12  C   UNL     1      -9.970   5.891  71.846  1.00  0.00    -0.171 A  
HETATM   13  C   UNL     1      -9.544   6.405  73.083  1.00  0.00    -0.159 A  
HETATM   14 CL   UNL     1     -10.494   4.242  71.862  1.00  0.00    -0.132 Cl 
HETATM   15  C   UNL     1      -9.110   7.724  73.211  1.00  0.00    -0.244 A  
HETATM   16  C   UNL     1      -9.011   8.504  72.062  1.00  0.00    -0.301 A  
HETATM   17  N   UNL     1      -8.564   8.178  74.414  1.00  0.00    -0.400 NA 
HETATM   18  H1  UNL     1      -8.247   9.143  74.508  1.00  0.00     0.000 HD 
HETATM   19  C   UNL     1      -9.439   8.008  70.827  1.00  0.00    -0.173 A  
HETATM   20  H2  UNL     1      -7.791   7.563  74.667  1.00  0.00     0.000 HD 
ENDBRANCH   9  11
ENDBRANCH   8   9
ENDBRANCH   7   8
ENDBRANCH   6   7
ENDBRANCH   3   6
ENDBRANCH   2   3
TORSDOF 7
ENDMDL
MODEL      330
REMARK 921   NORMALIZED FREE ENERGY PREDICTED BY IDOCK:   -2.47 KCAL/MOL
REMARK 922        TOTAL FREE ENERGY PREDICTED BY IDOCK:   -3.88 KCAL/MOL
REMARK 923 INTER-LIGAND FREE ENERGY PREDICTED BY IDOCK:   -3.23 KCAL/MOL
REMARK 924 INTRA-LIGAND FREE ENERGY PREDICTED BY IDOCK:   -0.65 KCAL/MOL
REMARK 927      BINDING AFFINITY PREDICTED BY RF-SCORE:    0.00 PKD
ROOT
HETATM    1  C   UNL     1      -5.628   3.891  67.903  1.00  0.00    -0.021 C  
HETATM    2  C   UNL     1      -6.713   4.961  67.877  1.00  0.00    -0.055 C  
ENDROOT
BRANCH   2   3
HETATM    3  N   UNL     1      -6.219   6.348  67.755  1.00  0.00    -0.024 NA 
BRANCH   3   4
HETATM    4  C   UNL     1      -6.460   6.951  66.434  1.00  0.00    -0.051 C  
HETATM    5  C   UNL     1      -5.241   7.118  65.531  1.00  0.00    -0.027 C  
ENDBRANCH   3   4
BRANCH   3   6
HETATM    6  C   UNL     1      -6.776   7.140  68.864  1.00  0.00    -0.060 C  
BRANCH   6   7
HETATM    7  C   UNL     1      -7.580   8.404  68.507  1.00  0.00    -0.096 C  
BRANCH   7   8
HETATM    8  O   UNL     1      -8.324   8.760  69.690  1.00  0.00    -0.119 OA 
BRANCH   8   9
HETATM    9  C   UNL     1      -9.672   8.638  69.559  1.00  0.00    -0.179 C  
HETATM   10  O   UNL     1     -10.310   9.089  68.623  1.00  0.00    -0.201 OA 
BRANCH   9  11
HETATM   11  C   UNL     1     -10.192   7.726  70.625  1.00  0.00    -0.199 A  
HETATM   12  C   UNL     1     -10.344   6.347  70.421  1.00  0.00    -0.205 A  
HETATM   13  C   UNL     1     -10.730   5.514  71.484  1.00  0.00    -0.290 A  
HETATM   14 CL   UNL     1     -10.054   5.550  68.913  1.00  0.00    -0.241 Cl 
HETATM   15  C   UNL     1     -11.009   6.031  72.750  1.00  0.00    -0.264 A  
HETATM   16  C   UNL     1     -10.797   7.389  72.971  1.00  0.00    -0.423 A  
HETATM   17  N   UNL     1     -11.260   5.177  73.826  1.00  0.00    -0.429 NA 
HETATM   18  H1  UNL     1     -11.462   5.555  74.751  1.00  0.00     0.000 HD 
HETATM   19  C   UNL     1     -10.420   8.232  71.921  1.00  0.00    -0.342 A  
HETATM   20  H2  UNL     1     -10.475   4.530  73.911  1.00  0.00     0.000 HD 
ENDBRANCH   9  11
ENDBRANCH   8   9
ENDBRANCH   7   8
ENDBRANCH   6   7
ENDBRANCH   3   6
ENDBRANCH   2   3
TORSDOF 7
ENDMDL
MODEL      331
REMARK 921   NORMALIZED FREE ENERGY PREDICTED BY IDOCK:   -2.46 KCAL/MOL
REMARK 922        TOTAL FREE ENERGY PREDICTED BY IDOCK:   -3.86 KCAL/MOL
REMARK 923 INTER-LIGAND FREE ENERGY PREDICTED BY IDOCK:   -4.15 KCAL/MOL
REMARK 924 INTRA-LIGAND FREE ENERGY PREDICTED BY IDOCK:    0.29 KCAL/MOL
REMARK 927      BINDING AFFINITY PREDICTED BY RF-SCORE:    0.00 PKD
ROOT
HETATM    1  C   UNL     1      -6.148   5.073  68.071  1.00  0.00    -0.027 C  
HETATM    2  C   UNL     1      -7.008   6.204  68.621  1.00  0.00    -0.076 C  
ENDROOT
BRANCH   2   3
HETATM    3  N   UNL     1      -6.978   7.451  67.830  1.00  0.00    -0.070 NA 
BRANCH   3   4
HETATM    4  C   UNL     1      -7.630   7.338  66.514  1.00  0.00    -0.092 C  
HETATM    5  C   UNL     1      -9.061   6.806  66.508  1.00  0.00    -0.171 C  
ENDBRANCH   3   4
BRANCH   3   6
HETATM    6  C   UNL     1      -7.528   8.540  68.656  1.00  0.00    -0.093 C  
BRANCH   6   7
HETATM    7  C   UNL     1      -8.659   8.190  69.640  1.00  0.00    -0.131 C  
BRANCH   7   8
HETATM    8  O   UNL     1      -8.021   7.849  70.888  1.00  0.00    -0.089 OA 
BRANCH   8   9
HETATM    9  C   UNL     1      -8.673   8.307  71.991  1.00  0.00    -0.182 C  
HETATM   10  O   UNL     1      -8.146   8.960  72.874  1.00  0.00    -0.380 OA 
BRANCH   9  11
HETATM   11  C   UNL     1     -10.140   8.043  71.843  1.00  0.00    -0.264 A  
HETATM   12  C   UNL     1     -10.676   6.750  71.916  1.00  0.00    -0.223 A  
HETATM   13  C   UNL     1     -12.069   6.561  71.882  1.00  0.00    -0.388 A  
HETATM   14 CL   UNL     1      -9.730   5.311  72.082  1.00  0.00    -0.192 Cl 
HETATM   15  C   UNL     1     -12.945   7.636  71.738  1.00  0.00    -0.328 A  
HETATM   16  C   UNL     1     -12.418   8.925  71.729  1.00  0.00    -0.425 A  
HETATM   17  N   UNL     1     -14.325   7.446  71.841  1.00  0.00    -0.590 NA 
HETATM   18  H1  UNL     1     -14.966   8.231  71.736  1.00  0.00     0.000 HD 
HETATM   19  C   UNL     1     -11.035   9.127  71.755  1.00  0.00    -0.429 A  
HETATM   20  H2  UNL     1     -14.520   6.993  72.735  1.00  0.00     0.000 HD 
ENDBRANCH   9  11
ENDBRANCH   8   9
ENDBRANCH   7   8
ENDBRANCH   6   7
ENDBRANCH   3   6
ENDBRANCH   2   3
TORSDOF 7
ENDMDL
MODEL      332
REMARK 921   NORMALIZED FREE ENERGY PREDICTED BY IDOCK:   -2.46 KCAL/MOL
REMARK 922        TOTAL FREE ENERGY PREDICTED BY IDOCK:   -3.86 KCAL/MOL
REMARK 923 INTER-LIGAND FREE ENERGY PREDICTED BY IDOCK:   -3.39 KCAL/MOL
REMARK 924 INTRA-LIGAND FREE ENERGY PREDICTED BY IDOCK:   -0.47 KCAL/MOL
REMARK 927      BINDING AFFINITY PREDICTED BY RF-SCORE:    0.00 PKD
ROOT
HETATM    1  C   UNL     1      -9.891  15.062  65.489  1.00  0.00    -0.352 C  
HETATM    2  C   UNL     1     -10.284  13.795  66.237  1.00  0.00    -0.297 C  
ENDROOT
BRANCH   2   3
HETATM    3  N   UNL     1      -9.677  13.646  67.575  1.00  0.00    -0.222 NA 
BRANCH   3   4
HETATM    4  C   UNL     1     -10.619  13.872  68.685  1.00  0.00    -0.257 C  
HETATM    5  C   UNL     1     -12.034  14.296  68.298  1.00  0.00    -0.346 C  
ENDBRANCH   3   4
BRANCH   3   6
HETATM    6  C   UNL     1      -9.009  12.336  67.642  1.00  0.00    -0.181 C  
BRANCH   6   7
HETATM    7  C   UNL     1      -9.758  11.185  68.339  1.00  0.00    -0.191 C  
BRANCH   7   8
HETATM    8  O   UNL     1      -8.818  10.583  69.252  1.00  0.00    -0.166 OA 
BRANCH   8   9
HETATM    9  C   UNL     1      -9.274   9.453  69.857  1.00  0.00    -0.208 C  
HETATM   10  O   UNL     1     -10.202   9.428  70.647  1.00  0.00    -0.246 OA 
BRANCH   9  11
HETATM   11  C   UNL     1      -8.590   8.263  69.260  1.00  0.00    -0.138 A  
HETATM   12  C   UNL     1      -9.155   7.523  68.212  1.00  0.00    -0.132 A  
HETATM   13  C   UNL     1      -8.427   6.482  67.610  1.00  0.00    -0.117 A  
HETATM   14 CL   UNL     1     -10.726   7.816  67.551  1.00  0.00    -0.301 Cl 
HETATM   15  C   UNL     1      -7.152   6.133  68.056  1.00  0.00    -0.078 A  
HETATM   16  C   UNL     1      -6.565   6.907  69.054  1.00  0.00    -0.048 A  
HETATM   17  N   UNL     1      -6.391   5.189  67.363  1.00  0.00    -0.039 NA 
HETATM   18  H1  UNL     1      -5.459   4.934  67.689  1.00  0.00     0.000 HD 
HETATM   19  C   UNL     1      -7.279   7.940  69.667  1.00  0.00    -0.070 A  
HETATM   20  H2  UNL     1      -6.318   5.490  66.391  1.00  0.00     0.000 HD 
ENDBRANCH   9  11
ENDBRANCH   8   9
ENDBRANCH   7   8
ENDBRANCH   6   7
ENDBRANCH   3   6
ENDBRANCH   2   3
TORSDOF 7
ENDMDL
MODEL      333
REMARK 921   NORMALIZED FREE ENERGY PREDICTED BY IDOCK:   -2.41 KCAL/MOL
REMARK 922        TOTAL FREE ENERGY PREDICTED BY IDOCK:   -3.79 KCAL/MOL
REMARK 923 INTER-LIGAND FREE ENERGY PREDICTED BY IDOCK:   -3.78 KCAL/MOL
REMARK 924 INTRA-LIGAND FREE ENERGY PREDICTED BY IDOCK:   -0.01 KCAL/MOL
REMARK 927      BINDING AFFINITY PREDICTED BY RF-SCORE:    0.00 PKD
ROOT
HETATM    1  C   UNL     1     -13.126   7.604  71.605  1.00  0.00    -0.392 C  
HETATM    2  C   UNL     1     -12.113   8.301  72.505  1.00  0.00    -0.337 C  
ENDROOT
BRANCH   2   3
HETATM    3  N   UNL     1     -10.924   7.494  72.848  1.00  0.00    -0.356 NA 
BRANCH   3   4
HETATM    4  C   UNL     1     -10.960   6.123  72.311  1.00  0.00    -0.260 C  
HETATM    5  C   UNL     1     -11.026   4.993  73.335  1.00  0.00    -0.393 C  
ENDBRANCH   3   4
BRANCH   3   6
HETATM    6  C   UNL     1      -9.721   8.241  72.447  1.00  0.00    -0.303 C  
BRANCH   6   7
HETATM    7  C   UNL     1      -9.611   8.685  70.977  1.00  0.00    -0.209 C  
BRANCH   7   8
HETATM    8  O   UNL     1      -8.218   8.570  70.621  1.00  0.00    -0.105 OA 
BRANCH   8   9
HETATM    9  C   UNL     1      -7.995   8.406  69.289  1.00  0.00    -0.113 C  
HETATM   10  O   UNL     1      -8.307   7.409  68.662  1.00  0.00    -0.127 OA 
BRANCH   9  11
HETATM   11  C   UNL     1      -7.490   9.692  68.711  1.00  0.00    -0.075 A  
HETATM   12  C   UNL     1      -7.380   9.897  67.329  1.00  0.00    -0.087 A  
HETATM   13  C   UNL     1      -7.006  11.157  66.830  1.00  0.00    -0.137 A  
HETATM   14 CL   UNL     1      -7.705   8.687  66.136  1.00  0.00    -0.096 Cl 
HETATM   15  C   UNL     1      -6.702  12.217  67.684  1.00  0.00    -0.118 A  
HETATM   16  C   UNL     1      -6.873  12.034  69.053  1.00  0.00    -0.105 A  
HETATM   17  N   UNL     1      -6.465  13.495  67.173  1.00  0.00    -0.432 NA 
HETATM   18  H1  UNL     1      -6.243  14.270  67.797  1.00  0.00     0.000 HD 
HETATM   19  C   UNL     1      -7.236  10.784  69.565  1.00  0.00    -0.132 A  
HETATM   20  H2  UNL     1      -7.266  13.765  66.602  1.00  0.00     0.000 HD 
ENDBRANCH   9  11
ENDBRANCH   8   9
ENDBRANCH   7   8
ENDBRANCH   6   7
ENDBRANCH   3   6
ENDBRANCH   2   3
TORSDOF 7
ENDMDL
MODEL      334
REMARK 921   NORMALIZED FREE ENERGY PREDICTED BY IDOCK:   -2.41 KCAL/MOL
REMARK 922        TOTAL FREE ENERGY PREDICTED BY IDOCK:   -3.78 KCAL/MOL
REMARK 923 INTER-LIGAND FREE ENERGY PREDICTED BY IDOCK:   -3.53 KCAL/MOL
REMARK 924 INTRA-LIGAND FREE ENERGY PREDICTED BY IDOCK:   -0.25 KCAL/MOL
REMARK 927      BINDING AFFINITY PREDICTED BY RF-SCORE:    0.00 PKD
ROOT
HETATM    1  C   UNL     1     -12.369  12.589  63.582  1.00  0.00    -0.618 C  
HETATM    2  C   UNL     1     -11.583  12.642  64.887  1.00  0.00    -0.334 C  
ENDROOT
BRANCH   2   3
HETATM    3  N   UNL     1     -10.683  11.495  65.120  1.00  0.00    -0.294 NA 
BRANCH   3   4
HETATM    4  C   UNL     1     -10.355  10.738  63.900  1.00  0.00    -0.259 C  
HETATM    5  C   UNL     1      -9.344  11.379  62.954  1.00  0.00    -0.351 C  
ENDBRANCH   3   4
BRANCH   3   6
HETATM    6  C   UNL     1      -9.492  11.976  65.840  1.00  0.00    -0.197 C  
BRANCH   6   7
HETATM    7  C   UNL     1      -8.473  10.925  66.320  1.00  0.00    -0.166 C  
BRANCH   7   8
HETATM    8  O   UNL     1      -9.152  10.127  67.312  1.00  0.00    -0.137 OA 
BRANCH   8   9
HETATM    9  C   UNL     1      -8.389   9.134  67.844  1.00  0.00    -0.117 C  
HETATM   10  O   UNL     1      -7.878   9.183  68.950  1.00  0.00    -0.091 OA 
BRANCH   9  11
HETATM   11  C   UNL     1      -8.440   7.936  66.947  1.00  0.00    -0.128 A  
HETATM   12  C   UNL     1      -7.333   7.519  66.195  1.00  0.00    -0.082 A  
HETATM   13  C   UNL     1      -7.394   6.327  65.453  1.00  0.00    -0.076 A  
HETATM   14 CL   UNL     1      -5.829   8.370  66.123  1.00  0.00    -0.043 Cl 
HETATM   15  C   UNL     1      -8.553   5.553  65.413  1.00  0.00    -0.151 A  
HETATM   16  C   UNL     1      -9.630   5.931  66.210  1.00  0.00    -0.148 A  
HETATM   17  N   UNL     1      -8.553   4.307  64.782  1.00  0.00    -0.122 NA 
HETATM   18  H1  UNL     1      -9.400   3.740  64.753  1.00  0.00     0.000 HD 
HETATM   19  C   UNL     1      -9.587   7.119  66.947  1.00  0.00    -0.216 A  
HETATM   20  H2  UNL     1      -7.806   3.743  65.188  1.00  0.00     0.000 HD 
ENDBRANCH   9  11
ENDBRANCH   8   9
ENDBRANCH   7   8
ENDBRANCH   6   7
ENDBRANCH   3   6
ENDBRANCH   2   3
TORSDOF 7
ENDMDL
MODEL      335
REMARK 921   NORMALIZED FREE ENERGY PREDICTED BY IDOCK:   -2.40 KCAL/MOL
REMARK 922        TOTAL FREE ENERGY PREDICTED BY IDOCK:   -3.77 KCAL/MOL
REMARK 923 INTER-LIGAND FREE ENERGY PREDICTED BY IDOCK:   -3.64 KCAL/MOL
REMARK 924 INTRA-LIGAND FREE ENERGY PREDICTED BY IDOCK:   -0.13 KCAL/MOL
REMARK 927      BINDING AFFINITY PREDICTED BY RF-SCORE:    0.00 PKD
ROOT
HETATM    1  C   UNL     1      -9.221   4.213  65.329  1.00  0.00    -0.152 C  
HETATM    2  C   UNL     1      -9.837   5.076  66.424  1.00  0.00    -0.201 C  
ENDROOT
BRANCH   2   3
HETATM    3  N   UNL     1      -8.895   5.986  67.106  1.00  0.00    -0.109 NA 
BRANCH   3   4
HETATM    4  C   UNL     1      -7.543   5.991  66.521  1.00  0.00    -0.094 C  
HETATM    5  C   UNL     1      -6.828   7.339  66.474  1.00  0.00    -0.061 C  
ENDBRANCH   3   4
BRANCH   3   6
HETATM    6  C   UNL     1      -9.503   7.326  67.168  1.00  0.00    -0.145 C  
BRANCH   6   7
HETATM    7  C   UNL     1      -9.792   7.916  68.561  1.00  0.00    -0.177 C  
BRANCH   7   8
HETATM    8  O   UNL     1     -10.326   9.237  68.339  1.00  0.00    -0.196 OA 
BRANCH   8   9
HETATM    9  C   UNL     1      -9.451  10.244  68.608  1.00  0.00    -0.169 C  
HETATM   10  O   UNL     1      -8.362  10.082  69.129  1.00  0.00    -0.123 OA 
BRANCH   9  11
HETATM   11  C   UNL     1      -9.960  11.515  68.001  1.00  0.00    -0.197 A  
HETATM   12  C   UNL     1      -9.168  12.668  67.909  1.00  0.00    -0.201 A  
HETATM   13  C   UNL     1      -9.649  13.802  67.233  1.00  0.00    -0.237 A  
HETATM   14 CL   UNL     1      -7.571  12.806  68.559  1.00  0.00    -0.129 Cl 
HETATM   15  C   UNL     1     -10.927  13.829  66.675  1.00  0.00    -0.296 A  
HETATM   16  C   UNL     1     -11.690  12.665  66.710  1.00  0.00    -0.460 A  
HETATM   17  N   UNL     1     -11.338  14.911  65.893  1.00  0.00    -0.332 NA 
HETATM   18  H1  UNL     1     -12.272  14.931  65.485  1.00  0.00     0.000 HD 
HETATM   19  C   UNL     1     -11.227  11.531  67.385  1.00  0.00    -0.367 A  
HETATM   20  H2  UNL     1     -10.659  15.040  65.143  1.00  0.00     0.000 HD 
ENDBRANCH   9  11
ENDBRANCH   8   9
ENDBRANCH   7   8
ENDBRANCH   6   7
ENDBRANCH   3   6
ENDBRANCH   2   3
TORSDOF 7
ENDMDL
MODEL      336
REMARK 921   NORMALIZED FREE ENERGY PREDICTED BY IDOCK:   -2.40 KCAL/MOL
REMARK 922        TOTAL FREE ENERGY PREDICTED BY IDOCK:   -3.77 KCAL/MOL
REMARK 923 INTER-LIGAND FREE ENERGY PREDICTED BY IDOCK:   -3.58 KCAL/MOL
REMARK 924 INTRA-LIGAND FREE ENERGY PREDICTED BY IDOCK:   -0.20 KCAL/MOL
REMARK 927      BINDING AFFINITY PREDICTED BY RF-SCORE:    0.00 PKD
ROOT
HETATM    1  C   UNL     1      -5.250  12.166  67.141  1.00  0.00    -0.084 C  
HETATM    2  C   UNL     1      -6.276  11.894  68.234  1.00  0.00    -0.050 C  
ENDROOT
BRANCH   2   3
HETATM    3  N   UNL     1      -7.019  13.082  68.703  1.00  0.00    -0.097 NA 
BRANCH   3   4
HETATM    4  C   UNL     1      -6.374  14.361  68.359  1.00  0.00    -0.101 C  
HETATM    5  C   UNL     1      -5.675  15.097  69.499  1.00  0.00    -0.102 C  
ENDBRANCH   3   4
BRANCH   3   6
HETATM    6  C   UNL     1      -8.406  12.985  68.221  1.00  0.00    -0.158 C  
BRANCH   6   7
HETATM    7  C   UNL     1      -9.217  11.737  68.619  1.00  0.00    -0.083 C  
BRANCH   7   8
HETATM    8  O   UNL     1     -10.502  12.215  69.068  1.00  0.00    -0.159 OA 
BRANCH   8   9
HETATM    9  C   UNL     1     -11.493  12.099  68.143  1.00  0.00    -0.317 C  
HETATM   10  O   UNL     1     -12.292  11.179  68.110  1.00  0.00    -0.469 OA 
BRANCH   9  11
HETATM   11  C   UNL     1     -11.549  13.348  67.320  1.00  0.00    -0.400 A  
HETATM   12  C   UNL     1     -11.657  14.620  67.899  1.00  0.00    -0.348 A  
HETATM   13  C   UNL     1     -11.595  15.769  67.093  1.00  0.00     0.201 A  
HETATM   14 CL   UNL     1     -11.841  14.905  69.595  1.00  0.00    -0.332 Cl 
HETATM   15  C   UNL     1     -11.462  15.681  65.707  1.00  0.00     0.146 A  
HETATM   16  C   UNL     1     -11.290  14.422  65.138  1.00  0.00    -0.359 A  
HETATM   17  N   UNL     1     -11.267  16.829  64.937  1.00  0.00    -0.528 NA 
HETATM   18  H1  UNL     1     -11.170  16.764  63.924  1.00  0.00     0.000 HD 
HETATM   19  C   UNL     1     -11.358  13.269  65.926  1.00  0.00    -0.333 A  
HETATM   20  H2  UNL     1     -10.455  17.326  65.304  1.00  0.00     0.000 HD 
ENDBRANCH   9  11
ENDBRANCH   8   9
ENDBRANCH   7   8
ENDBRANCH   6   7
ENDBRANCH   3   6
ENDBRANCH   2   3
TORSDOF 7
ENDMDL
MODEL      337
REMARK 921   NORMALIZED FREE ENERGY PREDICTED BY IDOCK:   -2.39 KCAL/MOL
REMARK 922        TOTAL FREE ENERGY PREDICTED BY IDOCK:   -3.75 KCAL/MOL
REMARK 923 INTER-LIGAND FREE ENERGY PREDICTED BY IDOCK:   -3.41 KCAL/MOL
REMARK 924 INTRA-LIGAND FREE ENERGY PREDICTED BY IDOCK:   -0.35 KCAL/MOL
REMARK 927      BINDING AFFINITY PREDICTED BY RF-SCORE:    0.00 PKD
ROOT
HETATM    1  C   UNL     1      -5.490   9.024  68.982  1.00  0.00    -0.037 C  
HETATM    2  C   UNL     1      -6.698   9.596  69.713  1.00  0.00    -0.062 C  
ENDROOT
BRANCH   2   3
HETATM    3  N   UNL     1      -6.642  11.049  69.969  1.00  0.00    -0.154 NA 
BRANCH   3   4
HETATM    4  C   UNL     1      -5.315  11.529  70.391  1.00  0.00    -0.117 C  
HETATM    5  C   UNL     1      -5.257  12.291  71.713  1.00  0.00     0.082 C  
ENDBRANCH   3   4
BRANCH   3   6
HETATM    6  C   UNL     1      -7.161  11.752  68.784  1.00  0.00    -0.113 C  
BRANCH   6   7
HETATM    7  C   UNL     1      -6.537  13.115  68.430  1.00  0.00    -0.092 C  
BRANCH   7   8
HETATM    8  O   UNL     1      -7.635  14.042  68.297  1.00  0.00    -0.114 OA 
BRANCH   8   9
HETATM    9  C   UNL     1      -7.622  15.054  69.206  1.00  0.00    -0.187 C  
HETATM   10  O   UNL     1      -6.924  15.067  70.205  1.00  0.00    -0.156 OA 
BRANCH   9  11
HETATM   11  C   UNL     1      -8.442  16.194  68.687  1.00  0.00    -0.216 A  
HETATM   12  C   UNL     1      -9.808  16.062  68.402  1.00  0.00    -0.213 A  
HETATM   13  C   UNL     1     -10.562  17.186  68.022  1.00  0.00    -0.374 A  
HETATM   14 CL   UNL     1     -10.685  14.575  68.511  1.00  0.00    -0.243 Cl 
HETATM   15  C   UNL     1      -9.974  18.443  67.883  1.00  0.00    -0.350 A  
HETATM   16  C   UNL     1      -8.633  18.589  68.227  1.00  0.00    -0.341 A  
HETATM   17  N   UNL     1     -10.760  19.571  67.637  1.00  0.00    -0.448 NA 
HETATM   18  H1  UNL     1     -10.330  20.490  67.536  1.00  0.00     0.000 HD 
HETATM   19  C   UNL     1      -7.869  17.478  68.599  1.00  0.00    -0.272 A  
HETATM   20  H2  UNL     1     -11.471  19.630  68.366  1.00  0.00     0.000 HD 
ENDBRANCH   9  11
ENDBRANCH   8   9
ENDBRANCH   7   8
ENDBRANCH   6   7
ENDBRANCH   3   6
ENDBRANCH   2   3
TORSDOF 7
ENDMDL
MODEL      338
REMARK 921   NORMALIZED FREE ENERGY PREDICTED BY IDOCK:   -2.38 KCAL/MOL
REMARK 922        TOTAL FREE ENERGY PREDICTED BY IDOCK:   -3.75 KCAL/MOL
REMARK 923 INTER-LIGAND FREE ENERGY PREDICTED BY IDOCK:   -3.27 KCAL/MOL
REMARK 924 INTRA-LIGAND FREE ENERGY PREDICTED BY IDOCK:   -0.48 KCAL/MOL
REMARK 927      BINDING AFFINITY PREDICTED BY RF-SCORE:    0.00 PKD
ROOT
HETATM    1  C   UNL     1     -11.301  12.781  68.327  1.00  0.00    -0.335 C  
HETATM    2  C   UNL     1     -10.132  12.491  67.394  1.00  0.00    -0.210 C  
ENDROOT
BRANCH   2   3
HETATM    3  N   UNL     1     -10.209  11.200  66.680  1.00  0.00    -0.224 NA 
BRANCH   3   4
HETATM    4  C   UNL     1      -9.876  11.291  65.248  1.00  0.00    -0.246 C  
HETATM    5  C   UNL     1     -10.688  12.287  64.424  1.00  0.00    -0.369 C  
ENDBRANCH   3   4
BRANCH   3   6
HETATM    6  C   UNL     1      -9.387  10.216  67.403  1.00  0.00    -0.148 C  
BRANCH   6   7
HETATM    7  C   UNL     1      -8.123   9.685  66.702  1.00  0.00    -0.119 C  
BRANCH   7   8
HETATM    8  O   UNL     1      -8.004   8.297  67.076  1.00  0.00    -0.099 OA 
BRANCH   8   9
HETATM    9  C   UNL     1      -8.228   7.424  66.056  1.00  0.00    -0.130 C  
HETATM   10  O   UNL     1      -8.191   7.729  64.876  1.00  0.00    -0.141 OA 
BRANCH   9  11
HETATM   11  C   UNL     1      -8.334   6.037  66.607  1.00  0.00    -0.111 A  
HETATM   12  C   UNL     1      -9.553   5.497  67.042  1.00  0.00    -0.137 A  
HETATM   13  C   UNL     1      -9.625   4.154  67.448  1.00  0.00    -0.222 A  
HETATM   14 CL   UNL     1     -11.042   6.375  67.094  1.00  0.00    -0.460 Cl 
HETATM   15  C   UNL     1      -8.494   3.338  67.468  1.00  0.00    -0.090 A  
HETATM   16  C   UNL     1      -7.297   3.853  66.977  1.00  0.00    -0.072 A  
HETATM   17  N   UNL     1      -8.607   1.974  67.745  1.00  0.00    -0.080 NA 
HETATM   18  H1  UNL     1      -7.780   1.377  67.759  1.00  0.00     0.000 HD 
HETATM   19  C   UNL     1      -7.209   5.190  66.576  1.00  0.00    -0.077 A  
HETATM   20  H2  UNL     1      -9.281   1.570  67.094  1.00  0.00     0.000 HD 
ENDBRANCH   9  11
ENDBRANCH   8   9
ENDBRANCH   7   8
ENDBRANCH   6   7
ENDBRANCH   3   6
ENDBRANCH   2   3
TORSDOF 7
ENDMDL
MODEL      339
REMARK 921   NORMALIZED FREE ENERGY PREDICTED BY IDOCK:   -2.38 KCAL/MOL
REMARK 922        TOTAL FREE ENERGY PREDICTED BY IDOCK:   -3.75 KCAL/MOL
REMARK 923 INTER-LIGAND FREE ENERGY PREDICTED BY IDOCK:   -3.41 KCAL/MOL
REMARK 924 INTRA-LIGAND FREE ENERGY PREDICTED BY IDOCK:   -0.34 KCAL/MOL
REMARK 927      BINDING AFFINITY PREDICTED BY RF-SCORE:    0.00 PKD
ROOT
HETATM    1  C   UNL     1      -9.188   5.297  65.739  1.00  0.00    -0.159 C  
HETATM    2  C   UNL     1      -7.706   5.190  66.073  1.00  0.00    -0.091 C  
ENDROOT
BRANCH   2   3
HETATM    3  N   UNL     1      -7.166   6.303  66.881  1.00  0.00    -0.073 NA 
BRANCH   3   4
HETATM    4  C   UNL     1      -6.909   7.530  66.107  1.00  0.00    -0.061 C  
HETATM    5  C   UNL     1      -5.448   7.952  65.970  1.00  0.00    -0.029 C  
ENDBRANCH   3   4
BRANCH   3   6
HETATM    6  C   UNL     1      -8.059   6.521  68.031  1.00  0.00    -0.113 C  
BRANCH   6   7
HETATM    7  C   UNL     1      -7.839   5.650  69.282  1.00  0.00    -0.089 C  
BRANCH   7   8
HETATM    8  O   UNL     1      -9.141   5.163  69.670  1.00  0.00    -0.110 OA 
BRANCH   8   9
HETATM    9  C   UNL     1      -9.312   5.041  71.014  1.00  0.00    -0.152 C  
HETATM   10  O   UNL     1      -8.591   4.375  71.737  1.00  0.00    -0.110 OA 
BRANCH   9  11
HETATM   11  C   UNL     1     -10.385   5.984  71.463  1.00  0.00    -0.261 A  
HETATM   12  C   UNL     1     -10.206   6.859  72.543  1.00  0.00    -0.183 A  
HETATM   13  C   UNL     1     -11.199   7.803  72.858  1.00  0.00    -0.434 A  
HETATM   14 CL   UNL     1      -8.795   6.895  73.543  1.00  0.00    -0.152 Cl 
HETATM   15  C   UNL     1     -12.392   7.871  72.139  1.00  0.00    -0.291 A  
HETATM   16  C   UNL     1     -12.544   7.047  71.028  1.00  0.00    -0.338 A  
HETATM   17  N   UNL     1     -13.307   8.899  72.378  1.00  0.00    -0.509 NA 
HETATM   18  H1  UNL     1     -14.180   8.949  71.853  1.00  0.00     0.000 HD 
HETATM   19  C   UNL     1     -11.568   6.098  70.706  1.00  0.00    -0.257 A  
HETATM   20  H2  UNL     1     -12.821   9.790  72.276  1.00  0.00     0.000 HD 
ENDBRANCH   9  11
ENDBRANCH   8   9
ENDBRANCH   7   8
ENDBRANCH   6   7
ENDBRANCH   3   6
ENDBRANCH   2   3
TORSDOF 7
ENDMDL
MODEL      340
REMARK 921   NORMALIZED FREE ENERGY PREDICTED BY IDOCK:   -2.38 KCAL/MOL
REMARK 922        TOTAL FREE ENERGY PREDICTED BY IDOCK:   -3.74 KCAL/MOL
REMARK 923 INTER-LIGAND FREE ENERGY PREDICTED BY IDOCK:   -3.74 KCAL/MOL
REMARK 924 INTRA-LIGAND FREE ENERGY PREDICTED BY IDOCK:   -0.00 KCAL/MOL
REMARK 927      BINDING AFFINITY PREDICTED BY RF-SCORE:    0.00 PKD
ROOT
HETATM    1  C   UNL     1      -9.491  10.030  63.419  1.00  0.00    -0.239 C  
HETATM    2  C   UNL     1      -8.791  10.673  64.609  1.00  0.00    -0.177 C  
ENDROOT
BRANCH   2   3
HETATM    3  N   UNL     1      -9.686  11.356  65.566  1.00  0.00    -0.223 NA 
BRANCH   3   4
HETATM    4  C   UNL     1     -10.676  12.240  64.927  1.00  0.00    -0.297 C  
HETATM    5  C   UNL     1     -11.851  12.683  65.796  1.00  0.00    -0.497 C  
ENDBRANCH   3   4
BRANCH   3   6
HETATM    6  C   UNL     1     -10.296  10.341  66.441  1.00  0.00    -0.195 C  
BRANCH   6   7
HETATM    7  C   UNL     1     -10.058  10.467  67.957  1.00  0.00    -0.165 C  
BRANCH   7   8
HETATM    8  O   UNL     1     -10.649   9.298  68.560  1.00  0.00    -0.213 OA 
BRANCH   8   9
HETATM    9  C   UNL     1     -10.380   9.158  69.886  1.00  0.00    -0.212 C  
HETATM   10  O   UNL     1     -10.826   9.888  70.754  1.00  0.00    -0.309 OA 
BRANCH   9  11
HETATM   11  C   UNL     1      -9.622   7.886  70.105  1.00  0.00    -0.175 A  
HETATM   12  C   UNL     1      -9.405   7.357  71.385  1.00  0.00    -0.142 A  
HETATM   13  C   UNL     1      -8.785   6.104  71.535  1.00  0.00    -0.135 A  
HETATM   14 CL   UNL     1      -9.883   8.135  72.854  1.00  0.00    -0.348 Cl 
HETATM   15  C   UNL     1      -8.338   5.377  70.432  1.00  0.00    -0.113 A  
HETATM   16  C   UNL     1      -8.610   5.871  69.158  1.00  0.00    -0.115 A  
HETATM   17  N   UNL     1      -7.848   4.079  70.589  1.00  0.00    -0.051 NA 
HETATM   18  H1  UNL     1      -7.522   3.547  69.782  1.00  0.00     0.000 HD 
HETATM   19  C   UNL     1      -9.219   7.118  68.994  1.00  0.00    -0.135 A  
HETATM   20  H2  UNL     1      -8.557   3.525  71.070  1.00  0.00     0.000 HD 
ENDBRANCH   9  11
ENDBRANCH   8   9
ENDBRANCH   7   8
ENDBRANCH   6   7
ENDBRANCH   3   6
ENDBRANCH   2   3
TORSDOF 7
ENDMDL
MODEL      341
REMARK 921   NORMALIZED FREE ENERGY PREDICTED BY IDOCK:   -2.36 KCAL/MOL
REMARK 922        TOTAL FREE ENERGY PREDICTED BY IDOCK:   -3.71 KCAL/MOL
REMARK 923 INTER-LIGAND FREE ENERGY PREDICTED BY IDOCK:   -3.24 KCAL/MOL
REMARK 924 INTRA-LIGAND FREE ENERGY PREDICTED BY IDOCK:   -0.47 KCAL/MOL
REMARK 927      BINDING AFFINITY PREDICTED BY RF-SCORE:    0.00 PKD
ROOT
HETATM    1  C   UNL     1      -6.594  11.318  66.451  1.00  0.00    -0.069 C  
HETATM    2  C   UNL     1      -6.857  10.168  67.415  1.00  0.00    -0.077 C  
ENDROOT
BRANCH   2   3
HETATM    3  N   UNL     1      -8.283   9.854  67.638  1.00  0.00    -0.114 NA 
BRANCH   3   4
HETATM    4  C   UNL     1      -9.154  11.041  67.685  1.00  0.00    -0.145 C  
HETATM    5  C   UNL     1     -10.609  10.832  67.273  1.00  0.00    -0.304 C  
ENDBRANCH   3   4
BRANCH   3   6
HETATM    6  C   UNL     1      -8.706   8.866  66.631  1.00  0.00    -0.127 C  
BRANCH   6   7
HETATM    7  C   UNL     1      -8.762   7.388  67.059  1.00  0.00    -0.123 C  
BRANCH   7   8
HETATM    8  O   UNL     1     -10.096   7.161  67.560  1.00  0.00    -0.159 OA 
BRANCH   8   9
HETATM    9  C   UNL     1     -10.440   5.848  67.654  1.00  0.00    -0.238 C  
HETATM   10  O   UNL     1     -10.911   5.198  66.737  1.00  0.00    -0.196 OA 
BRANCH   9  11
HETATM   11  C   UNL     1      -9.981   5.310  68.973  1.00  0.00    -0.260 A  
HETATM   12  C   UNL     1     -10.624   5.633  70.176  1.00  0.00    -0.309 A  
HETATM   13  C   UNL     1     -10.226   5.018  71.376  1.00  0.00    -0.270 A  
HETATM   14 CL   UNL     1     -11.939   6.749  70.307  1.00  0.00    -0.368 Cl 
HETATM   15  C   UNL     1      -9.170   4.109  71.413  1.00  0.00    -0.135 A  
HETATM   16  C   UNL     1      -8.572   3.739  70.210  1.00  0.00    -0.103 A  
HETATM   17  N   UNL     1      -8.876   3.408  72.584  1.00  0.00    -0.085 NA 
HETATM   18  H1  UNL     1      -8.104   2.743  72.611  1.00  0.00     0.000 HD 
HETATM   19  C   UNL     1      -8.952   4.348  69.010  1.00  0.00    -0.154 A  
HETATM   20  H2  UNL     1      -9.722   2.926  72.889  1.00  0.00     0.000 HD 
ENDBRANCH   9  11
ENDBRANCH   8   9
ENDBRANCH   7   8
ENDBRANCH   6   7
ENDBRANCH   3   6
ENDBRANCH   2   3
TORSDOF 7
ENDMDL
MODEL      342
REMARK 921   NORMALIZED FREE ENERGY PREDICTED BY IDOCK:   -2.35 KCAL/MOL
REMARK 922        TOTAL FREE ENERGY PREDICTED BY IDOCK:   -3.71 KCAL/MOL
REMARK 923 INTER-LIGAND FREE ENERGY PREDICTED BY IDOCK:   -3.52 KCAL/MOL
REMARK 924 INTRA-LIGAND FREE ENERGY PREDICTED BY IDOCK:   -0.19 KCAL/MOL
REMARK 927      BINDING AFFINITY PREDICTED BY RF-SCORE:    0.00 PKD
ROOT
HETATM    1  C   UNL     1     -12.730   6.870  71.902  1.00  0.00    -0.313 C  
HETATM    2  C   UNL     1     -12.513   8.307  72.360  1.00  0.00    -0.302 C  
ENDROOT
BRANCH   2   3
HETATM    3  N   UNL     1     -11.114   8.777  72.300  1.00  0.00    -0.333 NA 
BRANCH   3   4
HETATM    4  C   UNL     1     -10.126   7.692  72.181  1.00  0.00    -0.196 C  
HETATM    5  C   UNL     1      -9.200   7.483  73.377  1.00  0.00    -0.280 C  
ENDBRANCH   3   4
BRANCH   3   6
HETATM    6  C   UNL     1     -11.005   9.779  71.226  1.00  0.00    -0.261 C  
BRANCH   6   7
HETATM    7  C   UNL     1     -11.438   9.360  69.809  1.00  0.00     0.039 C  
BRANCH   7   8
HETATM    8  O   UNL     1     -11.047  10.435  68.930  1.00  0.00    -0.227 OA 
BRANCH   8   9
HETATM    9  C   UNL     1     -10.940  10.074  67.623  1.00  0.00    -0.234 C  
HETATM   10  O   UNL     1     -11.525  10.631  66.711  1.00  0.00    -0.175 OA 
BRANCH   9  11
HETATM   11  C   UNL     1      -9.873   9.034  67.483  1.00  0.00    -0.230 A  
HETATM   12  C   UNL     1      -8.529   9.298  67.782  1.00  0.00    -0.116 A  
HETATM   13  C   UNL     1      -7.580   8.261  67.742  1.00  0.00    -0.102 A  
HETATM   14 CL   UNL     1      -7.921  10.851  68.242  1.00  0.00    -0.115 Cl 
HETATM   15  C   UNL     1      -7.935   6.964  67.372  1.00  0.00    -0.112 A  
HETATM   16  C   UNL     1      -9.279   6.686  67.137  1.00  0.00    -0.134 A  
HETATM   17  N   UNL     1      -7.011   5.921  67.467  1.00  0.00    -0.067 NA 
HETATM   18  H1  UNL     1      -7.271   4.972  67.198  1.00  0.00     0.000 HD 
HETATM   19  C   UNL     1     -10.233   7.709  67.166  1.00  0.00    -0.360 A  
HETATM   20  H2  UNL     1      -6.656   5.895  68.423  1.00  0.00     0.000 HD 
ENDBRANCH   9  11
ENDBRANCH   8   9
ENDBRANCH   7   8
ENDBRANCH   6   7
ENDBRANCH   3   6
ENDBRANCH   2   3
TORSDOF 7
ENDMDL
MODEL      343
REMARK 921   NORMALIZED FREE ENERGY PREDICTED BY IDOCK:   -2.34 KCAL/MOL
REMARK 922        TOTAL FREE ENERGY PREDICTED BY IDOCK:   -3.69 KCAL/MOL
REMARK 923 INTER-LIGAND FREE ENERGY PREDICTED BY IDOCK:   -3.09 KCAL/MOL
REMARK 924 INTRA-LIGAND FREE ENERGY PREDICTED BY IDOCK:   -0.60 KCAL/MOL
REMARK 927      BINDING AFFINITY PREDICTED BY RF-SCORE:    0.00 PKD
ROOT
HETATM    1  C   UNL     1      -7.359  10.284  65.349  1.00  0.00    -0.144 C  
HETATM    2  C   UNL     1      -8.859  10.352  65.608  1.00  0.00    -0.173 C  
ENDROOT
BRANCH   2   3
HETATM    3  N   UNL     1      -9.240  10.865  66.940  1.00  0.00    -0.159 NA 
BRANCH   3   4
HETATM    4  C   UNL     1     -10.245  11.940  66.898  1.00  0.00    -0.208 C  
HETATM    5  C   UNL     1     -11.500  11.729  67.742  1.00  0.00    -0.381 C  
ENDBRANCH   3   4
BRANCH   3   6
HETATM    6  C   UNL     1      -9.645   9.726  67.780  1.00  0.00    -0.135 C  
BRANCH   6   7
HETATM    7  C   UNL     1      -8.625   9.194  68.805  1.00  0.00    -0.131 C  
BRANCH   7   8
HETATM    8  O   UNL     1      -7.906   8.130  68.147  1.00  0.00    -0.117 OA 
BRANCH   8   9
HETATM    9  C   UNL     1      -7.817   6.985  68.876  1.00  0.00    -0.115 C  
HETATM   10  O   UNL     1      -7.524   6.948  70.058  1.00  0.00    -0.088 OA 
BRANCH   9  11
HETATM   11  C   UNL     1      -8.308   5.835  68.051  1.00  0.00    -0.103 A  
HETATM   12  C   UNL     1      -9.635   5.389  68.108  1.00  0.00    -0.124 A  
HETATM   13  C   UNL     1     -10.078   4.379  67.235  1.00  0.00    -0.101 A  
HETATM   14 CL   UNL     1     -10.830   6.023  69.186  1.00  0.00    -0.396 Cl 
HETATM   15  C   UNL     1      -9.212   3.773  66.325  1.00  0.00    -0.167 A  
HETATM   16  C   UNL     1      -7.911   4.259  66.224  1.00  0.00    -0.098 A  
HETATM   17  N   UNL     1      -9.698   2.870  65.377  1.00  0.00    -0.367 NA 
HETATM   18  H1  UNL     1      -9.065   2.427  64.712  1.00  0.00     0.000 HD 
HETATM   19  C   UNL     1      -7.455   5.257  67.090  1.00  0.00    -0.084 A  
HETATM   20  H2  UNL     1     -10.444   3.328  64.852  1.00  0.00     0.000 HD 
ENDBRANCH   9  11
ENDBRANCH   8   9
ENDBRANCH   7   8
ENDBRANCH   6   7
ENDBRANCH   3   6
ENDBRANCH   2   3
TORSDOF 7
ENDMDL
MODEL      344
REMARK 921   NORMALIZED FREE ENERGY PREDICTED BY IDOCK:   -2.30 KCAL/MOL
REMARK 922        TOTAL FREE ENERGY PREDICTED BY IDOCK:   -3.64 KCAL/MOL
REMARK 923 INTER-LIGAND FREE ENERGY PREDICTED BY IDOCK:   -3.12 KCAL/MOL
REMARK 924 INTRA-LIGAND FREE ENERGY PREDICTED BY IDOCK:   -0.52 KCAL/MOL
REMARK 927      BINDING AFFINITY PREDICTED BY RF-SCORE:    0.00 PKD
ROOT
HETATM    1  C   UNL     1     -11.922   8.642  72.259  1.00  0.00    -0.438 C  
HETATM    2  C   UNL     1     -11.709   7.177  71.900  1.00  0.00    -0.292 C  
ENDROOT
BRANCH   2   3
HETATM    3  N   UNL     1     -10.297   6.751  71.826  1.00  0.00    -0.199 NA 
BRANCH   3   4
HETATM    4  C   UNL     1      -9.997   5.543  72.614  1.00  0.00    -0.167 C  
HETATM    5  C   UNL     1     -11.114   5.028  73.518  1.00  0.00    -0.386 C  
ENDBRANCH   3   4
BRANCH   3   6
HETATM    6  C   UNL     1      -9.921   6.625  70.408  1.00  0.00    -0.175 C  
BRANCH   6   7
HETATM    7  C   UNL     1     -10.510   5.444  69.614  1.00  0.00    -0.291 C  
BRANCH   7   8
HETATM    8  O   UNL     1      -9.399   4.807  68.950  1.00  0.00    -0.116 OA 
BRANCH   8   9
HETATM    9  C   UNL     1      -9.466   4.846  67.591  1.00  0.00    -0.141 C  
HETATM   10  O   UNL     1     -10.166   4.109  66.921  1.00  0.00    -0.092 OA 
BRANCH   9  11
HETATM   11  C   UNL     1      -8.702   6.034  67.093  1.00  0.00    -0.109 A  
HETATM   12  C   UNL     1      -7.302   6.048  67.030  1.00  0.00    -0.076 A  
HETATM   13  C   UNL     1      -6.633   7.141  66.453  1.00  0.00    -0.052 A  
HETATM   14 CL   UNL     1      -6.288   4.767  67.599  1.00  0.00    -0.039 Cl 
HETATM   15  C   UNL     1      -7.330   8.247  65.967  1.00  0.00    -0.080 A  
HETATM   16  C   UNL     1      -8.722   8.207  65.971  1.00  0.00    -0.182 A  
HETATM   17  N   UNL     1      -6.662   9.261  65.277  1.00  0.00    -0.072 NA 
HETATM   18  H1  UNL     1      -7.172  10.069  64.921  1.00  0.00     0.000 HD 
HETATM   19  C   UNL     1      -9.401   7.129  66.549  1.00  0.00    -0.208 A  
HETATM   20  H2  UNL     1      -6.153   8.838  64.500  1.00  0.00     0.000 HD 
ENDBRANCH   9  11
ENDBRANCH   8   9
ENDBRANCH   7   8
ENDBRANCH   6   7
ENDBRANCH   3   6
ENDBRANCH   2   3
TORSDOF 7
ENDMDL
MODEL      345
REMARK 921   NORMALIZED FREE ENERGY PREDICTED BY IDOCK:   -2.30 KCAL/MOL
REMARK 922        TOTAL FREE ENERGY PREDICTED BY IDOCK:   -3.63 KCAL/MOL
REMARK 923 INTER-LIGAND FREE ENERGY PREDICTED BY IDOCK:   -3.52 KCAL/MOL
REMARK 924 INTRA-LIGAND FREE ENERGY PREDICTED BY IDOCK:   -0.11 KCAL/MOL
REMARK 927      BINDING AFFINITY PREDICTED BY RF-SCORE:    0.00 PKD
ROOT
HETATM    1  C   UNL     1      -8.885   7.796  72.313  1.00  0.00    -0.180 C  
HETATM    2  C   UNL     1      -9.184   8.945  71.360  1.00  0.00    -0.258 C  
ENDROOT
BRANCH   2   3
HETATM    3  N   UNL     1      -7.998   9.554  70.724  1.00  0.00    -0.298 NA 
BRANCH   3   4
HETATM    4  C   UNL     1      -6.735   8.860  71.032  1.00  0.00    -0.077 C  
HETATM    5  C   UNL     1      -5.635   9.704  71.670  1.00  0.00    -0.056 C  
ENDBRANCH   3   4
BRANCH   3   6
HETATM    6  C   UNL     1      -8.253   9.676  69.279  1.00  0.00    -0.123 C  
BRANCH   6   7
HETATM    7  C   UNL     1      -9.456  10.530  68.835  1.00  0.00    -0.193 C  
BRANCH   7   8
HETATM    8  O   UNL     1     -10.573   9.625  68.714  1.00  0.00    -0.209 OA 
BRANCH   8   9
HETATM    9  C   UNL     1     -10.453   8.724  67.702  1.00  0.00    -0.244 C  
HETATM   10  O   UNL     1     -10.357   9.026  66.526  1.00  0.00    -0.264 OA 
BRANCH   9  11
HETATM   11  C   UNL     1     -10.274   7.354  68.280  1.00  0.00    -0.213 A  
HETATM   12  C   UNL     1      -9.262   6.487  67.846  1.00  0.00    -0.110 A  
HETATM   13  C   UNL     1      -9.064   5.255  68.493  1.00  0.00    -0.127 A  
HETATM   14 CL   UNL     1      -8.174   6.833  66.547  1.00  0.00    -0.114 Cl 
HETATM   15  C   UNL     1      -9.880   4.846  69.547  1.00  0.00    -0.217 A  
HETATM   16  C   UNL     1     -10.844   5.733  70.020  1.00  0.00    -0.403 A  
HETATM   17  N   UNL     1      -9.587   3.684  70.264  1.00  0.00    -0.187 NA 
HETATM   18  H1  UNL     1     -10.183   3.386  71.035  1.00  0.00     0.000 HD 
HETATM   19  C   UNL     1     -11.058   6.959  69.382  1.00  0.00    -0.249 A  
HETATM   20  H2  UNL     1      -8.630   3.756  70.611  1.00  0.00     0.000 HD 
ENDBRANCH   9  11
ENDBRANCH   8   9
ENDBRANCH   7   8
ENDBRANCH   6   7
ENDBRANCH   3   6
ENDBRANCH   2   3
TORSDOF 7
ENDMDL
MODEL      346
REMARK 921   NORMALIZED FREE ENERGY PREDICTED BY IDOCK:   -2.29 KCAL/MOL
REMARK 922        TOTAL FREE ENERGY PREDICTED BY IDOCK:   -3.61 KCAL/MOL
REMARK 923 INTER-LIGAND FREE ENERGY PREDICTED BY IDOCK:   -3.40 KCAL/MOL
REMARK 924 INTRA-LIGAND FREE ENERGY PREDICTED BY IDOCK:   -0.22 KCAL/MOL
REMARK 927      BINDING AFFINITY PREDICTED BY RF-SCORE:    0.00 PKD
ROOT
HETATM    1  C   UNL     1     -12.728   7.932  71.860  1.00  0.00    -0.341 C  
HETATM    2  C   UNL     1     -11.526   8.831  72.121  1.00  0.00    -0.351 C  
ENDROOT
BRANCH   2   3
HETATM    3  N   UNL     1     -10.316   8.497  71.343  1.00  0.00    -0.220 NA 
BRANCH   3   4
HETATM    4  C   UNL     1      -9.648   7.260  71.783  1.00  0.00    -0.150 C  
HETATM    5  C   UNL     1      -8.420   6.830  70.985  1.00  0.00    -0.132 C  
ENDBRANCH   3   4
BRANCH   3   6
HETATM    6  C   UNL     1     -10.667   8.488  69.913  1.00  0.00    -0.224 C  
BRANCH   6   7
HETATM    7  C   UNL     1     -10.314   9.735  69.082  1.00  0.00    -0.211 C  
BRANCH   7   8
HETATM    8  O   UNL     1     -11.118   9.667  67.886  1.00  0.00    -0.205 OA 
BRANCH   8   9
HETATM    9  C   UNL     1     -10.444   9.971  66.744  1.00  0.00    -0.198 C  
HETATM   10  O   UNL     1     -10.731  10.899  66.008  1.00  0.00    -0.224 OA 
BRANCH   9  11
HETATM   11  C   UNL     1      -9.219   9.116  66.651  1.00  0.00    -0.207 A  
HETATM   12  C   UNL     1      -9.287   7.717  66.590  1.00  0.00    -0.188 A  
HETATM   13  C   UNL     1      -8.118   6.962  66.392  1.00  0.00    -0.113 A  
HETATM   14 CL   UNL     1     -10.754   6.808  66.714  1.00  0.00    -0.355 Cl 
HETATM   15  C   UNL     1      -6.867   7.570  66.291  1.00  0.00    -0.061 A  
HETATM   16  C   UNL     1      -6.805   8.961  66.287  1.00  0.00    -0.074 A  
HETATM   17  N   UNL     1      -5.737   6.818  65.961  1.00  0.00    -0.028 NA 
HETATM   18  H1  UNL     1      -4.823   7.263  65.886  1.00  0.00     0.000 HD 
HETATM   19  C   UNL     1      -7.958   9.725  66.491  1.00  0.00    -0.112 A  
HETATM   20  H2  UNL     1      -5.925   6.325  65.088  1.00  0.00     0.000 HD 
ENDBRANCH   9  11
ENDBRANCH   8   9
ENDBRANCH   7   8
ENDBRANCH   6   7
ENDBRANCH   3   6
ENDBRANCH   2   3
TORSDOF 7
ENDMDL
MODEL      347
REMARK 921   NORMALIZED FREE ENERGY PREDICTED BY IDOCK:   -2.26 KCAL/MOL
REMARK 922        TOTAL FREE ENERGY PREDICTED BY IDOCK:   -3.58 KCAL/MOL
REMARK 923 INTER-LIGAND FREE ENERGY PREDICTED BY IDOCK:   -3.44 KCAL/MOL
REMARK 924 INTRA-LIGAND FREE ENERGY PREDICTED BY IDOCK:   -0.14 KCAL/MOL
REMARK 927      BINDING AFFINITY PREDICTED BY RF-SCORE:    0.00 PKD
ROOT
HETATM    1  C   UNL     1      -7.269   9.483  65.375  1.00  0.00    -0.095 C  
HETATM    2  C   UNL     1      -8.751   9.172  65.205  1.00  0.00    -0.195 C  
ENDROOT
BRANCH   2   3
HETATM    3  N   UNL     1      -9.668  10.249  65.631  1.00  0.00    -0.228 NA 
BRANCH   3   4
HETATM    4  C   UNL     1     -10.331  10.943  64.513  1.00  0.00    -0.348 C  
HETATM    5  C   UNL     1      -9.460  11.268  63.303  1.00  0.00    -0.339 C  
ENDBRANCH   3   4
BRANCH   3   6
HETATM    6  C   UNL     1     -10.615   9.695  66.612  1.00  0.00    -0.103 C  
BRANCH   6   7
HETATM    7  C   UNL     1     -10.055   9.254  67.977  1.00  0.00    -0.193 C  
BRANCH   7   8
HETATM    8  O   UNL     1      -9.669   7.872  67.830  1.00  0.00    -0.147 OA 
BRANCH   8   9
HETATM    9  C   UNL     1     -10.544   6.988  68.382  1.00  0.00    -0.202 C  
HETATM   10  O   UNL     1     -11.356   6.342  67.744  1.00  0.00    -0.266 OA 
BRANCH   9  11
HETATM   11  C   UNL     1     -10.218   6.812  69.833  1.00  0.00    -0.211 A  
HETATM   12  C   UNL     1     -11.212   6.727  70.817  1.00  0.00    -0.304 A  
HETATM   13  C   UNL     1     -10.864   6.451  72.150  1.00  0.00    -0.272 A  
HETATM   14 CL   UNL     1     -12.904   6.912  70.509  1.00  0.00     0.013 Cl 
HETATM   15  C   UNL     1      -9.533   6.293  72.537  1.00  0.00    -0.142 A  
HETATM   16  C   UNL     1      -8.550   6.314  71.551  1.00  0.00    -0.131 A  
HETATM   17  N   UNL     1      -9.214   5.888  73.835  1.00  0.00    -0.126 NA 
HETATM   18  H1  UNL     1      -8.242   5.772  74.118  1.00  0.00     0.000 HD 
HETATM   19  C   UNL     1      -8.881   6.594  70.222  1.00  0.00    -0.152 A  
HETATM   20  H2  UNL     1      -9.708   5.016  74.028  1.00  0.00     0.000 HD 
ENDBRANCH   9  11
ENDBRANCH   8   9
ENDBRANCH   7   8
ENDBRANCH   6   7
ENDBRANCH   3   6
ENDBRANCH   2   3
TORSDOF 7
ENDMDL
MODEL      348
REMARK 921   NORMALIZED FREE ENERGY PREDICTED BY IDOCK:   -2.25 KCAL/MOL
REMARK 922        TOTAL FREE ENERGY PREDICTED BY IDOCK:   -3.56 KCAL/MOL
REMARK 923 INTER-LIGAND FREE ENERGY PREDICTED BY IDOCK:   -3.25 KCAL/MOL
REMARK 924 INTRA-LIGAND FREE ENERGY PREDICTED BY IDOCK:   -0.31 KCAL/MOL
REMARK 927      BINDING AFFINITY PREDICTED BY RF-SCORE:    0.00 PKD
ROOT
HETATM    1  C   UNL     1      -6.520   7.097  66.068  1.00  0.00    -0.051 C  
HETATM    2  C   UNL     1      -6.843   5.829  65.289  1.00  0.00    -0.051 C  
ENDROOT
BRANCH   2   3
HETATM    3  N   UNL     1      -7.990   5.054  65.805  1.00  0.00    -0.105 NA 
BRANCH   3   4
HETATM    4  C   UNL     1      -8.173   3.750  65.146  1.00  0.00    -0.097 C  
HETATM    5  C   UNL     1      -9.157   3.710  63.980  1.00  0.00    -0.119 C  
ENDBRANCH   3   4
BRANCH   3   6
HETATM    6  C   UNL     1      -7.863   4.951  67.268  1.00  0.00    -0.095 C  
BRANCH   6   7
HETATM    7  C   UNL     1      -9.157   4.981  68.103  1.00  0.00    -0.115 C  
BRANCH   7   8
HETATM    8  O   UNL     1      -9.351   6.354  68.502  1.00  0.00    -0.124 OA 
BRANCH   8   9
HETATM    9  C   UNL     1     -10.365   6.537  69.390  1.00  0.00    -0.205 C  
HETATM   10  O   UNL     1     -11.518   6.197  69.190  1.00  0.00    -0.379 OA 
BRANCH   9  11
HETATM   11  C   UNL     1      -9.804   7.040  70.684  1.00  0.00    -0.187 A  
HETATM   12  C   UNL     1     -10.390   8.098  71.391  1.00  0.00    -0.208 A  
HETATM   13  C   UNL     1      -9.894   8.463  72.655  1.00  0.00    -0.329 A  
HETATM   14 CL   UNL     1     -11.746   9.013  70.828  1.00  0.00    -0.308 Cl 
HETATM   15  C   UNL     1      -8.795   7.816  73.220  1.00  0.00    -0.221 A  
HETATM   16  C   UNL     1      -8.252   6.724  72.548  1.00  0.00    -0.104 A  
HETATM   17  N   UNL     1      -8.400   8.099  74.529  1.00  0.00    -0.417 NA 
HETATM   18  H1  UNL     1      -7.597   7.626  74.942  1.00  0.00     0.000 HD 
HETATM   19  C   UNL     1      -8.730   6.354  71.287  1.00  0.00    -0.135 A  
HETATM   20  H2  UNL     1      -9.203   7.959  75.143  1.00  0.00     0.000 HD 
ENDBRANCH   9  11
ENDBRANCH   8   9
ENDBRANCH   7   8
ENDBRANCH   6   7
ENDBRANCH   3   6
ENDBRANCH   2   3
TORSDOF 7
ENDMDL
MODEL      349
REMARK 921   NORMALIZED FREE ENERGY PREDICTED BY IDOCK:   -2.24 KCAL/MOL
REMARK 922        TOTAL FREE ENERGY PREDICTED BY IDOCK:   -3.54 KCAL/MOL
REMARK 923 INTER-LIGAND FREE ENERGY PREDICTED BY IDOCK:   -2.94 KCAL/MOL
REMARK 924 INTRA-LIGAND FREE ENERGY PREDICTED BY IDOCK:   -0.60 KCAL/MOL
REMARK 927      BINDING AFFINITY PREDICTED BY RF-SCORE:    0.00 PKD
ROOT
HETATM    1  C   UNL     1      -8.399   7.976  72.678  1.00  0.00    -0.221 C  
HETATM    2  C   UNL     1      -8.312   8.906  71.474  1.00  0.00    -0.098 C  
ENDROOT
BRANCH   2   3
HETATM    3  N   UNL     1      -7.199   8.622  70.545  1.00  0.00    -0.048 NA 
BRANCH   3   4
HETATM    4  C   UNL     1      -6.317   7.529  70.989  1.00  0.00    -0.035 C  
HETATM    5  C   UNL     1      -5.752   6.625  69.896  1.00  0.00    -0.018 C  
ENDBRANCH   3   4
BRANCH   3   6
HETATM    6  C   UNL     1      -7.758   8.403  69.200  1.00  0.00    -0.092 C  
BRANCH   6   7
HETATM    7  C   UNL     1      -8.620   9.526  68.593  1.00  0.00    -0.119 C  
BRANCH   7   8
HETATM    8  O   UNL     1      -9.913   8.945  68.326  1.00  0.00    -0.163 OA 
BRANCH   8   9
HETATM    9  C   UNL     1     -10.177   8.758  67.004  1.00  0.00    -0.281 C  
HETATM   10  O   UNL     1     -10.351   9.664  66.208  1.00  0.00    -0.239 OA 
BRANCH   9  11
HETATM   11  C   UNL     1     -10.034   7.305  66.672  1.00  0.00    -0.246 A  
HETATM   12  C   UNL     1      -8.945   6.809  65.943  1.00  0.00    -0.070 A  
HETATM   13  C   UNL     1      -8.796   5.425  65.750  1.00  0.00    -0.151 A  
HETATM   14 CL   UNL     1      -7.703   7.798  65.256  1.00  0.00    -0.095 Cl 
HETATM   15  C   UNL     1      -9.735   4.517  66.240  1.00  0.00    -0.208 A  
HETATM   16  C   UNL     1     -10.782   5.003  67.018  1.00  0.00    -0.025 A  
HETATM   17  N   UNL     1      -9.504   3.143  66.157  1.00  0.00    -0.360 NA 
HETATM   18  H1  UNL     1     -10.190   2.479  66.515  1.00  0.00     0.000 HD 
HETATM   19  C   UNL     1     -10.947   6.377  67.212  1.00  0.00    -0.474 A  
HETATM   20  H2  UNL     1      -8.606   2.942  66.598  1.00  0.00     0.000 HD 
ENDBRANCH   9  11
ENDBRANCH   8   9
ENDBRANCH   7   8
ENDBRANCH   6   7
ENDBRANCH   3   6
ENDBRANCH   2   3
TORSDOF 7
ENDMDL
MODEL      350
REMARK 921   NORMALIZED FREE ENERGY PREDICTED BY IDOCK:   -2.21 KCAL/MOL
REMARK 922        TOTAL FREE ENERGY PREDICTED BY IDOCK:   -3.50 KCAL/MOL
REMARK 923 INTER-LIGAND FREE ENERGY PREDICTED BY IDOCK:   -3.85 KCAL/MOL
REMARK 924 INTRA-LIGAND FREE ENERGY PREDICTED BY IDOCK:    0.34 KCAL/MOL
REMARK 927      BINDING AFFINITY PREDICTED BY RF-SCORE:    0.00 PKD
ROOT
HETATM    1  C   UNL     1     -12.555   6.487  71.800  1.00  0.00    -0.240 C  
HETATM    2  C   UNL     1     -11.809   7.781  72.101  1.00  0.00    -0.324 C  
ENDROOT
BRANCH   2   3
HETATM    3  N   UNL     1     -10.410   7.608  72.540  1.00  0.00    -0.232 NA 
BRANCH   3   4
HETATM    4  C   UNL     1      -9.820   6.315  72.153  1.00  0.00    -0.156 C  
HETATM    5  C   UNL     1      -9.456   5.366  73.292  1.00  0.00    -0.146 C  
ENDBRANCH   3   4
BRANCH   3   6
HETATM    6  C   UNL     1      -9.627   8.764  72.072  1.00  0.00    -0.286 C  
BRANCH   6   7
HETATM    7  C   UNL     1      -9.516   8.985  70.552  1.00  0.00    -0.221 C  
BRANCH   7   8
HETATM    8  O   UNL     1      -8.276   9.689  70.334  1.00  0.00    -0.183 OA 
BRANCH   8   9
HETATM    9  C   UNL     1      -7.940   9.832  69.023  1.00  0.00    -0.096 C  
HETATM   10  O   UNL     1      -7.089  10.604  68.617  1.00  0.00    -0.068 OA 
BRANCH   9  11
HETATM   11  C   UNL     1      -8.639   8.782  68.217  1.00  0.00    -0.134 A  
HETATM   12  C   UNL     1      -8.223   7.443  68.214  1.00  0.00    -0.125 A  
HETATM   13  C   UNL     1      -8.975   6.473  67.530  1.00  0.00    -0.110 A  
HETATM   14 CL   UNL     1      -6.820   6.858  69.040  1.00  0.00    -0.066 Cl 
HETATM   15  C   UNL     1     -10.121   6.813  66.811  1.00  0.00    -0.183 A  
HETATM   16  C   UNL     1     -10.570   8.130  66.865  1.00  0.00    -0.311 A  
HETATM   17  N   UNL     1     -10.928   5.821  66.251  1.00  0.00    -0.737 NA 
HETATM   18  H1  UNL     1     -11.766   6.069  65.726  1.00  0.00     0.000 HD 
HETATM   19  C   UNL     1      -9.829   9.107  67.536  1.00  0.00    -0.227 A  
HETATM   20  H2  UNL     1     -11.196   5.171  66.990  1.00  0.00     0.000 HD 
ENDBRANCH   9  11
ENDBRANCH   8   9
ENDBRANCH   7   8
ENDBRANCH   6   7
ENDBRANCH   3   6
ENDBRANCH   2   3
TORSDOF 7
ENDMDL
MODEL      351
REMARK 921   NORMALIZED FREE ENERGY PREDICTED BY IDOCK:   -2.20 KCAL/MOL
REMARK 922        TOTAL FREE ENERGY PREDICTED BY IDOCK:   -3.50 KCAL/MOL
REMARK 923 INTER-LIGAND FREE ENERGY PREDICTED BY IDOCK:   -3.51 KCAL/MOL
REMARK 924 INTRA-LIGAND FREE ENERGY PREDICTED BY IDOCK:    0.01 KCAL/MOL
REMARK 927      BINDING AFFINITY PREDICTED BY RF-SCORE:    0.00 PKD
ROOT
HETATM    1  C   UNL     1      -5.154   8.684  68.966  1.00  0.00    -0.032 C  
HETATM    2  C   UNL     1      -6.354   9.218  69.739  1.00  0.00    -0.039 C  
ENDROOT
BRANCH   2   3
HETATM    3  N   UNL     1      -6.416  10.689  69.857  1.00  0.00    -0.108 NA 
BRANCH   3   4
HETATM    4  C   UNL     1      -5.155  11.304  70.305  1.00  0.00    -0.079 C  
HETATM    5  C   UNL     1      -5.265  12.345  71.416  1.00  0.00    -0.085 C  
ENDBRANCH   3   4
BRANCH   3   6
HETATM    6  C   UNL     1      -6.907  11.238  68.582  1.00  0.00    -0.076 C  
BRANCH   6   7
HETATM    7  C   UNL     1      -6.304  12.570  68.097  1.00  0.00    -0.076 C  
BRANCH   7   8
HETATM    8  O   UNL     1      -7.310  13.195  67.274  1.00  0.00    -0.137 OA 
BRANCH   8   9
HETATM    9  C   UNL     1      -8.331  13.759  67.975  1.00  0.00    -0.171 C  
HETATM   10  O   UNL     1      -8.201  14.287  69.065  1.00  0.00    -0.093 OA 
BRANCH   9  11
HETATM   11  C   UNL     1      -9.561  13.785  67.121  1.00  0.00    -0.244 A  
HETATM   12  C   UNL     1     -10.144  12.615  66.617  1.00  0.00    -0.241 A  
HETATM   13  C   UNL     1     -11.359  12.679  65.913  1.00  0.00    -0.373 A  
HETATM   14 CL   UNL     1      -9.482  11.030  66.822  1.00  0.00    -0.197 Cl 
HETATM   15  C   UNL     1     -11.993  13.896  65.665  1.00  0.00    -0.392 A  
HETATM   16  C   UNL     1     -11.448  15.052  66.219  1.00  0.00    -0.214 A  
HETATM   17  N   UNL     1     -13.262  13.930  65.084  1.00  0.00    -0.690 NA 
HETATM   18  H1  UNL     1     -13.726  14.820  64.903  1.00  0.00     0.000 HD 
HETATM   19  C   UNL     1     -10.237  15.004  66.916  1.00  0.00    -0.258 A  
HETATM   20  H2  UNL     1     -13.888  13.354  65.647  1.00  0.00     0.000 HD 
ENDBRANCH   9  11
ENDBRANCH   8   9
ENDBRANCH   7   8
ENDBRANCH   6   7
ENDBRANCH   3   6
ENDBRANCH   2   3
TORSDOF 7
ENDMDL
MODEL      352
REMARK 921   NORMALIZED FREE ENERGY PREDICTED BY IDOCK:   -2.18 KCAL/MOL
REMARK 922        TOTAL FREE ENERGY PREDICTED BY IDOCK:   -3.47 KCAL/MOL
REMARK 923 INTER-LIGAND FREE ENERGY PREDICTED BY IDOCK:   -3.39 KCAL/MOL
REMARK 924 INTRA-LIGAND FREE ENERGY PREDICTED BY IDOCK:   -0.08 KCAL/MOL
REMARK 927      BINDING AFFINITY PREDICTED BY RF-SCORE:    0.00 PKD
ROOT
HETATM    1  C   UNL     1     -10.431   3.940  64.354  1.00  0.00    -0.238 C  
HETATM    2  C   UNL     1     -10.470   4.706  65.670  1.00  0.00    -0.227 C  
ENDROOT
BRANCH   2   3
HETATM    3  N   UNL     1      -9.184   4.770  66.394  1.00  0.00    -0.128 NA 
BRANCH   3   4
HETATM    4  C   UNL     1      -8.091   4.040  65.730  1.00  0.00    -0.097 C  
HETATM    5  C   UNL     1      -7.282   3.086  66.605  1.00  0.00    -0.065 C  
ENDBRANCH   3   4
BRANCH   3   6
HETATM    6  C   UNL     1      -8.864   6.184  66.652  1.00  0.00    -0.127 C  
BRANCH   6   7
HETATM    7  C   UNL     1      -9.294   6.779  68.006  1.00  0.00    -0.118 C  
BRANCH   7   8
HETATM    8  O   UNL     1      -9.462   8.196  67.791  1.00  0.00    -0.139 OA 
BRANCH   8   9
HETATM    9  C   UNL     1     -10.363   8.783  68.625  1.00  0.00    -0.205 C  
HETATM   10  O   UNL     1     -10.937   8.200  69.529  1.00  0.00    -0.176 OA 
BRANCH   9  11
HETATM   11  C   UNL     1     -10.383  10.258  68.371  1.00  0.00    -0.202 A  
HETATM   12  C   UNL     1     -11.308  11.110  68.990  1.00  0.00    -0.276 A  
HETATM   13  C   UNL     1     -11.219  12.500  68.807  1.00  0.00    -0.318 A  
HETATM   14 CL   UNL     1     -12.585  10.572  70.026  1.00  0.00    -0.276 Cl 
HETATM   15  C   UNL     1     -10.245  13.065  67.984  1.00  0.00    -0.233 A  
HETATM   16  C   UNL     1      -9.287  12.227  67.420  1.00  0.00    -0.183 A  
HETATM   17  N   UNL     1     -10.086  14.451  67.920  1.00  0.00    -0.226 NA 
HETATM   18  H1  UNL     1      -9.374  14.864  67.319  1.00  0.00     0.000 HD 
HETATM   19  C   UNL     1      -9.367  10.841  67.588  1.00  0.00    -0.156 A  
HETATM   20  H2  UNL     1      -9.946  14.802  68.868  1.00  0.00     0.000 HD 
ENDBRANCH   9  11
ENDBRANCH   8   9
ENDBRANCH   7   8
ENDBRANCH   6   7
ENDBRANCH   3   6
ENDBRANCH   2   3
TORSDOF 7
ENDMDL
MODEL      353
REMARK 921   NORMALIZED FREE ENERGY PREDICTED BY IDOCK:   -2.16 KCAL/MOL
REMARK 922        TOTAL FREE ENERGY PREDICTED BY IDOCK:   -3.44 KCAL/MOL
REMARK 923 INTER-LIGAND FREE ENERGY PREDICTED BY IDOCK:   -3.13 KCAL/MOL
REMARK 924 INTRA-LIGAND FREE ENERGY PREDICTED BY IDOCK:   -0.30 KCAL/MOL
REMARK 927      BINDING AFFINITY PREDICTED BY RF-SCORE:    0.00 PKD
ROOT
HETATM    1  C   UNL     1     -12.913  10.259  71.726  1.00  0.00    -0.574 C  
HETATM    2  C   UNL     1     -12.632   8.796  72.048  1.00  0.00    -0.385 C  
ENDROOT
BRANCH   2   3
HETATM    3  N   UNL     1     -11.219   8.386  71.907  1.00  0.00    -0.288 NA 
BRANCH   3   4
HETATM    4  C   UNL     1     -10.694   7.652  73.070  1.00  0.00    -0.391 C  
HETATM    5  C   UNL     1     -10.882   6.137  73.058  1.00  0.00    -0.284 C  
ENDBRANCH   3   4
BRANCH   3   6
HETATM    6  C   UNL     1     -11.072   7.648  70.642  1.00  0.00    -0.257 C  
BRANCH   6   7
HETATM    7  C   UNL     1     -11.025   8.465  69.337  1.00  0.00    -0.002 C  
BRANCH   7   8
HETATM    8  O   UNL     1      -9.978   7.886  68.532  1.00  0.00    -0.176 OA 
BRANCH   8   9
HETATM    9  C   UNL     1      -8.770   8.498  68.667  1.00  0.00    -0.139 C  
HETATM   10  O   UNL     1      -8.541   9.389  69.466  1.00  0.00    -0.136 OA 
BRANCH   9  11
HETATM   11  C   UNL     1      -7.758   7.783  67.825  1.00  0.00    -0.122 A  
HETATM   12  C   UNL     1      -7.316   6.488  68.128  1.00  0.00    -0.090 A  
HETATM   13  C   UNL     1      -6.449   5.815  67.250  1.00  0.00    -0.044 A  
HETATM   14 CL   UNL     1      -7.790   5.603  69.537  1.00  0.00    -0.090 Cl 
HETATM   15  C   UNL     1      -5.979   6.421  66.085  1.00  0.00    -0.025 A  
HETATM   16  C   UNL     1      -6.467   7.682  65.751  1.00  0.00    -0.042 A  
HETATM   17  N   UNL     1      -5.230   5.693  65.159  1.00  0.00    -0.009 NA 
HETATM   18  H1  UNL     1      -4.886   6.136  64.307  1.00  0.00     0.000 HD 
HETATM   19  C   UNL     1      -7.324   8.366  66.618  1.00  0.00    -0.082 A  
HETATM   20  H2  UNL     1      -5.764   4.865  64.895  1.00  0.00     0.000 HD 
ENDBRANCH   9  11
ENDBRANCH   8   9
ENDBRANCH   7   8
ENDBRANCH   6   7
ENDBRANCH   3   6
ENDBRANCH   2   3
TORSDOF 7
ENDMDL
MODEL      354
REMARK 921   NORMALIZED FREE ENERGY PREDICTED BY IDOCK:   -2.08 KCAL/MOL
REMARK 922        TOTAL FREE ENERGY PREDICTED BY IDOCK:   -3.32 KCAL/MOL
REMARK 923 INTER-LIGAND FREE ENERGY PREDICTED BY IDOCK:   -3.80 KCAL/MOL
REMARK 924 INTRA-LIGAND FREE ENERGY PREDICTED BY IDOCK:    0.48 KCAL/MOL
REMARK 927      BINDING AFFINITY PREDICTED BY RF-SCORE:    0.00 PKD
ROOT
HETATM    1  C   UNL     1     -13.861   7.571  71.616  1.00  0.00    -0.486 C  
HETATM    2  C   UNL     1     -12.497   8.015  72.128  1.00  0.00    -0.296 C  
ENDROOT
BRANCH   2   3
HETATM    3  N   UNL     1     -11.351   7.247  71.599  1.00  0.00    -0.249 NA 
BRANCH   3   4
HETATM    4  C   UNL     1     -11.279   5.864  72.100  1.00  0.00    -0.287 C  
HETATM    5  C   UNL     1     -10.591   5.665  73.448  1.00  0.00    -0.288 C  
ENDBRANCH   3   4
BRANCH   3   6
HETATM    6  C   UNL     1     -11.373   7.330  70.129  1.00  0.00    -0.207 C  
BRANCH   6   7
HETATM    7  C   UNL     1     -10.262   8.144  69.441  1.00  0.00    -0.211 C  
BRANCH   7   8
HETATM    8  O   UNL     1      -9.043   7.849  70.154  1.00  0.00    -0.151 OA 
BRANCH   8   9
HETATM    9  C   UNL     1      -8.128   7.151  69.427  1.00  0.00    -0.130 C  
HETATM   10  O   UNL     1      -6.956   7.031  69.739  1.00  0.00    -0.055 OA 
BRANCH   9  11
HETATM   11  C   UNL     1      -8.828   6.425  68.321  1.00  0.00    -0.115 A  
HETATM   12  C   UNL     1      -8.962   6.971  67.037  1.00  0.00    -0.125 A  
HETATM   13  C   UNL     1      -9.528   6.208  66.001  1.00  0.00    -0.046 A  
HETATM   14 CL   UNL     1      -8.442   8.561  66.596  1.00  0.00    -0.111 Cl 
HETATM   15  C   UNL     1     -10.002   4.915  66.225  1.00  0.00    -0.234 A  
HETATM   16  C   UNL     1      -9.811   4.348  67.482  1.00  0.00    -0.180 A  
HETATM   17  N   UNL     1     -10.436   4.124  65.159  1.00  0.00    -0.480 NA 
HETATM   18  H1  UNL     1     -10.782   3.179  65.323  1.00  0.00     0.000 HD 
HETATM   19  C   UNL     1      -9.256   5.098  68.524  1.00  0.00    -0.145 A  
HETATM   20  H2  UNL     1      -9.685   4.074  64.471  1.00  0.00     0.000 HD 
ENDBRANCH   9  11
ENDBRANCH   8   9
ENDBRANCH   7   8
ENDBRANCH   6   7
ENDBRANCH   3   6
ENDBRANCH   2   3
TORSDOF 7
ENDMDL
MODEL      355
REMARK 921   NORMALIZED FREE ENERGY PREDICTED BY IDOCK:   -2.07 KCAL/MOL
REMARK 922        TOTAL FREE ENERGY PREDICTED BY IDOCK:   -3.31 KCAL/MOL
REMARK 923 INTER-LIGAND FREE ENERGY PREDICTED BY IDOCK:   -3.20 KCAL/MOL
REMARK 924 INTRA-LIGAND FREE ENERGY PREDICTED BY IDOCK:   -0.11 KCAL/MOL
REMARK 927      BINDING AFFINITY PREDICTED BY RF-SCORE:    0.00 PKD
ROOT
HETATM    1  C   UNL     1      -9.096   5.339  65.593  1.00  0.00    -0.158 C  
HETATM    2  C   UNL     1      -7.672   5.828  65.825  1.00  0.00    -0.095 C  
ENDROOT
BRANCH   2   3
HETATM    3  N   UNL     1      -7.545   7.275  66.092  1.00  0.00    -0.086 NA 
BRANCH   3   4
HETATM    4  C   UNL     1      -7.704   8.117  64.894  1.00  0.00    -0.116 C  
HETATM    5  C   UNL     1      -6.471   8.896  64.442  1.00  0.00    -0.071 C  
ENDBRANCH   3   4
BRANCH   3   6
HETATM    6  C   UNL     1      -8.471   7.633  67.178  1.00  0.00    -0.121 C  
BRANCH   6   7
HETATM    7  C   UNL     1      -7.968   7.484  68.626  1.00  0.00    -0.123 C  
BRANCH   7   8
HETATM    8  O   UNL     1      -8.815   6.498  69.251  1.00  0.00    -0.132 OA 
BRANCH   8   9
HETATM    9  C   UNL     1      -9.629   6.997  70.220  1.00  0.00    -0.168 C  
HETATM   10  O   UNL     1     -10.103   8.119  70.202  1.00  0.00    -0.190 OA 
BRANCH   9  11
HETATM   11  C   UNL     1      -9.982   5.904  71.180  1.00  0.00    -0.236 A  
HETATM   12  C   UNL     1     -10.966   6.064  72.165  1.00  0.00    -0.267 A  
HETATM   13  C   UNL     1     -11.341   4.976  72.972  1.00  0.00    -0.374 A  
HETATM   14 CL   UNL     1     -11.813   7.543  72.463  1.00  0.00    -0.295 Cl 
HETATM   15  C   UNL     1     -10.726   3.730  72.845  1.00  0.00    -0.110 A  
HETATM   16  C   UNL     1      -9.795   3.552  71.825  1.00  0.00    -0.230 A  
HETATM   17  N   UNL     1     -11.201   2.628  73.558  1.00  0.00    -0.215 NA 
HETATM   18  H1  UNL     1     -10.753   1.717  73.465  1.00  0.00     0.000 HD 
HETATM   19  C   UNL     1      -9.407   4.627  71.020  1.00  0.00    -0.209 A  
HETATM   20  H2  UNL     1     -12.194   2.517  73.352  1.00  0.00     0.000 HD 
ENDBRANCH   9  11
ENDBRANCH   8   9
ENDBRANCH   7   8
ENDBRANCH   6   7
ENDBRANCH   3   6
ENDBRANCH   2   3
TORSDOF 7
ENDMDL
MODEL      356
REMARK 921   NORMALIZED FREE ENERGY PREDICTED BY IDOCK:   -2.05 KCAL/MOL
REMARK 922        TOTAL FREE ENERGY PREDICTED BY IDOCK:   -3.28 KCAL/MOL
REMARK 923 INTER-LIGAND FREE ENERGY PREDICTED BY IDOCK:   -3.49 KCAL/MOL
REMARK 924 INTRA-LIGAND FREE ENERGY PREDICTED BY IDOCK:    0.21 KCAL/MOL
REMARK 927      BINDING AFFINITY PREDICTED BY RF-SCORE:    0.00 PKD
ROOT
HETATM    1  C   UNL     1     -11.392  11.947  65.029  1.00  0.00    -0.333 C  
HETATM    2  C   UNL     1     -11.361  12.107  66.544  1.00  0.00    -0.350 C  
ENDROOT
BRANCH   2   3
HETATM    3  N   UNL     1     -10.164  12.790  67.076  1.00  0.00    -0.240 NA 
BRANCH   3   4
HETATM    4  C   UNL     1     -10.304  14.253  67.166  1.00  0.00    -0.262 C  
HETATM    5  C   UNL     1      -9.683  15.066  66.033  1.00  0.00    -0.359 C  
ENDBRANCH   3   4
BRANCH   3   6
HETATM    6  C   UNL     1      -9.800  12.163  68.357  1.00  0.00    -0.200 C  
BRANCH   6   7
HETATM    7  C   UNL     1     -10.274  10.720  68.608  1.00  0.00    -0.185 C  
BRANCH   7   8
HETATM    8  O   UNL     1      -9.496   9.879  67.731  1.00  0.00    -0.140 OA 
BRANCH   8   9
HETATM    9  C   UNL     1      -8.425   9.291  68.330  1.00  0.00    -0.120 C  
HETATM   10  O   UNL     1      -7.364   9.853  68.536  1.00  0.00    -0.076 OA 
BRANCH   9  11
HETATM   11  C   UNL     1      -8.825   7.943  68.844  1.00  0.00    -0.142 A  
HETATM   12  C   UNL     1      -8.095   7.275  69.836  1.00  0.00    -0.127 A  
HETATM   13  C   UNL     1      -8.569   6.062  70.366  1.00  0.00    -0.133 A  
HETATM   14 CL   UNL     1      -6.612   7.857  70.512  1.00  0.00    -0.037 Cl 
HETATM   15  C   UNL     1      -9.745   5.475  69.900  1.00  0.00    -0.174 A  
HETATM   16  C   UNL     1     -10.504   6.168  68.961  1.00  0.00    -0.305 A  
HETATM   17  N   UNL     1     -10.271   4.344  70.528  1.00  0.00    -0.113 NA 
HETATM   18  H1  UNL     1     -11.131   3.915  70.188  1.00  0.00     0.000 HD 
HETATM   19  C   UNL     1     -10.041   7.371  68.419  1.00  0.00    -0.196 A  
HETATM   20  H2  UNL     1     -10.391   4.555  71.519  1.00  0.00     0.000 HD 
ENDBRANCH   9  11
ENDBRANCH   8   9
ENDBRANCH   7   8
ENDBRANCH   6   7
ENDBRANCH   3   6
ENDBRANCH   2   3
TORSDOF 7
ENDMDL
MODEL      357
REMARK 921   NORMALIZED FREE ENERGY PREDICTED BY IDOCK:   -2.05 KCAL/MOL
REMARK 922        TOTAL FREE ENERGY PREDICTED BY IDOCK:   -3.28 KCAL/MOL
REMARK 923 INTER-LIGAND FREE ENERGY PREDICTED BY IDOCK:   -2.68 KCAL/MOL
REMARK 924 INTRA-LIGAND FREE ENERGY PREDICTED BY IDOCK:   -0.60 KCAL/MOL
REMARK 927      BINDING AFFINITY PREDICTED BY RF-SCORE:    0.00 PKD
ROOT
HETATM    1  C   UNL     1      -9.247  10.353  63.921  1.00  0.00    -0.301 C  
HETATM    2  C   UNL     1      -9.349  10.791  65.377  1.00  0.00    -0.207 C  
ENDROOT
BRANCH   2   3
HETATM    3  N   UNL     1      -9.318   9.692  66.363  1.00  0.00    -0.164 NA 
BRANCH   3   4
HETATM    4  C   UNL     1     -10.641   9.341  66.906  1.00  0.00    -0.169 C  
HETATM    5  C   UNL     1     -10.671   8.831  68.345  1.00  0.00    -0.112 C  
ENDBRANCH   3   4
BRANCH   3   6
HETATM    6  C   UNL     1      -8.617   8.545  65.762  1.00  0.00    -0.168 C  
BRANCH   6   7
HETATM    7  C   UNL     1      -7.329   8.053  66.448  1.00  0.00    -0.083 C  
BRANCH   7   8
HETATM    8  O   UNL     1      -7.677   7.790  67.823  1.00  0.00    -0.116 OA 
BRANCH   8   9
HETATM    9  C   UNL     1      -7.723   6.468  68.143  1.00  0.00    -0.105 C  
HETATM   10  O   UNL     1      -7.119   5.598  67.539  1.00  0.00    -0.070 OA 
BRANCH   9  11
HETATM   11  C   UNL     1      -8.464   6.297  69.432  1.00  0.00    -0.125 A  
HETATM   12  C   UNL     1      -9.669   5.586  69.513  1.00  0.00    -0.161 A  
HETATM   13  C   UNL     1     -10.271   5.358  70.762  1.00  0.00    -0.313 A  
HETATM   14 CL   UNL     1     -10.495   4.915  68.150  1.00  0.00    -0.031 Cl 
HETATM   15  C   UNL     1      -9.716   5.857  71.940  1.00  0.00    -0.151 A  
HETATM   16  C   UNL     1      -8.487   6.508  71.869  1.00  0.00    -0.119 A  
HETATM   17  N   UNL     1     -10.252   5.508  73.181  1.00  0.00    -0.180 NA 
HETATM   18  H1  UNL     1      -9.846   5.873  74.042  1.00  0.00     0.000 HD 
HETATM   19  C   UNL     1      -7.880   6.749  70.633  1.00  0.00    -0.105 A  
HETATM   20  H2  UNL     1     -10.274   4.490  73.245  1.00  0.00     0.000 HD 
ENDBRANCH   9  11
ENDBRANCH   8   9
ENDBRANCH   7   8
ENDBRANCH   6   7
ENDBRANCH   3   6
ENDBRANCH   2   3
TORSDOF 7
ENDMDL
MODEL      358
REMARK 921   NORMALIZED FREE ENERGY PREDICTED BY IDOCK:   -2.03 KCAL/MOL
REMARK 922        TOTAL FREE ENERGY PREDICTED BY IDOCK:   -3.26 KCAL/MOL
REMARK 923 INTER-LIGAND FREE ENERGY PREDICTED BY IDOCK:   -2.89 KCAL/MOL
REMARK 924 INTRA-LIGAND FREE ENERGY PREDICTED BY IDOCK:   -0.37 KCAL/MOL
REMARK 927      BINDING AFFINITY PREDICTED BY RF-SCORE:    0.00 PKD
ROOT
HETATM    1  C   UNL     1      -7.164   9.668  65.156  1.00  0.00    -0.115 C  
HETATM    2  C   UNL     1      -7.548  10.945  65.894  1.00  0.00    -0.057 C  
ENDROOT
BRANCH   2   3
HETATM    3  N   UNL     1      -8.998  11.136  66.098  1.00  0.00    -0.191 NA 
BRANCH   3   4
HETATM    4  C   UNL     1      -9.673  11.811  64.975  1.00  0.00    -0.187 C  
HETATM    5  C   UNL     1     -10.561  10.937  64.093  1.00  0.00    -0.327 C  
ENDBRANCH   3   4
BRANCH   3   6
HETATM    6  C   UNL     1      -9.598   9.835  66.436  1.00  0.00    -0.200 C  
BRANCH   6   7
HETATM    7  C   UNL     1      -9.835   9.522  67.925  1.00  0.00    -0.156 C  
BRANCH   7   8
HETATM    8  O   UNL     1      -8.612   8.934  68.416  1.00  0.00    -0.132 OA 
BRANCH   8   9
HETATM    9  C   UNL     1      -8.706   8.420  69.672  1.00  0.00    -0.133 C  
HETATM   10  O   UNL     1      -8.715   9.094  70.687  1.00  0.00    -0.192 OA 
BRANCH   9  11
HETATM   11  C   UNL     1      -8.977   6.950  69.584  1.00  0.00    -0.144 A  
HETATM   12  C   UNL     1      -8.152   6.080  68.858  1.00  0.00    -0.104 A  
HETATM   13  C   UNL     1      -8.382   4.694  68.895  1.00  0.00    -0.085 A  
HETATM   14 CL   UNL     1      -6.801   6.589  67.905  1.00  0.00    -0.071 Cl 
HETATM   15  C   UNL     1      -9.447   4.152  69.614  1.00  0.00    -0.189 A  
HETATM   16  C   UNL     1     -10.228   5.008  70.386  1.00  0.00    -0.324 A  
HETATM   17  N   UNL     1      -9.581   2.769  69.749  1.00  0.00    -0.075 NA 
HETATM   18  H1  UNL     1     -10.359   2.372  70.275  1.00  0.00     0.000 HD 
HETATM   19  C   UNL     1     -10.016   6.389  70.354  1.00  0.00    -0.213 A  
HETATM   20  H2  UNL     1      -8.713   2.400  70.137  1.00  0.00     0.000 HD 
ENDBRANCH   9  11
ENDBRANCH   8   9
ENDBRANCH   7   8
ENDBRANCH   6   7
ENDBRANCH   3   6
ENDBRANCH   2   3
TORSDOF 7
ENDMDL
MODEL      359
REMARK 921   NORMALIZED FREE ENERGY PREDICTED BY IDOCK:   -1.96 KCAL/MOL
REMARK 922        TOTAL FREE ENERGY PREDICTED BY IDOCK:   -3.15 KCAL/MOL
REMARK 923 INTER-LIGAND FREE ENERGY PREDICTED BY IDOCK:   -3.48 KCAL/MOL
REMARK 924 INTRA-LIGAND FREE ENERGY PREDICTED BY IDOCK:    0.33 KCAL/MOL
REMARK 927      BINDING AFFINITY PREDICTED BY RF-SCORE:    0.00 PKD
ROOT
HETATM    1  C   UNL     1     -13.094  12.102  64.291  1.00  0.00    -0.019 C  
HETATM    2  C   UNL     1     -12.774  12.888  65.556  1.00  0.00    -0.145 C  
ENDROOT
BRANCH   2   3
HETATM    3  N   UNL     1     -11.345  12.917  65.928  1.00  0.00    -0.301 NA 
BRANCH   3   4
HETATM    4  C   UNL     1     -10.669  11.615  65.797  1.00  0.00    -0.280 C  
HETATM    5  C   UNL     1     -10.426  11.115  64.375  1.00  0.00    -0.418 C  
ENDBRANCH   3   4
BRANCH   3   6
HETATM    6  C   UNL     1     -10.686  13.990  65.164  1.00  0.00    -0.382 C  
BRANCH   6   7
HETATM    7  C   UNL     1      -9.393  14.592  65.747  1.00  0.00    -0.023 C  
BRANCH   7   8
HETATM    8  O   UNL     1      -9.661  14.857  67.139  1.00  0.00    -0.217 OA 
BRANCH   8   9
HETATM    9  C   UNL     1      -8.688  14.422  67.985  1.00  0.00    -0.170 C  
HETATM   10  O   UNL     1      -8.491  13.250  68.255  1.00  0.00    -0.161 OA 
BRANCH   9  11
HETATM   11  C   UNL     1      -7.813  15.576  68.367  1.00  0.00    -0.126 A  
HETATM   12  C   UNL     1      -6.414  15.484  68.368  1.00  0.00    -0.114 A  
HETATM   13  C   UNL     1      -5.633  16.623  68.626  1.00  0.00    -0.119 A  
HETATM   14 CL   UNL     1      -5.534  14.031  68.038  1.00  0.00    -0.122 Cl 
HETATM   15  C   UNL     1      -6.216  17.854  68.921  1.00  0.00    -0.214 A  
HETATM   16  C   UNL     1      -7.603  17.963  68.857  1.00  0.00    -0.222 A  
HETATM   17  N   UNL     1      -5.430  19.002  69.042  1.00  0.00    -0.199 NA 
HETATM   18  H1  UNL     1      -5.857  19.903  69.257  1.00  0.00     0.000 HD 
HETATM   19  C   UNL     1      -8.394  16.836  68.610  1.00  0.00    -0.252 A  
HETATM   20  H2  UNL     1      -4.882  19.105  68.187  1.00  0.00     0.000 HD 
ENDBRANCH   9  11
ENDBRANCH   8   9
ENDBRANCH   7   8
ENDBRANCH   6   7
ENDBRANCH   3   6
ENDBRANCH   2   3
TORSDOF 7
ENDMDL
MODEL      360
REMARK 921   NORMALIZED FREE ENERGY PREDICTED BY IDOCK:   -1.95 KCAL/MOL
REMARK 922        TOTAL FREE ENERGY PREDICTED BY IDOCK:   -3.14 KCAL/MOL
REMARK 923 INTER-LIGAND FREE ENERGY PREDICTED BY IDOCK:   -2.72 KCAL/MOL
REMARK 924 INTRA-LIGAND FREE ENERGY PREDICTED BY IDOCK:   -0.42 KCAL/MOL
REMARK 927      BINDING AFFINITY PREDICTED BY RF-SCORE:    0.00 PKD
ROOT
HETATM    1  C   UNL     1      -8.103   6.882  72.831  1.00  0.00    -0.115 C  
HETATM    2  C   UNL     1      -8.031   6.270  71.437  1.00  0.00    -0.109 C  
ENDROOT
BRANCH   2   3
HETATM    3  N   UNL     1      -9.338   6.012  70.801  1.00  0.00    -0.153 NA 
BRANCH   3   4
HETATM    4  C   UNL     1     -10.265   5.232  71.639  1.00  0.00    -0.212 C  
HETATM    5  C   UNL     1     -10.017   3.727  71.706  1.00  0.00    -0.227 C  
ENDBRANCH   3   4
BRANCH   3   6
HETATM    6  C   UNL     1      -9.903   7.296  70.355  1.00  0.00    -0.183 C  
BRANCH   6   7
HETATM    7  C   UNL     1      -9.930   7.579  68.841  1.00  0.00    -0.168 C  
BRANCH   7   8
HETATM    8  O   UNL     1      -8.918   8.578  68.597  1.00  0.00    -0.139 OA 
BRANCH   8   9
HETATM    9  C   UNL     1      -9.083   9.263  67.433  1.00  0.00    -0.126 C  
HETATM   10  O   UNL     1      -9.884   8.958  66.567  1.00  0.00    -0.230 OA 
BRANCH   9  11
HETATM   11  C   UNL     1      -8.271  10.521  67.481  1.00  0.00    -0.114 A  
HETATM   12  C   UNL     1      -7.144  10.714  66.671  1.00  0.00    -0.124 A  
HETATM   13  C   UNL     1      -6.479  11.953  66.671  1.00  0.00     0.065 A  
HETATM   14 CL   UNL     1      -6.494   9.516  65.606  1.00  0.00    -0.069 Cl 
HETATM   15  C   UNL     1      -6.892  13.000  67.494  1.00  0.00    -0.151 A  
HETATM   16  C   UNL     1      -8.048  12.832  68.251  1.00  0.00    -0.154 A  
HETATM   17  N   UNL     1      -6.306  14.263  67.384  1.00  0.00    -0.349 NA 
HETATM   18  H1  UNL     1      -6.608  15.029  67.985  1.00  0.00     0.000 HD 
HETATM   19  C   UNL     1      -8.716  11.603  68.267  1.00  0.00    -0.163 A  
HETATM   20  H2  UNL     1      -6.386  14.569  66.413  1.00  0.00     0.000 HD 
ENDBRANCH   9  11
ENDBRANCH   8   9
ENDBRANCH   7   8
ENDBRANCH   6   7
ENDBRANCH   3   6
ENDBRANCH   2   3
TORSDOF 7
ENDMDL
MODEL      361
REMARK 921   NORMALIZED FREE ENERGY PREDICTED BY IDOCK:   -1.94 KCAL/MOL
REMARK 922        TOTAL FREE ENERGY PREDICTED BY IDOCK:   -3.13 KCAL/MOL
REMARK 923 INTER-LIGAND FREE ENERGY PREDICTED BY IDOCK:   -3.71 KCAL/MOL
REMARK 924 INTRA-LIGAND FREE ENERGY PREDICTED BY IDOCK:    0.58 KCAL/MOL
REMARK 927      BINDING AFFINITY PREDICTED BY RF-SCORE:    0.00 PKD
ROOT
HETATM    1  C   UNL     1     -12.331  11.878  64.470  1.00  0.00    -0.183 C  
HETATM    2  C   UNL     1     -12.572  13.020  65.449  1.00  0.00    -0.422 C  
ENDROOT
BRANCH   2   3
HETATM    3  N   UNL     1     -11.355  13.564  66.086  1.00  0.00    -0.303 NA 
BRANCH   3   4
HETATM    4  C   UNL     1     -10.103  12.989  65.565  1.00  0.00    -0.259 C  
HETATM    5  C   UNL     1      -8.827  13.334  66.330  1.00  0.00     0.214 C  
ENDBRANCH   3   4
BRANCH   3   6
HETATM    6  C   UNL     1     -11.398  15.033  65.997  1.00  0.00    -0.270 C  
BRANCH   6   7
HETATM    7  C   UNL     1     -10.562  15.836  67.010  1.00  0.00    -0.316 C  
BRANCH   7   8
HETATM    8  O   UNL     1     -11.480  16.288  68.026  1.00  0.00    -0.272 OA 
BRANCH   8   9
HETATM    9  C   UNL     1     -10.945  16.344  69.276  1.00  0.00    -0.322 C  
HETATM   10  O   UNL     1     -11.603  16.391  70.300  1.00  0.00    -0.234 OA 
BRANCH   9  11
HETATM   11  C   UNL     1      -9.462  16.154  69.186  1.00  0.00    -0.251 A  
HETATM   12  C   UNL     1      -8.581  17.230  69.013  1.00  0.00    -0.078 A  
HETATM   13  C   UNL     1      -7.192  17.016  69.046  1.00  0.00    -0.229 A  
HETATM   14 CL   UNL     1      -9.080  18.870  68.782  1.00  0.00    -0.373 Cl 
HETATM   15  C   UNL     1      -6.656  15.739  69.211  1.00  0.00    -0.160 A  
HETATM   16  C   UNL     1      -7.528  14.680  69.447  1.00  0.00    -0.112 A  
HETATM   17  N   UNL     1      -5.280  15.563  69.375  1.00  0.00    -0.094 NA 
HETATM   18  H1  UNL     1      -4.888  14.629  69.497  1.00  0.00     0.000 HD 
HETATM   19  C   UNL     1      -8.912  14.876  69.410  1.00  0.00    -0.044 A  
HETATM   20  H2  UNL     1      -4.975  16.141  70.158  1.00  0.00     0.000 HD 
ENDBRANCH   9  11
ENDBRANCH   8   9
ENDBRANCH   7   8
ENDBRANCH   6   7
ENDBRANCH   3   6
ENDBRANCH   2   3
TORSDOF 7
ENDMDL
MODEL      362
REMARK 921   NORMALIZED FREE ENERGY PREDICTED BY IDOCK:   -1.94 KCAL/MOL
REMARK 922        TOTAL FREE ENERGY PREDICTED BY IDOCK:   -3.12 KCAL/MOL
REMARK 923 INTER-LIGAND FREE ENERGY PREDICTED BY IDOCK:   -3.09 KCAL/MOL
REMARK 924 INTRA-LIGAND FREE ENERGY PREDICTED BY IDOCK:   -0.03 KCAL/MOL
REMARK 927      BINDING AFFINITY PREDICTED BY RF-SCORE:    0.00 PKD
ROOT
HETATM    1  C   UNL     1     -10.755   5.752  66.909  1.00  0.00    -0.381 C  
HETATM    2  C   UNL     1     -10.898   7.157  67.480  1.00  0.00    -0.241 C  
ENDROOT
BRANCH   2   3
HETATM    3  N   UNL     1      -9.816   8.093  67.113  1.00  0.00    -0.195 NA 
BRANCH   3   4
HETATM    4  C   UNL     1     -10.270   9.244  66.315  1.00  0.00    -0.203 C  
HETATM    5  C   UNL     1     -10.006  10.627  66.906  1.00  0.00    -0.245 C  
ENDBRANCH   3   4
BRANCH   3   6
HETATM    6  C   UNL     1      -9.101   8.484  68.339  1.00  0.00    -0.139 C  
BRANCH   6   7
HETATM    7  C   UNL     1      -9.575   7.872  69.670  1.00  0.00    -0.164 C  
BRANCH   7   8
HETATM    8  O   UNL     1      -8.981   8.667  70.717  1.00  0.00    -0.147 OA 
BRANCH   8   9
HETATM    9  C   UNL     1      -9.110   8.133  71.962  1.00  0.00    -0.180 C  
HETATM   10  O   UNL     1      -9.444   8.769  72.946  1.00  0.00    -0.199 OA 
BRANCH   9  11
HETATM   11  C   UNL     1      -8.959   6.646  71.880  1.00  0.00    -0.136 A  
HETATM   12  C   UNL     1      -7.707   6.028  71.755  1.00  0.00    -0.101 A  
HETATM   13  C   UNL     1      -7.606   4.626  71.793  1.00  0.00    -0.091 A  
HETATM   14 CL   UNL     1      -6.213   6.882  71.581  1.00  0.00    -0.038 Cl 
HETATM   15  C   UNL     1      -8.735   3.818  71.916  1.00  0.00    -0.095 A  
HETATM   16  C   UNL     1      -9.972   4.431  72.104  1.00  0.00    -0.249 A  
HETATM   17  N   UNL     1      -8.606   2.438  72.088  1.00  0.00    -0.065 NA 
HETATM   18  H1  UNL     1      -9.432   1.847  72.178  1.00  0.00     0.000 HD 
HETATM   19  C   UNL     1     -10.089   5.824  72.061  1.00  0.00    -0.225 A  
HETATM   20  H2  UNL     1      -8.004   2.271  72.895  1.00  0.00     0.000 HD 
ENDBRANCH   9  11
ENDBRANCH   8   9
ENDBRANCH   7   8
ENDBRANCH   6   7
ENDBRANCH   3   6
ENDBRANCH   2   3
TORSDOF 7
ENDMDL
MODEL      363
REMARK 921   NORMALIZED FREE ENERGY PREDICTED BY IDOCK:   -1.89 KCAL/MOL
REMARK 922        TOTAL FREE ENERGY PREDICTED BY IDOCK:   -3.06 KCAL/MOL
REMARK 923 INTER-LIGAND FREE ENERGY PREDICTED BY IDOCK:   -2.60 KCAL/MOL
REMARK 924 INTRA-LIGAND FREE ENERGY PREDICTED BY IDOCK:   -0.45 KCAL/MOL
REMARK 927      BINDING AFFINITY PREDICTED BY RF-SCORE:    0.00 PKD
ROOT
HETATM    1  C   UNL     1      -8.110   6.208  64.377  1.00  0.00    -0.102 C  
HETATM    2  C   UNL     1      -7.523   5.398  65.526  1.00  0.00    -0.077 C  
ENDROOT
BRANCH   2   3
HETATM    3  N   UNL     1      -8.492   4.555  66.255  1.00  0.00    -0.113 NA 
BRANCH   3   4
HETATM    4  C   UNL     1      -8.228   3.110  66.142  1.00  0.00    -0.094 C  
HETATM    5  C   UNL     1      -8.710   2.429  64.864  1.00  0.00    -0.111 C  
ENDBRANCH   3   4
BRANCH   3   6
HETATM    6  C   UNL     1      -8.563   5.023  67.649  1.00  0.00    -0.104 C  
BRANCH   6   7
HETATM    7  C   UNL     1      -7.714   6.249  68.035  1.00  0.00    -0.103 C  
BRANCH   7   8
HETATM    8  O   UNL     1      -8.645   7.282  68.420  1.00  0.00    -0.124 OA 
BRANCH   8   9
HETATM    9  C   UNL     1      -8.431   7.788  69.665  1.00  0.00    -0.133 C  
HETATM   10  O   UNL     1      -7.916   8.871  69.882  1.00  0.00    -0.097 OA 
BRANCH   9  11
HETATM   11  C   UNL     1      -9.087   6.903  70.678  1.00  0.00    -0.155 A  
HETATM   12  C   UNL     1      -8.458   6.548  71.879  1.00  0.00    -0.119 A  
HETATM   13  C   UNL     1      -9.155   5.806  72.848  1.00  0.00    -0.122 A  
HETATM   14 CL   UNL     1      -6.839   6.992  72.297  1.00  0.00    -0.061 Cl 
HETATM   15  C   UNL     1     -10.462   5.372  72.632  1.00  0.00    -0.217 A  
HETATM   16  C   UNL     1     -11.110   5.777  71.467  1.00  0.00    -0.281 A  
HETATM   17  N   UNL     1     -11.184   4.754  73.655  1.00  0.00    -0.342 NA 
HETATM   18  H1  UNL     1     -12.140   4.437  73.496  1.00  0.00     0.000 HD 
HETATM   19  C   UNL     1     -10.428   6.509  70.491  1.00  0.00    -0.251 A  
HETATM   20  H2  UNL     1     -11.184   5.373  74.466  1.00  0.00     0.000 HD 
ENDBRANCH   9  11
ENDBRANCH   8   9
ENDBRANCH   7   8
ENDBRANCH   6   7
ENDBRANCH   3   6
ENDBRANCH   2   3
TORSDOF 7
ENDMDL
MODEL      364
REMARK 921   NORMALIZED FREE ENERGY PREDICTED BY IDOCK:   -1.88 KCAL/MOL
REMARK 922        TOTAL FREE ENERGY PREDICTED BY IDOCK:   -3.04 KCAL/MOL
REMARK 923 INTER-LIGAND FREE ENERGY PREDICTED BY IDOCK:   -2.53 KCAL/MOL
REMARK 924 INTRA-LIGAND FREE ENERGY PREDICTED BY IDOCK:   -0.51 KCAL/MOL
REMARK 927      BINDING AFFINITY PREDICTED BY RF-SCORE:    0.00 PKD
ROOT
HETATM    1  C   UNL     1      -8.251   5.491  65.210  1.00  0.00    -0.136 C  
HETATM    2  C   UNL     1      -7.924   4.483  66.305  1.00  0.00    -0.103 C  
ENDROOT
BRANCH   2   3
HETATM    3  N   UNL     1      -9.065   3.661  66.758  1.00  0.00    -0.151 NA 
BRANCH   3   4
HETATM    4  C   UNL     1      -8.834   2.211  66.649  1.00  0.00    -0.122 C  
HETATM    5  C   UNL     1      -9.010   1.597  65.263  1.00  0.00    -0.123 C  
ENDBRANCH   3   4
BRANCH   3   6
HETATM    6  C   UNL     1      -9.437   4.088  68.117  1.00  0.00    -0.158 C  
BRANCH   6   7
HETATM    7  C   UNL     1      -9.465   3.015  69.221  1.00  0.00    -0.097 C  
BRANCH   7   8
HETATM    8  O   UNL     1      -8.302   3.248  70.043  1.00  0.00    -0.048 OA 
BRANCH   8   9
HETATM    9  C   UNL     1      -8.567   3.309  71.377  1.00  0.00    -0.072 C  
HETATM   10  O   UNL     1      -8.620   2.336  72.108  1.00  0.00    -0.063 OA 
BRANCH   9  11
HETATM   11  C   UNL     1      -8.592   4.742  71.809  1.00  0.00    -0.129 A  
HETATM   12  C   UNL     1      -9.613   5.261  72.618  1.00  0.00    -0.147 A  
HETATM   13  C   UNL     1      -9.536   6.583  73.089  1.00  0.00    -0.164 A  
HETATM   14 CL   UNL     1     -11.001   4.363  73.127  1.00  0.00    -0.322 Cl 
HETATM   15  C   UNL     1      -8.476   7.419  72.742  1.00  0.00    -0.113 A  
HETATM   16  C   UNL     1      -7.430   6.887  71.992  1.00  0.00    -0.092 A  
HETATM   17  N   UNL     1      -8.347   8.681  73.326  1.00  0.00    -0.392 NA 
HETATM   18  H1  UNL     1      -7.572   9.293  73.072  1.00  0.00     0.000 HD 
HETATM   19  C   UNL     1      -7.496   5.576  71.510  1.00  0.00    -0.095 A  
HETATM   20  H2  UNL     1      -8.343   8.566  74.339  1.00  0.00     0.000 HD 
ENDBRANCH   9  11
ENDBRANCH   8   9
ENDBRANCH   7   8
ENDBRANCH   6   7
ENDBRANCH   3   6
ENDBRANCH   2   3
TORSDOF 7
ENDMDL
MODEL      365
REMARK 921   NORMALIZED FREE ENERGY PREDICTED BY IDOCK:   -1.87 KCAL/MOL
REMARK 922        TOTAL FREE ENERGY PREDICTED BY IDOCK:   -3.02 KCAL/MOL
REMARK 923 INTER-LIGAND FREE ENERGY PREDICTED BY IDOCK:   -2.44 KCAL/MOL
REMARK 924 INTRA-LIGAND FREE ENERGY PREDICTED BY IDOCK:   -0.58 KCAL/MOL
REMARK 927      BINDING AFFINITY PREDICTED BY RF-SCORE:    0.00 PKD
ROOT
HETATM    1  C   UNL     1      -7.759   6.784  63.688  1.00  0.00    -0.107 C  
HETATM    2  C   UNL     1      -6.844   6.579  64.889  1.00  0.00    -0.046 C  
ENDROOT
BRANCH   2   3
HETATM    3  N   UNL     1      -7.236   7.319  66.106  1.00  0.00    -0.073 NA 
BRANCH   3   4
HETATM    4  C   UNL     1      -6.715   8.695  66.160  1.00  0.00    -0.069 C  
HETATM    5  C   UNL     1      -7.176   9.640  65.053  1.00  0.00    -0.116 C  
ENDBRANCH   3   4
BRANCH   3   6
HETATM    6  C   UNL     1      -8.701   7.249  66.243  1.00  0.00    -0.149 C  
BRANCH   6   7
HETATM    7  C   UNL     1      -9.273   6.882  67.625  1.00  0.00    -0.119 C  
BRANCH   7   8
HETATM    8  O   UNL     1     -10.199   7.932  67.972  1.00  0.00    -0.192 OA 
BRANCH   8   9
HETATM    9  C   UNL     1      -9.907   8.567  69.140  1.00  0.00    -0.186 C  
HETATM   10  O   UNL     1      -9.963   8.039  70.237  1.00  0.00    -0.187 OA 
BRANCH   9  11
HETATM   11  C   UNL     1      -9.345   9.921  68.838  1.00  0.00    -0.170 A  
HETATM   12  C   UNL     1      -8.003  10.243  69.082  1.00  0.00    -0.135 A  
HETATM   13  C   UNL     1      -7.492  11.490  68.681  1.00  0.00    -0.116 A  
HETATM   14 CL   UNL     1      -6.868   9.179  69.839  1.00  0.00    -0.049 Cl 
HETATM   15  C   UNL     1      -8.304  12.447  68.071  1.00  0.00    -0.170 A  
HETATM   16  C   UNL     1      -9.620  12.105  67.771  1.00  0.00    -0.195 A  
HETATM   17  N   UNL     1      -7.752  13.623  67.559  1.00  0.00    -0.173 NA 
HETATM   18  H1  UNL     1      -8.345  14.322  67.113  1.00  0.00     0.000 HD 
HETATM   19  C   UNL     1     -10.143  10.871  68.170  1.00  0.00    -0.190 A  
HETATM   20  H2  UNL     1      -7.010  13.371  66.906  1.00  0.00     0.000 HD 
ENDBRANCH   9  11
ENDBRANCH   8   9
ENDBRANCH   7   8
ENDBRANCH   6   7
ENDBRANCH   3   6
ENDBRANCH   2   3
TORSDOF 7
ENDMDL
MODEL      366
REMARK 921   NORMALIZED FREE ENERGY PREDICTED BY IDOCK:   -1.82 KCAL/MOL
REMARK 922        TOTAL FREE ENERGY PREDICTED BY IDOCK:   -2.96 KCAL/MOL
REMARK 923 INTER-LIGAND FREE ENERGY PREDICTED BY IDOCK:   -2.47 KCAL/MOL
REMARK 924 INTRA-LIGAND FREE ENERGY PREDICTED BY IDOCK:   -0.49 KCAL/MOL
REMARK 927      BINDING AFFINITY PREDICTED BY RF-SCORE:    0.00 PKD
ROOT
HETATM    1  C   UNL     1      -9.288   5.095  65.646  1.00  0.00    -0.149 C  
HETATM    2  C   UNL     1      -7.904   4.571  66.011  1.00  0.00    -0.095 C  
ENDROOT
BRANCH   2   3
HETATM    3  N   UNL     1      -7.169   5.385  67.000  1.00  0.00    -0.077 NA 
BRANCH   3   4
HETATM    4  C   UNL     1      -6.788   6.720  66.507  1.00  0.00    -0.061 C  
HETATM    5  C   UNL     1      -5.293   6.980  66.338  1.00  0.00    -0.022 C  
ENDBRANCH   3   4
BRANCH   3   6
HETATM    6  C   UNL     1      -7.955   5.431  68.244  1.00  0.00    -0.088 C  
BRANCH   6   7
HETATM    7  C   UNL     1      -7.906   4.198  69.166  1.00  0.00    -0.057 C  
BRANCH   7   8
HETATM    8  O   UNL     1      -9.276   3.808  69.395  1.00  0.00    -0.125 OA 
BRANCH   8   9
HETATM    9  C   UNL     1      -9.527   3.369  70.658  1.00  0.00    -0.173 C  
HETATM   10  O   UNL     1      -9.576   2.193  70.975  1.00  0.00    -0.138 OA 
BRANCH   9  11
HETATM   11  C   UNL     1      -9.542   4.538  71.593  1.00  0.00    -0.222 A  
HETATM   12  C   UNL     1      -8.601   4.684  72.621  1.00  0.00    -0.115 A  
HETATM   13  C   UNL     1      -8.587   5.851  73.404  1.00  0.00    -0.120 A  
HETATM   14 CL   UNL     1      -7.387   3.513  73.003  1.00  0.00    -0.054 Cl 
HETATM   15  C   UNL     1      -9.521   6.869  73.210  1.00  0.00    -0.156 A  
HETATM   16  C   UNL     1     -10.415   6.754  72.149  1.00  0.00    -0.231 A  
HETATM   17  N   UNL     1      -9.410   8.076  73.904  1.00  0.00    -0.289 NA 
HETATM   18  H1  UNL     1     -10.092   8.820  73.761  1.00  0.00     0.000 HD 
HETATM   19  C   UNL     1     -10.446   5.595  71.367  1.00  0.00    -0.300 A  
HETATM   20  H2  UNL     1      -8.480   8.459  73.732  1.00  0.00     0.000 HD 
ENDBRANCH   9  11
ENDBRANCH   8   9
ENDBRANCH   7   8
ENDBRANCH   6   7
ENDBRANCH   3   6
ENDBRANCH   2   3
TORSDOF 7
ENDMDL
MODEL      367
REMARK 921   NORMALIZED FREE ENERGY PREDICTED BY IDOCK:   -1.73 KCAL/MOL
REMARK 922        TOTAL FREE ENERGY PREDICTED BY IDOCK:   -2.83 KCAL/MOL
REMARK 923 INTER-LIGAND FREE ENERGY PREDICTED BY IDOCK:   -2.78 KCAL/MOL
REMARK 924 INTRA-LIGAND FREE ENERGY PREDICTED BY IDOCK:   -0.05 KCAL/MOL
REMARK 927      BINDING AFFINITY PREDICTED BY RF-SCORE:    0.00 PKD
ROOT
HETATM    1  C   UNL     1      -9.877   4.183  65.222  1.00  0.00    -0.212 C  
HETATM    2  C   UNL     1      -8.366   4.345  65.339  1.00  0.00    -0.111 C  
ENDROOT
BRANCH   2   3
HETATM    3  N   UNL     1      -7.901   5.734  65.532  1.00  0.00    -0.097 NA 
BRANCH   3   4
HETATM    4  C   UNL     1      -7.159   6.278  64.381  1.00  0.00    -0.057 C  
HETATM    5  C   UNL     1      -7.975   6.575  63.126  1.00  0.00    -0.086 C  
ENDBRANCH   3   4
BRANCH   3   6
HETATM    6  C   UNL     1      -9.054   6.563  65.922  1.00  0.00    -0.039 C  
BRANCH   6   7
HETATM    7  C   UNL     1      -8.768   7.882  66.664  1.00  0.00    -0.142 C  
BRANCH   7   8
HETATM    8  O   UNL     1      -7.559   7.668  67.421  1.00  0.00    -0.103 OA 
BRANCH   8   9
HETATM    9  C   UNL     1      -7.659   6.693  68.365  1.00  0.00    -0.104 C  
HETATM   10  O   UNL     1      -6.924   5.723  68.426  1.00  0.00    -0.064 OA 
BRANCH   9  11
HETATM   11  C   UNL     1      -8.670   7.101  69.391  1.00  0.00    -0.134 A  
HETATM   12  C   UNL     1      -9.792   6.316  69.687  1.00  0.00    -0.163 A  
HETATM   13  C   UNL     1     -10.654   6.683  70.735  1.00  0.00    -0.265 A  
HETATM   14 CL   UNL     1     -10.205   4.856  68.856  1.00  0.00    -0.190 Cl 
HETATM   15  C   UNL     1     -10.444   7.846  71.476  1.00  0.00    -0.210 A  
HETATM   16  C   UNL     1      -9.296   8.592  71.226  1.00  0.00    -0.288 A  
HETATM   17  N   UNL     1     -11.230   8.125  72.596  1.00  0.00    -0.385 NA 
HETATM   18  H1  UNL     1     -11.076   8.975  73.139  1.00  0.00     0.000 HD 
HETATM   19  C   UNL     1      -8.433   8.243  70.183  1.00  0.00    -0.126 A  
HETATM   20  H2  UNL     1     -11.178   7.328  73.231  1.00  0.00     0.000 HD 
ENDBRANCH   9  11
ENDBRANCH   8   9
ENDBRANCH   7   8
ENDBRANCH   6   7
ENDBRANCH   3   6
ENDBRANCH   2   3
TORSDOF 7
ENDMDL
MODEL      368
REMARK 921   NORMALIZED FREE ENERGY PREDICTED BY IDOCK:   -1.72 KCAL/MOL
REMARK 922        TOTAL FREE ENERGY PREDICTED BY IDOCK:   -2.81 KCAL/MOL
REMARK 923 INTER-LIGAND FREE ENERGY PREDICTED BY IDOCK:   -3.14 KCAL/MOL
REMARK 924 INTRA-LIGAND FREE ENERGY PREDICTED BY IDOCK:    0.33 KCAL/MOL
REMARK 927      BINDING AFFINITY PREDICTED BY RF-SCORE:    0.00 PKD
ROOT
HETATM    1  C   UNL     1     -10.923   4.936  65.813  1.00  0.00    -0.006 C  
HETATM    2  C   UNL     1      -9.609   5.252  66.515  1.00  0.00    -0.156 C  
ENDROOT
BRANCH   2   3
HETATM    3  N   UNL     1      -9.385   6.683  66.805  1.00  0.00    -0.153 NA 
BRANCH   3   4
HETATM    4  C   UNL     1     -10.626   7.456  66.982  1.00  0.00    -0.344 C  
HETATM    5  C   UNL     1     -10.651   8.441  68.148  1.00  0.00    -0.175 C  
ENDBRANCH   3   4
BRANCH   3   6
HETATM    6  C   UNL     1      -8.468   6.789  67.952  1.00  0.00    -0.119 C  
BRANCH   6   7
HETATM    7  C   UNL     1      -7.934   8.187  68.315  1.00  0.00    -0.123 C  
BRANCH   7   8
HETATM    8  O   UNL     1      -7.057   8.578  67.240  1.00  0.00    -0.074 OA 
BRANCH   8   9
HETATM    9  C   UNL     1      -6.863   9.921  67.140  1.00  0.00    -0.083 C  
HETATM   10  O   UNL     1      -5.792  10.472  67.324  1.00  0.00    -0.048 OA 
BRANCH   9  11
HETATM   11  C   UNL     1      -8.104  10.560  66.599  1.00  0.00    -0.127 A  
HETATM   12  C   UNL     1      -8.781  10.051  65.483  1.00  0.00    -0.155 A  
HETATM   13  C   UNL     1     -10.002  10.618  65.079  1.00  0.00    -0.369 A  
HETATM   14 CL   UNL     1      -8.231   8.709  64.540  1.00  0.00    -0.162 Cl 
HETATM   15  C   UNL     1     -10.551  11.714  65.744  1.00  0.00    -0.271 A  
HETATM   16  C   UNL     1      -9.913  12.181  66.890  1.00  0.00    -0.217 A  
HETATM   17  N   UNL     1     -11.826  12.180  65.414  1.00  0.00    -0.399 NA 
HETATM   18  H1  UNL     1     -12.227  12.981  65.901  1.00  0.00     0.000 HD 
HETATM   19  C   UNL     1      -8.694  11.632  67.300  1.00  0.00    -0.159 A  
HETATM   20  H2  UNL     1     -12.480  11.400  65.490  1.00  0.00     0.000 HD 
ENDBRANCH   9  11
ENDBRANCH   8   9
ENDBRANCH   7   8
ENDBRANCH   6   7
ENDBRANCH   3   6
ENDBRANCH   2   3
TORSDOF 7
ENDMDL
MODEL      369
REMARK 921   NORMALIZED FREE ENERGY PREDICTED BY IDOCK:   -1.71 KCAL/MOL
REMARK 922        TOTAL FREE ENERGY PREDICTED BY IDOCK:   -2.80 KCAL/MOL
REMARK 923 INTER-LIGAND FREE ENERGY PREDICTED BY IDOCK:   -2.35 KCAL/MOL
REMARK 924 INTRA-LIGAND FREE ENERGY PREDICTED BY IDOCK:   -0.45 KCAL/MOL
REMARK 927      BINDING AFFINITY PREDICTED BY RF-SCORE:    0.00 PKD
ROOT
HETATM    1  C   UNL     1      -7.111   7.756  64.030  1.00  0.00    -0.072 C  
HETATM    2  C   UNL     1      -7.299   9.101  64.720  1.00  0.00    -0.098 C  
ENDROOT
BRANCH   2   3
HETATM    3  N   UNL     1      -8.696   9.573  64.797  1.00  0.00    -0.185 NA 
BRANCH   3   4
HETATM    4  C   UNL     1      -9.299   9.864  63.485  1.00  0.00    -0.182 C  
HETATM    5  C   UNL     1      -8.527  10.821  62.580  1.00  0.00    -0.240 C  
ENDBRANCH   3   4
BRANCH   3   6
HETATM    6  C   UNL     1      -9.474   8.605  65.588  1.00  0.00    -0.044 C  
BRANCH   6   7
HETATM    7  C   UNL     1     -10.196   9.125  66.846  1.00  0.00    -0.266 C  
BRANCH   7   8
HETATM    8  O   UNL     1      -9.301   8.893  67.953  1.00  0.00    -0.140 OA 
BRANCH   8   9
HETATM    9  C   UNL     1      -9.482   9.740  69.002  1.00  0.00    -0.173 C  
HETATM   10  O   UNL     1     -10.105   9.455  70.010  1.00  0.00    -0.196 OA 
BRANCH   9  11
HETATM   11  C   UNL     1      -8.653  10.969  68.793  1.00  0.00    -0.144 A  
HETATM   12  C   UNL     1      -7.271  10.908  68.567  1.00  0.00    -0.090 A  
HETATM   13  C   UNL     1      -6.553  12.078  68.267  1.00  0.00    -0.055 A  
HETATM   14 CL   UNL     1      -6.343   9.448  68.600  1.00  0.00    -0.048 Cl 
HETATM   15  C   UNL     1      -7.178  13.324  68.223  1.00  0.00    -0.108 A  
HETATM   16  C   UNL     1      -8.560  13.378  68.385  1.00  0.00    -0.134 A  
HETATM   17  N   UNL     1      -6.479  14.454  67.793  1.00  0.00    -0.167 NA 
HETATM   18  H1  UNL     1      -6.936  15.365  67.761  1.00  0.00     0.000 HD 
HETATM   19  C   UNL     1      -9.286  12.223  68.691  1.00  0.00    -0.005 A  
HETATM   20  H2  UNL     1      -6.092  14.259  66.870  1.00  0.00     0.000 HD 
ENDBRANCH   9  11
ENDBRANCH   8   9
ENDBRANCH   7   8
ENDBRANCH   6   7
ENDBRANCH   3   6
ENDBRANCH   2   3
TORSDOF 7
ENDMDL
MODEL      370
REMARK 921   NORMALIZED FREE ENERGY PREDICTED BY IDOCK:   -1.60 KCAL/MOL
REMARK 922        TOTAL FREE ENERGY PREDICTED BY IDOCK:   -2.64 KCAL/MOL
REMARK 923 INTER-LIGAND FREE ENERGY PREDICTED BY IDOCK:   -2.30 KCAL/MOL
REMARK 924 INTRA-LIGAND FREE ENERGY PREDICTED BY IDOCK:   -0.34 KCAL/MOL
REMARK 927      BINDING AFFINITY PREDICTED BY RF-SCORE:    0.00 PKD
ROOT
HETATM    1  C   UNL     1      -5.558  10.378  64.271  1.00  0.00    -0.140 C  
HETATM    2  C   UNL     1      -6.230  10.385  65.638  1.00  0.00    -0.126 C  
ENDROOT
BRANCH   2   3
HETATM    3  N   UNL     1      -7.591   9.812  65.668  1.00  0.00    -0.105 NA 
BRANCH   3   4
HETATM    4  C   UNL     1      -8.626  10.708  65.126  1.00  0.00    -0.167 C  
HETATM    5  C   UNL     1      -9.958  10.738  65.872  1.00  0.00    -0.304 C  
ENDBRANCH   3   4
BRANCH   3   6
HETATM    6  C   UNL     1      -7.559   8.497  65.005  1.00  0.00    -0.093 C  
BRANCH   6   7
HETATM    7  C   UNL     1      -8.479   7.394  65.560  1.00  0.00    -0.118 C  
BRANCH   7   8
HETATM    8  O   UNL     1      -8.116   6.179  64.872  1.00  0.00    -0.125 OA 
BRANCH   8   9
HETATM    9  C   UNL     1      -7.214   5.410  65.540  1.00  0.00    -0.068 C  
HETATM   10  O   UNL     1      -6.031   5.344  65.256  1.00  0.00    -0.024 OA 
BRANCH   9  11
HETATM   11  C   UNL     1      -7.865   4.827  66.756  1.00  0.00    -0.099 A  
HETATM   12  C   UNL     1      -8.815   3.801  66.674  1.00  0.00    -0.126 A  
HETATM   13  C   UNL     1      -9.318   3.210  67.846  1.00  0.00    -0.252 A  
HETATM   14 CL   UNL     1      -9.425   3.154  65.190  1.00  0.00    -0.148 Cl 
HETATM   15  C   UNL     1      -8.920   3.646  69.110  1.00  0.00    -0.117 A  
HETATM   16  C   UNL     1      -7.930   4.622  69.192  1.00  0.00    -0.070 A  
HETATM   17  N   UNL     1      -9.325   2.962  70.258  1.00  0.00    -0.147 NA 
HETATM   18  H1  UNL     1      -9.034   3.281  71.181  1.00  0.00     0.000 HD 
HETATM   19  C   UNL     1      -7.426   5.224  68.035  1.00  0.00    -0.076 A  
HETATM   20  H2  UNL     1      -9.054   1.983  70.158  1.00  0.00     0.000 HD 
ENDBRANCH   9  11
ENDBRANCH   8   9
ENDBRANCH   7   8
ENDBRANCH   6   7
ENDBRANCH   3   6
ENDBRANCH   2   3
TORSDOF 7
ENDMDL
MODEL      371
REMARK 921   NORMALIZED FREE ENERGY PREDICTED BY IDOCK:   -1.59 KCAL/MOL
REMARK 922        TOTAL FREE ENERGY PREDICTED BY IDOCK:   -2.63 KCAL/MOL
REMARK 923 INTER-LIGAND FREE ENERGY PREDICTED BY IDOCK:   -2.63 KCAL/MOL
REMARK 924 INTRA-LIGAND FREE ENERGY PREDICTED BY IDOCK:    0.00 KCAL/MOL
REMARK 927      BINDING AFFINITY PREDICTED BY RF-SCORE:    0.00 PKD
ROOT
HETATM    1  C   UNL     1     -11.031   7.031  67.036  1.00  0.00    -0.357 C  
HETATM    2  C   UNL     1      -9.751   7.666  67.563  1.00  0.00    -0.156 C  
ENDROOT
BRANCH   2   3
HETATM    3  N   UNL     1      -8.587   7.569  66.658  1.00  0.00    -0.125 NA 
BRANCH   3   4
HETATM    4  C   UNL     1      -8.129   8.868  66.136  1.00  0.00    -0.114 C  
HETATM    5  C   UNL     1      -6.958   9.519  66.868  1.00  0.00    -0.081 C  
ENDBRANCH   3   4
BRANCH   3   6
HETATM    6  C   UNL     1      -7.525   6.813  67.342  1.00  0.00    -0.096 C  
BRANCH   6   7
HETATM    7  C   UNL     1      -7.869   6.161  68.695  1.00  0.00    -0.101 C  
BRANCH   7   8
HETATM    8  O   UNL     1      -8.225   4.794  68.407  1.00  0.00    -0.084 OA 
BRANCH   8   9
HETATM    9  C   UNL     1      -8.934   4.183  69.395  1.00  0.00    -0.104 C  
HETATM   10  O   UNL     1      -9.534   3.132  69.255  1.00  0.00    -0.160 OA 
BRANCH   9  11
HETATM   11  C   UNL     1      -8.701   4.903  70.687  1.00  0.00    -0.138 A  
HETATM   12  C   UNL     1      -9.664   5.749  71.254  1.00  0.00    -0.171 A  
HETATM   13  C   UNL     1      -9.446   6.316  72.522  1.00  0.00    -0.143 A  
HETATM   14 CL   UNL     1     -11.173   6.146  70.507  1.00  0.00    -0.402 Cl 
HETATM   15  C   UNL     1      -8.264   6.088  73.227  1.00  0.00    -0.115 A  
HETATM   16  C   UNL     1      -7.335   5.199  72.694  1.00  0.00    -0.094 A  
HETATM   17  N   UNL     1      -8.120   6.548  74.538  1.00  0.00    -0.118 NA 
HETATM   18  H1  UNL     1      -7.257   6.381  75.054  1.00  0.00     0.000 HD 
HETATM   19  C   UNL     1      -7.536   4.633  71.431  1.00  0.00    -0.076 A  
HETATM   20  H2  UNL     1      -8.897   6.185  75.091  1.00  0.00     0.000 HD 
ENDBRANCH   9  11
ENDBRANCH   8   9
ENDBRANCH   7   8
ENDBRANCH   6   7
ENDBRANCH   3   6
ENDBRANCH   2   3
TORSDOF 7
ENDMDL
MODEL      372
REMARK 921   NORMALIZED FREE ENERGY PREDICTED BY IDOCK:   -1.45 KCAL/MOL
REMARK 922        TOTAL FREE ENERGY PREDICTED BY IDOCK:   -2.44 KCAL/MOL
REMARK 923 INTER-LIGAND FREE ENERGY PREDICTED BY IDOCK:   -2.61 KCAL/MOL
REMARK 924 INTRA-LIGAND FREE ENERGY PREDICTED BY IDOCK:    0.17 KCAL/MOL
REMARK 927      BINDING AFFINITY PREDICTED BY RF-SCORE:    0.00 PKD
ROOT
HETATM    1  C   UNL     1      -7.569  10.096  65.414  1.00  0.00    -0.144 C  
HETATM    2  C   UNL     1      -9.040   9.916  65.769  1.00  0.00    -0.168 C  
ENDROOT
BRANCH   2   3
HETATM    3  N   UNL     1      -9.449  10.514  67.057  1.00  0.00    -0.161 NA 
BRANCH   3   4
HETATM    4  C   UNL     1     -10.336  11.681  66.916  1.00  0.00    -0.220 C  
HETATM    5  C   UNL     1     -11.651  11.631  67.691  1.00  0.00    -0.349 C  
ENDBRANCH   3   4
BRANCH   3   6
HETATM    6  C   UNL     1     -10.018   9.453  67.904  1.00  0.00    -0.182 C  
BRANCH   6   7
HETATM    7  C   UNL     1      -9.177   8.180  68.118  1.00  0.00    -0.133 C  
BRANCH   7   8
HETATM    8  O   UNL     1      -9.332   7.385  66.924  1.00  0.00    -0.142 OA 
BRANCH   8   9
HETATM    9  C   UNL     1     -10.062   6.251  67.102  1.00  0.00    -0.168 C  
HETATM   10  O   UNL     1     -11.189   6.089  66.667  1.00  0.00    -0.207 OA 
BRANCH   9  11
HETATM   11  C   UNL     1      -9.201   5.204  67.737  1.00  0.00    -0.125 A  
HETATM   12  C   UNL     1      -8.170   4.561  67.039  1.00  0.00    -0.102 A  
HETATM   13  C   UNL     1      -7.317   3.665  67.708  1.00  0.00    -0.062 A  
HETATM   14 CL   UNL     1      -7.827   4.809  65.362  1.00  0.00    -0.090 Cl 
HETATM   15  C   UNL     1      -7.491   3.365  69.058  1.00  0.00    -0.049 A  
HETATM   16  C   UNL     1      -8.474   4.050  69.768  1.00  0.00    -0.089 A  
HETATM   17  N   UNL     1      -6.557   2.580  69.738  1.00  0.00    -0.032 NA 
HETATM   18  H1  UNL     1      -6.685   2.360  70.725  1.00  0.00     0.000 HD 
HETATM   19  C   UNL     1      -9.335   4.938  69.115  1.00  0.00    -0.184 A  
HETATM   20  H2  UNL     1      -5.637   3.006  69.622  1.00  0.00     0.000 HD 
ENDBRANCH   9  11
ENDBRANCH   8   9
ENDBRANCH   7   8
ENDBRANCH   6   7
ENDBRANCH   3   6
ENDBRANCH   2   3
TORSDOF 7
ENDMDL
MODEL      373
REMARK 921   NORMALIZED FREE ENERGY PREDICTED BY IDOCK:   -1.32 KCAL/MOL
REMARK 922        TOTAL FREE ENERGY PREDICTED BY IDOCK:   -2.25 KCAL/MOL
REMARK 923 INTER-LIGAND FREE ENERGY PREDICTED BY IDOCK:   -1.71 KCAL/MOL
REMARK 924 INTRA-LIGAND FREE ENERGY PREDICTED BY IDOCK:   -0.54 KCAL/MOL
REMARK 927      BINDING AFFINITY PREDICTED BY RF-SCORE:    0.00 PKD
ROOT
HETATM    1  C   UNL     1      -7.116   5.719  65.041  1.00  0.00    -0.064 C  
HETATM    2  C   UNL     1      -7.886   4.622  64.317  1.00  0.00    -0.087 C  
ENDROOT
BRANCH   2   3
HETATM    3  N   UNL     1      -9.164   4.235  64.948  1.00  0.00    -0.149 NA 
BRANCH   3   4
HETATM    4  C   UNL     1      -9.833   3.099  64.291  1.00  0.00    -0.158 C  
HETATM    5  C   UNL     1     -10.760   3.438  63.126  1.00  0.00    -0.219 C  
ENDBRANCH   3   4
BRANCH   3   6
HETATM    6  C   UNL     1      -8.927   4.014  66.385  1.00  0.00    -0.128 C  
BRANCH   6   7
HETATM    7  C   UNL     1      -9.832   4.761  67.382  1.00  0.00    -0.175 C  
BRANCH   7   8
HETATM    8  O   UNL     1      -9.862   6.138  66.951  1.00  0.00    -0.143 OA 
BRANCH   8   9
HETATM    9  C   UNL     1     -10.387   6.997  67.866  1.00  0.00    -0.199 C  
HETATM   10  O   UNL     1     -11.352   6.743  68.565  1.00  0.00    -0.126 OA 
BRANCH   9  11
HETATM   11  C   UNL     1      -9.491   8.189  67.995  1.00  0.00    -0.155 A  
HETATM   12  C   UNL     1      -9.924   9.485  67.682  1.00  0.00    -0.180 A  
HETATM   13  C   UNL     1      -9.085  10.587  67.923  1.00  0.00    -0.136 A  
HETATM   14 CL   UNL     1     -11.480   9.860  67.025  1.00  0.00     0.603 Cl 
HETATM   15  C   UNL     1      -7.799  10.423  68.438  1.00  0.00    -0.104 A  
HETATM   16  C   UNL     1      -7.392   9.144  68.808  1.00  0.00    -0.075 A  
HETATM   17  N   UNL     1      -7.031  11.533  68.797  1.00  0.00    -0.089 NA 
HETATM   18  H1  UNL     1      -6.091  11.413  69.173  1.00  0.00     0.000 HD 
HETATM   19  C   UNL     1      -8.213   8.038  68.567  1.00  0.00    -0.126 A  
HETATM   20  H2  UNL     1      -7.570  12.095  69.456  1.00  0.00     0.000 HD 
ENDBRANCH   9  11
ENDBRANCH   8   9
ENDBRANCH   7   8
ENDBRANCH   6   7
ENDBRANCH   3   6
ENDBRANCH   2   3
TORSDOF 7
ENDMDL
MODEL      374
REMARK 921   NORMALIZED FREE ENERGY PREDICTED BY IDOCK:   -1.27 KCAL/MOL
REMARK 922        TOTAL FREE ENERGY PREDICTED BY IDOCK:   -2.18 KCAL/MOL
REMARK 923 INTER-LIGAND FREE ENERGY PREDICTED BY IDOCK:   -2.31 KCAL/MOL
REMARK 924 INTRA-LIGAND FREE ENERGY PREDICTED BY IDOCK:    0.13 KCAL/MOL
REMARK 927      BINDING AFFINITY PREDICTED BY RF-SCORE:    0.00 PKD
ROOT
HETATM    1  C   UNL     1     -10.835   6.836  67.088  1.00  0.00    -0.462 C  
HETATM    2  C   UNL     1      -9.610   7.675  67.430  1.00  0.00    -0.147 C  
ENDROOT
BRANCH   2   3
HETATM    3  N   UNL     1      -8.591   7.755  66.364  1.00  0.00    -0.137 NA 
BRANCH   3   4
HETATM    4  C   UNL     1      -8.569   9.047  65.657  1.00  0.00    -0.166 C  
HETATM    5  C   UNL     1      -8.885   9.010  64.164  1.00  0.00    -0.068 C  
ENDBRANCH   3   4
BRANCH   3   6
HETATM    6  C   UNL     1      -7.285   7.387  66.937  1.00  0.00    -0.088 C  
BRANCH   6   7
HETATM    7  C   UNL     1      -7.219   7.118  68.451  1.00  0.00    -0.091 C  
BRANCH   7   8
HETATM    8  O   UNL     1      -6.639   8.296  69.048  1.00  0.00    -0.046 OA 
BRANCH   8   9
HETATM    9  C   UNL     1      -6.761   8.351  70.402  1.00  0.00    -0.036 C  
HETATM   10  O   UNL     1      -6.306   9.247  71.093  1.00  0.00    -0.074 OA 
BRANCH   9  11
HETATM   11  C   UNL     1      -7.679   7.261  70.861  1.00  0.00    -0.092 A  
HETATM   12  C   UNL     1      -7.200   6.060  71.403  1.00  0.00    -0.079 A  
HETATM   13  C   UNL     1      -8.099   5.112  71.921  1.00  0.00    -0.116 A  
HETATM   14 CL   UNL     1      -5.525   5.644  71.518  1.00  0.00    -0.016 Cl 
HETATM   15  C   UNL     1      -9.478   5.317  71.878  1.00  0.00    -0.146 A  
HETATM   16  C   UNL     1      -9.951   6.536  71.399  1.00  0.00    -0.202 A  
HETATM   17  N   UNL     1     -10.348   4.430  72.516  1.00  0.00    -0.189 NA 
HETATM   18  H1  UNL     1     -11.356   4.580  72.485  1.00  0.00     0.000 HD 
HETATM   19  C   UNL     1      -9.070   7.485  70.873  1.00  0.00    -0.153 A  
HETATM   20  H2  UNL     1     -10.066   4.354  73.494  1.00  0.00     0.000 HD 
ENDBRANCH   9  11
ENDBRANCH   8   9
ENDBRANCH   7   8
ENDBRANCH   6   7
ENDBRANCH   3   6
ENDBRANCH   2   3
TORSDOF 7
ENDMDL
MODEL      375
REMARK 921   NORMALIZED FREE ENERGY PREDICTED BY IDOCK:   -1.23 KCAL/MOL
REMARK 922        TOTAL FREE ENERGY PREDICTED BY IDOCK:   -2.12 KCAL/MOL
REMARK 923 INTER-LIGAND FREE ENERGY PREDICTED BY IDOCK:   -1.89 KCAL/MOL
REMARK 924 INTRA-LIGAND FREE ENERGY PREDICTED BY IDOCK:   -0.23 KCAL/MOL
REMARK 927      BINDING AFFINITY PREDICTED BY RF-SCORE:    0.00 PKD
ROOT
HETATM    1  C   UNL     1      -6.767   7.041  66.839  1.00  0.00    -0.056 C  
HETATM    2  C   UNL     1      -7.206   6.020  65.797  1.00  0.00    -0.075 C  
ENDROOT
BRANCH   2   3
HETATM    3  N   UNL     1      -8.521   5.394  66.050  1.00  0.00    -0.119 NA 
BRANCH   3   4
HETATM    4  C   UNL     1      -9.160   4.843  64.844  1.00  0.00    -0.114 C  
HETATM    5  C   UNL     1      -8.270   4.011  63.924  1.00  0.00    -0.092 C  
ENDBRANCH   3   4
BRANCH   3   6
HETATM    6  C   UNL     1      -8.366   4.403  67.128  1.00  0.00    -0.101 C  
BRANCH   6   7
HETATM    7  C   UNL     1      -9.386   4.435  68.281  1.00  0.00    -0.147 C  
BRANCH   7   8
HETATM    8  O   UNL     1      -8.771   5.187  69.347  1.00  0.00    -0.097 OA 
BRANCH   8   9
HETATM    9  C   UNL     1      -9.452   5.145  70.524  1.00  0.00    -0.169 C  
HETATM   10  O   UNL     1     -10.665   5.225  70.614  1.00  0.00    -0.230 OA 
BRANCH   9  11
HETATM   11  C   UNL     1      -8.504   4.805  71.632  1.00  0.00    -0.121 A  
HETATM   12  C   UNL     1      -8.862   3.954  72.686  1.00  0.00    -0.102 A  
HETATM   13  C   UNL     1      -7.905   3.576  73.644  1.00  0.00    -0.067 A  
HETATM   14 CL   UNL     1     -10.441   3.280  72.900  1.00  0.00    -0.243 Cl 
HETATM   15  C   UNL     1      -6.598   4.060  73.596  1.00  0.00    -0.047 A  
HETATM   16  C   UNL     1      -6.224   4.853  72.515  1.00  0.00    -0.030 A  
HETATM   17  N   UNL     1      -5.627   3.571  74.473  1.00  0.00    -0.003 NA 
HETATM   18  H1  UNL     1      -4.672   3.924  74.439  1.00  0.00     0.000 HD 
HETATM   19  C   UNL     1      -7.167   5.243  71.559  1.00  0.00    -0.075 A  
HETATM   20  H2  UNL     1      -5.596   2.555  74.381  1.00  0.00     0.000 HD 
ENDBRANCH   9  11
ENDBRANCH   8   9
ENDBRANCH   7   8
ENDBRANCH   6   7
ENDBRANCH   3   6
ENDBRANCH   2   3
TORSDOF 7
ENDMDL
MODEL      376
REMARK 921   NORMALIZED FREE ENERGY PREDICTED BY IDOCK:   -1.22 KCAL/MOL
REMARK 922        TOTAL FREE ENERGY PREDICTED BY IDOCK:   -2.11 KCAL/MOL
REMARK 923 INTER-LIGAND FREE ENERGY PREDICTED BY IDOCK:   -2.52 KCAL/MOL
REMARK 924 INTRA-LIGAND FREE ENERGY PREDICTED BY IDOCK:    0.41 KCAL/MOL
REMARK 927      BINDING AFFINITY PREDICTED BY RF-SCORE:    0.00 PKD
ROOT
HETATM    1  C   UNL     1      -7.124   7.799  64.037  1.00  0.00    -0.072 C  
HETATM    2  C   UNL     1      -7.186   9.183  64.671  1.00  0.00    -0.098 C  
ENDROOT
BRANCH   2   3
HETATM    3  N   UNL     1      -8.538   9.771  64.757  1.00  0.00    -0.165 NA 
BRANCH   3   4
HETATM    4  C   UNL     1      -9.206   9.920  63.452  1.00  0.00    -0.240 C  
HETATM    5  C   UNL     1      -8.447  10.706  62.386  1.00  0.00    -0.277 C  
ENDBRANCH   3   4
BRANCH   3   6
HETATM    6  C   UNL     1      -9.327   8.990  65.724  1.00  0.00    -0.236 C  
BRANCH   6   7
HETATM    7  C   UNL     1     -10.210   9.765  66.719  1.00  0.00    -0.233 C  
BRANCH   7   8
HETATM    8  O   UNL     1      -9.659   9.520  68.029  1.00  0.00    -0.136 OA 
BRANCH   8   9
HETATM    9  C   UNL     1      -8.316   9.301  68.035  1.00  0.00    -0.120 C  
HETATM   10  O   UNL     1      -7.481  10.169  67.850  1.00  0.00    -0.087 OA 
BRANCH   9  11
HETATM   11  C   UNL     1      -8.047   7.897  68.481  1.00  0.00    -0.123 A  
HETATM   12  C   UNL     1      -8.601   7.367  69.654  1.00  0.00    -0.137 A  
HETATM   13  C   UNL     1      -8.410   6.012  69.975  1.00  0.00    -0.123 A  
HETATM   14 CL   UNL     1      -9.563   8.272  70.772  1.00  0.00    -0.186 Cl 
HETATM   15  C   UNL     1      -7.643   5.174  69.166  1.00  0.00    -0.069 A  
HETATM   16  C   UNL     1      -7.146   5.682  67.969  1.00  0.00    -0.071 A  
HETATM   17  N   UNL     1      -7.575   3.803  69.426  1.00  0.00    -0.052 NA 
HETATM   18  H1  UNL     1      -7.015   3.190  68.835  1.00  0.00     0.000 HD 
HETATM   19  C   UNL     1      -7.321   7.030  67.640  1.00  0.00    -0.096 A  
HETATM   20  H2  UNL     1      -8.526   3.436  69.455  1.00  0.00     0.000 HD 
ENDBRANCH   9  11
ENDBRANCH   8   9
ENDBRANCH   7   8
ENDBRANCH   6   7
ENDBRANCH   3   6
ENDBRANCH   2   3
TORSDOF 7
ENDMDL
MODEL      377
REMARK 921   NORMALIZED FREE ENERGY PREDICTED BY IDOCK:   -0.50 KCAL/MOL
REMARK 922        TOTAL FREE ENERGY PREDICTED BY IDOCK:   -1.10 KCAL/MOL
REMARK 923 INTER-LIGAND FREE ENERGY PREDICTED BY IDOCK:   -2.14 KCAL/MOL
REMARK 924 INTRA-LIGAND FREE ENERGY PREDICTED BY IDOCK:    1.04 KCAL/MOL
REMARK 927      BINDING AFFINITY PREDICTED BY RF-SCORE:    0.00 PKD
ROOT
HETATM    1  C   UNL     1     -13.968   7.677  71.382  1.00  0.00    -0.447 C  
HETATM    2  C   UNL     1     -12.631   8.257  71.827  1.00  0.00    -0.333 C  
ENDROOT
BRANCH   2   3
HETATM    3  N   UNL     1     -11.444   7.492  71.396  1.00  0.00    -0.258 NA 
BRANCH   3   4
HETATM    4  C   UNL     1     -10.472   8.286  70.624  1.00  0.00    -0.203 C  
HETATM    5  C   UNL     1     -10.918   8.743  69.238  1.00  0.00    -0.006 C  
ENDBRANCH   3   4
BRANCH   3   6
HETATM    6  C   UNL     1     -10.852   6.844  72.578  1.00  0.00    -0.244 C  
BRANCH   6   7
HETATM    7  C   UNL     1     -11.203   5.367  72.835  1.00  0.00    -0.314 C  
BRANCH   7   8
HETATM    8  O   UNL     1     -11.266   4.733  71.541  1.00  0.00     0.305 OA 
BRANCH   8   9
HETATM    9  C   UNL     1     -10.135   4.063  71.193  1.00  0.00    -0.041 C  
HETATM   10  O   UNL     1     -10.050   3.318  70.233  1.00  0.00     0.163 OA 
BRANCH   9  11
HETATM   11  C   UNL     1      -9.000   4.530  72.052  1.00  0.00    -0.149 A  
HETATM   12  C   UNL     1      -8.746   3.982  73.316  1.00  0.00    -0.095 A  
HETATM   13  C   UNL     1      -7.606   4.374  74.039  1.00  0.00    -0.085 A  
HETATM   14 CL   UNL     1      -9.743   2.792  74.079  1.00  0.00    -0.123 Cl 
HETATM   15  C   UNL     1      -6.726   5.335  73.544  1.00  0.00    -0.078 A  
HETATM   16  C   UNL     1      -6.942   5.834  72.262  1.00  0.00    -0.082 A  
HETATM   17  N   UNL     1      -5.531   5.614  74.210  1.00  0.00    -0.031 NA 
HETATM   18  H1  UNL     1      -4.887   6.317  73.848  1.00  0.00     0.000 HD 
HETATM   19  C   UNL     1      -8.076   5.459  71.534  1.00  0.00    -0.117 A  
HETATM   20  H2  UNL     1      -5.017   4.740  74.325  1.00  0.00     0.000 HD 
ENDBRANCH   9  11
ENDBRANCH   8   9
ENDBRANCH   7   8
ENDBRANCH   6   7
ENDBRANCH   3   6
ENDBRANCH   2   3
TORSDOF 7
ENDMDL
MODEL      378
REMARK 921   NORMALIZED FREE ENERGY PREDICTED BY IDOCK:   -0.44 KCAL/MOL
REMARK 922        TOTAL FREE ENERGY PREDICTED BY IDOCK:   -1.01 KCAL/MOL
REMARK 923 INTER-LIGAND FREE ENERGY PREDICTED BY IDOCK:   -3.30 KCAL/MOL
REMARK 924 INTRA-LIGAND FREE ENERGY PREDICTED BY IDOCK:    2.29 KCAL/MOL
REMARK 927      BINDING AFFINITY PREDICTED BY RF-SCORE:    0.00 PKD
ROOT
HETATM    1  C   UNL     1     -10.297  18.938  66.361  1.00  0.00    -0.503 C  
HETATM    2  C   UNL     1      -8.782  18.788  66.433  1.00  0.00    -0.286 C  
ENDROOT
BRANCH   2   3
HETATM    3  N   UNL     1      -8.066  19.949  66.998  1.00  0.00    -0.296 NA 
BRANCH   3   4
HETATM    4  C   UNL     1      -8.511  20.322  68.352  1.00  0.00     0.154 C  
HETATM    5  C   UNL     1     -10.001  20.166  68.644  1.00  0.00    -0.343 C  
ENDBRANCH   3   4
BRANCH   3   6
HETATM    6  C   UNL     1      -6.619  19.691  66.916  1.00  0.00    -0.193 C  
BRANCH   6   7
HETATM    7  C   UNL     1      -6.128  18.265  67.229  1.00  0.00    -0.160 C  
BRANCH   7   8
HETATM    8  O   UNL     1      -6.346  18.062  68.640  1.00  0.00    -0.197 OA 
BRANCH   8   9
HETATM    9  C   UNL     1      -6.228  16.767  69.041  1.00  0.00    -0.179 C  
HETATM   10  O   UNL     1      -5.233  16.304  69.572  1.00  0.00    -0.114 OA 
BRANCH   9  11
HETATM   11  C   UNL     1      -7.552  16.083  68.896  1.00  0.00    -0.192 A  
HETATM   12  C   UNL     1      -7.737  14.736  69.235  1.00  0.00    -0.129 A  
HETATM   13  C   UNL     1      -9.021  14.166  69.187  1.00  0.00     0.226 A  
HETATM   14 CL   UNL     1      -6.470  13.680  69.759  1.00  0.00    -0.097 Cl 
HETATM   15  C   UNL     1     -10.129  14.903  68.768  1.00  0.00    -0.241 A  
HETATM   16  C   UNL     1      -9.957  16.257  68.492  1.00  0.00    -0.234 A  
HETATM   17  N   UNL     1     -11.414  14.364  68.854  1.00  0.00    -0.271 NA 
HETATM   18  H1  UNL     1     -12.224  14.903  68.548  1.00  0.00     0.000 HD 
HETATM   19  C   UNL     1      -8.685  16.836  68.529  1.00  0.00    -0.245 A  
HETATM   20  H2  UNL     1     -11.573  14.068  69.817  1.00  0.00     0.000 HD 
ENDBRANCH   9  11
ENDBRANCH   8   9
ENDBRANCH   7   8
ENDBRANCH   6   7
ENDBRANCH   3   6
ENDBRANCH   2   3
TORSDOF 7
ENDMDL
MODEL      379
REMARK 921   NORMALIZED FREE ENERGY PREDICTED BY IDOCK:   -0.41 KCAL/MOL
REMARK 922        TOTAL FREE ENERGY PREDICTED BY IDOCK:   -0.97 KCAL/MOL
REMARK 923 INTER-LIGAND FREE ENERGY PREDICTED BY IDOCK:   -1.35 KCAL/MOL
REMARK 924 INTRA-LIGAND FREE ENERGY PREDICTED BY IDOCK:    0.39 KCAL/MOL
REMARK 927      BINDING AFFINITY PREDICTED BY RF-SCORE:    0.00 PKD
ROOT
HETATM    1  C   UNL     1     -10.812  14.162  69.543  1.00  0.00    -0.111 C  
HETATM    2  C   UNL     1      -9.763  13.699  68.539  1.00  0.00    -0.184 C  
ENDROOT
BRANCH   2   3
HETATM    3  N   UNL     1      -9.596  14.576  67.362  1.00  0.00    -0.209 NA 
BRANCH   3   4
HETATM    4  C   UNL     1     -10.721  15.503  67.145  1.00  0.00    -0.315 C  
HETATM    5  C   UNL     1     -11.559  15.272  65.890  1.00  0.00     0.003 C  
ENDBRANCH   3   4
BRANCH   3   6
HETATM    6  C   UNL     1      -8.296  15.260  67.470  1.00  0.00    -0.175 C  
BRANCH   6   7
HETATM    7  C   UNL     1      -7.033  14.383  67.559  1.00  0.00    -0.159 C  
BRANCH   7   8
HETATM    8  O   UNL     1      -7.456  13.032  67.284  1.00  0.00    -0.146 OA 
BRANCH   8   9
HETATM    9  C   UNL     1      -6.434  12.140  67.173  1.00  0.00    -0.135 C  
HETATM   10  O   UNL     1      -5.460  12.123  67.906  1.00  0.00    -0.051 OA 
BRANCH   9  11
HETATM   11  C   UNL     1      -6.791  11.104  66.153  1.00  0.00    -0.004 A  
HETATM   12  C   UNL     1      -6.371   9.772  66.263  1.00  0.00    -0.070 A  
HETATM   13  C   UNL     1      -6.822   8.811  65.342  1.00  0.00    -0.072 A  
HETATM   14 CL   UNL     1      -5.325   9.181  67.508  1.00  0.00    -0.037 Cl 
HETATM   15  C   UNL     1      -7.659   9.157  64.281  1.00  0.00    -0.115 A  
HETATM   16  C   UNL     1      -8.128  10.466  64.207  1.00  0.00    -0.102 A  
HETATM   17  N   UNL     1      -8.205   8.171  63.456  1.00  0.00    -0.333 NA 
HETATM   18  H1  UNL     1      -8.817   8.424  62.681  1.00  0.00     0.000 HD 
HETATM   19  C   UNL     1      -7.683  11.434  65.113  1.00  0.00     0.865 A  
HETATM   20  H2  UNL     1      -8.696   7.498  64.045  1.00  0.00     0.000 HD 
ENDBRANCH   9  11
ENDBRANCH   8   9
ENDBRANCH   7   8
ENDBRANCH   6   7
ENDBRANCH   3   6
ENDBRANCH   2   3
TORSDOF 7
ENDMDL
MODEL      380
REMARK 921   NORMALIZED FREE ENERGY PREDICTED BY IDOCK:   -0.34 KCAL/MOL
REMARK 922        TOTAL FREE ENERGY PREDICTED BY IDOCK:   -0.87 KCAL/MOL
REMARK 923 INTER-LIGAND FREE ENERGY PREDICTED BY IDOCK:   -0.93 KCAL/MOL
REMARK 924 INTRA-LIGAND FREE ENERGY PREDICTED BY IDOCK:    0.06 KCAL/MOL
REMARK 927      BINDING AFFINITY PREDICTED BY RF-SCORE:    0.00 PKD
ROOT
HETATM    1  C   UNL     1      -5.289  10.436  64.292  1.00  0.00    -0.144 C  
HETATM    2  C   UNL     1      -5.158  10.052  65.760  1.00  0.00    -0.042 C  
ENDROOT
BRANCH   2   3
HETATM    3  N   UNL     1      -6.393   9.532  66.382  1.00  0.00    -0.068 NA 
BRANCH   3   4
HETATM    4  C   UNL     1      -7.163  10.550  67.117  1.00  0.00    -0.092 C  
HETATM    5  C   UNL     1      -8.099  10.037  68.208  1.00  0.00    -0.104 C  
ENDBRANCH   3   4
BRANCH   3   6
HETATM    6  C   UNL     1      -7.182   8.844  65.348  1.00  0.00    -0.084 C  
BRANCH   6   7
HETATM    7  C   UNL     1      -8.203   7.789  65.811  1.00  0.00    -0.132 C  
BRANCH   7   8
HETATM    8  O   UNL     1      -8.944   7.397  64.637  1.00  0.00     0.443 OA 
BRANCH   8   9
HETATM    9  C   UNL     1      -8.462   6.283  64.021  1.00  0.00     0.199 C  
HETATM   10  O   UNL     1      -8.162   6.230  62.842  1.00  0.00    -0.104 OA 
BRANCH   9  11
HETATM   11  C   UNL     1      -8.198   5.226  65.049  1.00  0.00    -0.134 A  
HETATM   12  C   UNL     1      -9.230   4.489  65.646  1.00  0.00    -0.149 A  
HETATM   13  C   UNL     1      -8.927   3.434  66.522  1.00  0.00    -0.158 A  
HETATM   14 CL   UNL     1     -10.913   4.764  65.359  1.00  0.00    -0.131 Cl 
HETATM   15  C   UNL     1      -7.609   3.115  66.851  1.00  0.00    -0.075 A  
HETATM   16  C   UNL     1      -6.582   3.804  66.210  1.00  0.00    -0.038 A  
HETATM   17  N   UNL     1      -7.322   1.982  67.614  1.00  0.00    -0.054 NA 
HETATM   18  H1  UNL     1      -6.358   1.749  67.854  1.00  0.00     0.000 HD 
HETATM   19  C   UNL     1      -6.868   4.861  65.341  1.00  0.00    -0.061 A  
HETATM   20  H2  UNL     1      -7.741   1.173  67.156  1.00  0.00     0.000 HD 
ENDBRANCH   9  11
ENDBRANCH   8   9
ENDBRANCH   7   8
ENDBRANCH   6   7
ENDBRANCH   3   6
ENDBRANCH   2   3
TORSDOF 7
ENDMDL
MODEL      381
REMARK 921   NORMALIZED FREE ENERGY PREDICTED BY IDOCK:   -0.06 KCAL/MOL
REMARK 922        TOTAL FREE ENERGY PREDICTED BY IDOCK:   -0.48 KCAL/MOL
REMARK 923 INTER-LIGAND FREE ENERGY PREDICTED BY IDOCK:   -0.40 KCAL/MOL
REMARK 924 INTRA-LIGAND FREE ENERGY PREDICTED BY IDOCK:   -0.08 KCAL/MOL
REMARK 927      BINDING AFFINITY PREDICTED BY RF-SCORE:    0.00 PKD
ROOT
HETATM    1  C   UNL     1      -5.175  10.590  64.125  1.00  0.00    -0.156 C  
HETATM    2  C   UNL     1      -5.137  11.026  65.584  1.00  0.00    -0.116 C  
ENDROOT
BRANCH   2   3
HETATM    3  N   UNL     1      -6.449  11.059  66.261  1.00  0.00    -0.129 NA 
BRANCH   3   4
HETATM    4  C   UNL     1      -7.204  12.304  66.035  1.00  0.00     1.615 C  
HETATM    5  C   UNL     1      -8.091  12.779  67.183  1.00  0.00    -0.131 C  
ENDBRANCH   3   4
BRANCH   3   6
HETATM    6  C   UNL     1      -7.200   9.850  65.883  1.00  0.00    -0.108 C  
BRANCH   6   7
HETATM    7  C   UNL     1      -8.254   9.323  66.875  1.00  0.00    -0.119 C  
BRANCH   7   8
HETATM    8  O   UNL     1      -8.893   8.202  66.231  1.00  0.00    -0.146 OA 
BRANCH   8   9
HETATM    9  C   UNL     1      -8.229   7.023  66.376  1.00  0.00    -0.117 C  
HETATM   10  O   UNL     1      -7.804   6.359  65.447  1.00  0.00    -0.093 OA 
BRANCH   9  11
HETATM   11  C   UNL     1      -7.955   6.787  67.829  1.00  0.00    -0.113 A  
HETATM   12  C   UNL     1      -8.984   6.638  68.769  1.00  0.00    -0.125 A  
HETATM   13  C   UNL     1      -8.681   6.308  70.101  1.00  0.00    -0.138 A  
HETATM   14 CL   UNL     1     -10.667   6.804  68.404  1.00  0.00    -0.266 Cl 
HETATM   15  C   UNL     1      -7.363   6.159  70.532  1.00  0.00    -0.085 A  
HETATM   16  C   UNL     1      -6.343   6.244  69.587  1.00  0.00    -0.035 A  
HETATM   17  N   UNL     1      -7.085   5.701  71.821  1.00  0.00    -0.075 NA 
HETATM   18  H1  UNL     1      -6.121   5.591  72.136  1.00  0.00     0.000 HD 
HETATM   19  C   UNL     1      -6.629   6.579  68.260  1.00  0.00    -0.059 A  
HETATM   20  H2  UNL     1      -7.567   4.812  71.956  1.00  0.00     0.000 HD 
ENDBRANCH   9  11
ENDBRANCH   8   9
ENDBRANCH   7   8
ENDBRANCH   6   7
ENDBRANCH   3   6
ENDBRANCH   2   3
TORSDOF 7
ENDMDL
MODEL      382
REMARK 921   NORMALIZED FREE ENERGY PREDICTED BY IDOCK:   -0.01 KCAL/MOL
REMARK 922        TOTAL FREE ENERGY PREDICTED BY IDOCK:   -0.41 KCAL/MOL
REMARK 923 INTER-LIGAND FREE ENERGY PREDICTED BY IDOCK:   -1.90 KCAL/MOL
REMARK 924 INTRA-LIGAND FREE ENERGY PREDICTED BY IDOCK:    1.49 KCAL/MOL
REMARK 927      BINDING AFFINITY PREDICTED BY RF-SCORE:    0.00 PKD
ROOT
HETATM    1  C   UNL     1     -10.842  14.194  69.603  1.00  0.00    -0.059 C  
HETATM    2  C   UNL     1      -9.690  13.556  68.837  1.00  0.00     0.100 C  
ENDROOT
BRANCH   2   3
HETATM    3  N   UNL     1      -9.314  14.246  67.586  1.00  0.00    -0.196 NA 
BRANCH   3   4
HETATM    4  C   UNL     1     -10.370  15.122  67.050  1.00  0.00    -0.271 C  
HETATM    5  C   UNL     1     -10.994  14.699  65.722  1.00  0.00    -0.330 C  
ENDBRANCH   3   4
BRANCH   3   6
HETATM    6  C   UNL     1      -8.037  14.946  67.804  1.00  0.00    -0.152 C  
BRANCH   6   7
HETATM    7  C   UNL     1      -6.962  14.229  68.642  1.00  0.00    -0.105 C  
BRANCH   7   8
HETATM    8  O   UNL     1      -7.541  12.973  69.055  1.00  0.00    -0.008 OA 
BRANCH   8   9
HETATM    9  C   UNL     1      -6.712  12.200  69.808  1.00  0.00     0.100 C  
HETATM   10  O   UNL     1      -5.949  12.636  70.651  1.00  0.00    -0.201 OA 
BRANCH   9  11
HETATM   11  C   UNL     1      -7.026  10.756  69.562  1.00  0.00    -0.130 A  
HETATM   12  C   UNL     1      -7.359  10.270  68.291  1.00  0.00    -0.085 A  
HETATM   13  C   UNL     1      -7.538   8.891  68.087  1.00  0.00    -0.093 A  
HETATM   14 CL   UNL     1      -7.548  11.264  66.887  1.00  0.00    -0.142 Cl 
HETATM   15  C   UNL     1      -7.428   7.980  69.137  1.00  0.00    -0.095 A  
HETATM   16  C   UNL     1      -7.035   8.454  70.386  1.00  0.00    -0.037 A  
HETATM   17  N   UNL     1      -7.475   6.606  68.893  1.00  0.00    -0.093 NA 
HETATM   18  H1  UNL     1      -7.395   5.940  69.661  1.00  0.00     0.000 HD 
HETATM   19  C   UNL     1      -6.861   9.824  70.606  1.00  0.00    -0.108 A  
HETATM   20  H2  UNL     1      -6.763   6.380  68.199  1.00  0.00     0.000 HD 
ENDBRANCH   9  11
ENDBRANCH   8   9
ENDBRANCH   7   8
ENDBRANCH   6   7
ENDBRANCH   3   6
ENDBRANCH   2   3
TORSDOF 7
ENDMDL
MODEL      383
REMARK 921   NORMALIZED FREE ENERGY PREDICTED BY IDOCK:    3.14 KCAL/MOL
REMARK 922        TOTAL FREE ENERGY PREDICTED BY IDOCK:    4.04 KCAL/MOL
REMARK 923 INTER-LIGAND FREE ENERGY PREDICTED BY IDOCK:    1.91 KCAL/MOL
REMARK 924 INTRA-LIGAND FREE ENERGY PREDICTED BY IDOCK:    2.13 KCAL/MOL
REMARK 927      BINDING AFFINITY PREDICTED BY RF-SCORE:    0.00 PKD
ROOT
HETATM    1  C   UNL     1     -11.517  19.815  68.765  1.00  0.00     2.467 C  
HETATM    2  C   UNL     1     -10.368  18.844  68.525  1.00  0.00    -0.251 C  
ENDROOT
BRANCH   2   3
HETATM    3  N   UNL     1      -9.059  19.477  68.264  1.00  0.00    -0.335 NA 
BRANCH   3   4
HETATM    4  C   UNL     1      -9.136  20.930  68.036  1.00  0.00     0.341 C  
HETATM    5  C   UNL     1      -9.382  21.380  66.598  1.00  0.00     1.246 C  
ENDBRANCH   3   4
BRANCH   3   6
HETATM    6  C   UNL     1      -8.138  19.111  69.353  1.00  0.00     0.098 C  
BRANCH   6   7
HETATM    7  C   UNL     1      -7.368  17.784  69.222  1.00  0.00    -0.026 C  
BRANCH   7   8
HETATM    8  O   UNL     1      -8.342  16.782  68.863  1.00  0.00    -0.247 OA 
BRANCH   8   9
HETATM    9  C   UNL     1      -7.892  15.503  68.971  1.00  0.00    -0.201 C  
HETATM   10  O   UNL     1      -6.761  15.204  69.312  1.00  0.00    -0.123 OA 
BRANCH   9  11
HETATM   11  C   UNL     1      -9.039  14.559  68.790  1.00  0.00    -0.158 A  
HETATM   12  C   UNL     1     -10.245  14.954  68.196  1.00  0.00    -0.226 A  
HETATM   13  C   UNL     1     -11.253  14.007  67.947  1.00  0.00    -0.295 A  
HETATM   14 CL   UNL     1     -10.600  16.572  67.696  1.00  0.00    -0.320 Cl 
HETATM   15  C   UNL     1     -11.102  12.669  68.313  1.00  0.00    -0.261 A  
HETATM   16  C   UNL     1      -9.881  12.263  68.845  1.00  0.00     0.087 A  
HETATM   17  N   UNL     1     -12.053  11.718  67.938  1.00  0.00    -0.559 NA 
HETATM   18  H1  UNL     1     -11.942  10.741  68.206  1.00  0.00     0.000 HD 
HETATM   19  C   UNL     1      -8.872  13.195  69.105  1.00  0.00     0.668 A  
HETATM   20  H2  UNL     1     -12.166  11.761  66.925  1.00  0.00     0.000 HD 
ENDBRANCH   9  11
ENDBRANCH   8   9
ENDBRANCH   7   8
ENDBRANCH   6   7
ENDBRANCH   3   6
ENDBRANCH   2   3
TORSDOF 7
ENDMDL
MODEL      384
REMARK 921   NORMALIZED FREE ENERGY PREDICTED BY IDOCK:    5.16 KCAL/MOL
REMARK 922        TOTAL FREE ENERGY PREDICTED BY IDOCK:    6.88 KCAL/MOL
REMARK 923 INTER-LIGAND FREE ENERGY PREDICTED BY IDOCK:   -2.23 KCAL/MOL
REMARK 924 INTRA-LIGAND FREE ENERGY PREDICTED BY IDOCK:    9.11 KCAL/MOL
REMARK 927      BINDING AFFINITY PREDICTED BY RF-SCORE:    0.00 PKD
ROOT
HETATM    1  C   UNL     1      -9.097  10.437  63.900  1.00  0.00    -0.272 C  
HETATM    2  C   UNL     1      -8.787  11.188  65.189  1.00  0.00    -0.046 C  
ENDROOT
BRANCH   2   3
HETATM    3  N   UNL     1      -8.265  10.352  66.289  1.00  0.00    -0.138 NA 
BRANCH   3   4
HETATM    4  C   UNL     1      -9.285   9.501  66.926  1.00  0.00    -0.143 C  
HETATM    5  C   UNL     1     -10.573  10.195  67.361  1.00  0.00    -0.329 C  
ENDBRANCH   3   4
BRANCH   3   6
HETATM    6  C   UNL     1      -7.108   9.591  65.788  1.00  0.00    -0.096 C  
BRANCH   6   7
HETATM    7  C   UNL     1      -5.765   9.765  66.523  1.00  0.00    -0.053 C  
BRANCH   7   8
HETATM    8  O   UNL     1      -6.089  10.022  67.905  1.00  0.00    -0.052 OA 
BRANCH   8   9
HETATM    9  C   UNL     1      -6.233   8.900  68.661  1.00  0.00    -0.046 C  
HETATM   10  O   UNL     1      -5.637   8.698  69.704  1.00  0.00    -0.029 OA 
BRANCH   9  11
HETATM   11  C   UNL     1      -7.352   8.073  68.108  1.00  0.00    -0.096 A  
HETATM   12  C   UNL     1      -7.123   6.959  67.288  1.00  0.00    -0.084 A  
HETATM   13  C   UNL     1      -8.197   6.148  66.883  1.00  0.00    -0.106 A  
HETATM   14 CL   UNL     1      -5.560   6.463  66.735  1.00  0.00    -0.013 Cl 
HETATM   15  C   UNL     1      -9.510   6.444  67.248  1.00  0.00    -0.123 A  
HETATM   16  C   UNL     1      -9.733   7.512  68.113  1.00  0.00    -0.167 A  
HETATM   17  N   UNL     1     -10.546   5.556  66.951  1.00  0.00    -0.303 NA 
HETATM   18  H1  UNL     1     -11.507   5.772  67.218  1.00  0.00     0.000 HD 
HETATM   19  C   UNL     1      -8.675   8.332  68.518  1.00  0.00    -0.133 A  
HETATM   20  H2  UNL     1     -10.306   4.643  67.337  1.00  0.00     0.000 HD 
ENDBRANCH   9  11
ENDBRANCH   8   9
ENDBRANCH   7   8
ENDBRANCH   6   7
ENDBRANCH   3   6
ENDBRANCH   2   3
TORSDOF 7
ENDMDL
MODEL      385
REMARK 921   NORMALIZED FREE ENERGY PREDICTED BY IDOCK:    8.69 KCAL/MOL
REMARK 922        TOTAL FREE ENERGY PREDICTED BY IDOCK:   11.85 KCAL/MOL
REMARK 923 INTER-LIGAND FREE ENERGY PREDICTED BY IDOCK:    3.82 KCAL/MOL
REMARK 924 INTRA-LIGAND FREE ENERGY PREDICTED BY IDOCK:    8.03 KCAL/MOL
REMARK 927      BINDING AFFINITY PREDICTED BY RF-SCORE:    0.00 PKD
ROOT
HETATM    1  C   UNL     1      -8.977  15.339  67.222  1.00  0.00    -0.209 C  
HETATM    2  C   UNL     1      -9.354  14.377  66.102  1.00  0.00    -0.189 C  
ENDROOT
BRANCH   2   3
HETATM    3  N   UNL     1     -10.443  13.434  66.429  1.00  0.00    -0.282 NA 
BRANCH   3   4
HETATM    4  C   UNL     1     -10.738  12.470  65.355  1.00  0.00    -0.280 C  
HETATM    5  C   UNL     1     -11.408  11.165  65.779  1.00  0.00     0.122 C  
ENDBRANCH   3   4
BRANCH   3   6
HETATM    6  C   UNL     1     -10.131  12.789  67.716  1.00  0.00    -0.224 C  
BRANCH   6   7
HETATM    7  C   UNL     1     -10.072  13.684  68.968  1.00  0.00     0.054 C  
BRANCH   7   8
HETATM    8  O   UNL     1     -10.112  15.046  68.496  1.00  0.00    -0.214 OA 
BRANCH   8   9
HETATM    9  C   UNL     1     -11.233  15.728  68.857  1.00  0.00    -0.332 C  
HETATM   10  O   UNL     1     -12.159  15.238  69.478  1.00  0.00    -0.318 OA 
BRANCH   9  11
HETATM   11  C   UNL     1     -11.053  17.179  68.535  1.00  0.00    -0.092 A  
HETATM   12  C   UNL     1     -10.915  17.641  67.219  1.00  0.00    -0.017 A  
HETATM   13  C   UNL     1     -10.860  19.020  66.958  1.00  0.00    -0.438 A  
HETATM   14 CL   UNL     1     -10.833  16.612  65.831  1.00  0.00    -0.144 Cl 
HETATM   15  C   UNL     1     -10.902  19.959  67.989  1.00  0.00     0.031 A  
HETATM   16  C   UNL     1     -11.103  19.505  69.290  1.00  0.00     1.922 A  
HETATM   17  N   UNL     1     -10.982  21.324  67.704  1.00  0.00     2.621 NA 
HETATM   18  H1  UNL     1     -11.013  22.010  68.458  1.00  0.00     0.000 HD 
HETATM   19  C   UNL     1     -11.153  18.135  69.566  1.00  0.00     1.816 A  
HETATM   20  H2  UNL     1     -11.789  21.478  67.099  1.00  0.00     0.000 HD 
ENDBRANCH   9  11
ENDBRANCH   8   9
ENDBRANCH   7   8
ENDBRANCH   6   7
ENDBRANCH   3   6
ENDBRANCH   2   3
TORSDOF 7
ENDMDL
