MODEL        1
REMARK 921   NORMALIZED FREE ENERGY PREDICTED BY IDOCK:   -5.48 KCAL/MOL
REMARK 922        TOTAL FREE ENERGY PREDICTED BY IDOCK:   -8.13 KCAL/MOL
REMARK 923 INTER-LIGAND FREE ENERGY PREDICTED BY IDOCK:   -7.40 KCAL/MOL
REMARK 924 INTRA-LIGAND FREE ENERGY PREDICTED BY IDOCK:   -0.73 KCAL/MOL
REMARK 927      BINDING AFFINITY PREDICTED BY RF-SCORE:    0.00 PKD
ROOT
HETATM    1  O   UNL     1     -12.462  14.157  63.300  1.00  0.00    -0.758 OA 
HETATM    2  C   UNL     1     -12.282  12.848  63.592  1.00  0.00    -0.499 C  
HETATM    3  C   UNL     1     -10.835  12.517  63.890  1.00  0.00    -0.472 C  
HETATM    4  O   UNL     1     -13.206  12.051  63.602  1.00  0.00    -0.737 OA 
ENDROOT
BRANCH   3   5
HETATM    5  C   UNL     1     -10.659  11.031  64.198  1.00  0.00    -0.412 C  
BRANCH   5   6
HETATM    6  C   UNL     1      -9.556  10.776  65.231  1.00  0.00    -0.278 C  
BRANCH   6   7
HETATM    7  C   UNL     1     -10.110  10.577  66.623  1.00  0.00    -0.275 A  
HETATM    8  C   UNL     1     -11.147  11.380  67.108  1.00  0.00    -0.366 A  
HETATM    9  C   UNL     1     -11.627  11.231  68.420  1.00  0.00    -0.378 A  
HETATM   10  C   UNL     1     -11.092  10.283  69.296  1.00  0.00    -0.245 A  
HETATM   11  C   UNL     1     -10.091   9.446  68.772  1.00  0.00    -0.208 A  
HETATM   12  C   UNL     1      -9.603   9.587  67.463  1.00  0.00    -0.176 A  
BRANCH  10  13
HETATM   13  N   UNL     1     -11.491  10.160  70.629  1.00  0.00    -0.326 NA 
BRANCH  13  14
HETATM   14  C   UNL     1     -10.792   9.267  71.575  1.00  0.00    -0.372 C  
HETATM   15 CL   UNL     1     -12.139   7.043  70.652  1.00  0.00    -0.367 Cl 
HETATM   16  C   UNL     1     -11.631   8.068  72.023  1.00  0.00    -0.316 C  
ENDBRANCH  13  14
BRANCH  13  17
HETATM   17  C   UNL     1     -12.912  10.441  70.938  1.00  0.00    -0.387 C  
HETATM   18  C   UNL     1     -13.138  11.627  71.884  1.00  0.00    -0.385 C  
HETATM   19 CL   UNL     1     -12.572  13.175  71.202  1.00  0.00    -0.446 Cl 
ENDBRANCH  13  17
ENDBRANCH  10  13
ENDBRANCH   6   7
ENDBRANCH   5   6
ENDBRANCH   3   5
TORSDOF 6
ENDMDL
MODEL        2
REMARK 921   NORMALIZED FREE ENERGY PREDICTED BY IDOCK:   -5.46 KCAL/MOL
REMARK 922        TOTAL FREE ENERGY PREDICTED BY IDOCK:   -8.10 KCAL/MOL
REMARK 923 INTER-LIGAND FREE ENERGY PREDICTED BY IDOCK:   -7.40 KCAL/MOL
REMARK 924 INTRA-LIGAND FREE ENERGY PREDICTED BY IDOCK:   -0.70 KCAL/MOL
REMARK 927      BINDING AFFINITY PREDICTED BY RF-SCORE:    0.00 PKD
ROOT
HETATM    1  O   UNL     1     -12.256  15.990  63.793  1.00  0.00    -0.895 OA 
HETATM    2  C   UNL     1     -12.300  14.680  64.128  1.00  0.00    -0.265 C  
HETATM    3  C   UNL     1     -11.878  14.436  65.561  1.00  0.00    -0.357 C  
HETATM    4  O   UNL     1     -12.642  13.817  63.336  1.00  0.00    -0.842 OA 
ENDROOT
BRANCH   3   5
HETATM    5  C   UNL     1     -11.919  12.948  65.906  1.00  0.00    -0.504 C  
BRANCH   5   6
HETATM    6  C   UNL     1     -10.642  12.476  66.608  1.00  0.00    -0.259 C  
BRANCH   6   7
HETATM    7  C   UNL     1     -10.932  11.526  67.748  1.00  0.00    -0.291 A  
HETATM    8  C   UNL     1     -11.643  11.949  68.876  1.00  0.00    -0.370 A  
HETATM    9  C   UNL     1     -11.868  11.082  69.958  1.00  0.00    -0.435 A  
HETATM   10  C   UNL     1     -11.392   9.768  69.960  1.00  0.00    -0.220 A  
HETATM   11  C   UNL     1     -10.731   9.344  68.793  1.00  0.00    -0.200 A  
HETATM   12  C   UNL     1     -10.499  10.202  67.707  1.00  0.00    -0.277 A  
BRANCH  10  13
HETATM   13  N   UNL     1     -11.530   8.905  71.049  1.00  0.00    -0.282 NA 
BRANCH  13  14
HETATM   14  C   UNL     1     -12.435   9.207  72.176  1.00  0.00    -0.366 C  
HETATM   15 CL   UNL     1     -14.204   7.223  71.438  1.00  0.00    -0.528 Cl 
HETATM   16  C   UNL     1     -13.909   8.929  71.871  1.00  0.00    -0.440 C  
ENDBRANCH  13  14
BRANCH  13  17
HETATM   17  C   UNL     1     -10.382   8.023  71.363  1.00  0.00    -0.200 C  
HETATM   18  C   UNL     1     -10.700   6.522  71.326  1.00  0.00    -0.237 C  
HETATM   19 CL   UNL     1     -11.197   5.958  69.708  1.00  0.00    -0.433 Cl 
ENDBRANCH  13  17
ENDBRANCH  10  13
ENDBRANCH   6   7
ENDBRANCH   5   6
ENDBRANCH   3   5
TORSDOF 6
ENDMDL
MODEL        3
REMARK 921   NORMALIZED FREE ENERGY PREDICTED BY IDOCK:   -5.45 KCAL/MOL
REMARK 922        TOTAL FREE ENERGY PREDICTED BY IDOCK:   -8.08 KCAL/MOL
REMARK 923 INTER-LIGAND FREE ENERGY PREDICTED BY IDOCK:   -7.16 KCAL/MOL
REMARK 924 INTRA-LIGAND FREE ENERGY PREDICTED BY IDOCK:   -0.92 KCAL/MOL
REMARK 927      BINDING AFFINITY PREDICTED BY RF-SCORE:    0.00 PKD
ROOT
HETATM    1  O   UNL     1     -12.637  13.658  62.957  1.00  0.00    -0.729 OA 
HETATM    2  C   UNL     1     -11.868  12.983  63.842  1.00  0.00    -0.477 C  
HETATM    3  C   UNL     1     -12.477  12.950  65.227  1.00  0.00    -0.552 C  
HETATM    4  O   UNL     1     -10.806  12.473  63.524  1.00  0.00    -0.440 OA 
ENDROOT
BRANCH   3   5
HETATM    5  C   UNL     1     -11.579  12.198  66.209  1.00  0.00    -0.424 C  
BRANCH   5   6
HETATM    6  C   UNL     1     -11.680  12.752  67.635  1.00  0.00    -0.422 C  
BRANCH   6   7
HETATM    7  C   UNL     1     -11.056  14.124  67.761  1.00  0.00    -0.292 A  
HETATM    8  C   UNL     1      -9.810  14.405  67.191  1.00  0.00    -0.254 A  
HETATM    9  C   UNL     1      -9.206  15.663  67.352  1.00  0.00    -0.205 A  
HETATM   10  C   UNL     1      -9.814  16.682  68.089  1.00  0.00    -0.250 A  
HETATM   11  C   UNL     1     -11.092  16.401  68.604  1.00  0.00    -0.352 A  
HETATM   12  C   UNL     1     -11.705  15.147  68.450  1.00  0.00    -0.338 A  
BRANCH  10  13
HETATM   13  N   UNL     1      -9.209  17.917  68.334  1.00  0.00    -0.281 NA 
BRANCH  13  14
HETATM   14  C   UNL     1      -9.997  19.127  68.642  1.00  0.00    -0.419 C  
HETATM   15 CL   UNL     1     -10.625  19.534  65.986  1.00  0.00    -0.595 Cl 
HETATM   16  C   UNL     1      -9.980  20.172  67.524  1.00  0.00    -0.430 C  
ENDBRANCH  13  14
BRANCH  13  17
HETATM   17  C   UNL     1      -7.880  18.151  67.724  1.00  0.00    -0.235 C  
HETATM   18  C   UNL     1      -6.718  18.211  68.725  1.00  0.00    -0.245 C  
HETATM   19 CL   UNL     1      -6.481  16.677  69.604  1.00  0.00    -0.223 Cl 
ENDBRANCH  13  17
ENDBRANCH  10  13
ENDBRANCH   6   7
ENDBRANCH   5   6
ENDBRANCH   3   5
TORSDOF 6
ENDMDL
MODEL        4
REMARK 921   NORMALIZED FREE ENERGY PREDICTED BY IDOCK:   -5.44 KCAL/MOL
REMARK 922        TOTAL FREE ENERGY PREDICTED BY IDOCK:   -8.07 KCAL/MOL
REMARK 923 INTER-LIGAND FREE ENERGY PREDICTED BY IDOCK:   -7.32 KCAL/MOL
REMARK 924 INTRA-LIGAND FREE ENERGY PREDICTED BY IDOCK:   -0.75 KCAL/MOL
REMARK 927      BINDING AFFINITY PREDICTED BY RF-SCORE:    0.00 PKD
ROOT
HETATM    1  O   UNL     1     -11.770  16.551  63.751  1.00  0.00    -1.086 OA 
HETATM    2  C   UNL     1     -11.183  15.755  64.674  1.00  0.00    -0.363 C  
HETATM    3  C   UNL     1     -12.036  14.557  65.030  1.00  0.00    -0.390 C  
HETATM    4  O   UNL     1     -10.087  16.008  65.148  1.00  0.00    -0.485 OA 
ENDROOT
BRANCH   3   5
HETATM    5  C   UNL     1     -11.357  13.687  66.087  1.00  0.00    -0.324 C  
BRANCH   5   6
HETATM    6  C   UNL     1     -11.682  14.142  67.514  1.00  0.00    -0.418 C  
BRANCH   6   7
HETATM    7  C   UNL     1     -11.774  12.981  68.478  1.00  0.00    -0.377 A  
HETATM    8  C   UNL     1     -12.167  13.175  69.806  1.00  0.00    -0.266 A  
HETATM    9  C   UNL     1     -12.202  12.106  70.716  1.00  0.00    -0.367 A  
HETATM   10  C   UNL     1     -11.845  10.808  70.341  1.00  0.00    -0.358 A  
HETATM   11  C   UNL     1     -11.510  10.621  68.988  1.00  0.00    -0.342 A  
HETATM   12  C   UNL     1     -11.470  11.683  68.070  1.00  0.00    -0.385 A  
BRANCH  10  13
HETATM   13  N   UNL     1     -11.794   9.738  71.237  1.00  0.00    -0.370 NA 
BRANCH  13  14
HETATM   14  C   UNL     1     -12.743   9.615  72.363  1.00  0.00    -0.191 C  
HETATM   15 CL   UNL     1     -14.003   7.446  71.216  1.00  0.00    -0.438 Cl 
HETATM   16  C   UNL     1     -14.112   9.067  71.955  1.00  0.00    -0.368 C  
ENDBRANCH  13  14
BRANCH  13  17
HETATM   17  C   UNL     1     -10.484   9.072  71.421  1.00  0.00    -0.324 C  
HETATM   18  C   UNL     1     -10.507   7.551  71.224  1.00  0.00    -0.207 C  
HETATM   19 CL   UNL     1     -10.957   7.074  69.565  1.00  0.00    -0.262 Cl 
ENDBRANCH  13  17
ENDBRANCH  10  13
ENDBRANCH   6   7
ENDBRANCH   5   6
ENDBRANCH   3   5
TORSDOF 6
ENDMDL
MODEL        5
REMARK 921   NORMALIZED FREE ENERGY PREDICTED BY IDOCK:   -5.39 KCAL/MOL
REMARK 922        TOTAL FREE ENERGY PREDICTED BY IDOCK:   -8.00 KCAL/MOL
REMARK 923 INTER-LIGAND FREE ENERGY PREDICTED BY IDOCK:   -7.20 KCAL/MOL
REMARK 924 INTRA-LIGAND FREE ENERGY PREDICTED BY IDOCK:   -0.80 KCAL/MOL
REMARK 927      BINDING AFFINITY PREDICTED BY RF-SCORE:    0.00 PKD
ROOT
HETATM    1  O   UNL     1     -12.416  15.269  74.494  1.00  0.00    -0.582 OA 
HETATM    2  C   UNL     1     -12.874  14.967  73.257  1.00  0.00    -0.530 C  
HETATM    3  C   UNL     1     -12.361  15.923  72.202  1.00  0.00    -0.557 C  
HETATM    4  O   UNL     1     -13.620  14.023  73.052  1.00  0.00    -0.644 OA 
ENDROOT
BRANCH   3   5
HETATM    5  C   UNL     1     -12.908  15.569  70.820  1.00  0.00    -0.513 C  
BRANCH   5   6
HETATM    6  C   UNL     1     -11.943  15.956  69.693  1.00  0.00    -0.272 C  
BRANCH   6   7
HETATM    7  C   UNL     1     -11.699  14.815  68.731  1.00  0.00    -0.354 A  
HETATM    8  C   UNL     1     -11.938  13.490  69.109  1.00  0.00    -0.378 A  
HETATM    9  C   UNL     1     -11.662  12.426  68.234  1.00  0.00    -0.398 A  
HETATM   10  C   UNL     1     -11.136  12.640  66.958  1.00  0.00    -0.281 A  
HETATM   11  C   UNL     1     -10.958  13.982  66.574  1.00  0.00    -0.306 A  
HETATM   12  C   UNL     1     -11.229  15.052  67.441  1.00  0.00    -0.337 A  
BRANCH  10  13
HETATM   13  N   UNL     1     -10.778  11.604  66.092  1.00  0.00    -0.269 NA 
BRANCH  13  14
HETATM   14  C   UNL     1     -10.465  10.247  66.585  1.00  0.00    -0.194 C  
HETATM   15 CL   UNL     1      -8.073  11.073  67.686  1.00  0.00    -0.114 Cl 
HETATM   16  C   UNL     1      -8.966   9.942  66.632  1.00  0.00    -0.139 C  
ENDBRANCH  13  14
BRANCH  13  17
HETATM   17  C   UNL     1     -10.150  11.983  64.806  1.00  0.00    -0.257 C  
HETATM   18  C   UNL     1     -10.898  11.491  63.560  1.00  0.00    -0.398 C  
HETATM   19 CL   UNL     1     -12.535  12.184  63.415  1.00  0.00    -0.677 Cl 
ENDBRANCH  13  17
ENDBRANCH  10  13
ENDBRANCH   6   7
ENDBRANCH   5   6
ENDBRANCH   3   5
TORSDOF 6
ENDMDL
MODEL        6
REMARK 921   NORMALIZED FREE ENERGY PREDICTED BY IDOCK:   -5.37 KCAL/MOL
REMARK 922        TOTAL FREE ENERGY PREDICTED BY IDOCK:   -7.98 KCAL/MOL
REMARK 923 INTER-LIGAND FREE ENERGY PREDICTED BY IDOCK:   -7.12 KCAL/MOL
REMARK 924 INTRA-LIGAND FREE ENERGY PREDICTED BY IDOCK:   -0.86 KCAL/MOL
REMARK 927      BINDING AFFINITY PREDICTED BY RF-SCORE:    0.00 PKD
ROOT
HETATM    1  O   UNL     1     -13.011  14.039  65.113  1.00  0.00    -0.744 OA 
HETATM    2  C   UNL     1     -12.378  13.373  66.106  1.00  0.00    -0.380 C  
HETATM    3  C   UNL     1     -11.885  14.298  67.198  1.00  0.00    -0.454 C  
HETATM    4  O   UNL     1     -12.237  12.161  66.089  1.00  0.00    -0.611 OA 
ENDROOT
BRANCH   3   5
HETATM    5  C   UNL     1     -11.159  13.522  68.296  1.00  0.00    -0.287 C  
BRANCH   5   6
HETATM    6  C   UNL     1     -12.060  13.239  69.504  1.00  0.00    -0.315 C  
BRANCH   6   7
HETATM    7  C   UNL     1     -11.927  11.816  69.997  1.00  0.00    -0.421 A  
HETATM    8  C   UNL     1     -12.757  11.323  71.009  1.00  0.00    -0.457 A  
HETATM    9  C   UNL     1     -12.600  10.018  71.504  1.00  0.00    -0.525 A  
HETATM   10  C   UNL     1     -11.612   9.159  71.015  1.00  0.00    -0.306 A  
HETATM   11  C   UNL     1     -10.826   9.652  69.957  1.00  0.00    -0.302 A  
HETATM   12  C   UNL     1     -10.974  10.956  69.456  1.00  0.00    -0.306 A  
BRANCH  10  13
HETATM   13  N   UNL     1     -11.377   7.885  71.536  1.00  0.00    -0.251 NA 
BRANCH  13  14
HETATM   14  C   UNL     1     -12.015   6.679  70.969  1.00  0.00    -0.359 C  
HETATM   15 CL   UNL     1      -9.613   5.717  70.012  1.00  0.00    -0.200 Cl 
HETATM   16  C   UNL     1     -11.319   6.149  69.714  1.00  0.00    -0.382 C  
ENDBRANCH  13  14
BRANCH  13  17
HETATM   17  C   UNL     1     -10.988   7.799  72.962  1.00  0.00    -0.381 C  
HETATM   18  C   UNL     1      -9.561   7.291  73.207  1.00  0.00    -0.212 C  
HETATM   19 CL   UNL     1      -8.315   8.372  72.526  1.00  0.00    -0.230 Cl 
ENDBRANCH  13  17
ENDBRANCH  10  13
ENDBRANCH   6   7
ENDBRANCH   5   6
ENDBRANCH   3   5
TORSDOF 6
ENDMDL
MODEL        7
REMARK 921   NORMALIZED FREE ENERGY PREDICTED BY IDOCK:   -5.30 KCAL/MOL
REMARK 922        TOTAL FREE ENERGY PREDICTED BY IDOCK:   -7.89 KCAL/MOL
REMARK 923 INTER-LIGAND FREE ENERGY PREDICTED BY IDOCK:   -7.05 KCAL/MOL
REMARK 924 INTRA-LIGAND FREE ENERGY PREDICTED BY IDOCK:   -0.84 KCAL/MOL
REMARK 927      BINDING AFFINITY PREDICTED BY RF-SCORE:    0.00 PKD
ROOT
HETATM    1  O   UNL     1     -12.668  12.332  63.916  1.00  0.00    -0.668 OA 
HETATM    2  C   UNL     1     -12.632  13.020  65.080  1.00  0.00    -0.454 C  
HETATM    3  C   UNL     1     -11.714  12.382  66.100  1.00  0.00    -0.460 C  
HETATM    4  O   UNL     1     -13.284  14.037  65.254  1.00  0.00    -0.782 OA 
ENDROOT
BRANCH   3   5
HETATM    5  C   UNL     1     -11.708  13.170  67.410  1.00  0.00    -0.419 C  
BRANCH   5   6
HETATM    6  C   UNL     1     -10.500  12.829  68.290  1.00  0.00    -0.250 C  
BRANCH   6   7
HETATM    7  C   UNL     1     -10.715  11.566  69.094  1.00  0.00    -0.210 A  
HETATM    8  C   UNL     1      -9.739  10.567  69.142  1.00  0.00    -0.226 A  
HETATM    9  C   UNL     1      -9.959   9.371  69.845  1.00  0.00    -0.237 A  
HETATM   10  C   UNL     1     -11.157   9.124  70.521  1.00  0.00    -0.260 A  
HETATM   11  C   UNL     1     -12.103  10.165  70.511  1.00  0.00    -0.380 A  
HETATM   12  C   UNL     1     -11.894  11.364  69.809  1.00  0.00    -0.435 A  
BRANCH  10  13
HETATM   13  N   UNL     1     -11.440   7.917  71.164  1.00  0.00    -0.270 NA 
BRANCH  13  14
HETATM   14  C   UNL     1     -12.090   6.792  70.464  1.00  0.00    -0.274 C  
HETATM   15 CL   UNL     1      -9.745   5.342  70.371  1.00  0.00    -0.242 Cl 
HETATM   16  C   UNL     1     -11.155   6.033  69.520  1.00  0.00    -0.398 C  
ENDBRANCH  13  14
BRANCH  13  17
HETATM   17  C   UNL     1     -11.634   7.963  72.632  1.00  0.00    -0.377 C  
HETATM   18  C   UNL     1     -10.498   7.333  73.447  1.00  0.00    -0.377 C  
HETATM   19 CL   UNL     1      -8.940   8.176  73.233  1.00  0.00    -0.332 Cl 
ENDBRANCH  13  17
ENDBRANCH  10  13
ENDBRANCH   6   7
ENDBRANCH   5   6
ENDBRANCH   3   5
TORSDOF 6
ENDMDL
MODEL        8
REMARK 921   NORMALIZED FREE ENERGY PREDICTED BY IDOCK:   -5.30 KCAL/MOL
REMARK 922        TOTAL FREE ENERGY PREDICTED BY IDOCK:   -7.89 KCAL/MOL
REMARK 923 INTER-LIGAND FREE ENERGY PREDICTED BY IDOCK:   -7.13 KCAL/MOL
REMARK 924 INTRA-LIGAND FREE ENERGY PREDICTED BY IDOCK:   -0.77 KCAL/MOL
REMARK 927      BINDING AFFINITY PREDICTED BY RF-SCORE:    0.00 PKD
ROOT
HETATM    1  O   UNL     1     -12.674  16.442  74.509  1.00  0.00    -0.732 OA 
HETATM    2  C   UNL     1     -13.174  15.796  73.431  1.00  0.00    -0.544 C  
HETATM    3  C   UNL     1     -12.301  14.640  72.994  1.00  0.00    -0.338 C  
HETATM    4  O   UNL     1     -14.216  16.137  72.893  1.00  0.00    -0.397 OA 
ENDROOT
BRANCH   3   5
HETATM    5  C   UNL     1     -12.880  13.941  71.764  1.00  0.00    -0.421 C  
BRANCH   5   6
HETATM    6  C   UNL     1     -13.655  12.669  72.126  1.00  0.00    -0.510 C  
BRANCH   6   7
HETATM    7  C   UNL     1     -12.960  11.417  71.639  1.00  0.00    -0.523 A  
HETATM    8  C   UNL     1     -12.005  11.473  70.620  1.00  0.00    -0.391 A  
HETATM    9  C   UNL     1     -11.398  10.305  70.131  1.00  0.00    -0.388 A  
HETATM   10  C   UNL     1     -11.721   9.041  70.633  1.00  0.00    -0.198 A  
HETATM   11  C   UNL     1     -12.640   9.011  71.698  1.00  0.00    -0.414 A  
HETATM   12  C   UNL     1     -13.254  10.173  72.193  1.00  0.00    -0.463 A  
BRANCH  10  13
HETATM   13  N   UNL     1     -11.195   7.854  70.119  1.00  0.00    -0.206 NA 
BRANCH  13  14
HETATM   14  C   UNL     1     -11.700   6.530  70.535  1.00  0.00    -0.375 C  
HETATM   15 CL   UNL     1     -10.442   6.692  72.985  1.00  0.00    -0.243 Cl 
HETATM   16  C   UNL     1     -10.758   5.783  71.481  1.00  0.00    -0.258 C  
ENDBRANCH  13  14
BRANCH  13  17
HETATM   17  C   UNL     1      -9.795   7.888  69.636  1.00  0.00    -0.179 C  
HETATM   18  C   UNL     1      -9.595   7.345  68.215  1.00  0.00    -0.150 C  
HETATM   19 CL   UNL     1     -10.458   8.300  66.980  1.00  0.00    -0.395 Cl 
ENDBRANCH  13  17
ENDBRANCH  10  13
ENDBRANCH   6   7
ENDBRANCH   5   6
ENDBRANCH   3   5
TORSDOF 6
ENDMDL
MODEL        9
REMARK 921   NORMALIZED FREE ENERGY PREDICTED BY IDOCK:   -5.29 KCAL/MOL
REMARK 922        TOTAL FREE ENERGY PREDICTED BY IDOCK:   -7.87 KCAL/MOL
REMARK 923 INTER-LIGAND FREE ENERGY PREDICTED BY IDOCK:   -7.27 KCAL/MOL
REMARK 924 INTRA-LIGAND FREE ENERGY PREDICTED BY IDOCK:   -0.60 KCAL/MOL
REMARK 927      BINDING AFFINITY PREDICTED BY RF-SCORE:    0.00 PKD
ROOT
HETATM    1  O   UNL     1     -12.232   6.042  72.221  1.00  0.00    -0.281 OA 
HETATM    2  C   UNL     1     -11.793   7.026  71.402  1.00  0.00    -0.320 C  
HETATM    3  C   UNL     1     -11.605   8.340  72.129  1.00  0.00    -0.428 C  
HETATM    4  O   UNL     1     -11.586   6.840  70.214  1.00  0.00    -0.353 OA 
ENDROOT
BRANCH   3   5
HETATM    5  C   UNL     1     -11.127   9.436  71.177  1.00  0.00    -0.432 C  
BRANCH   5   6
HETATM    6  C   UNL     1     -12.077  10.640  71.149  1.00  0.00    -0.445 C  
BRANCH   6   7
HETATM    7  C   UNL     1     -11.911  11.470  69.896  1.00  0.00    -0.426 A  
HETATM    8  C   UNL     1     -12.114  12.854  69.916  1.00  0.00    -0.335 A  
HETATM    9  C   UNL     1     -12.012  13.618  68.742  1.00  0.00    -0.394 A  
HETATM   10  C   UNL     1     -11.709  13.036  67.508  1.00  0.00    -0.370 A  
HETATM   11  C   UNL     1     -11.451  11.653  67.519  1.00  0.00    -0.360 A  
HETATM   12  C   UNL     1     -11.552  10.880  68.686  1.00  0.00    -0.373 A  
BRANCH  10  13
HETATM   13  N   UNL     1     -11.676  13.753  66.310  1.00  0.00    -0.358 NA 
BRANCH  13  14
HETATM   14  C   UNL     1     -12.659  13.521  65.233  1.00  0.00    -0.468 C  
HETATM   15 CL   UNL     1     -11.067  11.612  64.034  1.00  0.00    -0.439 Cl 
HETATM   16  C   UNL     1     -12.025  13.113  63.901  1.00  0.00    -0.488 C  
ENDBRANCH  13  14
BRANCH  13  17
HETATM   17  C   UNL     1     -10.365  14.294  65.882  1.00  0.00    -0.314 C  
HETATM   18  C   UNL     1     -10.307  15.823  65.780  1.00  0.00    -0.369 C  
HETATM   19 CL   UNL     1     -10.571  16.633  67.348  1.00  0.00    -0.316 Cl 
ENDBRANCH  13  17
ENDBRANCH  10  13
ENDBRANCH   6   7
ENDBRANCH   5   6
ENDBRANCH   3   5
TORSDOF 6
ENDMDL
MODEL       10
REMARK 921   NORMALIZED FREE ENERGY PREDICTED BY IDOCK:   -5.28 KCAL/MOL
REMARK 922        TOTAL FREE ENERGY PREDICTED BY IDOCK:   -7.86 KCAL/MOL
REMARK 923 INTER-LIGAND FREE ENERGY PREDICTED BY IDOCK:   -7.15 KCAL/MOL
REMARK 924 INTRA-LIGAND FREE ENERGY PREDICTED BY IDOCK:   -0.71 KCAL/MOL
REMARK 927      BINDING AFFINITY PREDICTED BY RF-SCORE:    0.00 PKD
ROOT
HETATM    1  O   UNL     1     -12.132   5.790  72.493  1.00  0.00    -0.241 OA 
HETATM    2  C   UNL     1     -11.839   6.810  71.654  1.00  0.00    -0.326 C  
HETATM    3  C   UNL     1     -11.512   8.090  72.393  1.00  0.00    -0.449 C  
HETATM    4  O   UNL     1     -11.851   6.678  70.441  1.00  0.00    -0.396 OA 
ENDROOT
BRANCH   3   5
HETATM    5  C   UNL     1     -11.204   9.228  71.421  1.00  0.00    -0.433 C  
BRANCH   5   6
HETATM    6  C   UNL     1     -12.346  10.246  71.334  1.00  0.00    -0.502 C  
BRANCH   6   7
HETATM    7  C   UNL     1     -12.112  11.278  70.254  1.00  0.00    -0.459 A  
HETATM    8  C   UNL     1     -12.269  12.643  70.514  1.00  0.00    -0.383 A  
HETATM    9  C   UNL     1     -12.103  13.599  69.498  1.00  0.00    -0.368 A  
HETATM   10  C   UNL     1     -11.780  13.233  68.189  1.00  0.00    -0.362 A  
HETATM   11  C   UNL     1     -11.569  11.861  67.960  1.00  0.00    -0.401 A  
HETATM   12  C   UNL     1     -11.734  10.898  68.968  1.00  0.00    -0.391 A  
BRANCH  10  13
HETATM   13  N   UNL     1     -11.684  14.149  67.139  1.00  0.00    -0.382 NA 
BRANCH  13  14
HETATM   14  C   UNL     1     -11.294  15.556  67.362  1.00  0.00    -0.203 C  
HETATM   15 CL   UNL     1      -8.723  15.107  66.469  1.00  0.00    -0.312 Cl 
HETATM   16  C   UNL     1      -9.820  15.733  67.730  1.00  0.00    -0.224 C  
ENDBRANCH  13  14
BRANCH  13  17
HETATM   17  C   UNL     1     -12.513  13.892  65.939  1.00  0.00    -0.481 C  
HETATM   18  C   UNL     1     -11.800  14.137  64.603  1.00  0.00    -0.431 C  
HETATM   19 CL   UNL     1     -10.405  13.053  64.354  1.00  0.00    -0.409 Cl 
ENDBRANCH  13  17
ENDBRANCH  10  13
ENDBRANCH   6   7
ENDBRANCH   5   6
ENDBRANCH   3   5
TORSDOF 6
ENDMDL
MODEL       11
REMARK 921   NORMALIZED FREE ENERGY PREDICTED BY IDOCK:   -5.28 KCAL/MOL
REMARK 922        TOTAL FREE ENERGY PREDICTED BY IDOCK:   -7.86 KCAL/MOL
REMARK 923 INTER-LIGAND FREE ENERGY PREDICTED BY IDOCK:   -7.09 KCAL/MOL
REMARK 924 INTRA-LIGAND FREE ENERGY PREDICTED BY IDOCK:   -0.77 KCAL/MOL
REMARK 927      BINDING AFFINITY PREDICTED BY RF-SCORE:    0.00 PKD
ROOT
HETATM    1  O   UNL     1     -11.687  16.229  63.872  1.00  0.00    -0.986 OA 
HETATM    2  C   UNL     1     -11.938  14.978  64.323  1.00  0.00    -0.295 C  
HETATM    3  C   UNL     1     -11.411  14.754  65.724  1.00  0.00    -0.336 C  
HETATM    4  O   UNL     1     -12.522  14.147  63.647  1.00  0.00    -0.819 OA 
ENDROOT
BRANCH   3   5
HETATM    5  C   UNL     1     -11.691  13.329  66.200  1.00  0.00    -0.416 C  
BRANCH   5   6
HETATM    6  C   UNL     1     -12.011  13.266  67.698  1.00  0.00    -0.366 C  
BRANCH   6   7
HETATM    7  C   UNL     1     -11.636  11.934  68.309  1.00  0.00    -0.390 A  
HETATM    8  C   UNL     1     -11.788  11.701  69.679  1.00  0.00    -0.419 A  
HETATM    9  C   UNL     1     -11.391  10.483  70.255  1.00  0.00    -0.407 A  
HETATM   10  C   UNL     1     -10.826   9.457  69.493  1.00  0.00    -0.213 A  
HETATM   11  C   UNL     1     -10.736   9.688  68.108  1.00  0.00    -0.266 A  
HETATM   12  C   UNL     1     -11.128  10.902  67.522  1.00  0.00    -0.375 A  
BRANCH  10  13
HETATM   13  N   UNL     1     -10.350   8.265  70.044  1.00  0.00    -0.207 NA 
BRANCH  13  14
HETATM   14  C   UNL     1      -8.924   8.073  70.377  1.00  0.00    -0.146 C  
HETATM   15 CL   UNL     1      -9.422   8.196  73.088  1.00  0.00    -0.337 Cl 
HETATM   16  C   UNL     1      -8.498   8.768  71.672  1.00  0.00    -0.141 C  
ENDBRANCH  13  14
BRANCH  13  17
HETATM   17  C   UNL     1     -11.117   7.032  69.752  1.00  0.00    -0.241 C  
HETATM   18  C   UNL     1     -11.907   6.473  70.942  1.00  0.00    -0.331 C  
HETATM   19 CL   UNL     1     -13.171   7.591  71.521  1.00  0.00    -0.405 Cl 
ENDBRANCH  13  17
ENDBRANCH  10  13
ENDBRANCH   6   7
ENDBRANCH   5   6
ENDBRANCH   3   5
TORSDOF 6
ENDMDL
MODEL       12
REMARK 921   NORMALIZED FREE ENERGY PREDICTED BY IDOCK:   -5.27 KCAL/MOL
REMARK 922        TOTAL FREE ENERGY PREDICTED BY IDOCK:   -7.85 KCAL/MOL
REMARK 923 INTER-LIGAND FREE ENERGY PREDICTED BY IDOCK:   -7.02 KCAL/MOL
REMARK 924 INTRA-LIGAND FREE ENERGY PREDICTED BY IDOCK:   -0.83 KCAL/MOL
REMARK 927      BINDING AFFINITY PREDICTED BY RF-SCORE:    0.00 PKD
ROOT
HETATM    1  O   UNL     1     -12.603  14.074  63.249  1.00  0.00    -0.801 OA 
HETATM    2  C   UNL     1     -12.374  13.203  64.259  1.00  0.00    -0.351 C  
HETATM    3  C   UNL     1     -11.007  13.389  64.881  1.00  0.00    -0.353 C  
HETATM    4  O   UNL     1     -13.199  12.371  64.600  1.00  0.00    -0.822 OA 
ENDROOT
BRANCH   3   5
HETATM    5  C   UNL     1     -10.768  12.381  66.005  1.00  0.00    -0.294 C  
BRANCH   5   6
HETATM    6  C   UNL     1     -11.256  12.895  67.364  1.00  0.00    -0.331 C  
BRANCH   6   7
HETATM    7  C   UNL     1     -10.677  14.250  67.705  1.00  0.00    -0.253 A  
HETATM    8  C   UNL     1     -11.504  15.317  68.071  1.00  0.00    -0.351 A  
HETATM    9  C   UNL     1     -10.971  16.588  68.337  1.00  0.00    -0.348 A  
HETATM   10  C   UNL     1      -9.601  16.847  68.246  1.00  0.00    -0.258 A  
HETATM   11  C   UNL     1      -8.780  15.748  67.935  1.00  0.00    -0.170 A  
HETATM   12  C   UNL     1      -9.302  14.472  67.665  1.00  0.00    -0.202 A  
BRANCH  10  13
HETATM   13  N   UNL     1      -9.046  18.115  68.428  1.00  0.00    -0.302 NA 
BRANCH  13  14
HETATM   14  C   UNL     1      -9.882  19.303  68.697  1.00  0.00    -0.431 C  
HETATM   15 CL   UNL     1     -10.641  19.510  66.052  1.00  0.00    -0.595 Cl 
HETATM   16  C   UNL     1      -9.966  20.274  67.518  1.00  0.00    -0.416 C  
ENDBRANCH  13  14
BRANCH  13  17
HETATM   17  C   UNL     1      -7.737  18.379  67.787  1.00  0.00    -0.232 C  
HETATM   18  C   UNL     1      -6.583  18.628  68.767  1.00  0.00    -0.265 C  
HETATM   19 CL   UNL     1      -6.235  17.216  69.800  1.00  0.00    -0.239 Cl 
ENDBRANCH  13  17
ENDBRANCH  10  13
ENDBRANCH   6   7
ENDBRANCH   5   6
ENDBRANCH   3   5
TORSDOF 6
ENDMDL
MODEL       13
REMARK 921   NORMALIZED FREE ENERGY PREDICTED BY IDOCK:   -5.26 KCAL/MOL
REMARK 922        TOTAL FREE ENERGY PREDICTED BY IDOCK:   -7.84 KCAL/MOL
REMARK 923 INTER-LIGAND FREE ENERGY PREDICTED BY IDOCK:   -7.18 KCAL/MOL
REMARK 924 INTRA-LIGAND FREE ENERGY PREDICTED BY IDOCK:   -0.65 KCAL/MOL
REMARK 927      BINDING AFFINITY PREDICTED BY RF-SCORE:    0.00 PKD
ROOT
HETATM    1  O   UNL     1     -12.638  13.832  63.142  1.00  0.00    -0.793 OA 
HETATM    2  C   UNL     1     -12.696  13.290  64.380  1.00  0.00    -0.117 C  
HETATM    3  C   UNL     1     -11.966  14.125  65.410  1.00  0.00    -0.382 C  
HETATM    4  O   UNL     1     -13.279  12.242  64.605  1.00  0.00    -0.763 OA 
ENDROOT
BRANCH   3   5
HETATM    5  C   UNL     1     -12.033  13.481  66.794  1.00  0.00    -0.453 C  
BRANCH   5   6
HETATM    6  C   UNL     1     -10.858  12.531  67.053  1.00  0.00    -0.287 C  
BRANCH   6   7
HETATM    7  C   UNL     1     -11.082  11.662  68.270  1.00  0.00    -0.287 A  
HETATM    8  C   UNL     1     -10.466  10.412  68.388  1.00  0.00    -0.216 A  
HETATM    9  C   UNL     1     -10.715   9.582  69.493  1.00  0.00    -0.246 A  
HETATM   10  C   UNL     1     -11.586   9.962  70.518  1.00  0.00    -0.309 A  
HETATM   11  C   UNL     1     -12.149  11.246  70.411  1.00  0.00    -0.474 A  
HETATM   12  C   UNL     1     -11.909  12.083  69.310  1.00  0.00    -0.377 A  
BRANCH  10  13
HETATM   13  N   UNL     1     -11.915   9.131  71.591  1.00  0.00    -0.342 NA 
BRANCH  13  14
HETATM   14  C   UNL     1     -13.140   9.336  72.390  1.00  0.00    -0.406 C  
HETATM   15 CL   UNL     1     -14.327   7.065  71.367  1.00  0.00    -0.433 Cl 
HETATM   16  C   UNL     1     -14.409   8.815  71.713  1.00  0.00    -0.330 C  
ENDBRANCH  13  14
BRANCH  13  17
HETATM   17  C   UNL     1     -10.799   8.448  72.284  1.00  0.00    -0.352 C  
HETATM   18  C   UNL     1     -11.016   6.947  72.520  1.00  0.00    -0.260 C  
HETATM   19 CL   UNL     1     -11.160   6.020  71.003  1.00  0.00    -0.357 Cl 
ENDBRANCH  13  17
ENDBRANCH  10  13
ENDBRANCH   6   7
ENDBRANCH   5   6
ENDBRANCH   3   5
TORSDOF 6
ENDMDL
MODEL       14
REMARK 921   NORMALIZED FREE ENERGY PREDICTED BY IDOCK:   -5.24 KCAL/MOL
REMARK 922        TOTAL FREE ENERGY PREDICTED BY IDOCK:   -7.81 KCAL/MOL
REMARK 923 INTER-LIGAND FREE ENERGY PREDICTED BY IDOCK:   -7.11 KCAL/MOL
REMARK 924 INTRA-LIGAND FREE ENERGY PREDICTED BY IDOCK:   -0.70 KCAL/MOL
REMARK 927      BINDING AFFINITY PREDICTED BY RF-SCORE:    0.00 PKD
ROOT
HETATM    1  O   UNL     1     -13.104  12.157  63.500  1.00  0.00    -0.785 OA 
HETATM    2  C   UNL     1     -12.142  12.347  64.432  1.00  0.00    -0.426 C  
HETATM    3  C   UNL     1     -12.482  13.465  65.393  1.00  0.00    -0.543 C  
HETATM    4  O   UNL     1     -11.124  11.674  64.461  1.00  0.00    -0.321 OA 
ENDROOT
BRANCH   3   5
HETATM    5  C   UNL     1     -11.370  13.669  66.421  1.00  0.00    -0.331 C  
BRANCH   5   6
HETATM    6  C   UNL     1     -11.917  13.911  67.833  1.00  0.00    -0.393 C  
BRANCH   6   7
HETATM    7  C   UNL     1     -11.901  12.657  68.676  1.00  0.00    -0.342 A  
HETATM    8  C   UNL     1     -12.269  12.690  70.025  1.00  0.00    -0.267 A  
HETATM    9  C   UNL     1     -12.205  11.535  70.823  1.00  0.00    -0.463 A  
HETATM   10  C   UNL     1     -11.769  10.310  70.311  1.00  0.00    -0.306 A  
HETATM   11  C   UNL     1     -11.460  10.283  68.939  1.00  0.00    -0.190 A  
HETATM   12  C   UNL     1     -11.519  11.432  68.133  1.00  0.00    -0.375 A  
BRANCH  10  13
HETATM   13  N   UNL     1     -11.619   9.163  71.092  1.00  0.00    -0.295 NA 
BRANCH  13  14
HETATM   14  C   UNL     1     -12.326   8.995  72.378  1.00  0.00    -0.280 C  
HETATM   15 CL   UNL     1     -14.390   7.599  71.194  1.00  0.00    -0.411 Cl 
HETATM   16  C   UNL     1     -13.849   8.942  72.239  1.00  0.00    -0.474 C  
ENDBRANCH  13  14
BRANCH  13  17
HETATM   17  C   UNL     1     -10.353   8.408  70.949  1.00  0.00    -0.194 C  
HETATM   18  C   UNL     1     -10.506   6.883  71.019  1.00  0.00    -0.214 C  
HETATM   19 CL   UNL     1     -11.505   6.225  69.696  1.00  0.00    -0.498 Cl 
ENDBRANCH  13  17
ENDBRANCH  10  13
ENDBRANCH   6   7
ENDBRANCH   5   6
ENDBRANCH   3   5
TORSDOF 6
ENDMDL
MODEL       15
REMARK 921   NORMALIZED FREE ENERGY PREDICTED BY IDOCK:   -5.23 KCAL/MOL
REMARK 922        TOTAL FREE ENERGY PREDICTED BY IDOCK:   -7.79 KCAL/MOL
REMARK 923 INTER-LIGAND FREE ENERGY PREDICTED BY IDOCK:   -7.34 KCAL/MOL
REMARK 924 INTRA-LIGAND FREE ENERGY PREDICTED BY IDOCK:   -0.45 KCAL/MOL
REMARK 927      BINDING AFFINITY PREDICTED BY RF-SCORE:    0.00 PKD
ROOT
HETATM    1  O   UNL     1     -11.697   6.689  72.244  1.00  0.00    -0.284 OA 
HETATM    2  C   UNL     1     -12.599   7.573  71.759  1.00  0.00    -0.334 C  
HETATM    3  C   UNL     1     -12.084   8.996  71.788  1.00  0.00    -0.438 C  
HETATM    4  O   UNL     1     -13.697   7.227  71.355  1.00  0.00    -0.389 OA 
ENDROOT
BRANCH   3   5
HETATM    5  C   UNL     1     -13.129   9.975  71.253  1.00  0.00    -0.493 C  
BRANCH   5   6
HETATM    6  C   UNL     1     -12.694  11.436  71.409  1.00  0.00    -0.489 C  
BRANCH   6   7
HETATM    7  C   UNL     1     -12.247  12.044  70.099  1.00  0.00    -0.309 A  
HETATM    8  C   UNL     1     -12.102  13.428  69.958  1.00  0.00    -0.404 A  
HETATM    9  C   UNL     1     -11.738  13.998  68.728  1.00  0.00    -0.388 A  
HETATM   10  C   UNL     1     -11.510  13.215  67.593  1.00  0.00    -0.324 A  
HETATM   11  C   UNL     1     -11.603  11.822  67.768  1.00  0.00    -0.374 A  
HETATM   12  C   UNL     1     -11.968  11.243  68.994  1.00  0.00    -0.393 A  
BRANCH  10  13
HETATM   13  N   UNL     1     -11.222  13.752  66.336  1.00  0.00    -0.311 NA 
BRANCH  13  14
HETATM   14  C   UNL     1      -9.927  14.397  66.040  1.00  0.00    -0.317 C  
HETATM   15 CL   UNL     1     -10.642  16.707  67.369  1.00  0.00    -0.316 Cl 
HETATM   16  C   UNL     1     -10.018  15.918  65.894  1.00  0.00    -0.349 C  
ENDBRANCH  13  14
BRANCH  13  17
HETATM   17  C   UNL     1     -12.369  14.199  65.514  1.00  0.00    -0.458 C  
HETATM   18  C   UNL     1     -12.279  13.821  64.030  1.00  0.00    -0.380 C  
HETATM   19 CL   UNL     1     -12.273  12.057  63.764  1.00  0.00    -0.591 Cl 
ENDBRANCH  13  17
ENDBRANCH  10  13
ENDBRANCH   6   7
ENDBRANCH   5   6
ENDBRANCH   3   5
TORSDOF 6
ENDMDL
MODEL       16
REMARK 921   NORMALIZED FREE ENERGY PREDICTED BY IDOCK:   -5.23 KCAL/MOL
REMARK 922        TOTAL FREE ENERGY PREDICTED BY IDOCK:   -7.79 KCAL/MOL
REMARK 923 INTER-LIGAND FREE ENERGY PREDICTED BY IDOCK:   -7.11 KCAL/MOL
REMARK 924 INTRA-LIGAND FREE ENERGY PREDICTED BY IDOCK:   -0.68 KCAL/MOL
REMARK 927      BINDING AFFINITY PREDICTED BY RF-SCORE:    0.00 PKD
ROOT
HETATM    1  O   UNL     1     -12.616  13.933  63.149  1.00  0.00    -0.775 OA 
HETATM    2  C   UNL     1     -11.877  13.283  64.078  1.00  0.00    -0.455 C  
HETATM    3  C   UNL     1     -12.580  13.194  65.415  1.00  0.00    -0.512 C  
HETATM    4  O   UNL     1     -10.770  12.834  63.830  1.00  0.00    -0.413 OA 
ENDROOT
BRANCH   3   5
HETATM    5  C   UNL     1     -11.715  12.472  66.448  1.00  0.00    -0.458 C  
BRANCH   5   6
HETATM    6  C   UNL     1     -11.779  13.136  67.829  1.00  0.00    -0.401 C  
BRANCH   6   7
HETATM    7  C   UNL     1     -11.107  14.490  67.845  1.00  0.00    -0.290 A  
HETATM    8  C   UNL     1     -10.101  14.808  66.927  1.00  0.00    -0.246 A  
HETATM    9  C   UNL     1      -9.441  16.046  66.974  1.00  0.00    -0.230 A  
HETATM   10  C   UNL     1      -9.752  17.010  67.937  1.00  0.00    -0.263 A  
HETATM   11  C   UNL     1     -10.806  16.696  68.814  1.00  0.00    -0.331 A  
HETATM   12  C   UNL     1     -11.472  15.461  68.776  1.00  0.00    -0.352 A  
BRANCH  10  13
HETATM   13  N   UNL     1      -9.064  18.219  68.061  1.00  0.00    -0.283 NA 
BRANCH  13  14
HETATM   14  C   UNL     1      -7.659  18.276  68.513  1.00  0.00    -0.300 C  
HETATM   15 CL   UNL     1      -6.792  19.233  66.075  1.00  0.00    -0.250 Cl 
HETATM   16  C   UNL     1      -6.644  18.038  67.394  1.00  0.00    -0.170 C  
ENDBRANCH  13  14
BRANCH  13  17
HETATM   17  C   UNL     1      -9.872  19.434  68.314  1.00  0.00    -0.410 C  
HETATM   18  C   UNL     1      -9.945  20.411  67.133  1.00  0.00    -0.428 C  
HETATM   19 CL   UNL     1     -10.736  19.706  65.698  1.00  0.00    -0.540 Cl 
ENDBRANCH  13  17
ENDBRANCH  10  13
ENDBRANCH   6   7
ENDBRANCH   5   6
ENDBRANCH   3   5
TORSDOF 6
ENDMDL
MODEL       17
REMARK 921   NORMALIZED FREE ENERGY PREDICTED BY IDOCK:   -5.21 KCAL/MOL
REMARK 922        TOTAL FREE ENERGY PREDICTED BY IDOCK:   -7.76 KCAL/MOL
REMARK 923 INTER-LIGAND FREE ENERGY PREDICTED BY IDOCK:   -7.01 KCAL/MOL
REMARK 924 INTRA-LIGAND FREE ENERGY PREDICTED BY IDOCK:   -0.75 KCAL/MOL
REMARK 927      BINDING AFFINITY PREDICTED BY RF-SCORE:    0.00 PKD
ROOT
HETATM    1  O   UNL     1     -13.722  16.103  72.832  1.00  0.00    -0.494 OA 
HETATM    2  C   UNL     1     -13.269  14.836  72.969  1.00  0.00    -0.490 C  
HETATM    3  C   UNL     1     -13.907  13.885  71.980  1.00  0.00    -0.588 C  
HETATM    4  O   UNL     1     -12.440  14.529  73.811  1.00  0.00    -0.413 OA 
ENDROOT
BRANCH   3   5
HETATM    5  C   UNL     1     -13.391  12.459  72.169  1.00  0.00    -0.508 C  
BRANCH   5   6
HETATM    6  C   UNL     1     -12.644  11.939  70.936  1.00  0.00    -0.361 C  
BRANCH   6   7
HETATM    7  C   UNL     1     -12.192  10.506  71.102  1.00  0.00    -0.496 A  
HETATM    8  C   UNL     1     -10.965  10.073  70.589  1.00  0.00    -0.392 A  
HETATM    9  C   UNL     1     -10.567   8.730  70.697  1.00  0.00    -0.258 A  
HETATM   10  C   UNL     1     -11.375   7.770  71.312  1.00  0.00    -0.264 A  
HETATM   11  C   UNL     1     -12.578   8.236  71.873  1.00  0.00    -0.379 A  
HETATM   12  C   UNL     1     -12.986   9.576  71.770  1.00  0.00    -0.502 A  
BRANCH  10  13
HETATM   13  N   UNL     1     -11.047   6.414  71.368  1.00  0.00    -0.266 NA 
BRANCH  13  14
HETATM   14  C   UNL     1     -11.456   5.557  72.500  1.00  0.00    -0.244 C  
HETATM   15 CL   UNL     1      -9.990   7.042  74.305  1.00  0.00    -0.306 Cl 
HETATM   16  C   UNL     1     -10.401   5.452  73.603  1.00  0.00    -0.234 C  
ENDBRANCH  13  14
BRANCH  13  17
HETATM   17  C   UNL     1      -9.834   5.981  70.637  1.00  0.00    -0.181 C  
HETATM   18  C   UNL     1     -10.111   5.209  69.341  1.00  0.00    -0.234 C  
HETATM   19 CL   UNL     1     -10.975   6.185  68.123  1.00  0.00    -0.404 Cl 
ENDBRANCH  13  17
ENDBRANCH  10  13
ENDBRANCH   6   7
ENDBRANCH   5   6
ENDBRANCH   3   5
TORSDOF 6
ENDMDL
MODEL       18
REMARK 921   NORMALIZED FREE ENERGY PREDICTED BY IDOCK:   -5.19 KCAL/MOL
REMARK 922        TOTAL FREE ENERGY PREDICTED BY IDOCK:   -7.73 KCAL/MOL
REMARK 923 INTER-LIGAND FREE ENERGY PREDICTED BY IDOCK:   -7.06 KCAL/MOL
REMARK 924 INTRA-LIGAND FREE ENERGY PREDICTED BY IDOCK:   -0.68 KCAL/MOL
REMARK 927      BINDING AFFINITY PREDICTED BY RF-SCORE:    0.00 PKD
ROOT
HETATM    1  O   UNL     1     -11.532  16.546  63.848  1.00  0.00    -1.145 OA 
HETATM    2  C   UNL     1     -11.856  15.340  64.369  1.00  0.00    -0.281 C  
HETATM    3  C   UNL     1     -10.974  14.962  65.540  1.00  0.00    -0.355 C  
HETATM    4  O   UNL     1     -12.761  14.658  63.918  1.00  0.00    -0.788 OA 
ENDROOT
BRANCH   3   5
HETATM    5  C   UNL     1     -11.350  13.589  66.096  1.00  0.00    -0.325 C  
BRANCH   5   6
HETATM    6  C   UNL     1     -12.036  13.681  67.464  1.00  0.00    -0.393 C  
BRANCH   6   7
HETATM    7  C   UNL     1     -11.754  12.473  68.329  1.00  0.00    -0.390 A  
HETATM    8  C   UNL     1     -11.230  11.299  67.779  1.00  0.00    -0.354 A  
HETATM    9  C   UNL     1     -11.017  10.159  68.572  1.00  0.00    -0.278 A  
HETATM   10  C   UNL     1     -11.321  10.144  69.936  1.00  0.00    -0.275 A  
HETATM   11  C   UNL     1     -11.790  11.352  70.482  1.00  0.00    -0.394 A  
HETATM   12  C   UNL     1     -12.008  12.497  69.698  1.00  0.00    -0.339 A  
BRANCH  10  13
HETATM   13  N   UNL     1     -11.194   9.007  70.737  1.00  0.00    -0.263 NA 
BRANCH  13  14
HETATM   14  C   UNL     1     -10.340   8.991  71.941  1.00  0.00    -0.287 C  
HETATM   15 CL   UNL     1      -8.039   9.323  70.456  1.00  0.00    -0.177 Cl 
HETATM   16  C   UNL     1      -8.945   8.413  71.697  1.00  0.00    -0.199 C  
ENDBRANCH  13  14
BRANCH  13  17
HETATM   17  C   UNL     1     -11.421   7.695  70.088  1.00  0.00    -0.066 C  
HETATM   18  C   UNL     1     -12.116   6.655  70.975  1.00  0.00    -0.327 C  
HETATM   19 CL   UNL     1     -13.764   7.143  71.454  1.00  0.00    -0.422 Cl 
ENDBRANCH  13  17
ENDBRANCH  10  13
ENDBRANCH   6   7
ENDBRANCH   5   6
ENDBRANCH   3   5
TORSDOF 6
ENDMDL
MODEL       19
REMARK 921   NORMALIZED FREE ENERGY PREDICTED BY IDOCK:   -5.18 KCAL/MOL
REMARK 922        TOTAL FREE ENERGY PREDICTED BY IDOCK:   -7.72 KCAL/MOL
REMARK 923 INTER-LIGAND FREE ENERGY PREDICTED BY IDOCK:   -7.14 KCAL/MOL
REMARK 924 INTRA-LIGAND FREE ENERGY PREDICTED BY IDOCK:   -0.59 KCAL/MOL
REMARK 927      BINDING AFFINITY PREDICTED BY RF-SCORE:    0.00 PKD
ROOT
HETATM    1  O   UNL     1     -11.814   5.892  72.404  1.00  0.00    -0.311 OA 
HETATM    2  C   UNL     1     -12.008   6.917  71.543  1.00  0.00    -0.344 C  
HETATM    3  C   UNL     1     -12.088   8.254  72.248  1.00  0.00    -0.439 C  
HETATM    4  O   UNL     1     -12.106   6.746  70.338  1.00  0.00    -0.357 OA 
ENDROOT
BRANCH   3   5
HETATM    5  C   UNL     1     -12.325   9.391  71.254  1.00  0.00    -0.422 C  
BRANCH   5   6
HETATM    6  C   UNL     1     -11.016   9.977  70.714  1.00  0.00    -0.375 C  
BRANCH   6   7
HETATM    7  C   UNL     1     -11.229  10.792  69.458  1.00  0.00    -0.342 A  
HETATM    8  C   UNL     1     -10.940  10.261  68.197  1.00  0.00    -0.328 A  
HETATM    9  C   UNL     1     -11.087  11.034  67.033  1.00  0.00    -0.311 A  
HETATM   10  C   UNL     1     -11.522  12.361  67.082  1.00  0.00    -0.357 A  
HETATM   11  C   UNL     1     -11.864  12.858  68.352  1.00  0.00    -0.357 A  
HETATM   12  C   UNL     1     -11.719  12.095  69.522  1.00  0.00    -0.402 A  
BRANCH  10  13
HETATM   13  N   UNL     1     -11.606  13.182  65.955  1.00  0.00    -0.338 NA 
BRANCH  13  14
HETATM   14  C   UNL     1     -12.601  12.946  64.889  1.00  0.00    -0.458 C  
HETATM   15 CL   UNL     1     -10.909  11.246  63.526  1.00  0.00    -0.431 Cl 
HETATM   16  C   UNL     1     -11.978  12.676  63.517  1.00  0.00    -0.548 C  
ENDBRANCH  13  14
BRANCH  13  17
HETATM   17  C   UNL     1     -10.373  13.891  65.542  1.00  0.00    -0.333 C  
HETATM   18  C   UNL     1     -10.459  15.421  65.620  1.00  0.00    -0.372 C  
HETATM   19 CL   UNL     1     -10.715  16.017  67.282  1.00  0.00    -0.313 Cl 
ENDBRANCH  13  17
ENDBRANCH  10  13
ENDBRANCH   6   7
ENDBRANCH   5   6
ENDBRANCH   3   5
TORSDOF 6
ENDMDL
MODEL       20
REMARK 921   NORMALIZED FREE ENERGY PREDICTED BY IDOCK:   -5.17 KCAL/MOL
REMARK 922        TOTAL FREE ENERGY PREDICTED BY IDOCK:   -7.71 KCAL/MOL
REMARK 923 INTER-LIGAND FREE ENERGY PREDICTED BY IDOCK:   -6.76 KCAL/MOL
REMARK 924 INTRA-LIGAND FREE ENERGY PREDICTED BY IDOCK:   -0.94 KCAL/MOL
REMARK 927      BINDING AFFINITY PREDICTED BY RF-SCORE:    0.00 PKD
ROOT
HETATM    1  O   UNL     1      -8.633   9.552  64.607  1.00  0.00    -0.163 OA 
HETATM    2  C   UNL     1      -9.508  10.258  63.854  1.00  0.00    -0.302 C  
HETATM    3  C   UNL     1     -10.482  11.053  64.695  1.00  0.00    -0.398 C  
HETATM    4  O   UNL     1      -9.488  10.228  62.634  1.00  0.00    -0.300 OA 
ENDROOT
BRANCH   3   5
HETATM    5  C   UNL     1     -11.470  11.824  63.820  1.00  0.00    -0.510 C  
BRANCH   5   6
HETATM    6  C   UNL     1     -12.502  12.599  64.647  1.00  0.00    -0.538 C  
BRANCH   6   7
HETATM    7  C   UNL     1     -11.887  13.770  65.380  1.00  0.00    -0.371 A  
HETATM    8  C   UNL     1     -11.295  14.827  64.682  1.00  0.00    -0.370 A  
HETATM    9  C   UNL     1     -10.678  15.889  65.362  1.00  0.00    -0.415 A  
HETATM   10  C   UNL     1     -10.622  15.936  66.758  1.00  0.00    -0.309 A  
HETATM   11  C   UNL     1     -11.274  14.895  67.442  1.00  0.00    -0.343 A  
HETATM   12  C   UNL     1     -11.893  13.828  66.772  1.00  0.00    -0.454 A  
BRANCH  10  13
HETATM   13  N   UNL     1      -9.950  16.936  67.465  1.00  0.00    -0.261 NA 
BRANCH  13  14
HETATM   14  C   UNL     1      -8.659  16.684  68.137  1.00  0.00    -0.200 C  
HETATM   15 CL   UNL     1      -7.233  17.878  66.098  1.00  0.00    -0.323 Cl 
HETATM   16  C   UNL     1      -7.494  16.472  67.168  1.00  0.00    -0.182 C  
ENDBRANCH  13  14
BRANCH  13  17
HETATM   17  C   UNL     1     -10.770  18.031  68.032  1.00  0.00    -0.285 C  
HETATM   18  C   UNL     1     -10.417  19.430  67.511  1.00  0.00    -0.462 C  
HETATM   19 CL   UNL     1     -10.690  19.606  65.757  1.00  0.00    -0.579 Cl 
ENDBRANCH  13  17
ENDBRANCH  10  13
ENDBRANCH   6   7
ENDBRANCH   5   6
ENDBRANCH   3   5
TORSDOF 6
ENDMDL
MODEL       21
REMARK 921   NORMALIZED FREE ENERGY PREDICTED BY IDOCK:   -5.16 KCAL/MOL
REMARK 922        TOTAL FREE ENERGY PREDICTED BY IDOCK:   -7.70 KCAL/MOL
REMARK 923 INTER-LIGAND FREE ENERGY PREDICTED BY IDOCK:   -7.11 KCAL/MOL
REMARK 924 INTRA-LIGAND FREE ENERGY PREDICTED BY IDOCK:   -0.60 KCAL/MOL
REMARK 927      BINDING AFFINITY PREDICTED BY RF-SCORE:    0.00 PKD
ROOT
HETATM    1  O   UNL     1     -12.260   6.478  72.027  1.00  0.00    -0.338 OA 
HETATM    2  C   UNL     1     -13.093   7.493  71.703  1.00  0.00    -0.358 C  
HETATM    3  C   UNL     1     -12.498   8.850  72.013  1.00  0.00    -0.461 C  
HETATM    4  O   UNL     1     -14.197   7.300  71.219  1.00  0.00    -0.394 OA 
ENDROOT
BRANCH   3   5
HETATM    5  C   UNL     1     -13.468   9.976  71.654  1.00  0.00    -0.398 C  
BRANCH   5   6
HETATM    6  C   UNL     1     -12.831  11.362  71.797  1.00  0.00    -0.449 C  
BRANCH   6   7
HETATM    7  C   UNL     1     -12.402  11.936  70.465  1.00  0.00    -0.372 A  
HETATM    8  C   UNL     1     -12.268  13.316  70.284  1.00  0.00    -0.391 A  
HETATM    9  C   UNL     1     -11.921  13.852  69.033  1.00  0.00    -0.402 A  
HETATM   10  C   UNL     1     -11.699  13.039  67.919  1.00  0.00    -0.357 A  
HETATM   11  C   UNL     1     -11.780  11.651  68.136  1.00  0.00    -0.365 A  
HETATM   12  C   UNL     1     -12.128  11.104  69.381  1.00  0.00    -0.396 A  
BRANCH  10  13
HETATM   13  N   UNL     1     -11.428  13.541  66.644  1.00  0.00    -0.326 NA 
BRANCH  13  14
HETATM   14  C   UNL     1     -10.155  14.218  66.326  1.00  0.00    -0.298 C  
HETATM   15 CL   UNL     1      -8.755  11.841  66.330  1.00  0.00    -0.179 Cl 
HETATM   16  C   UNL     1      -8.925  13.521  66.911  1.00  0.00    -0.209 C  
ENDBRANCH  13  14
BRANCH  13  17
HETATM   17  C   UNL     1     -12.589  13.922  65.808  1.00  0.00    -0.494 C  
HETATM   18  C   UNL     1     -12.291  14.016  64.305  1.00  0.00    -0.355 C  
HETATM   19 CL   UNL     1     -11.796  12.455  63.599  1.00  0.00    -0.563 Cl 
ENDBRANCH  13  17
ENDBRANCH  10  13
ENDBRANCH   6   7
ENDBRANCH   5   6
ENDBRANCH   3   5
TORSDOF 6
ENDMDL
MODEL       22
REMARK 921   NORMALIZED FREE ENERGY PREDICTED BY IDOCK:   -5.15 KCAL/MOL
REMARK 922        TOTAL FREE ENERGY PREDICTED BY IDOCK:   -7.68 KCAL/MOL
REMARK 923 INTER-LIGAND FREE ENERGY PREDICTED BY IDOCK:   -6.84 KCAL/MOL
REMARK 924 INTRA-LIGAND FREE ENERGY PREDICTED BY IDOCK:   -0.84 KCAL/MOL
REMARK 927      BINDING AFFINITY PREDICTED BY RF-SCORE:    0.00 PKD
ROOT
HETATM    1  O   UNL     1     -11.971  15.667  73.555  1.00  0.00    -0.443 OA 
HETATM    2  C   UNL     1     -12.647  14.914  72.656  1.00  0.00    -0.367 C  
HETATM    3  C   UNL     1     -12.019  14.956  71.280  1.00  0.00    -0.393 C  
HETATM    4  O   UNL     1     -13.649  14.286  72.957  1.00  0.00    -0.643 OA 
ENDROOT
BRANCH   3   5
HETATM    5  C   UNL     1     -12.812  14.112  70.283  1.00  0.00    -0.183 C  
BRANCH   5   6
HETATM    6  C   UNL     1     -11.909  13.221  69.423  1.00  0.00    -0.386 C  
BRANCH   6   7
HETATM    7  C   UNL     1     -11.758  11.831  70.000  1.00  0.00    -0.386 A  
HETATM    8  C   UNL     1     -10.796  10.945  69.506  1.00  0.00    -0.286 A  
HETATM    9  C   UNL     1     -10.690   9.637  70.005  1.00  0.00    -0.298 A  
HETATM   10  C   UNL     1     -11.538   9.162  71.010  1.00  0.00    -0.306 A  
HETATM   11  C   UNL     1     -12.459  10.086  71.536  1.00  0.00    -0.516 A  
HETATM   12  C   UNL     1     -12.574  11.395  71.042  1.00  0.00    -0.487 A  
BRANCH  10  13
HETATM   13  N   UNL     1     -11.512   7.845  71.475  1.00  0.00    -0.258 NA 
BRANCH  13  14
HETATM   14  C   UNL     1     -12.136   6.738  70.723  1.00  0.00    -0.347 C  
HETATM   15 CL   UNL     1      -9.704   5.509  70.288  1.00  0.00    -0.225 Cl 
HETATM   16  C   UNL     1     -11.236   6.152  69.633  1.00  0.00    -0.418 C  
ENDBRANCH  13  14
BRANCH  13  17
HETATM   17  C   UNL     1     -11.398   7.648  72.938  1.00  0.00    -0.341 C  
HETATM   18  C   UNL     1     -10.018   7.174  73.414  1.00  0.00    -0.278 C  
HETATM   19 CL   UNL     1      -8.726   8.357  73.078  1.00  0.00    -0.280 Cl 
ENDBRANCH  13  17
ENDBRANCH  10  13
ENDBRANCH   6   7
ENDBRANCH   5   6
ENDBRANCH   3   5
TORSDOF 6
ENDMDL
MODEL       23
REMARK 921   NORMALIZED FREE ENERGY PREDICTED BY IDOCK:   -5.06 KCAL/MOL
REMARK 922        TOTAL FREE ENERGY PREDICTED BY IDOCK:   -7.57 KCAL/MOL
REMARK 923 INTER-LIGAND FREE ENERGY PREDICTED BY IDOCK:   -7.01 KCAL/MOL
REMARK 924 INTRA-LIGAND FREE ENERGY PREDICTED BY IDOCK:   -0.55 KCAL/MOL
REMARK 927      BINDING AFFINITY PREDICTED BY RF-SCORE:    0.00 PKD
ROOT
HETATM    1  O   UNL     1     -11.911   5.957  72.385  1.00  0.00    -0.298 OA 
HETATM    2  C   UNL     1     -11.613   6.947  71.513  1.00  0.00    -0.290 C  
HETATM    3  C   UNL     1     -10.933   8.121  72.183  1.00  0.00    -0.372 C  
HETATM    4  O   UNL     1     -11.882   6.870  70.324  1.00  0.00    -0.323 OA 
ENDROOT
BRANCH   3   5
HETATM    5  C   UNL     1     -10.625   9.231  71.179  1.00  0.00    -0.402 C  
BRANCH   5   6
HETATM    6  C   UNL     1     -11.785  10.222  71.030  1.00  0.00    -0.461 C  
BRANCH   6   7
HETATM    7  C   UNL     1     -11.669  11.056  69.774  1.00  0.00    -0.410 A  
HETATM    8  C   UNL     1     -11.339  10.471  68.548  1.00  0.00    -0.320 A  
HETATM    9  C   UNL     1     -11.179  11.252  67.392  1.00  0.00    -0.370 A  
HETATM   10  C   UNL     1     -11.337  12.640  67.413  1.00  0.00    -0.313 A  
HETATM   11  C   UNL     1     -11.727  13.203  68.642  1.00  0.00    -0.362 A  
HETATM   12  C   UNL     1     -11.888  12.432  69.804  1.00  0.00    -0.387 A  
BRANCH  10  13
HETATM   13  N   UNL     1     -11.111  13.455  66.302  1.00  0.00    -0.291 NA 
BRANCH  13  14
HETATM   14  C   UNL     1      -9.839  14.181  66.111  1.00  0.00    -0.308 C  
HETATM   15 CL   UNL     1     -10.672  16.286  67.688  1.00  0.00    -0.318 Cl 
HETATM   16  C   UNL     1      -9.991  15.703  66.144  1.00  0.00    -0.312 C  
ENDBRANCH  13  14
BRANCH  13  17
HETATM   17  C   UNL     1     -12.298  14.049  65.646  1.00  0.00    -0.479 C  
HETATM   18  C   UNL     1     -12.351  13.862  64.125  1.00  0.00    -0.335 C  
HETATM   19 CL   UNL     1     -12.455  12.148  63.641  1.00  0.00    -0.661 Cl 
ENDBRANCH  13  17
ENDBRANCH  10  13
ENDBRANCH   6   7
ENDBRANCH   5   6
ENDBRANCH   3   5
TORSDOF 6
ENDMDL
MODEL       24
REMARK 921   NORMALIZED FREE ENERGY PREDICTED BY IDOCK:   -5.06 KCAL/MOL
REMARK 922        TOTAL FREE ENERGY PREDICTED BY IDOCK:   -7.56 KCAL/MOL
REMARK 923 INTER-LIGAND FREE ENERGY PREDICTED BY IDOCK:   -6.87 KCAL/MOL
REMARK 924 INTRA-LIGAND FREE ENERGY PREDICTED BY IDOCK:   -0.70 KCAL/MOL
REMARK 927      BINDING AFFINITY PREDICTED BY RF-SCORE:    0.00 PKD
ROOT
HETATM    1  O   UNL     1     -13.108  15.843  74.205  1.00  0.00    -0.529 OA 
HETATM    2  C   UNL     1     -13.144  15.178  73.027  1.00  0.00    -0.502 C  
HETATM    3  C   UNL     1     -12.372  15.892  71.938  1.00  0.00    -0.541 C  
HETATM    4  O   UNL     1     -13.745  14.124  72.892  1.00  0.00    -0.658 OA 
ENDROOT
BRANCH   3   5
HETATM    5  C   UNL     1     -12.444  15.130  70.616  1.00  0.00    -0.442 C  
BRANCH   5   6
HETATM    6  C   UNL     1     -11.669  15.830  69.494  1.00  0.00    -0.369 C  
BRANCH   6   7
HETATM    7  C   UNL     1     -11.304  14.884  68.373  1.00  0.00    -0.320 A  
HETATM    8  C   UNL     1     -12.009  13.692  68.176  1.00  0.00    -0.390 A  
HETATM    9  C   UNL     1     -11.638  12.788  67.168  1.00  0.00    -0.426 A  
HETATM   10  C   UNL     1     -10.551  13.033  66.323  1.00  0.00    -0.271 A  
HETATM   11  C   UNL     1      -9.892  14.263  66.498  1.00  0.00    -0.299 A  
HETATM   12  C   UNL     1     -10.254  15.173  67.503  1.00  0.00    -0.238 A  
BRANCH  10  13
HETATM   13  N   UNL     1     -10.107  12.122  65.362  1.00  0.00    -0.253 NA 
BRANCH  13  14
HETATM   14  C   UNL     1     -10.056  12.464  63.926  1.00  0.00    -0.322 C  
HETATM   15 CL   UNL     1     -12.785  12.172  63.640  1.00  0.00    -0.604 Cl 
HETATM   16  C   UNL     1     -11.134  11.770  63.091  1.00  0.00    -0.164 C  
ENDBRANCH  13  14
BRANCH  13  17
HETATM   17  C   UNL     1     -10.251  10.682  65.678  1.00  0.00    -0.253 C  
HETATM   18  C   UNL     1      -8.957   9.868  65.556  1.00  0.00    -0.174 C  
HETATM   19 CL   UNL     1      -7.696  10.396  66.703  1.00  0.00    -0.113 Cl 
ENDBRANCH  13  17
ENDBRANCH  10  13
ENDBRANCH   6   7
ENDBRANCH   5   6
ENDBRANCH   3   5
TORSDOF 6
ENDMDL
MODEL       25
REMARK 921   NORMALIZED FREE ENERGY PREDICTED BY IDOCK:   -5.04 KCAL/MOL
REMARK 922        TOTAL FREE ENERGY PREDICTED BY IDOCK:   -7.54 KCAL/MOL
REMARK 923 INTER-LIGAND FREE ENERGY PREDICTED BY IDOCK:   -6.72 KCAL/MOL
REMARK 924 INTRA-LIGAND FREE ENERGY PREDICTED BY IDOCK:   -0.82 KCAL/MOL
REMARK 927      BINDING AFFINITY PREDICTED BY RF-SCORE:    0.00 PKD
ROOT
HETATM    1  O   UNL     1      -8.474  10.113  64.441  1.00  0.00    -0.158 OA 
HETATM    2  C   UNL     1      -9.371  10.839  63.734  1.00  0.00    -0.266 C  
HETATM    3  C   UNL     1     -10.615  11.156  64.535  1.00  0.00    -0.397 C  
HETATM    4  O   UNL     1      -9.167  11.179  62.580  1.00  0.00    -0.330 OA 
ENDROOT
BRANCH   3   5
HETATM    5  C   UNL     1     -11.617  11.959  63.707  1.00  0.00    -0.555 C  
BRANCH   5   6
HETATM    6  C   UNL     1     -12.620  12.720  64.581  1.00  0.00    -0.491 C  
BRANCH   6   7
HETATM    7  C   UNL     1     -11.968  13.843  65.356  1.00  0.00    -0.393 A  
HETATM    8  C   UNL     1     -11.164  14.790  64.715  1.00  0.00    -0.392 A  
HETATM    9  C   UNL     1     -10.516  15.802  65.442  1.00  0.00    -0.438 A  
HETATM   10  C   UNL     1     -10.640  15.906  66.831  1.00  0.00    -0.309 A  
HETATM   11  C   UNL     1     -11.500  14.981  67.450  1.00  0.00    -0.326 A  
HETATM   12  C   UNL     1     -12.151  13.964  66.733  1.00  0.00    -0.476 A  
BRANCH  10  13
HETATM   13  N   UNL     1      -9.949  16.851  67.593  1.00  0.00    -0.263 NA 
BRANCH  13  14
HETATM   14  C   UNL     1     -10.632  18.003  68.215  1.00  0.00    -0.285 C  
HETATM   15 CL   UNL     1     -10.647  19.419  65.847  1.00  0.00    -0.584 Cl 
HETATM   16  C   UNL     1     -10.259  19.349  67.588  1.00  0.00    -0.415 C  
ENDBRANCH  13  14
BRANCH  13  17
HETATM   17  C   UNL     1      -8.510  17.035  67.299  1.00  0.00    -0.194 C  
HETATM   18  C   UNL     1      -7.596  17.003  68.531  1.00  0.00    -0.231 C  
HETATM   19 CL   UNL     1      -7.625  15.431  69.374  1.00  0.00    -0.213 Cl 
ENDBRANCH  13  17
ENDBRANCH  10  13
ENDBRANCH   6   7
ENDBRANCH   5   6
ENDBRANCH   3   5
TORSDOF 6
ENDMDL
MODEL       26
REMARK 921   NORMALIZED FREE ENERGY PREDICTED BY IDOCK:   -5.04 KCAL/MOL
REMARK 922        TOTAL FREE ENERGY PREDICTED BY IDOCK:   -7.53 KCAL/MOL
REMARK 923 INTER-LIGAND FREE ENERGY PREDICTED BY IDOCK:   -6.85 KCAL/MOL
REMARK 924 INTRA-LIGAND FREE ENERGY PREDICTED BY IDOCK:   -0.68 KCAL/MOL
REMARK 927      BINDING AFFINITY PREDICTED BY RF-SCORE:    0.00 PKD
ROOT
HETATM    1  O   UNL     1     -12.063  14.595  64.586  1.00  0.00    -0.439 OA 
HETATM    2  C   UNL     1     -12.257  13.458  65.294  1.00  0.00    -0.440 C  
HETATM    3  C   UNL     1     -11.522  13.470  66.617  1.00  0.00    -0.366 C  
HETATM    4  O   UNL     1     -12.952  12.544  64.879  1.00  0.00    -0.821 OA 
ENDROOT
BRANCH   3   5
HETATM    5  C   UNL     1     -11.744  12.168  67.386  1.00  0.00    -0.374 C  
BRANCH   5   6
HETATM    6  C   UNL     1     -11.881  12.398  68.895  1.00  0.00    -0.350 C  
BRANCH   6   7
HETATM    7  C   UNL     1     -11.542  11.161  69.696  1.00  0.00    -0.398 A  
HETATM    8  C   UNL     1     -10.340  10.476  69.492  1.00  0.00    -0.251 A  
HETATM    9  C   UNL     1     -10.048   9.298  70.198  1.00  0.00    -0.249 A  
HETATM   10  C   UNL     1     -10.940   8.755  71.126  1.00  0.00    -0.268 A  
HETATM   11  C   UNL     1     -12.117   9.489  71.361  1.00  0.00    -0.459 A  
HETATM   12  C   UNL     1     -12.420  10.668  70.660  1.00  0.00    -0.462 A  
BRANCH  10  13
HETATM   13  N   UNL     1     -10.717   7.546  71.788  1.00  0.00    -0.210 NA 
BRANCH  13  14
HETATM   14  C   UNL     1     -10.906   7.407  73.246  1.00  0.00    -0.368 C  
HETATM   15 CL   UNL     1      -8.400   8.426  73.786  1.00  0.00    -0.252 Cl 
HETATM   16  C   UNL     1      -9.609   7.132  74.010  1.00  0.00    -0.270 C  
ENDBRANCH  13  14
BRANCH  13  17
HETATM   17  C   UNL     1      -9.756   6.604  71.169  1.00  0.00    -0.174 C  
HETATM   18  C   UNL     1     -10.398   5.522  70.290  1.00  0.00    -0.279 C  
HETATM   19 CL   UNL     1     -11.252   6.196  68.876  1.00  0.00    -0.422 Cl 
ENDBRANCH  13  17
ENDBRANCH  10  13
ENDBRANCH   6   7
ENDBRANCH   5   6
ENDBRANCH   3   5
TORSDOF 6
ENDMDL
MODEL       27
REMARK 921   NORMALIZED FREE ENERGY PREDICTED BY IDOCK:   -5.04 KCAL/MOL
REMARK 922        TOTAL FREE ENERGY PREDICTED BY IDOCK:   -7.53 KCAL/MOL
REMARK 923 INTER-LIGAND FREE ENERGY PREDICTED BY IDOCK:   -6.92 KCAL/MOL
REMARK 924 INTRA-LIGAND FREE ENERGY PREDICTED BY IDOCK:   -0.60 KCAL/MOL
REMARK 927      BINDING AFFINITY PREDICTED BY RF-SCORE:    0.00 PKD
ROOT
HETATM    1  O   UNL     1     -12.471   8.594  72.558  1.00  0.00    -0.391 OA 
HETATM    2  C   UNL     1     -11.931   9.544  71.760  1.00  0.00    -0.371 C  
HETATM    3  C   UNL     1     -12.910  10.652  71.438  1.00  0.00    -0.556 C  
HETATM    4  O   UNL     1     -10.779   9.479  71.361  1.00  0.00    -0.346 OA 
ENDROOT
BRANCH   3   5
HETATM    5  C   UNL     1     -12.279  11.700  70.522  1.00  0.00    -0.451 C  
BRANCH   5   6
HETATM    6  C   UNL     1     -12.608  13.131  70.958  1.00  0.00    -0.397 C  
BRANCH   6   7
HETATM    7  C   UNL     1     -11.946  14.166  70.076  1.00  0.00    -0.404 A  
HETATM    8  C   UNL     1     -11.373  15.319  70.622  1.00  0.00    -0.345 A  
HETATM    9  C   UNL     1     -10.805  16.305  69.800  1.00  0.00    -0.356 A  
HETATM   10  C   UNL     1     -10.789  16.184  68.408  1.00  0.00    -0.318 A  
HETATM   11  C   UNL     1     -11.316  14.991  67.881  1.00  0.00    -0.344 A  
HETATM   12  C   UNL     1     -11.888  13.999  68.694  1.00  0.00    -0.396 A  
BRANCH  10  13
HETATM   13  N   UNL     1     -10.302  17.179  67.557  1.00  0.00    -0.331 NA 
BRANCH  13  14
HETATM   14  C   UNL     1     -10.835  18.556  67.580  1.00  0.00    -0.275 C  
HETATM   15 CL   UNL     1      -8.378  19.620  68.245  1.00  0.00    -0.365 Cl 
HETATM   16  C   UNL     1     -10.125  19.472  68.579  1.00  0.00    -0.445 C  
ENDBRANCH  13  14
BRANCH  13  17
HETATM   17  C   UNL     1      -9.705  16.739  66.275  1.00  0.00    -0.297 C  
HETATM   18  C   UNL     1      -8.180  16.570  66.305  1.00  0.00    -0.325 C  
HETATM   19 CL   UNL     1      -7.645  15.302  67.441  1.00  0.00    -0.210 Cl 
ENDBRANCH  13  17
ENDBRANCH  10  13
ENDBRANCH   6   7
ENDBRANCH   5   6
ENDBRANCH   3   5
TORSDOF 6
ENDMDL
MODEL       28
REMARK 921   NORMALIZED FREE ENERGY PREDICTED BY IDOCK:   -5.01 KCAL/MOL
REMARK 922        TOTAL FREE ENERGY PREDICTED BY IDOCK:   -7.49 KCAL/MOL
REMARK 923 INTER-LIGAND FREE ENERGY PREDICTED BY IDOCK:   -6.81 KCAL/MOL
REMARK 924 INTRA-LIGAND FREE ENERGY PREDICTED BY IDOCK:   -0.68 KCAL/MOL
REMARK 927      BINDING AFFINITY PREDICTED BY RF-SCORE:    0.00 PKD
ROOT
HETATM    1  O   UNL     1     -13.191  11.859  64.003  1.00  0.00    -0.632 OA 
HETATM    2  C   UNL     1     -12.407  12.960  63.954  1.00  0.00    -0.396 C  
HETATM    3  C   UNL     1     -11.330  12.948  65.017  1.00  0.00    -0.338 C  
HETATM    4  O   UNL     1     -12.580  13.846  63.133  1.00  0.00    -0.775 OA 
ENDROOT
BRANCH   3   5
HETATM    5  C   UNL     1     -10.471  14.211  64.950  1.00  0.00    -0.461 C  
BRANCH   5   6
HETATM    6  C   UNL     1     -10.947  15.293  65.926  1.00  0.00    -0.325 C  
BRANCH   6   7
HETATM    7  C   UNL     1      -9.905  16.367  66.142  1.00  0.00    -0.362 A  
HETATM    8  C   UNL     1     -10.266  17.716  66.225  1.00  0.00    -0.362 A  
HETATM    9  C   UNL     1      -9.294  18.719  66.374  1.00  0.00    -0.321 A  
HETATM   10  C   UNL     1      -7.931  18.418  66.441  1.00  0.00    -0.262 A  
HETATM   11  C   UNL     1      -7.592  17.054  66.416  1.00  0.00    -0.350 A  
HETATM   12  C   UNL     1      -8.556  16.043  66.266  1.00  0.00    -0.363 A  
BRANCH  10  13
HETATM   13  N   UNL     1      -6.934  19.394  66.511  1.00  0.00    -0.204 NA 
BRANCH  13  14
HETATM   14  C   UNL     1      -5.623  19.220  65.854  1.00  0.00    -0.156 C  
HETATM   15 CL   UNL     1      -6.254  21.019  63.859  1.00  0.00    -0.360 Cl 
HETATM   16  C   UNL     1      -5.669  19.401  64.335  1.00  0.00    -0.275 C  
ENDBRANCH  13  14
BRANCH  13  17
HETATM   17  C   UNL     1      -6.952  20.296  67.685  1.00  0.00    -0.282 C  
HETATM   18  C   UNL     1      -7.124  19.587  69.035  1.00  0.00    -0.364 C  
HETATM   19 CL   UNL     1      -5.776  18.481  69.413  1.00  0.00    -0.222 Cl 
ENDBRANCH  13  17
ENDBRANCH  10  13
ENDBRANCH   6   7
ENDBRANCH   5   6
ENDBRANCH   3   5
TORSDOF 6
ENDMDL
MODEL       29
REMARK 921   NORMALIZED FREE ENERGY PREDICTED BY IDOCK:   -5.00 KCAL/MOL
REMARK 922        TOTAL FREE ENERGY PREDICTED BY IDOCK:   -7.49 KCAL/MOL
REMARK 923 INTER-LIGAND FREE ENERGY PREDICTED BY IDOCK:   -6.68 KCAL/MOL
REMARK 924 INTRA-LIGAND FREE ENERGY PREDICTED BY IDOCK:   -0.81 KCAL/MOL
REMARK 927      BINDING AFFINITY PREDICTED BY RF-SCORE:    0.00 PKD
ROOT
HETATM    1  O   UNL     1     -12.797  12.304  63.819  1.00  0.00    -0.735 OA 
HETATM    2  C   UNL     1     -12.688  12.988  64.981  1.00  0.00    -0.410 C  
HETATM    3  C   UNL     1     -11.891  12.233  66.022  1.00  0.00    -0.409 C  
HETATM    4  O   UNL     1     -13.194  14.088  65.138  1.00  0.00    -0.768 OA 
ENDROOT
BRANCH   3   5
HETATM    5  C   UNL     1     -11.800  13.020  67.329  1.00  0.00    -0.419 C  
BRANCH   5   6
HETATM    6  C   UNL     1     -10.376  13.052  67.894  1.00  0.00    -0.233 C  
BRANCH   6   7
HETATM    7  C   UNL     1      -9.742  14.419  67.774  1.00  0.00    -0.221 A  
HETATM    8  C   UNL     1      -9.586  15.242  68.894  1.00  0.00    -0.220 A  
HETATM    9  C   UNL     1      -9.045  16.533  68.775  1.00  0.00    -0.256 A  
HETATM   10  C   UNL     1      -8.645  17.053  67.541  1.00  0.00    -0.205 A  
HETATM   11  C   UNL     1      -8.755  16.189  66.437  1.00  0.00    -0.360 A  
HETATM   12  C   UNL     1      -9.295  14.898  66.544  1.00  0.00    -0.308 A  
BRANCH  10  13
HETATM   13  N   UNL     1      -8.176  18.358  67.375  1.00  0.00    -0.242 NA 
BRANCH  13  14
HETATM   14  C   UNL     1      -6.763  18.646  67.056  1.00  0.00    -0.193 C  
HETATM   15 CL   UNL     1      -5.940  18.043  69.619  1.00  0.00    -0.243 Cl 
HETATM   16  C   UNL     1      -5.962  19.182  68.244  1.00  0.00    -0.214 C  
ENDBRANCH  13  14
BRANCH  13  17
HETATM   17  C   UNL     1      -8.912  19.435  68.077  1.00  0.00    -0.322 C  
HETATM   18  C   UNL     1      -9.478  20.526  67.159  1.00  0.00    -0.404 C  
HETATM   19 CL   UNL     1     -10.696  19.904  66.013  1.00  0.00    -0.518 Cl 
ENDBRANCH  13  17
ENDBRANCH  10  13
ENDBRANCH   6   7
ENDBRANCH   5   6
ENDBRANCH   3   5
TORSDOF 6
ENDMDL
MODEL       30
REMARK 921   NORMALIZED FREE ENERGY PREDICTED BY IDOCK:   -4.99 KCAL/MOL
REMARK 922        TOTAL FREE ENERGY PREDICTED BY IDOCK:   -7.46 KCAL/MOL
REMARK 923 INTER-LIGAND FREE ENERGY PREDICTED BY IDOCK:   -6.59 KCAL/MOL
REMARK 924 INTRA-LIGAND FREE ENERGY PREDICTED BY IDOCK:   -0.87 KCAL/MOL
REMARK 927      BINDING AFFINITY PREDICTED BY RF-SCORE:    0.00 PKD
ROOT
HETATM    1  O   UNL     1     -10.804   6.380  72.223  1.00  0.00    -0.221 OA 
HETATM    2  C   UNL     1     -11.704   7.154  71.574  1.00  0.00    -0.290 C  
HETATM    3  C   UNL     1     -11.962   8.463  72.290  1.00  0.00    -0.455 C  
HETATM    4  O   UNL     1     -12.232   6.803  70.531  1.00  0.00    -0.363 OA 
ENDROOT
BRANCH   3   5
HETATM    5  C   UNL     1     -12.995   9.308  71.545  1.00  0.00    -0.429 C  
BRANCH   5   6
HETATM    6  C   UNL     1     -12.676  10.806  71.604  1.00  0.00    -0.520 C  
BRANCH   6   7
HETATM    7  C   UNL     1     -12.197  11.342  70.274  1.00  0.00    -0.433 A  
HETATM    8  C   UNL     1     -11.901  10.481  69.213  1.00  0.00    -0.242 A  
HETATM    9  C   UNL     1     -11.406  10.974  67.995  1.00  0.00    -0.374 A  
HETATM   10  C   UNL     1     -11.184  12.338  67.789  1.00  0.00    -0.276 A  
HETATM   11  C   UNL     1     -11.543  13.194  68.846  1.00  0.00    -0.354 A  
HETATM   12  C   UNL     1     -12.037  12.711  70.068  1.00  0.00    -0.339 A  
BRANCH  10  13
HETATM   13  N   UNL     1     -10.621  12.856  66.620  1.00  0.00    -0.260 NA 
BRANCH  13  14
HETATM   14  C   UNL     1     -10.882  12.256  65.295  1.00  0.00    -0.293 C  
HETATM   15 CL   UNL     1     -12.463  14.379  64.517  1.00  0.00    -0.422 Cl 
HETATM   16  C   UNL     1     -12.252  12.618  64.717  1.00  0.00    -0.465 C  
ENDBRANCH  13  14
BRANCH  13  17
HETATM   17  C   UNL     1      -9.345  13.595  66.753  1.00  0.00    -0.261 C  
HETATM   18  C   UNL     1      -9.368  15.019  66.184  1.00  0.00    -0.292 C  
HETATM   19 CL   UNL     1     -10.526  16.083  67.025  1.00  0.00    -0.304 Cl 
ENDBRANCH  13  17
ENDBRANCH  10  13
ENDBRANCH   6   7
ENDBRANCH   5   6
ENDBRANCH   3   5
TORSDOF 6
ENDMDL
MODEL       31
REMARK 921   NORMALIZED FREE ENERGY PREDICTED BY IDOCK:   -4.98 KCAL/MOL
REMARK 922        TOTAL FREE ENERGY PREDICTED BY IDOCK:   -7.46 KCAL/MOL
REMARK 923 INTER-LIGAND FREE ENERGY PREDICTED BY IDOCK:   -6.67 KCAL/MOL
REMARK 924 INTRA-LIGAND FREE ENERGY PREDICTED BY IDOCK:   -0.78 KCAL/MOL
REMARK 927      BINDING AFFINITY PREDICTED BY RF-SCORE:    0.00 PKD
ROOT
HETATM    1  O   UNL     1     -12.915  11.819  63.084  1.00  0.00    -0.576 OA 
HETATM    2  C   UNL     1     -12.264  12.865  63.644  1.00  0.00    -0.499 C  
HETATM    3  C   UNL     1     -11.125  12.424  64.538  1.00  0.00    -0.360 C  
HETATM    4  O   UNL     1     -12.589  14.022  63.433  1.00  0.00    -0.845 OA 
ENDROOT
BRANCH   3   5
HETATM    5  C   UNL     1     -10.421  13.624  65.171  1.00  0.00    -0.388 C  
BRANCH   5   6
HETATM    6  C   UNL     1     -10.937  13.925  66.583  1.00  0.00    -0.302 C  
BRANCH   6   7
HETATM    7  C   UNL     1     -10.791  12.740  67.511  1.00  0.00    -0.263 A  
HETATM    8  C   UNL     1      -9.540  12.168  67.759  1.00  0.00    -0.195 A  
HETATM    9  C   UNL     1      -9.410  11.035  68.579  1.00  0.00    -0.188 A  
HETATM   10  C   UNL     1     -10.518  10.429  69.178  1.00  0.00    -0.227 A  
HETATM   11  C   UNL     1     -11.760  11.054  68.965  1.00  0.00    -0.402 A  
HETATM   12  C   UNL     1     -11.901  12.186  68.146  1.00  0.00    -0.362 A  
BRANCH  10  13
HETATM   13  N   UNL     1     -10.435   9.259  69.936  1.00  0.00    -0.215 NA 
BRANCH  13  14
HETATM   14  C   UNL     1     -10.779   9.232  71.372  1.00  0.00    -0.362 C  
HETATM   15 CL   UNL     1     -12.433   7.047  71.053  1.00  0.00    -0.411 Cl 
HETATM   16  C   UNL     1     -12.189   8.710  71.656  1.00  0.00    -0.333 C  
ENDBRANCH  13  14
BRANCH  13  17
HETATM   17  C   UNL     1      -9.475   8.227  69.482  1.00  0.00    -0.162 C  
HETATM   18  C   UNL     1     -10.052   7.209  68.490  1.00  0.00    -0.168 C  
HETATM   19 CL   UNL     1     -10.575   7.956  66.957  1.00  0.00    -0.415 Cl 
ENDBRANCH  13  17
ENDBRANCH  10  13
ENDBRANCH   6   7
ENDBRANCH   5   6
ENDBRANCH   3   5
TORSDOF 6
ENDMDL
MODEL       32
REMARK 921   NORMALIZED FREE ENERGY PREDICTED BY IDOCK:   -4.97 KCAL/MOL
REMARK 922        TOTAL FREE ENERGY PREDICTED BY IDOCK:   -7.44 KCAL/MOL
REMARK 923 INTER-LIGAND FREE ENERGY PREDICTED BY IDOCK:   -6.50 KCAL/MOL
REMARK 924 INTRA-LIGAND FREE ENERGY PREDICTED BY IDOCK:   -0.95 KCAL/MOL
REMARK 927      BINDING AFFINITY PREDICTED BY RF-SCORE:    0.00 PKD
ROOT
HETATM    1  O   UNL     1     -14.172   7.778  72.252  1.00  0.00    -0.214 OA 
HETATM    2  C   UNL     1     -13.232   8.715  71.991  1.00  0.00    -0.386 C  
HETATM    3  C   UNL     1     -11.901   8.105  71.605  1.00  0.00    -0.334 C  
HETATM    4  O   UNL     1     -13.464   9.911  72.072  1.00  0.00    -0.413 OA 
ENDROOT
BRANCH   3   5
HETATM    5  C   UNL     1     -10.854   9.185  71.335  1.00  0.00    -0.419 C  
BRANCH   5   6
HETATM    6  C   UNL     1     -10.181   9.016  69.968  1.00  0.00    -0.222 C  
BRANCH   6   7
HETATM    7  C   UNL     1     -10.573  10.108  68.998  1.00  0.00    -0.245 A  
HETATM    8  C   UNL     1     -11.570  11.034  69.318  1.00  0.00    -0.384 A  
HETATM    9  C   UNL     1     -11.971  12.016  68.398  1.00  0.00    -0.256 A  
HETATM   10  C   UNL     1     -11.400  12.109  67.125  1.00  0.00    -0.331 A  
HETATM   11  C   UNL     1     -10.359  11.207  66.843  1.00  0.00    -0.272 A  
HETATM   12  C   UNL     1      -9.951  10.221  67.756  1.00  0.00    -0.203 A  
BRANCH  10  13
HETATM   13  N   UNL     1     -11.828  13.022  66.158  1.00  0.00    -0.390 NA 
BRANCH  13  14
HETATM   14  C   UNL     1     -12.127  14.429  66.490  1.00  0.00    -0.372 C  
HETATM   15 CL   UNL     1      -9.652  15.282  65.620  1.00  0.00    -0.359 Cl 
HETATM   16  C   UNL     1     -10.895  15.239  66.901  1.00  0.00    -0.317 C  
ENDBRANCH  13  14
BRANCH  13  17
HETATM   17  C   UNL     1     -12.531  12.474  64.976  1.00  0.00    -0.420 C  
HETATM   18  C   UNL     1     -11.925  12.878  63.626  1.00  0.00    -0.541 C  
HETATM   19 CL   UNL     1     -10.261  12.275  63.405  1.00  0.00    -0.419 Cl 
ENDBRANCH  13  17
ENDBRANCH  10  13
ENDBRANCH   6   7
ENDBRANCH   5   6
ENDBRANCH   3   5
TORSDOF 6
ENDMDL
MODEL       33
REMARK 921   NORMALIZED FREE ENERGY PREDICTED BY IDOCK:   -4.97 KCAL/MOL
REMARK 922        TOTAL FREE ENERGY PREDICTED BY IDOCK:   -7.43 KCAL/MOL
REMARK 923 INTER-LIGAND FREE ENERGY PREDICTED BY IDOCK:   -6.65 KCAL/MOL
REMARK 924 INTRA-LIGAND FREE ENERGY PREDICTED BY IDOCK:   -0.78 KCAL/MOL
REMARK 927      BINDING AFFINITY PREDICTED BY RF-SCORE:    0.00 PKD
ROOT
HETATM    1  O   UNL     1     -10.217  17.047  68.103  1.00  0.00    -0.288 OA 
HETATM    2  C   UNL     1     -11.140  16.060  68.152  1.00  0.00    -0.344 C  
HETATM    3  C   UNL     1     -11.069  15.143  66.950  1.00  0.00    -0.314 C  
HETATM    4  O   UNL     1     -11.929  15.953  69.077  1.00  0.00    -0.378 OA 
ENDROOT
BRANCH   3   5
HETATM    5  C   UNL     1     -12.135  14.050  67.024  1.00  0.00    -0.455 C  
BRANCH   5   6
HETATM    6  C   UNL     1     -11.597  12.681  66.591  1.00  0.00    -0.443 C  
BRANCH   6   7
HETATM    7  C   UNL     1     -11.483  11.718  67.752  1.00  0.00    -0.381 A  
HETATM    8  C   UNL     1     -10.929  10.445  67.580  1.00  0.00    -0.374 A  
HETATM    9  C   UNL     1     -10.870   9.531  68.645  1.00  0.00    -0.177 A  
HETATM   10  C   UNL     1     -11.363   9.846  69.914  1.00  0.00    -0.222 A  
HETATM   11  C   UNL     1     -11.861  11.151  70.082  1.00  0.00    -0.449 A  
HETATM   12  C   UNL     1     -11.926  12.072  69.024  1.00  0.00    -0.321 A  
BRANCH  10  13
HETATM   13  N   UNL     1     -11.391   8.936  70.973  1.00  0.00    -0.276 NA 
BRANCH  13  14
HETATM   14  C   UNL     1     -12.191   9.178  72.191  1.00  0.00    -0.338 C  
HETATM   15 CL   UNL     1     -14.064   7.282  71.478  1.00  0.00    -0.538 Cl 
HETATM   16  C   UNL     1     -13.691   8.950  71.995  1.00  0.00    -0.459 C  
ENDBRANCH  13  14
BRANCH  13  17
HETATM   17  C   UNL     1     -10.211   8.057  71.141  1.00  0.00    -0.193 C  
HETATM   18  C   UNL     1     -10.525   6.556  71.132  1.00  0.00    -0.220 C  
HETATM   19 CL   UNL     1     -11.208   6.000  69.580  1.00  0.00    -0.478 Cl 
ENDBRANCH  13  17
ENDBRANCH  10  13
ENDBRANCH   6   7
ENDBRANCH   5   6
ENDBRANCH   3   5
TORSDOF 6
ENDMDL
MODEL       34
REMARK 921   NORMALIZED FREE ENERGY PREDICTED BY IDOCK:   -4.96 KCAL/MOL
REMARK 922        TOTAL FREE ENERGY PREDICTED BY IDOCK:   -7.43 KCAL/MOL
REMARK 923 INTER-LIGAND FREE ENERGY PREDICTED BY IDOCK:   -6.50 KCAL/MOL
REMARK 924 INTRA-LIGAND FREE ENERGY PREDICTED BY IDOCK:   -0.93 KCAL/MOL
REMARK 927      BINDING AFFINITY PREDICTED BY RF-SCORE:    0.00 PKD
ROOT
HETATM    1  O   UNL     1      -8.578  10.282  64.021  1.00  0.00    -0.171 OA 
HETATM    2  C   UNL     1      -9.851  10.591  64.358  1.00  0.00    -0.341 C  
HETATM    3  C   UNL     1     -10.556  11.388  63.282  1.00  0.00    -0.374 C  
HETATM    4  O   UNL     1     -10.342  10.252  65.423  1.00  0.00    -0.269 OA 
ENDROOT
BRANCH   3   5
HETATM    5  C   UNL     1     -11.984  11.738  63.697  1.00  0.00    -0.490 C  
BRANCH   5   6
HETATM    6  C   UNL     1     -12.259  13.245  63.629  1.00  0.00    -0.522 C  
BRANCH   6   7
HETATM    7  C   UNL     1     -11.679  13.987  64.812  1.00  0.00    -0.403 A  
HETATM    8  C   UNL     1     -11.715  13.436  66.097  1.00  0.00    -0.405 A  
HETATM    9  C   UNL     1     -11.224  14.147  67.204  1.00  0.00    -0.330 A  
HETATM   10  C   UNL     1     -10.685  15.430  67.075  1.00  0.00    -0.321 A  
HETATM   11  C   UNL     1     -10.602  15.942  65.768  1.00  0.00    -0.368 A  
HETATM   12  C   UNL     1     -11.092  15.241  64.654  1.00  0.00    -0.346 A  
BRANCH  10  13
HETATM   13  N   UNL     1     -10.259  16.195  68.163  1.00  0.00    -0.241 NA 
BRANCH  13  14
HETATM   14  C   UNL     1      -9.944  15.586  69.472  1.00  0.00    -0.280 C  
HETATM   15 CL   UNL     1     -12.608  15.440  70.175  1.00  0.00    -0.375 Cl 
HETATM   16  C   UNL     1     -10.943  15.947  70.573  1.00  0.00    -0.330 C  
ENDBRANCH  13  14
BRANCH  13  17
HETATM   17  C   UNL     1     -10.678  17.615  68.196  1.00  0.00    -0.307 C  
HETATM   18  C   UNL     1      -9.541  18.612  68.455  1.00  0.00    -0.359 C  
HETATM   19 CL   UNL     1      -8.304  18.600  67.169  1.00  0.00    -0.263 Cl 
ENDBRANCH  13  17
ENDBRANCH  10  13
ENDBRANCH   6   7
ENDBRANCH   5   6
ENDBRANCH   3   5
TORSDOF 6
ENDMDL
MODEL       35
REMARK 921   NORMALIZED FREE ENERGY PREDICTED BY IDOCK:   -4.95 KCAL/MOL
REMARK 922        TOTAL FREE ENERGY PREDICTED BY IDOCK:   -7.42 KCAL/MOL
REMARK 923 INTER-LIGAND FREE ENERGY PREDICTED BY IDOCK:   -7.12 KCAL/MOL
REMARK 924 INTRA-LIGAND FREE ENERGY PREDICTED BY IDOCK:   -0.29 KCAL/MOL
REMARK 927      BINDING AFFINITY PREDICTED BY RF-SCORE:    0.00 PKD
ROOT
HETATM    1  O   UNL     1     -12.581  14.024  63.125  1.00  0.00    -0.733 OA 
HETATM    2  C   UNL     1     -12.328  12.726  63.408  1.00  0.00    -0.437 C  
HETATM    3  C   UNL     1     -10.890  12.495  63.821  1.00  0.00    -0.489 C  
HETATM    4  O   UNL     1     -13.186  11.862  63.324  1.00  0.00    -0.602 OA 
ENDROOT
BRANCH   3   5
HETATM    5  C   UNL     1     -10.628  11.019  64.115  1.00  0.00    -0.412 C  
BRANCH   5   6
HETATM    6  C   UNL     1     -10.196  10.780  65.566  1.00  0.00    -0.330 C  
BRANCH   6   7
HETATM    7  C   UNL     1     -10.415  11.998  66.436  1.00  0.00    -0.267 A  
HETATM    8  C   UNL     1     -11.699  12.374  66.841  1.00  0.00    -0.432 A  
HETATM    9  C   UNL     1     -11.908  13.534  67.605  1.00  0.00    -0.399 A  
HETATM   10  C   UNL     1     -10.850  14.362  67.990  1.00  0.00    -0.243 A  
HETATM   11  C   UNL     1      -9.561  13.935  67.624  1.00  0.00    -0.215 A  
HETATM   12  C   UNL     1      -9.341  12.779  66.859  1.00  0.00    -0.234 A  
BRANCH  10  13
HETATM   13  N   UNL     1     -11.029  15.561  68.683  1.00  0.00    -0.264 NA 
BRANCH  13  14
HETATM   14  C   UNL     1     -10.918  16.874  68.015  1.00  0.00    -0.271 C  
HETATM   15 CL   UNL     1      -8.267  17.144  68.732  1.00  0.00    -0.258 Cl 
HETATM   16  C   UNL     1      -9.919  17.821  68.684  1.00  0.00    -0.379 C  
ENDBRANCH  13  14
BRANCH  13  17
HETATM   17  C   UNL     1     -10.746  15.551  70.137  1.00  0.00    -0.329 C  
HETATM   18  C   UNL     1     -11.969  15.802  71.028  1.00  0.00    -0.419 C  
HETATM   19 CL   UNL     1     -13.217  14.538  70.865  1.00  0.00    -0.411 Cl 
ENDBRANCH  13  17
ENDBRANCH  10  13
ENDBRANCH   6   7
ENDBRANCH   5   6
ENDBRANCH   3   5
TORSDOF 6
ENDMDL
MODEL       36
REMARK 921   NORMALIZED FREE ENERGY PREDICTED BY IDOCK:   -4.95 KCAL/MOL
REMARK 922        TOTAL FREE ENERGY PREDICTED BY IDOCK:   -7.41 KCAL/MOL
REMARK 923 INTER-LIGAND FREE ENERGY PREDICTED BY IDOCK:   -6.66 KCAL/MOL
REMARK 924 INTRA-LIGAND FREE ENERGY PREDICTED BY IDOCK:   -0.76 KCAL/MOL
REMARK 927      BINDING AFFINITY PREDICTED BY RF-SCORE:    0.00 PKD
ROOT
HETATM    1  O   UNL     1     -12.066  16.015  63.828  1.00  0.00    -0.882 OA 
HETATM    2  C   UNL     1     -12.224  14.749  64.279  1.00  0.00    -0.379 C  
HETATM    3  C   UNL     1     -11.767  14.586  65.712  1.00  0.00    -0.344 C  
HETATM    4  O   UNL     1     -12.683  13.862  63.578  1.00  0.00    -0.797 OA 
ENDROOT
BRANCH   3   5
HETATM    5  C   UNL     1     -11.939  13.144  66.188  1.00  0.00    -0.478 C  
BRANCH   5   6
HETATM    6  C   UNL     1     -12.116  13.048  67.707  1.00  0.00    -0.244 C  
BRANCH   6   7
HETATM    7  C   UNL     1     -11.658  11.714  68.254  1.00  0.00    -0.378 A  
HETATM    8  C   UNL     1     -10.993  10.792  67.441  1.00  0.00    -0.361 A  
HETATM    9  C   UNL     1     -10.614   9.532  67.933  1.00  0.00    -0.299 A  
HETATM   10  C   UNL     1     -10.886   9.144  69.248  1.00  0.00    -0.132 A  
HETATM   11  C   UNL     1     -11.502  10.107  70.067  1.00  0.00    -0.344 A  
HETATM   12  C   UNL     1     -11.886  11.368  69.584  1.00  0.00    -0.431 A  
BRANCH  10  13
HETATM   13  N   UNL     1     -10.593   7.873  69.748  1.00  0.00    -0.240 NA 
BRANCH  13  14
HETATM   14  C   UNL     1      -9.442   7.086  69.258  1.00  0.00    -0.147 C  
HETATM   15 CL   UNL     1      -8.018   7.504  71.584  1.00  0.00    -0.089 Cl 
HETATM   16  C   UNL     1      -8.095   7.566  69.801  1.00  0.00    -0.126 C  
ENDBRANCH  13  14
BRANCH  13  17
HETATM   17  C   UNL     1     -11.719   7.089  70.306  1.00  0.00    -0.236 C  
HETATM   18  C   UNL     1     -11.454   6.486  71.691  1.00  0.00    -0.297 C  
HETATM   19 CL   UNL     1     -11.181   7.725  72.945  1.00  0.00    -0.451 Cl 
ENDBRANCH  13  17
ENDBRANCH  10  13
ENDBRANCH   6   7
ENDBRANCH   5   6
ENDBRANCH   3   5
TORSDOF 6
ENDMDL
MODEL       37
REMARK 921   NORMALIZED FREE ENERGY PREDICTED BY IDOCK:   -4.95 KCAL/MOL
REMARK 922        TOTAL FREE ENERGY PREDICTED BY IDOCK:   -7.41 KCAL/MOL
REMARK 923 INTER-LIGAND FREE ENERGY PREDICTED BY IDOCK:   -6.75 KCAL/MOL
REMARK 924 INTRA-LIGAND FREE ENERGY PREDICTED BY IDOCK:   -0.66 KCAL/MOL
REMARK 927      BINDING AFFINITY PREDICTED BY RF-SCORE:    0.00 PKD
ROOT
HETATM    1  O   UNL     1     -12.276  15.770  64.019  1.00  0.00    -0.664 OA 
HETATM    2  C   UNL     1     -12.363  14.467  64.374  1.00  0.00    -0.413 C  
HETATM    3  C   UNL     1     -12.056  14.247  65.839  1.00  0.00    -0.416 C  
HETATM    4  O   UNL     1     -12.655  13.593  63.574  1.00  0.00    -0.754 OA 
ENDROOT
BRANCH   3   5
HETATM    5  C   UNL     1     -12.143  12.766  66.208  1.00  0.00    -0.400 C  
BRANCH   5   6
HETATM    6  C   UNL     1     -10.766  12.148  66.472  1.00  0.00    -0.290 C  
BRANCH   6   7
HETATM    7  C   UNL     1     -10.794  11.151  67.608  1.00  0.00    -0.295 A  
HETATM    8  C   UNL     1     -10.187   9.897  67.483  1.00  0.00    -0.265 A  
HETATM    9  C   UNL     1     -10.258   8.950  68.518  1.00  0.00    -0.223 A  
HETATM   10  C   UNL     1     -10.937   9.213  69.710  1.00  0.00    -0.181 A  
HETATM   11  C   UNL     1     -11.491  10.499  69.842  1.00  0.00    -0.384 A  
HETATM   12  C   UNL     1     -11.427  11.453  68.813  1.00  0.00    -0.354 A  
BRANCH  10  13
HETATM   13  N   UNL     1     -11.094   8.268  70.727  1.00  0.00    -0.255 NA 
BRANCH  13  14
HETATM   14  C   UNL     1     -11.930   7.063  70.553  1.00  0.00    -0.266 C  
HETATM   15 CL   UNL     1     -14.202   8.375  71.407  1.00  0.00    -0.429 Cl 
HETATM   16  C   UNL     1     -13.098   6.979  71.538  1.00  0.00    -0.339 C  
ENDBRANCH  13  14
BRANCH  13  17
HETATM   17  C   UNL     1     -10.925   8.741  72.121  1.00  0.00    -0.334 C  
HETATM   18  C   UNL     1      -9.779   8.071  72.889  1.00  0.00    -0.283 C  
HETATM   19 CL   UNL     1      -8.179   8.397  72.170  1.00  0.00    -0.206 Cl 
ENDBRANCH  13  17
ENDBRANCH  10  13
ENDBRANCH   6   7
ENDBRANCH   5   6
ENDBRANCH   3   5
TORSDOF 6
ENDMDL
MODEL       38
REMARK 921   NORMALIZED FREE ENERGY PREDICTED BY IDOCK:   -4.94 KCAL/MOL
REMARK 922        TOTAL FREE ENERGY PREDICTED BY IDOCK:   -7.40 KCAL/MOL
REMARK 923 INTER-LIGAND FREE ENERGY PREDICTED BY IDOCK:   -6.60 KCAL/MOL
REMARK 924 INTRA-LIGAND FREE ENERGY PREDICTED BY IDOCK:   -0.79 KCAL/MOL
REMARK 927      BINDING AFFINITY PREDICTED BY RF-SCORE:    0.00 PKD
ROOT
HETATM    1  O   UNL     1     -12.133  16.093  63.799  1.00  0.00    -0.946 OA 
HETATM    2  C   UNL     1     -12.108  14.847  64.326  1.00  0.00    -0.353 C  
HETATM    3  C   UNL     1     -11.160  14.736  65.500  1.00  0.00    -0.346 C  
HETATM    4  O   UNL     1     -12.784  13.937  63.875  1.00  0.00    -0.665 OA 
ENDROOT
BRANCH   3   5
HETATM    5  C   UNL     1     -11.137  13.315  66.062  1.00  0.00    -0.298 C  
BRANCH   5   6
HETATM    6  C   UNL     1     -12.087  13.143  67.252  1.00  0.00    -0.329 C  
BRANCH   6   7
HETATM    7  C   UNL     1     -11.716  11.959  68.115  1.00  0.00    -0.388 A  
HETATM    8  C   UNL     1     -12.000  11.946  69.484  1.00  0.00    -0.355 A  
HETATM    9  C   UNL     1     -11.609  10.869  70.297  1.00  0.00    -0.426 A  
HETATM   10  C   UNL     1     -10.918   9.770  69.779  1.00  0.00    -0.256 A  
HETATM   11  C   UNL     1     -10.694   9.773  68.391  1.00  0.00    -0.262 A  
HETATM   12  C   UNL     1     -11.079  10.845  67.570  1.00  0.00    -0.375 A  
BRANCH  10  13
HETATM   13  N   UNL     1     -10.447   8.720  70.570  1.00  0.00    -0.201 NA 
BRANCH  13  14
HETATM   14  C   UNL     1     -11.353   7.894  71.394  1.00  0.00    -0.252 C  
HETATM   15 CL   UNL     1     -10.979   5.679  69.793  1.00  0.00    -0.385 Cl 
HETATM   16  C   UNL     1     -12.094   6.816  70.600  1.00  0.00    -0.314 C  
ENDBRANCH  13  14
BRANCH  13  17
HETATM   17  C   UNL     1      -9.044   8.803  71.039  1.00  0.00    -0.218 C  
HETATM   18  C   UNL     1      -8.164   7.613  70.638  1.00  0.00    -0.113 C  
HETATM   19 CL   UNL     1      -7.977   7.453  68.871  1.00  0.00    -0.124 Cl 
ENDBRANCH  13  17
ENDBRANCH  10  13
ENDBRANCH   6   7
ENDBRANCH   5   6
ENDBRANCH   3   5
TORSDOF 6
ENDMDL
MODEL       39
REMARK 921   NORMALIZED FREE ENERGY PREDICTED BY IDOCK:   -4.94 KCAL/MOL
REMARK 922        TOTAL FREE ENERGY PREDICTED BY IDOCK:   -7.39 KCAL/MOL
REMARK 923 INTER-LIGAND FREE ENERGY PREDICTED BY IDOCK:   -6.47 KCAL/MOL
REMARK 924 INTRA-LIGAND FREE ENERGY PREDICTED BY IDOCK:   -0.92 KCAL/MOL
REMARK 927      BINDING AFFINITY PREDICTED BY RF-SCORE:    0.00 PKD
ROOT
HETATM    1  O   UNL     1     -10.564   5.353  71.442  1.00  0.00    -0.236 OA 
HETATM    2  C   UNL     1     -11.381   6.299  70.924  1.00  0.00    -0.325 C  
HETATM    3  C   UNL     1     -12.033   7.147  71.994  1.00  0.00    -0.332 C  
HETATM    4  O   UNL     1     -11.553   6.423  69.722  1.00  0.00    -0.431 OA 
ENDROOT
BRANCH   3   5
HETATM    5  C   UNL     1     -12.964   8.193  71.382  1.00  0.00    -0.261 C  
BRANCH   5   6
HETATM    6  C   UNL     1     -12.714   9.597  71.944  1.00  0.00    -0.499 C  
BRANCH   6   7
HETATM    7  C   UNL     1     -12.128  10.532  70.910  1.00  0.00    -0.487 A  
HETATM    8  C   UNL     1     -12.530  11.870  70.838  1.00  0.00    -0.397 A  
HETATM    9  C   UNL     1     -12.025  12.725  69.845  1.00  0.00    -0.368 A  
HETATM   10  C   UNL     1     -11.109  12.282  68.887  1.00  0.00    -0.242 A  
HETATM   11  C   UNL     1     -10.672  10.951  69.012  1.00  0.00    -0.262 A  
HETATM   12  C   UNL     1     -11.172  10.087  70.000  1.00  0.00    -0.345 A  
BRANCH  10  13
HETATM   13  N   UNL     1     -10.646  13.083  67.841  1.00  0.00    -0.225 NA 
BRANCH  13  14
HETATM   14  C   UNL     1     -10.581  12.591  66.450  1.00  0.00    -0.247 C  
HETATM   15 CL   UNL     1     -12.778  14.081  65.698  1.00  0.00    -0.555 Cl 
HETATM   16  C   UNL     1     -11.947  12.502  65.766  1.00  0.00    -0.420 C  
ENDBRANCH  13  14
BRANCH  13  17
HETATM   17  C   UNL     1      -9.697  14.166  68.187  1.00  0.00    -0.225 C  
HETATM   18  C   UNL     1     -10.159  15.574  67.789  1.00  0.00    -0.232 C  
HETATM   19 CL   UNL     1     -11.650  16.077  68.629  1.00  0.00    -0.384 Cl 
ENDBRANCH  13  17
ENDBRANCH  10  13
ENDBRANCH   6   7
ENDBRANCH   5   6
ENDBRANCH   3   5
TORSDOF 6
ENDMDL
MODEL       40
REMARK 921   NORMALIZED FREE ENERGY PREDICTED BY IDOCK:   -4.94 KCAL/MOL
REMARK 922        TOTAL FREE ENERGY PREDICTED BY IDOCK:   -7.39 KCAL/MOL
REMARK 923 INTER-LIGAND FREE ENERGY PREDICTED BY IDOCK:   -6.96 KCAL/MOL
REMARK 924 INTRA-LIGAND FREE ENERGY PREDICTED BY IDOCK:   -0.44 KCAL/MOL
REMARK 927      BINDING AFFINITY PREDICTED BY RF-SCORE:    0.00 PKD
ROOT
HETATM    1  O   UNL     1     -12.812  16.337  74.366  1.00  0.00    -0.689 OA 
HETATM    2  C   UNL     1     -13.170  15.607  73.284  1.00  0.00    -0.557 C  
HETATM    3  C   UNL     1     -12.098  14.622  72.873  1.00  0.00    -0.200 C  
HETATM    4  O   UNL     1     -14.245  15.756  72.726  1.00  0.00    -0.539 OA 
ENDROOT
BRANCH   3   5
HETATM    5  C   UNL     1     -12.521  13.826  71.639  1.00  0.00    -0.309 C  
BRANCH   5   6
HETATM    6  C   UNL     1     -13.507  12.703  71.979  1.00  0.00    -0.516 C  
BRANCH   6   7
HETATM    7  C   UNL     1     -12.976  11.339  71.599  1.00  0.00    -0.537 A  
HETATM    8  C   UNL     1     -13.396  10.188  72.274  1.00  0.00    -0.337 A  
HETATM    9  C   UNL     1     -12.864   8.928  71.957  1.00  0.00    -0.456 A  
HETATM   10  C   UNL     1     -11.894   8.766  70.963  1.00  0.00    -0.271 A  
HETATM   11  C   UNL     1     -11.529   9.926  70.256  1.00  0.00    -0.349 A  
HETATM   12  C   UNL     1     -12.053  11.191  70.566  1.00  0.00    -0.474 A  
BRANCH  10  13
HETATM   13  N   UNL     1     -11.289   7.541  70.675  1.00  0.00    -0.282 NA 
BRANCH  13  14
HETATM   14  C   UNL     1     -10.750   7.232  69.335  1.00  0.00    -0.225 C  
HETATM   15 CL   UNL     1      -8.273   6.572  70.355  1.00  0.00    -0.123 Cl 
HETATM   16  C   UNL     1      -9.252   7.512  69.195  1.00  0.00    -0.144 C  
ENDBRANCH  13  14
BRANCH  13  17
HETATM   17  C   UNL     1     -11.700   6.375  71.490  1.00  0.00    -0.313 C  
HETATM   18  C   UNL     1     -10.664   5.923  72.527  1.00  0.00    -0.234 C  
HETATM   19 CL   UNL     1     -10.331   7.166  73.763  1.00  0.00    -0.401 Cl 
ENDBRANCH  13  17
ENDBRANCH  10  13
ENDBRANCH   6   7
ENDBRANCH   5   6
ENDBRANCH   3   5
TORSDOF 6
ENDMDL
MODEL       41
REMARK 921   NORMALIZED FREE ENERGY PREDICTED BY IDOCK:   -4.93 KCAL/MOL
REMARK 922        TOTAL FREE ENERGY PREDICTED BY IDOCK:   -7.39 KCAL/MOL
REMARK 923 INTER-LIGAND FREE ENERGY PREDICTED BY IDOCK:   -7.21 KCAL/MOL
REMARK 924 INTRA-LIGAND FREE ENERGY PREDICTED BY IDOCK:   -0.18 KCAL/MOL
REMARK 927      BINDING AFFINITY PREDICTED BY RF-SCORE:    0.00 PKD
ROOT
HETATM    1  O   UNL     1     -12.732  16.198  74.469  1.00  0.00    -0.707 OA 
HETATM    2  C   UNL     1     -13.081  15.889  73.198  1.00  0.00    -0.572 C  
HETATM    3  C   UNL     1     -11.880  15.580  72.330  1.00  0.00    -0.560 C  
HETATM    4  O   UNL     1     -14.244  15.874  72.828  1.00  0.00    -0.523 OA 
ENDROOT
BRANCH   3   5
HETATM    5  C   UNL     1     -12.302  15.253  70.898  1.00  0.00    -0.433 C  
BRANCH   5   6
HETATM    6  C   UNL     1     -12.472  13.747  70.669  1.00  0.00    -0.429 C  
BRANCH   6   7
HETATM    7  C   UNL     1     -11.802  13.282  69.396  1.00  0.00    -0.386 A  
HETATM    8  C   UNL     1     -10.934  14.121  68.689  1.00  0.00    -0.275 A  
HETATM    9  C   UNL     1     -10.352  13.709  67.480  1.00  0.00    -0.241 A  
HETATM   10  C   UNL     1     -10.614  12.452  66.927  1.00  0.00    -0.229 A  
HETATM   11  C   UNL     1     -11.442  11.601  67.681  1.00  0.00    -0.373 A  
HETATM   12  C   UNL     1     -12.030  12.004  68.891  1.00  0.00    -0.303 A  
BRANCH  10  13
HETATM   13  N   UNL     1     -10.115  12.040  65.690  1.00  0.00    -0.238 NA 
BRANCH  13  14
HETATM   14  C   UNL     1      -8.988  11.091  65.578  1.00  0.00    -0.194 C  
HETATM   15 CL   UNL     1      -9.757  10.295  63.051  1.00  0.00    -0.295 Cl 
HETATM   16  C   UNL     1      -9.303   9.862  64.723  1.00  0.00    -0.278 C  
ENDBRANCH  13  14
BRANCH  13  17
HETATM   17  C   UNL     1     -10.296  12.963  64.546  1.00  0.00    -0.357 C  
HETATM   18  C   UNL     1     -11.639  12.822  63.817  1.00  0.00    -0.481 C  
HETATM   19 CL   UNL     1     -13.036  13.209  64.857  1.00  0.00    -0.333 Cl 
ENDBRANCH  13  17
ENDBRANCH  10  13
ENDBRANCH   6   7
ENDBRANCH   5   6
ENDBRANCH   3   5
TORSDOF 6
ENDMDL
MODEL       42
REMARK 921   NORMALIZED FREE ENERGY PREDICTED BY IDOCK:   -4.92 KCAL/MOL
REMARK 922        TOTAL FREE ENERGY PREDICTED BY IDOCK:   -7.37 KCAL/MOL
REMARK 923 INTER-LIGAND FREE ENERGY PREDICTED BY IDOCK:   -6.48 KCAL/MOL
REMARK 924 INTRA-LIGAND FREE ENERGY PREDICTED BY IDOCK:   -0.89 KCAL/MOL
REMARK 927      BINDING AFFINITY PREDICTED BY RF-SCORE:    0.00 PKD
ROOT
HETATM    1  O   UNL     1      -9.934   4.962  69.998  1.00  0.00    -0.215 OA 
HETATM    2  C   UNL     1     -10.937   5.867  70.076  1.00  0.00    -0.360 C  
HETATM    3  C   UNL     1     -11.256   6.254  71.503  1.00  0.00    -0.344 C  
HETATM    4  O   UNL     1     -11.502   6.298  69.083  1.00  0.00    -0.394 OA 
ENDROOT
BRANCH   3   5
HETATM    5  C   UNL     1     -12.404   7.261  71.561  1.00  0.00    -0.397 C  
BRANCH   5   6
HETATM    6  C   UNL     1     -12.025   8.536  72.324  1.00  0.00    -0.454 C  
BRANCH   6   7
HETATM    7  C   UNL     1     -11.994   9.753  71.426  1.00  0.00    -0.493 A  
HETATM    8  C   UNL     1     -11.110   9.830  70.346  1.00  0.00    -0.367 A  
HETATM    9  C   UNL     1     -11.044  10.981  69.544  1.00  0.00    -0.322 A  
HETATM   10  C   UNL     1     -11.849  12.096  69.789  1.00  0.00    -0.327 A  
HETATM   11  C   UNL     1     -12.773  11.977  70.843  1.00  0.00    -0.291 A  
HETATM   12  C   UNL     1     -12.846  10.832  71.652  1.00  0.00    -0.562 A  
BRANCH  10  13
HETATM   13  N   UNL     1     -11.756  13.284  69.061  1.00  0.00    -0.302 NA 
BRANCH  13  14
HETATM   14  C   UNL     1     -12.150  14.586  69.636  1.00  0.00    -0.323 C  
HETATM   15 CL   UNL     1      -9.533  15.449  69.773  1.00  0.00    -0.230 Cl 
HETATM   16  C   UNL     1     -11.103  15.183  70.579  1.00  0.00    -0.262 C  
ENDBRANCH  13  14
BRANCH  13  17
HETATM   17  C   UNL     1     -11.832  13.181  67.585  1.00  0.00    -0.359 C  
HETATM   18  C   UNL     1     -10.646  13.803  66.838  1.00  0.00    -0.276 C  
HETATM   19 CL   UNL     1      -9.096  13.000  67.206  1.00  0.00    -0.201 Cl 
ENDBRANCH  13  17
ENDBRANCH  10  13
ENDBRANCH   6   7
ENDBRANCH   5   6
ENDBRANCH   3   5
TORSDOF 6
ENDMDL
MODEL       43
REMARK 921   NORMALIZED FREE ENERGY PREDICTED BY IDOCK:   -4.90 KCAL/MOL
REMARK 922        TOTAL FREE ENERGY PREDICTED BY IDOCK:   -7.35 KCAL/MOL
REMARK 923 INTER-LIGAND FREE ENERGY PREDICTED BY IDOCK:   -7.44 KCAL/MOL
REMARK 924 INTRA-LIGAND FREE ENERGY PREDICTED BY IDOCK:    0.09 KCAL/MOL
REMARK 927      BINDING AFFINITY PREDICTED BY RF-SCORE:    0.00 PKD
ROOT
HETATM    1  O   UNL     1     -12.539  14.165  63.564  1.00  0.00    -0.834 OA 
HETATM    2  C   UNL     1     -12.200  12.856  63.609  1.00  0.00    -0.499 C  
HETATM    3  C   UNL     1     -10.761  12.648  64.030  1.00  0.00    -0.457 C  
HETATM    4  O   UNL     1     -12.990  11.969  63.331  1.00  0.00    -0.772 OA 
ENDROOT
BRANCH   3   5
HETATM    5  C   UNL     1     -10.400  11.163  64.054  1.00  0.00    -0.437 C  
BRANCH   5   6
HETATM    6  C   UNL     1     -10.212  10.631  65.479  1.00  0.00    -0.329 C  
BRANCH   6   7
HETATM    7  C   UNL     1     -10.372  11.714  66.521  1.00  0.00    -0.259 A  
HETATM    8  C   UNL     1     -11.639  12.112  66.960  1.00  0.00    -0.406 A  
HETATM    9  C   UNL     1     -11.791  13.154  67.889  1.00  0.00    -0.390 A  
HETATM   10  C   UNL     1     -10.691  13.840  68.411  1.00  0.00    -0.254 A  
HETATM   11  C   UNL     1      -9.424  13.387  68.003  1.00  0.00    -0.218 A  
HETATM   12  C   UNL     1      -9.261  12.348  67.074  1.00  0.00    -0.208 A  
BRANCH  10  13
HETATM   13  N   UNL     1     -10.809  14.930  69.276  1.00  0.00    -0.258 NA 
BRANCH  13  14
HETATM   14  C   UNL     1     -12.121  15.511  69.628  1.00  0.00    -0.328 C  
HETATM   15 CL   UNL     1     -11.578  15.390  72.331  1.00  0.00    -0.552 Cl 
HETATM   16  C   UNL     1     -12.670  15.017  70.968  1.00  0.00    -0.366 C  
ENDBRANCH  13  14
BRANCH  13  17
HETATM   17  C   UNL     1      -9.651  15.850  69.366  1.00  0.00    -0.265 C  
HETATM   18  C   UNL     1      -9.401  16.688  68.106  1.00  0.00    -0.224 C  
HETATM   19 CL   UNL     1     -10.750  17.794  67.730  1.00  0.00    -0.381 Cl 
ENDBRANCH  13  17
ENDBRANCH  10  13
ENDBRANCH   6   7
ENDBRANCH   5   6
ENDBRANCH   3   5
TORSDOF 6
ENDMDL
MODEL       44
REMARK 921   NORMALIZED FREE ENERGY PREDICTED BY IDOCK:   -4.87 KCAL/MOL
REMARK 922        TOTAL FREE ENERGY PREDICTED BY IDOCK:   -7.30 KCAL/MOL
REMARK 923 INTER-LIGAND FREE ENERGY PREDICTED BY IDOCK:   -6.49 KCAL/MOL
REMARK 924 INTRA-LIGAND FREE ENERGY PREDICTED BY IDOCK:   -0.80 KCAL/MOL
REMARK 927      BINDING AFFINITY PREDICTED BY RF-SCORE:    0.00 PKD
ROOT
HETATM    1  O   UNL     1     -10.948   6.407  72.553  1.00  0.00    -0.230 OA 
HETATM    2  C   UNL     1     -11.723   7.170  71.748  1.00  0.00    -0.290 C  
HETATM    3  C   UNL     1     -12.245   8.404  72.451  1.00  0.00    -0.430 C  
HETATM    4  O   UNL     1     -11.957   6.864  70.589  1.00  0.00    -0.369 OA 
ENDROOT
BRANCH   3   5
HETATM    5  C   UNL     1     -13.132   9.236  71.524  1.00  0.00    -0.430 C  
BRANCH   5   6
HETATM    6  C   UNL     1     -13.025  10.738  71.809  1.00  0.00    -0.568 C  
BRANCH   6   7
HETATM    7  C   UNL     1     -12.405  11.497  70.657  1.00  0.00    -0.457 A  
HETATM    8  C   UNL     1     -11.837  10.822  69.572  1.00  0.00    -0.380 A  
HETATM    9  C   UNL     1     -11.214  11.524  68.527  1.00  0.00    -0.315 A  
HETATM   10  C   UNL     1     -11.129  12.919  68.526  1.00  0.00    -0.267 A  
HETATM   11  C   UNL     1     -11.758  13.582  69.595  1.00  0.00    -0.378 A  
HETATM   12  C   UNL     1     -12.382  12.890  70.645  1.00  0.00    -0.385 A  
BRANCH  10  13
HETATM   13  N   UNL     1     -10.451  13.645  67.544  1.00  0.00    -0.240 NA 
BRANCH  13  14
HETATM   14  C   UNL     1      -8.984  13.569  67.389  1.00  0.00    -0.219 C  
HETATM   15 CL   UNL     1      -8.558  15.362  69.442  1.00  0.00    -0.254 Cl 
HETATM   16  C   UNL     1      -8.260  14.867  67.752  1.00  0.00    -0.156 C  
ENDBRANCH  13  14
BRANCH  13  17
HETATM   17  C   UNL     1     -11.086  14.896  67.068  1.00  0.00    -0.338 C  
HETATM   18  C   UNL     1     -11.605  14.841  65.625  1.00  0.00    -0.290 C  
HETATM   19 CL   UNL     1     -12.900  13.635  65.400  1.00  0.00    -0.501 Cl 
ENDBRANCH  13  17
ENDBRANCH  10  13
ENDBRANCH   6   7
ENDBRANCH   5   6
ENDBRANCH   3   5
TORSDOF 6
ENDMDL
MODEL       45
REMARK 921   NORMALIZED FREE ENERGY PREDICTED BY IDOCK:   -4.86 KCAL/MOL
REMARK 922        TOTAL FREE ENERGY PREDICTED BY IDOCK:   -7.29 KCAL/MOL
REMARK 923 INTER-LIGAND FREE ENERGY PREDICTED BY IDOCK:   -6.60 KCAL/MOL
REMARK 924 INTRA-LIGAND FREE ENERGY PREDICTED BY IDOCK:   -0.68 KCAL/MOL
REMARK 927      BINDING AFFINITY PREDICTED BY RF-SCORE:    0.00 PKD
ROOT
HETATM    1  O   UNL     1     -12.700  13.742  63.140  1.00  0.00    -0.743 OA 
HETATM    2  C   UNL     1     -11.816  13.455  64.123  1.00  0.00    -0.442 C  
HETATM    3  C   UNL     1     -12.339  13.823  65.495  1.00  0.00    -0.507 C  
HETATM    4  O   UNL     1     -10.725  12.959  63.893  1.00  0.00    -0.406 OA 
ENDROOT
BRANCH   3   5
HETATM    5  C   UNL     1     -11.314  13.505  66.583  1.00  0.00    -0.344 C  
BRANCH   5   6
HETATM    6  C   UNL     1     -11.972  13.186  67.930  1.00  0.00    -0.347 C  
BRANCH   6   7
HETATM    7  C   UNL     1     -11.668  11.780  68.397  1.00  0.00    -0.389 A  
HETATM    8  C   UNL     1     -11.972  11.372  69.700  1.00  0.00    -0.416 A  
HETATM    9  C   UNL     1     -11.643  10.083  70.151  1.00  0.00    -0.320 A  
HETATM   10  C   UNL     1     -10.996   9.158  69.327  1.00  0.00    -0.061 A  
HETATM   11  C   UNL     1     -10.751   9.567  68.004  1.00  0.00    -0.266 A  
HETATM   12  C   UNL     1     -11.075  10.853  67.543  1.00  0.00    -0.375 A  
BRANCH  10  13
HETATM   13  N   UNL     1     -10.585   7.897  69.766  1.00  0.00    -0.240 NA 
BRANCH  13  14
HETATM   14  C   UNL     1      -9.459   7.179  69.136  1.00  0.00    -0.147 C  
HETATM   15 CL   UNL     1     -11.003   6.408  66.983  1.00  0.00    -0.465 Cl 
HETATM   16  C   UNL     1      -9.890   5.967  68.307  1.00  0.00    -0.137 C  
ENDBRANCH  13  14
BRANCH  13  17
HETATM   17  C   UNL     1     -11.601   7.048  70.430  1.00  0.00    -0.295 C  
HETATM   18  C   UNL     1     -11.158   6.451  71.772  1.00  0.00    -0.265 C  
HETATM   19 CL   UNL     1     -10.821   7.695  73.006  1.00  0.00    -0.438 Cl 
ENDBRANCH  13  17
ENDBRANCH  10  13
ENDBRANCH   6   7
ENDBRANCH   5   6
ENDBRANCH   3   5
TORSDOF 6
ENDMDL
MODEL       46
REMARK 921   NORMALIZED FREE ENERGY PREDICTED BY IDOCK:   -4.84 KCAL/MOL
REMARK 922        TOTAL FREE ENERGY PREDICTED BY IDOCK:   -7.26 KCAL/MOL
REMARK 923 INTER-LIGAND FREE ENERGY PREDICTED BY IDOCK:   -6.54 KCAL/MOL
REMARK 924 INTRA-LIGAND FREE ENERGY PREDICTED BY IDOCK:   -0.72 KCAL/MOL
REMARK 927      BINDING AFFINITY PREDICTED BY RF-SCORE:    0.00 PKD
ROOT
HETATM    1  O   UNL     1      -9.520  17.255  65.821  1.00  0.00    -0.527 OA 
HETATM    2  C   UNL     1     -10.401  16.506  65.118  1.00  0.00    -0.020 C  
HETATM    3  C   UNL     1     -10.234  15.024  65.376  1.00  0.00    -0.411 C  
HETATM    4  O   UNL     1     -11.223  17.004  64.365  1.00  0.00    -1.167 OA 
ENDROOT
BRANCH   3   5
HETATM    5  C   UNL     1     -11.228  14.203  64.555  1.00  0.00    -0.345 C  
BRANCH   5   6
HETATM    6  C   UNL     1     -12.320  13.570  65.424  1.00  0.00    -0.517 C  
BRANCH   6   7
HETATM    7  C   UNL     1     -11.782  12.464  66.304  1.00  0.00    -0.457 A  
HETATM    8  C   UNL     1     -11.972  12.487  67.689  1.00  0.00    -0.287 A  
HETATM    9  C   UNL     1     -11.428  11.488  68.513  1.00  0.00    -0.354 A  
HETATM   10  C   UNL     1     -10.673  10.434  67.991  1.00  0.00    -0.249 A  
HETATM   11  C   UNL     1     -10.543  10.395  66.591  1.00  0.00    -0.245 A  
HETATM   12  C   UNL     1     -11.081  11.390  65.759  1.00  0.00    -0.217 A  
BRANCH  10  13
HETATM   13  N   UNL     1     -10.054   9.468  68.787  1.00  0.00    -0.181 NA 
BRANCH  13  14
HETATM   14  C   UNL     1      -9.898   9.640  70.246  1.00  0.00    -0.266 C  
HETATM   15 CL   UNL     1     -11.458   7.430  70.790  1.00  0.00    -0.306 Cl 
HETATM   16  C   UNL     1     -11.106   9.161  71.053  1.00  0.00    -0.305 C  
ENDBRANCH  13  14
BRANCH  13  17
HETATM   17  C   UNL     1      -9.060   8.588  68.131  1.00  0.00    -0.138 C  
HETATM   18  C   UNL     1      -9.407   7.094  68.164  1.00  0.00    -0.129 C  
HETATM   19 CL   UNL     1     -10.910   6.712  67.282  1.00  0.00    -0.419 Cl 
ENDBRANCH  13  17
ENDBRANCH  10  13
ENDBRANCH   6   7
ENDBRANCH   5   6
ENDBRANCH   3   5
TORSDOF 6
ENDMDL
MODEL       47
REMARK 921   NORMALIZED FREE ENERGY PREDICTED BY IDOCK:   -4.82 KCAL/MOL
REMARK 922        TOTAL FREE ENERGY PREDICTED BY IDOCK:   -7.23 KCAL/MOL
REMARK 923 INTER-LIGAND FREE ENERGY PREDICTED BY IDOCK:   -6.35 KCAL/MOL
REMARK 924 INTRA-LIGAND FREE ENERGY PREDICTED BY IDOCK:   -0.88 KCAL/MOL
REMARK 927      BINDING AFFINITY PREDICTED BY RF-SCORE:    0.00 PKD
ROOT
HETATM    1  O   UNL     1     -12.695  12.662  63.086  1.00  0.00    -0.605 OA 
HETATM    2  C   UNL     1     -12.435  13.509  64.108  1.00  0.00    -0.239 C  
HETATM    3  C   UNL     1     -12.447  12.812  65.452  1.00  0.00    -0.478 C  
HETATM    4  O   UNL     1     -12.222  14.697  63.930  1.00  0.00    -0.598 OA 
ENDROOT
BRANCH   3   5
HETATM    5  C   UNL     1     -12.169  13.795  66.588  1.00  0.00    -0.454 C  
BRANCH   5   6
HETATM    6  C   UNL     1     -10.740  13.672  67.130  1.00  0.00    -0.279 C  
BRANCH   6   7
HETATM    7  C   UNL     1     -10.043  15.011  67.218  1.00  0.00    -0.235 A  
HETATM    8  C   UNL     1     -10.563  16.045  68.002  1.00  0.00    -0.295 A  
HETATM    9  C   UNL     1      -9.945  17.305  68.043  1.00  0.00    -0.304 A  
HETATM   10  C   UNL     1      -8.792  17.584  67.303  1.00  0.00    -0.231 A  
HETATM   11  C   UNL     1      -8.251  16.514  66.568  1.00  0.00    -0.335 A  
HETATM   12  C   UNL     1      -8.862  15.251  66.519  1.00  0.00    -0.335 A  
BRANCH  10  13
HETATM   13  N   UNL     1      -8.196  18.846  67.260  1.00  0.00    -0.268 NA 
BRANCH  13  14
HETATM   14  C   UNL     1      -7.956  19.640  68.482  1.00  0.00    -0.315 C  
HETATM   15 CL   UNL     1      -5.230  19.234  68.351  1.00  0.00    -0.187 Cl 
HETATM   16  C   UNL     1      -6.746  19.170  69.292  1.00  0.00    -0.305 C  
ENDBRANCH  13  14
BRANCH  13  17
HETATM   17  C   UNL     1      -8.343  19.620  66.006  1.00  0.00    -0.280 C  
HETATM   18  C   UNL     1      -7.023  20.110  65.398  1.00  0.00    -0.296 C  
HETATM   19 CL   UNL     1      -5.948  18.774  64.907  1.00  0.00    -0.313 Cl 
ENDBRANCH  13  17
ENDBRANCH  10  13
ENDBRANCH   6   7
ENDBRANCH   5   6
ENDBRANCH   3   5
TORSDOF 6
ENDMDL
MODEL       48
REMARK 921   NORMALIZED FREE ENERGY PREDICTED BY IDOCK:   -4.81 KCAL/MOL
REMARK 922        TOTAL FREE ENERGY PREDICTED BY IDOCK:   -7.22 KCAL/MOL
REMARK 923 INTER-LIGAND FREE ENERGY PREDICTED BY IDOCK:   -6.36 KCAL/MOL
REMARK 924 INTRA-LIGAND FREE ENERGY PREDICTED BY IDOCK:   -0.86 KCAL/MOL
REMARK 927      BINDING AFFINITY PREDICTED BY RF-SCORE:    0.00 PKD
ROOT
HETATM    1  O   UNL     1     -12.194  15.780  63.957  1.00  0.00    -0.664 OA 
HETATM    2  C   UNL     1     -12.282  14.447  64.170  1.00  0.00    -0.363 C  
HETATM    3  C   UNL     1     -12.047  14.077  65.618  1.00  0.00    -0.432 C  
HETATM    4  O   UNL     1     -12.523  13.659  63.269  1.00  0.00    -0.801 OA 
ENDROOT
BRANCH   3   5
HETATM    5  C   UNL     1     -12.134  12.565  65.825  1.00  0.00    -0.443 C  
BRANCH   5   6
HETATM    6  C   UNL     1     -10.760  11.889  65.778  1.00  0.00    -0.327 C  
BRANCH   6   7
HETATM    7  C   UNL     1     -10.620  10.801  66.819  1.00  0.00    -0.307 A  
HETATM    8  C   UNL     1     -10.118   9.540  66.482  1.00  0.00    -0.326 A  
HETATM    9  C   UNL     1     -10.037   8.513  67.437  1.00  0.00    -0.298 A  
HETATM   10  C   UNL     1     -10.454   8.701  68.757  1.00  0.00    -0.185 A  
HETATM   11  C   UNL     1     -10.900   9.993  69.091  1.00  0.00    -0.253 A  
HETATM   12  C   UNL     1     -10.987  11.026  68.144  1.00  0.00    -0.301 A  
BRANCH  10  13
HETATM   13  N   UNL     1     -10.460   7.682  69.712  1.00  0.00    -0.227 NA 
BRANCH  13  14
HETATM   14  C   UNL     1      -9.223   6.985  70.119  1.00  0.00    -0.152 C  
HETATM   15 CL   UNL     1      -9.025   8.452  72.447  1.00  0.00    -0.296 Cl 
HETATM   16  C   UNL     1      -8.271   7.856  70.942  1.00  0.00    -0.103 C  
ENDBRANCH  13  14
BRANCH  13  17
HETATM   17  C   UNL     1     -11.715   6.913  69.873  1.00  0.00    -0.145 C  
HETATM   18  C   UNL     1     -12.237   6.834  71.313  1.00  0.00    -0.364 C  
HETATM   19 CL   UNL     1     -12.667   8.431  71.983  1.00  0.00    -0.375 Cl 
ENDBRANCH  13  17
ENDBRANCH  10  13
ENDBRANCH   6   7
ENDBRANCH   5   6
ENDBRANCH   3   5
TORSDOF 6
ENDMDL
MODEL       49
REMARK 921   NORMALIZED FREE ENERGY PREDICTED BY IDOCK:   -4.77 KCAL/MOL
REMARK 922        TOTAL FREE ENERGY PREDICTED BY IDOCK:   -7.17 KCAL/MOL
REMARK 923 INTER-LIGAND FREE ENERGY PREDICTED BY IDOCK:   -6.44 KCAL/MOL
REMARK 924 INTRA-LIGAND FREE ENERGY PREDICTED BY IDOCK:   -0.73 KCAL/MOL
REMARK 927      BINDING AFFINITY PREDICTED BY RF-SCORE:    0.00 PKD
ROOT
HETATM    1  O   UNL     1     -14.341   8.886  72.758  1.00  0.00    -0.600 OA 
HETATM    2  C   UNL     1     -13.204   8.984  72.031  1.00  0.00    -0.429 C  
HETATM    3  C   UNL     1     -12.948  10.396  71.548  1.00  0.00    -0.562 C  
HETATM    4  O   UNL     1     -12.491   8.020  71.806  1.00  0.00    -0.303 OA 
ENDROOT
BRANCH   3   5
HETATM    5  C   UNL     1     -11.669  10.473  70.716  1.00  0.00    -0.454 C  
BRANCH   5   6
HETATM    6  C   UNL     1     -11.928  10.979  69.292  1.00  0.00    -0.410 C  
BRANCH   6   7
HETATM    7  C   UNL     1     -11.303  12.334  69.043  1.00  0.00    -0.333 A  
HETATM    8  C   UNL     1     -11.802  13.483  69.663  1.00  0.00    -0.398 A  
HETATM    9  C   UNL     1     -11.256  14.748  69.392  1.00  0.00    -0.308 A  
HETATM   10  C   UNL     1     -10.199  14.917  68.494  1.00  0.00    -0.235 A  
HETATM   11  C   UNL     1      -9.672  13.743  67.925  1.00  0.00    -0.229 A  
HETATM   12  C   UNL     1     -10.212  12.474  68.188  1.00  0.00    -0.231 A  
BRANCH  10  13
HETATM   13  N   UNL     1      -9.683  16.166  68.142  1.00  0.00    -0.220 NA 
BRANCH  13  14
HETATM   14  C   UNL     1      -8.542  16.770  68.859  1.00  0.00    -0.218 C  
HETATM   15 CL   UNL     1      -7.003  16.864  66.571  1.00  0.00    -0.272 Cl 
HETATM   16  C   UNL     1      -7.179  16.383  68.282  1.00  0.00    -0.149 C  
ENDBRANCH  13  14
BRANCH  13  17
HETATM   17  C   UNL     1     -10.606  17.117  67.481  1.00  0.00    -0.323 C  
HETATM   18  C   UNL     1     -10.398  17.263  65.968  1.00  0.00    -0.305 C  
HETATM   19 CL   UNL     1     -10.697  15.746  65.078  1.00  0.00    -0.458 Cl 
ENDBRANCH  13  17
ENDBRANCH  10  13
ENDBRANCH   6   7
ENDBRANCH   5   6
ENDBRANCH   3   5
TORSDOF 6
ENDMDL
MODEL       50
REMARK 921   NORMALIZED FREE ENERGY PREDICTED BY IDOCK:   -4.77 KCAL/MOL
REMARK 922        TOTAL FREE ENERGY PREDICTED BY IDOCK:   -7.16 KCAL/MOL
REMARK 923 INTER-LIGAND FREE ENERGY PREDICTED BY IDOCK:   -6.43 KCAL/MOL
REMARK 924 INTRA-LIGAND FREE ENERGY PREDICTED BY IDOCK:   -0.73 KCAL/MOL
REMARK 927      BINDING AFFINITY PREDICTED BY RF-SCORE:    0.00 PKD
ROOT
HETATM    1  O   UNL     1     -12.912   9.852  71.649  1.00  0.00    -0.367 OA 
HETATM    2  C   UNL     1     -12.815  11.144  71.258  1.00  0.00    -0.412 C  
HETATM    3  C   UNL     1     -11.979  11.307  70.007  1.00  0.00    -0.447 C  
HETATM    4  O   UNL     1     -13.351  12.052  71.873  1.00  0.00    -0.456 OA 
ENDROOT
BRANCH   3   5
HETATM    5  C   UNL     1     -11.871  12.776  69.600  1.00  0.00    -0.384 C  
BRANCH   5   6
HETATM    6  C   UNL     1     -11.754  12.954  68.083  1.00  0.00    -0.395 C  
BRANCH   6   7
HETATM    7  C   UNL     1     -10.976  14.196  67.710  1.00  0.00    -0.274 A  
HETATM    8  C   UNL     1     -10.288  14.934  68.678  1.00  0.00    -0.237 A  
HETATM    9  C   UNL     1      -9.609  16.116  68.342  1.00  0.00    -0.209 A  
HETATM   10  C   UNL     1      -9.593  16.610  67.034  1.00  0.00    -0.244 A  
HETATM   11  C   UNL     1     -10.241  15.824  66.064  1.00  0.00    -0.352 A  
HETATM   12  C   UNL     1     -10.924  14.641  66.390  1.00  0.00    -0.325 A  
BRANCH  10  13
HETATM   13  N   UNL     1      -8.994  17.821  66.679  1.00  0.00    -0.259 NA 
BRANCH  13  14
HETATM   14  C   UNL     1      -9.790  18.994  66.265  1.00  0.00    -0.374 C  
HETATM   15 CL   UNL     1     -10.173  19.801  68.876  1.00  0.00    -0.503 Cl 
HETATM   16  C   UNL     1     -10.863  19.397  67.279  1.00  0.00    -0.448 C  
ENDBRANCH  13  14
BRANCH  13  17
HETATM   17  C   UNL     1      -7.610  17.763  66.156  1.00  0.00    -0.267 C  
HETATM   18  C   UNL     1      -6.836  19.084  66.247  1.00  0.00    -0.219 C  
HETATM   19 CL   UNL     1      -6.596  19.632  67.927  1.00  0.00    -0.261 Cl 
ENDBRANCH  13  17
ENDBRANCH  10  13
ENDBRANCH   6   7
ENDBRANCH   5   6
ENDBRANCH   3   5
TORSDOF 6
ENDMDL
MODEL       51
REMARK 921   NORMALIZED FREE ENERGY PREDICTED BY IDOCK:   -4.73 KCAL/MOL
REMARK 922        TOTAL FREE ENERGY PREDICTED BY IDOCK:   -7.12 KCAL/MOL
REMARK 923 INTER-LIGAND FREE ENERGY PREDICTED BY IDOCK:   -6.31 KCAL/MOL
REMARK 924 INTRA-LIGAND FREE ENERGY PREDICTED BY IDOCK:   -0.81 KCAL/MOL
REMARK 927      BINDING AFFINITY PREDICTED BY RF-SCORE:    0.00 PKD
ROOT
HETATM    1  O   UNL     1     -13.240  10.610  72.191  1.00  0.00    -0.464 OA 
HETATM    2  C   UNL     1     -12.386  10.712  71.147  1.00  0.00    -0.400 C  
HETATM    3  C   UNL     1     -12.339  12.112  70.574  1.00  0.00    -0.358 C  
HETATM    4  O   UNL     1     -11.744   9.758  70.736  1.00  0.00    -0.286 OA 
ENDROOT
BRANCH   3   5
HETATM    5  C   UNL     1     -11.381  12.192  69.386  1.00  0.00    -0.311 C  
BRANCH   5   6
HETATM    6  C   UNL     1     -11.884  13.143  68.294  1.00  0.00    -0.384 C  
BRANCH   6   7
HETATM    7  C   UNL     1     -11.111  14.443  68.265  1.00  0.00    -0.275 A  
HETATM    8  C   UNL     1     -10.467  14.924  69.409  1.00  0.00    -0.231 A  
HETATM    9  C   UNL     1      -9.793  16.156  69.397  1.00  0.00    -0.232 A  
HETATM   10  C   UNL     1      -9.738  16.954  68.251  1.00  0.00    -0.256 A  
HETATM   11  C   UNL     1     -10.340  16.426  67.095  1.00  0.00    -0.290 A  
HETATM   12  C   UNL     1     -11.018  15.196  67.097  1.00  0.00    -0.326 A  
BRANCH  10  13
HETATM   13  N   UNL     1      -9.143  18.218  68.225  1.00  0.00    -0.297 NA 
BRANCH  13  14
HETATM   14  C   UNL     1      -7.710  18.414  68.525  1.00  0.00    -0.303 C  
HETATM   15 CL   UNL     1      -7.068  18.679  65.855  1.00  0.00    -0.299 Cl 
HETATM   16  C   UNL     1      -6.777  17.892  67.430  1.00  0.00    -0.176 C  
ENDBRANCH  13  14
BRANCH  13  17
HETATM   17  C   UNL     1     -10.021  19.383  68.479  1.00  0.00    -0.434 C  
HETATM   18  C   UNL     1      -9.992  20.456  67.383  1.00  0.00    -0.416 C  
HETATM   19 CL   UNL     1     -10.585  19.857  65.811  1.00  0.00    -0.575 Cl 
ENDBRANCH  13  17
ENDBRANCH  10  13
ENDBRANCH   6   7
ENDBRANCH   5   6
ENDBRANCH   3   5
TORSDOF 6
ENDMDL
MODEL       52
REMARK 921   NORMALIZED FREE ENERGY PREDICTED BY IDOCK:   -4.72 KCAL/MOL
REMARK 922        TOTAL FREE ENERGY PREDICTED BY IDOCK:   -7.10 KCAL/MOL
REMARK 923 INTER-LIGAND FREE ENERGY PREDICTED BY IDOCK:   -6.29 KCAL/MOL
REMARK 924 INTRA-LIGAND FREE ENERGY PREDICTED BY IDOCK:   -0.81 KCAL/MOL
REMARK 927      BINDING AFFINITY PREDICTED BY RF-SCORE:    0.00 PKD
ROOT
HETATM    1  O   UNL     1      -9.082   9.951  64.658  1.00  0.00    -0.207 OA 
HETATM    2  C   UNL     1      -9.970  10.674  63.938  1.00  0.00    -0.326 C  
HETATM    3  C   UNL     1     -11.096  11.220  64.790  1.00  0.00    -0.200 C  
HETATM    4  O   UNL     1      -9.848  10.843  62.735  1.00  0.00    -0.289 OA 
ENDROOT
BRANCH   3   5
HETATM    5  C   UNL     1     -12.092  12.016  63.948  1.00  0.00    -0.557 C  
BRANCH   5   6
HETATM    6  C   UNL     1     -12.868  13.044  64.779  1.00  0.00    -0.336 C  
BRANCH   6   7
HETATM    7  C   UNL     1     -11.953  14.014  65.491  1.00  0.00    -0.393 A  
HETATM    8  C   UNL     1     -11.986  14.147  66.883  1.00  0.00    -0.479 A  
HETATM    9  C   UNL     1     -11.173  15.085  67.541  1.00  0.00    -0.333 A  
HETATM   10  C   UNL     1     -10.304  15.926  66.840  1.00  0.00    -0.291 A  
HETATM   11  C   UNL     1     -10.242  15.736  65.448  1.00  0.00    -0.380 A  
HETATM   12  C   UNL     1     -11.050  14.802  64.780  1.00  0.00    -0.393 A  
BRANCH  10  13
HETATM   13  N   UNL     1      -9.540  16.921  67.454  1.00  0.00    -0.239 NA 
BRANCH  13  14
HETATM   14  C   UNL     1      -8.063  16.909  67.413  1.00  0.00    -0.174 C  
HETATM   15 CL   UNL     1      -7.908  15.020  69.418  1.00  0.00    -0.194 Cl 
HETATM   16  C   UNL     1      -7.415  16.607  68.766  1.00  0.00    -0.224 C  
ENDBRANCH  13  14
BRANCH  13  17
HETATM   17  C   UNL     1     -10.148  17.627  68.604  1.00  0.00    -0.377 C  
HETATM   18  C   UNL     1     -10.072  19.158  68.528  1.00  0.00    -0.422 C  
HETATM   19 CL   UNL     1     -10.969  19.828  67.139  1.00  0.00    -0.474 Cl 
ENDBRANCH  13  17
ENDBRANCH  10  13
ENDBRANCH   6   7
ENDBRANCH   5   6
ENDBRANCH   3   5
TORSDOF 6
ENDMDL
MODEL       53
REMARK 921   NORMALIZED FREE ENERGY PREDICTED BY IDOCK:   -4.70 KCAL/MOL
REMARK 922        TOTAL FREE ENERGY PREDICTED BY IDOCK:   -7.08 KCAL/MOL
REMARK 923 INTER-LIGAND FREE ENERGY PREDICTED BY IDOCK:   -6.35 KCAL/MOL
REMARK 924 INTRA-LIGAND FREE ENERGY PREDICTED BY IDOCK:   -0.73 KCAL/MOL
REMARK 927      BINDING AFFINITY PREDICTED BY RF-SCORE:    0.00 PKD
ROOT
HETATM    1  O   UNL     1      -9.764   5.128  68.972  1.00  0.00    -0.136 OA 
HETATM    2  C   UNL     1     -10.757   6.010  69.228  1.00  0.00    -0.332 C  
HETATM    3  C   UNL     1     -10.946   6.252  70.710  1.00  0.00    -0.357 C  
HETATM    4  O   UNL     1     -11.410   6.531  68.338  1.00  0.00    -0.247 OA 
ENDROOT
BRANCH   3   5
HETATM    5  C   UNL     1     -12.085   7.238  70.970  1.00  0.00    -0.361 C  
BRANCH   5   6
HETATM    6  C   UNL     1     -11.642   8.429  71.826  1.00  0.00    -0.372 C  
BRANCH   6   7
HETATM    7  C   UNL     1     -11.618   9.721  71.041  1.00  0.00    -0.455 A  
HETATM    8  C   UNL     1     -12.463  10.784  71.376  1.00  0.00    -0.478 A  
HETATM    9  C   UNL     1     -12.479  11.965  70.615  1.00  0.00    -0.347 A  
HETATM   10  C   UNL     1     -11.661  12.130  69.494  1.00  0.00    -0.336 A  
HETATM   11  C   UNL     1     -10.777  11.074  69.209  1.00  0.00    -0.263 A  
HETATM   12  C   UNL     1     -10.753   9.889  69.961  1.00  0.00    -0.338 A  
BRANCH  10  13
HETATM   13  N   UNL     1     -11.707  13.258  68.671  1.00  0.00    -0.320 NA 
BRANCH  13  14
HETATM   14  C   UNL     1     -12.035  13.164  67.234  1.00  0.00    -0.335 C  
HETATM   15 CL   UNL     1      -9.388  12.822  66.534  1.00  0.00    -0.239 Cl 
HETATM   16  C   UNL     1     -10.931  13.694  66.317  1.00  0.00    -0.299 C  
ENDBRANCH  13  14
BRANCH  13  17
HETATM   17  C   UNL     1     -10.879  14.419  69.070  1.00  0.00    -0.252 C  
HETATM   18  C   UNL     1     -11.674  15.690  69.394  1.00  0.00    -0.383 C  
HETATM   19 CL   UNL     1     -12.763  15.489  70.792  1.00  0.00    -0.499 Cl 
ENDBRANCH  13  17
ENDBRANCH  10  13
ENDBRANCH   6   7
ENDBRANCH   5   6
ENDBRANCH   3   5
TORSDOF 6
ENDMDL
MODEL       54
REMARK 921   NORMALIZED FREE ENERGY PREDICTED BY IDOCK:   -4.69 KCAL/MOL
REMARK 922        TOTAL FREE ENERGY PREDICTED BY IDOCK:   -7.06 KCAL/MOL
REMARK 923 INTER-LIGAND FREE ENERGY PREDICTED BY IDOCK:   -6.44 KCAL/MOL
REMARK 924 INTRA-LIGAND FREE ENERGY PREDICTED BY IDOCK:   -0.62 KCAL/MOL
REMARK 927      BINDING AFFINITY PREDICTED BY RF-SCORE:    0.00 PKD
ROOT
HETATM    1  O   UNL     1     -11.315  16.291  63.883  1.00  0.00    -0.834 OA 
HETATM    2  C   UNL     1     -11.866  15.136  64.323  1.00  0.00    -0.251 C  
HETATM    3  C   UNL     1     -11.489  14.826  65.756  1.00  0.00    -0.322 C  
HETATM    4  O   UNL     1     -12.579  14.445  63.614  1.00  0.00    -0.817 OA 
ENDROOT
BRANCH   3   5
HETATM    5  C   UNL     1     -12.109  13.508  66.219  1.00  0.00    -0.476 C  
BRANCH   5   6
HETATM    6  C   UNL     1     -11.197  12.306  65.948  1.00  0.00    -0.381 C  
BRANCH   6   7
HETATM    7  C   UNL     1     -11.116  11.370  67.133  1.00  0.00    -0.366 A  
HETATM    8  C   UNL     1     -10.467  10.136  67.034  1.00  0.00    -0.302 A  
HETATM    9  C   UNL     1     -10.436   9.244  68.118  1.00  0.00    -0.263 A  
HETATM   10  C   UNL     1     -11.053   9.543  69.336  1.00  0.00    -0.110 A  
HETATM   11  C   UNL     1     -11.650  10.813  69.435  1.00  0.00    -0.380 A  
HETATM   12  C   UNL     1     -11.687  11.712  68.357  1.00  0.00    -0.374 A  
BRANCH  10  13
HETATM   13  N   UNL     1     -11.109   8.649  70.407  1.00  0.00    -0.240 NA 
BRANCH  13  14
HETATM   14  C   UNL     1     -12.142   7.597  70.494  1.00  0.00     0.047 C  
HETATM   15 CL   UNL     1     -10.266   5.633  70.982  1.00  0.00    -0.267 Cl 
HETATM   16  C   UNL     1     -11.658   6.221  70.030  1.00  0.00    -0.308 C  
ENDBRANCH  13  14
BRANCH  13  17
HETATM   17  C   UNL     1     -10.541   9.103  71.697  1.00  0.00    -0.357 C  
HETATM   18  C   UNL     1      -9.086   8.683  71.939  1.00  0.00    -0.256 C  
HETATM   19 CL   UNL     1      -7.956   9.380  70.747  1.00  0.00    -0.188 Cl 
ENDBRANCH  13  17
ENDBRANCH  10  13
ENDBRANCH   6   7
ENDBRANCH   5   6
ENDBRANCH   3   5
TORSDOF 6
ENDMDL
MODEL       55
REMARK 921   NORMALIZED FREE ENERGY PREDICTED BY IDOCK:   -4.69 KCAL/MOL
REMARK 922        TOTAL FREE ENERGY PREDICTED BY IDOCK:   -7.06 KCAL/MOL
REMARK 923 INTER-LIGAND FREE ENERGY PREDICTED BY IDOCK:   -6.22 KCAL/MOL
REMARK 924 INTRA-LIGAND FREE ENERGY PREDICTED BY IDOCK:   -0.83 KCAL/MOL
REMARK 927      BINDING AFFINITY PREDICTED BY RF-SCORE:    0.00 PKD
ROOT
HETATM    1  O   UNL     1     -11.785  16.496  63.803  1.00  0.00    -1.086 OA 
HETATM    2  C   UNL     1     -11.141  15.674  64.663  1.00  0.00    -0.373 C  
HETATM    3  C   UNL     1     -11.844  14.344  64.825  1.00  0.00    -0.439 C  
HETATM    4  O   UNL     1     -10.111  16.004  65.230  1.00  0.00    -0.475 OA 
ENDROOT
BRANCH   3   5
HETATM    5  C   UNL     1     -11.105  13.444  65.816  1.00  0.00    -0.295 C  
BRANCH   5   6
HETATM    6  C   UNL     1     -10.435  12.248  65.130  1.00  0.00    -0.320 C  
BRANCH   6   7
HETATM    7  C   UNL     1     -10.371  11.034  66.030  1.00  0.00    -0.311 A  
HETATM    8  C   UNL     1     -11.076  10.993  67.237  1.00  0.00    -0.359 A  
HETATM    9  C   UNL     1     -10.976   9.888  68.097  1.00  0.00    -0.261 A  
HETATM   10  C   UNL     1     -10.170   8.788  67.792  1.00  0.00    -0.228 A  
HETATM   11  C   UNL     1      -9.515   8.822  66.548  1.00  0.00    -0.281 A  
HETATM   12  C   UNL     1      -9.607   9.922  65.681  1.00  0.00    -0.320 A  
BRANCH  10  13
HETATM   13  N   UNL     1      -9.986   7.708  68.659  1.00  0.00    -0.169 NA 
BRANCH  13  14
HETATM   14  C   UNL     1      -8.646   7.165  68.959  1.00  0.00    -0.129 C  
HETATM   15 CL   UNL     1      -8.529   8.477  71.383  1.00  0.00    -0.195 Cl 
HETATM   16  C   UNL     1      -7.780   8.100  69.807  1.00  0.00    -0.100 C  
ENDBRANCH  13  14
BRANCH  13  17
HETATM   17  C   UNL     1     -11.114   6.759  68.805  1.00  0.00    -0.168 C  
HETATM   18  C   UNL     1     -11.489   6.430  70.256  1.00  0.00    -0.402 C  
HETATM   19 CL   UNL     1     -12.058   7.855  71.165  1.00  0.00    -0.311 Cl 
ENDBRANCH  13  17
ENDBRANCH  10  13
ENDBRANCH   6   7
ENDBRANCH   5   6
ENDBRANCH   3   5
TORSDOF 6
ENDMDL
MODEL       56
REMARK 921   NORMALIZED FREE ENERGY PREDICTED BY IDOCK:   -4.67 KCAL/MOL
REMARK 922        TOTAL FREE ENERGY PREDICTED BY IDOCK:   -7.04 KCAL/MOL
REMARK 923 INTER-LIGAND FREE ENERGY PREDICTED BY IDOCK:   -6.24 KCAL/MOL
REMARK 924 INTRA-LIGAND FREE ENERGY PREDICTED BY IDOCK:   -0.80 KCAL/MOL
REMARK 927      BINDING AFFINITY PREDICTED BY RF-SCORE:    0.00 PKD
ROOT
HETATM    1  O   UNL     1     -12.645  14.085  63.319  1.00  0.00    -0.801 OA 
HETATM    2  C   UNL     1     -12.356  12.884  63.871  1.00  0.00    -0.396 C  
HETATM    3  C   UNL     1     -10.949  12.426  63.553  1.00  0.00    -0.506 C  
HETATM    4  O   UNL     1     -13.167  12.264  64.541  1.00  0.00    -0.799 OA 
ENDROOT
BRANCH   3   5
HETATM    5  C   UNL     1     -10.658  11.060  64.172  1.00  0.00    -0.412 C  
BRANCH   5   6
HETATM    6  C   UNL     1      -9.464  11.096  65.132  1.00  0.00    -0.257 C  
BRANCH   6   7
HETATM    7  C   UNL     1      -9.742  10.356  66.421  1.00  0.00    -0.250 A  
HETATM    8  C   UNL     1     -10.864  10.659  67.199  1.00  0.00    -0.328 A  
HETATM    9  C   UNL     1     -11.095  10.009  68.422  1.00  0.00    -0.236 A  
HETATM   10  C   UNL     1     -10.219   9.040  68.918  1.00  0.00    -0.208 A  
HETATM   11  C   UNL     1      -9.129   8.706  68.094  1.00  0.00    -0.142 A  
HETATM   12  C   UNL     1      -8.888   9.351  66.870  1.00  0.00    -0.141 A  
BRANCH  10  13
HETATM   13  N   UNL     1     -10.377   8.429  70.164  1.00  0.00    -0.206 NA 
BRANCH  13  14
HETATM   14  C   UNL     1     -11.443   7.441  70.421  1.00  0.00    -0.225 C  
HETATM   15 CL   UNL     1      -9.865   5.344  69.571  1.00  0.00    -0.240 Cl 
HETATM   16  C   UNL     1     -11.407   6.239  69.476  1.00  0.00    -0.404 C  
ENDBRANCH  13  14
BRANCH  13  17
HETATM   17  C   UNL     1      -9.887   9.174  71.348  1.00  0.00    -0.284 C  
HETATM   18  C   UNL     1      -9.677   8.315  72.601  1.00  0.00    -0.287 C  
HETATM   19 CL   UNL     1      -8.425   7.063  72.382  1.00  0.00    -0.119 Cl 
ENDBRANCH  13  17
ENDBRANCH  10  13
ENDBRANCH   6   7
ENDBRANCH   5   6
ENDBRANCH   3   5
TORSDOF 6
ENDMDL
MODEL       57
REMARK 921   NORMALIZED FREE ENERGY PREDICTED BY IDOCK:   -4.67 KCAL/MOL
REMARK 922        TOTAL FREE ENERGY PREDICTED BY IDOCK:   -7.04 KCAL/MOL
REMARK 923 INTER-LIGAND FREE ENERGY PREDICTED BY IDOCK:   -6.39 KCAL/MOL
REMARK 924 INTRA-LIGAND FREE ENERGY PREDICTED BY IDOCK:   -0.64 KCAL/MOL
REMARK 927      BINDING AFFINITY PREDICTED BY RF-SCORE:    0.00 PKD
ROOT
HETATM    1  O   UNL     1     -12.593  13.960  63.197  1.00  0.00    -0.775 OA 
HETATM    2  C   UNL     1     -12.332  12.805  63.850  1.00  0.00    -0.426 C  
HETATM    3  C   UNL     1     -10.849  12.515  63.939  1.00  0.00    -0.472 C  
HETATM    4  O   UNL     1     -13.219  12.097  64.300  1.00  0.00    -0.768 OA 
ENDROOT
BRANCH   3   5
HETATM    5  C   UNL     1     -10.585  11.196  64.664  1.00  0.00    -0.386 C  
BRANCH   5   6
HETATM    6  C   UNL     1     -10.028  11.407  66.076  1.00  0.00    -0.269 C  
BRANCH   6   7
HETATM    7  C   UNL     1     -10.264  10.210  66.970  1.00  0.00    -0.290 A  
HETATM    8  C   UNL     1     -10.684  10.371  68.294  1.00  0.00    -0.275 A  
HETATM    9  C   UNL     1     -10.853   9.263  69.140  1.00  0.00    -0.154 A  
HETATM   10  C   UNL     1     -10.606   7.958  68.704  1.00  0.00    -0.111 A  
HETATM   11  C   UNL     1     -10.241   7.813  67.353  1.00  0.00    -0.320 A  
HETATM   12  C   UNL     1     -10.069   8.913  66.499  1.00  0.00    -0.356 A  
BRANCH  10  13
HETATM   13  N   UNL     1     -10.689   6.842  69.539  1.00  0.00    -0.240 NA 
BRANCH  13  14
HETATM   14  C   UNL     1     -11.799   6.662  70.495  1.00  0.00    -0.370 C  
HETATM   15 CL   UNL     1     -10.577   8.251  72.391  1.00  0.00    -0.388 Cl 
HETATM   16  C   UNL     1     -11.361   6.705  71.961  1.00  0.00    -0.280 C  
ENDBRANCH  13  14
BRANCH  13  17
HETATM   17  C   UNL     1      -9.420   6.164  69.889  1.00  0.00    -0.152 C  
HETATM   18  C   UNL     1      -9.390   4.662  69.580  1.00  0.00    -0.143 C  
HETATM   19 CL   UNL     1      -9.554   4.309  67.839  1.00  0.00    -0.216 Cl 
ENDBRANCH  13  17
ENDBRANCH  10  13
ENDBRANCH   6   7
ENDBRANCH   5   6
ENDBRANCH   3   5
TORSDOF 6
ENDMDL
MODEL       58
REMARK 921   NORMALIZED FREE ENERGY PREDICTED BY IDOCK:   -4.67 KCAL/MOL
REMARK 922        TOTAL FREE ENERGY PREDICTED BY IDOCK:   -7.03 KCAL/MOL
REMARK 923 INTER-LIGAND FREE ENERGY PREDICTED BY IDOCK:   -6.59 KCAL/MOL
REMARK 924 INTRA-LIGAND FREE ENERGY PREDICTED BY IDOCK:   -0.43 KCAL/MOL
REMARK 927      BINDING AFFINITY PREDICTED BY RF-SCORE:    0.00 PKD
ROOT
HETATM    1  O   UNL     1     -11.735  16.020  68.533  1.00  0.00    -0.375 OA 
HETATM    2  C   UNL     1     -11.552  15.569  69.796  1.00  0.00    -0.334 C  
HETATM    3  C   UNL     1     -12.782  14.880  70.346  1.00  0.00    -0.370 C  
HETATM    4  O   UNL     1     -10.500  15.723  70.395  1.00  0.00    -0.296 OA 
ENDROOT
BRANCH   3   5
HETATM    5  C   UNL     1     -12.553  14.398  71.778  1.00  0.00    -0.427 C  
BRANCH   5   6
HETATM    6  C   UNL     1     -13.466  13.226  72.153  1.00  0.00    -0.655 C  
BRANCH   6   7
HETATM    7  C   UNL     1     -12.945  11.905  71.632  1.00  0.00    -0.447 A  
HETATM    8  C   UNL     1     -13.304  10.698  72.240  1.00  0.00    -0.182 A  
HETATM    9  C   UNL     1     -12.780   9.475  71.789  1.00  0.00    -0.492 A  
HETATM   10  C   UNL     1     -11.878   9.409  70.723  1.00  0.00    -0.256 A  
HETATM   11  C   UNL     1     -11.575  10.627  70.087  1.00  0.00    -0.414 A  
HETATM   12  C   UNL     1     -12.093  11.854  70.531  1.00  0.00    -0.422 A  
BRANCH  10  13
HETATM   13  N   UNL     1     -11.278   8.221  70.300  1.00  0.00    -0.222 NA 
BRANCH  13  14
HETATM   14  C   UNL     1     -11.709   6.903  70.809  1.00  0.00    -0.369 C  
HETATM   15 CL   UNL     1     -10.508   7.326  73.256  1.00  0.00    -0.376 Cl 
HETATM   16  C   UNL     1     -10.740   6.289  71.821  1.00  0.00    -0.236 C  
ENDBRANCH  13  14
BRANCH  13  17
HETATM   17  C   UNL     1      -9.878   8.303  69.825  1.00  0.00    -0.187 C  
HETATM   18  C   UNL     1      -9.624   7.638  68.466  1.00  0.00    -0.148 C  
HETATM   19 CL   UNL     1     -10.533   8.407  67.137  1.00  0.00    -0.385 Cl 
ENDBRANCH  13  17
ENDBRANCH  10  13
ENDBRANCH   6   7
ENDBRANCH   5   6
ENDBRANCH   3   5
TORSDOF 6
ENDMDL
MODEL       59
REMARK 921   NORMALIZED FREE ENERGY PREDICTED BY IDOCK:   -4.65 KCAL/MOL
REMARK 922        TOTAL FREE ENERGY PREDICTED BY IDOCK:   -7.01 KCAL/MOL
REMARK 923 INTER-LIGAND FREE ENERGY PREDICTED BY IDOCK:   -6.36 KCAL/MOL
REMARK 924 INTRA-LIGAND FREE ENERGY PREDICTED BY IDOCK:   -0.65 KCAL/MOL
REMARK 927      BINDING AFFINITY PREDICTED BY RF-SCORE:    0.00 PKD
ROOT
HETATM    1  O   UNL     1     -12.556  13.951  63.053  1.00  0.00    -0.694 OA 
HETATM    2  C   UNL     1     -12.276  12.875  63.825  1.00  0.00    -0.476 C  
HETATM    3  C   UNL     1     -10.880  12.341  63.586  1.00  0.00    -0.522 C  
HETATM    4  O   UNL     1     -13.084  12.412  64.613  1.00  0.00    -0.825 OA 
ENDROOT
BRANCH   3   5
HETATM    5  C   UNL     1     -10.598  11.117  64.456  1.00  0.00    -0.397 C  
BRANCH   5   6
HETATM    6  C   UNL     1      -9.613  11.421  65.590  1.00  0.00    -0.258 C  
BRANCH   6   7
HETATM    7  C   UNL     1      -9.896  10.604  66.830  1.00  0.00    -0.228 A  
HETATM    8  C   UNL     1     -10.918  10.965  67.714  1.00  0.00    -0.339 A  
HETATM    9  C   UNL     1     -11.148  10.237  68.893  1.00  0.00    -0.278 A  
HETATM   10  C   UNL     1     -10.369   9.129  69.238  1.00  0.00    -0.216 A  
HETATM   11  C   UNL     1      -9.385   8.746  68.308  1.00  0.00    -0.143 A  
HETATM   12  C   UNL     1      -9.146   9.468  67.128  1.00  0.00    -0.152 A  
BRANCH  10  13
HETATM   13  N   UNL     1     -10.519   8.430  70.437  1.00  0.00    -0.210 NA 
BRANCH  13  14
HETATM   14  C   UNL     1     -11.755   7.689  70.760  1.00  0.00    -0.239 C  
HETATM   15 CL   UNL     1     -12.985   9.945  71.764  1.00  0.00    -0.510 Cl 
HETATM   16  C   UNL     1     -12.501   8.240  71.977  1.00  0.00    -0.351 C  
ENDBRANCH  13  14
BRANCH  13  17
HETATM   17  C   UNL     1      -9.726   8.899  71.597  1.00  0.00    -0.309 C  
HETATM   18  C   UNL     1      -8.761   7.856  72.176  1.00  0.00    -0.142 C  
HETATM   19 CL   UNL     1      -7.500   7.360  71.016  1.00  0.00    -0.073 Cl 
ENDBRANCH  13  17
ENDBRANCH  10  13
ENDBRANCH   6   7
ENDBRANCH   5   6
ENDBRANCH   3   5
TORSDOF 6
ENDMDL
MODEL       60
REMARK 921   NORMALIZED FREE ENERGY PREDICTED BY IDOCK:   -4.65 KCAL/MOL
REMARK 922        TOTAL FREE ENERGY PREDICTED BY IDOCK:   -7.00 KCAL/MOL
REMARK 923 INTER-LIGAND FREE ENERGY PREDICTED BY IDOCK:   -6.17 KCAL/MOL
REMARK 924 INTRA-LIGAND FREE ENERGY PREDICTED BY IDOCK:   -0.84 KCAL/MOL
REMARK 927      BINDING AFFINITY PREDICTED BY RF-SCORE:    0.00 PKD
ROOT
HETATM    1  O   UNL     1     -11.256  10.862  69.551  1.00  0.00    -0.235 OA 
HETATM    2  C   UNL     1     -11.280  10.928  68.200  1.00  0.00    -0.301 C  
HETATM    3  C   UNL     1     -11.815  12.252  67.697  1.00  0.00    -0.334 C  
HETATM    4  O   UNL     1     -10.909  10.003  67.496  1.00  0.00    -0.277 OA 
ENDROOT
BRANCH   3   5
HETATM    5  C   UNL     1     -11.849  12.292  66.170  1.00  0.00    -0.398 C  
BRANCH   5   6
HETATM    6  C   UNL     1     -10.487  12.653  65.565  1.00  0.00    -0.304 C  
BRANCH   6   7
HETATM    7  C   UNL     1     -10.120  14.100  65.804  1.00  0.00    -0.352 A  
HETATM    8  C   UNL     1     -10.841  15.136  65.203  1.00  0.00    -0.437 A  
HETATM    9  C   UNL     1     -10.468  16.478  65.382  1.00  0.00    -0.291 A  
HETATM   10  C   UNL     1      -9.365  16.838  66.161  1.00  0.00    -0.255 A  
HETATM   11  C   UNL     1      -8.688  15.787  66.805  1.00  0.00    -0.305 A  
HETATM   12  C   UNL     1      -9.052  14.442  66.631  1.00  0.00    -0.265 A  
BRANCH  10  13
HETATM   13  N   UNL     1      -8.921  18.155  66.298  1.00  0.00    -0.458 NA 
BRANCH  13  14
HETATM   14  C   UNL     1      -9.834  19.307  66.159  1.00  0.00    -0.367 C  
HETATM   15 CL   UNL     1      -9.885  19.745  68.882  1.00  0.00    -0.481 Cl 
HETATM   16  C   UNL     1     -10.772  19.495  67.353  1.00  0.00    -0.467 C  
ENDBRANCH  13  14
BRANCH  13  17
HETATM   17  C   UNL     1      -7.495  18.422  65.998  1.00  0.00    -0.221 C  
HETATM   18  C   UNL     1      -6.745  19.194  67.091  1.00  0.00    -0.197 C  
HETATM   19 CL   UNL     1      -6.659  18.302  68.634  1.00  0.00    -0.222 Cl 
ENDBRANCH  13  17
ENDBRANCH  10  13
ENDBRANCH   6   7
ENDBRANCH   5   6
ENDBRANCH   3   5
TORSDOF 6
ENDMDL
MODEL       61
REMARK 921   NORMALIZED FREE ENERGY PREDICTED BY IDOCK:   -4.64 KCAL/MOL
REMARK 922        TOTAL FREE ENERGY PREDICTED BY IDOCK:   -7.00 KCAL/MOL
REMARK 923 INTER-LIGAND FREE ENERGY PREDICTED BY IDOCK:   -6.43 KCAL/MOL
REMARK 924 INTRA-LIGAND FREE ENERGY PREDICTED BY IDOCK:   -0.57 KCAL/MOL
REMARK 927      BINDING AFFINITY PREDICTED BY RF-SCORE:    0.00 PKD
ROOT
HETATM    1  O   UNL     1     -13.891  15.097  73.114  1.00  0.00    -0.437 OA 
HETATM    2  C   UNL     1     -13.533  14.042  72.346  1.00  0.00    -0.539 C  
HETATM    3  C   UNL     1     -12.470  14.403  71.331  1.00  0.00    -0.433 C  
HETATM    4  O   UNL     1     -14.036  12.938  72.482  1.00  0.00    -0.581 OA 
ENDROOT
BRANCH   3   5
HETATM    5  C   UNL     1     -12.099  13.199  70.466  1.00  0.00    -0.385 C  
BRANCH   5   6
HETATM    6  C   UNL     1     -12.149  13.519  68.968  1.00  0.00    -0.330 C  
BRANCH   6   7
HETATM    7  C   UNL     1     -11.180  14.614  68.583  1.00  0.00    -0.293 A  
HETATM    8  C   UNL     1      -9.917  14.310  68.065  1.00  0.00    -0.220 A  
HETATM    9  C   UNL     1      -8.997  15.325  67.756  1.00  0.00    -0.177 A  
HETATM   10  C   UNL     1      -9.296  16.676  67.955  1.00  0.00    -0.227 A  
HETATM   11  C   UNL     1     -10.592  16.964  68.421  1.00  0.00    -0.365 A  
HETATM   12  C   UNL     1     -11.519  15.957  68.734  1.00  0.00    -0.393 A  
BRANCH  10  13
HETATM   13  N   UNL     1      -8.379  17.705  67.733  1.00  0.00    -0.222 NA 
BRANCH  13  14
HETATM   14  C   UNL     1      -6.990  17.436  67.310  1.00  0.00    -0.168 C  
HETATM   15 CL   UNL     1      -6.294  16.478  69.803  1.00  0.00    -0.213 Cl 
HETATM   16  C   UNL     1      -5.966  17.581  68.438  1.00  0.00    -0.168 C  
ENDBRANCH  13  14
BRANCH  13  17
HETATM   17  C   UNL     1      -8.596  18.974  68.464  1.00  0.00    -0.358 C  
HETATM   18  C   UNL     1      -8.842  20.195  67.568  1.00  0.00    -0.342 C  
HETATM   19 CL   UNL     1     -10.327  20.048  66.589  1.00  0.00    -0.577 Cl 
ENDBRANCH  13  17
ENDBRANCH  10  13
ENDBRANCH   6   7
ENDBRANCH   5   6
ENDBRANCH   3   5
TORSDOF 6
ENDMDL
MODEL       62
REMARK 921   NORMALIZED FREE ENERGY PREDICTED BY IDOCK:   -4.63 KCAL/MOL
REMARK 922        TOTAL FREE ENERGY PREDICTED BY IDOCK:   -6.98 KCAL/MOL
REMARK 923 INTER-LIGAND FREE ENERGY PREDICTED BY IDOCK:   -6.26 KCAL/MOL
REMARK 924 INTRA-LIGAND FREE ENERGY PREDICTED BY IDOCK:   -0.72 KCAL/MOL
REMARK 927      BINDING AFFINITY PREDICTED BY RF-SCORE:    0.00 PKD
ROOT
HETATM    1  O   UNL     1     -12.990  12.047  63.374  1.00  0.00    -0.772 OA 
HETATM    2  C   UNL     1     -12.507  12.754  64.422  1.00  0.00    -0.399 C  
HETATM    3  C   UNL     1     -11.677  11.902  65.359  1.00  0.00    -0.228 C  
HETATM    4  O   UNL     1     -12.737  13.944  64.566  1.00  0.00    -0.649 OA 
ENDROOT
BRANCH   3   5
HETATM    5  C   UNL     1     -11.161  12.721  66.541  1.00  0.00    -0.321 C  
BRANCH   5   6
HETATM    6  C   UNL     1      -9.637  12.890  66.513  1.00  0.00    -0.259 C  
BRANCH   6   7
HETATM    7  C   UNL     1      -9.220  14.340  66.606  1.00  0.00    -0.276 A  
HETATM    8  C   UNL     1      -8.132  14.728  67.394  1.00  0.00    -0.220 A  
HETATM    9  C   UNL     1      -7.775  16.080  67.523  1.00  0.00    -0.176 A  
HETATM   10  C   UNL     1      -8.489  17.094  66.878  1.00  0.00    -0.222 A  
HETATM   11  C   UNL     1      -9.542  16.680  66.044  1.00  0.00    -0.298 A  
HETATM   12  C   UNL     1      -9.908  15.331  65.909  1.00  0.00    -0.385 A  
BRANCH  10  13
HETATM   13  N   UNL     1      -8.210  18.453  67.045  1.00  0.00    -0.241 NA 
BRANCH  13  14
HETATM   14  C   UNL     1      -8.955  19.291  68.006  1.00  0.00    -0.316 C  
HETATM   15 CL   UNL     1     -10.886  19.921  66.139  1.00  0.00    -0.432 Cl 
HETATM   16  C   UNL     1      -9.696  20.461  67.356  1.00  0.00    -0.457 C  
ENDBRANCH  13  14
BRANCH  13  17
HETATM   17  C   UNL     1      -7.614  19.167  65.893  1.00  0.00    -0.216 C  
HETATM   18  C   UNL     1      -6.103  19.410  66.003  1.00  0.00    -0.180 C  
HETATM   19 CL   UNL     1      -5.160  17.896  66.055  1.00  0.00    -0.209 Cl 
ENDBRANCH  13  17
ENDBRANCH  10  13
ENDBRANCH   6   7
ENDBRANCH   5   6
ENDBRANCH   3   5
TORSDOF 6
ENDMDL
MODEL       63
REMARK 921   NORMALIZED FREE ENERGY PREDICTED BY IDOCK:   -4.62 KCAL/MOL
REMARK 922        TOTAL FREE ENERGY PREDICTED BY IDOCK:   -6.97 KCAL/MOL
REMARK 923 INTER-LIGAND FREE ENERGY PREDICTED BY IDOCK:   -6.17 KCAL/MOL
REMARK 924 INTRA-LIGAND FREE ENERGY PREDICTED BY IDOCK:   -0.80 KCAL/MOL
REMARK 927      BINDING AFFINITY PREDICTED BY RF-SCORE:    0.00 PKD
ROOT
HETATM    1  O   UNL     1      -9.911   9.110  69.785  1.00  0.00    -0.168 OA 
HETATM    2  C   UNL     1     -10.791  10.115  70.003  1.00  0.00    -0.307 C  
HETATM    3  C   UNL     1     -10.793  11.134  68.884  1.00  0.00    -0.261 C  
HETATM    4  O   UNL     1     -11.487  10.163  71.005  1.00  0.00    -0.354 OA 
ENDROOT
BRANCH   3   5
HETATM    5  C   UNL     1     -11.781  12.264  69.166  1.00  0.00    -0.377 C  
BRANCH   5   6
HETATM    6  C   UNL     1     -12.032  13.141  67.934  1.00  0.00    -0.347 C  
BRANCH   6   7
HETATM    7  C   UNL     1     -11.371  14.496  68.051  1.00  0.00    -0.326 A  
HETATM    8  C   UNL     1     -10.665  15.049  66.978  1.00  0.00    -0.304 A  
HETATM    9  C   UNL     1     -10.007  16.283  67.103  1.00  0.00    -0.257 A  
HETATM   10  C   UNL     1     -10.023  17.009  68.297  1.00  0.00    -0.285 A  
HETATM   11  C   UNL     1     -10.788  16.466  69.345  1.00  0.00    -0.327 A  
HETATM   12  C   UNL     1     -11.449  15.232  69.232  1.00  0.00    -0.334 A  
BRANCH  10  13
HETATM   13  N   UNL     1      -9.317  18.200  68.480  1.00  0.00    -0.305 NA 
BRANCH  13  14
HETATM   14  C   UNL     1     -10.003  19.496  68.662  1.00  0.00    -0.449 C  
HETATM   15 CL   UNL     1     -10.581  19.701  65.972  1.00  0.00    -0.600 Cl 
HETATM   16  C   UNL     1      -9.892  20.425  67.452  1.00  0.00    -0.446 C  
ENDBRANCH  13  14
BRANCH  13  17
HETATM   17  C   UNL     1      -7.950  18.269  67.916  1.00  0.00    -0.254 C  
HETATM   18  C   UNL     1      -6.837  17.849  68.885  1.00  0.00    -0.250 C  
HETATM   19 CL   UNL     1      -6.966  16.144  69.392  1.00  0.00    -0.219 Cl 
ENDBRANCH  13  17
ENDBRANCH  10  13
ENDBRANCH   6   7
ENDBRANCH   5   6
ENDBRANCH   3   5
TORSDOF 6
ENDMDL
MODEL       64
REMARK 921   NORMALIZED FREE ENERGY PREDICTED BY IDOCK:   -4.60 KCAL/MOL
REMARK 922        TOTAL FREE ENERGY PREDICTED BY IDOCK:   -6.93 KCAL/MOL
REMARK 923 INTER-LIGAND FREE ENERGY PREDICTED BY IDOCK:   -6.71 KCAL/MOL
REMARK 924 INTRA-LIGAND FREE ENERGY PREDICTED BY IDOCK:   -0.22 KCAL/MOL
REMARK 927      BINDING AFFINITY PREDICTED BY RF-SCORE:    0.00 PKD
ROOT
HETATM    1  O   UNL     1     -11.859   6.437  72.180  1.00  0.00    -0.315 OA 
HETATM    2  C   UNL     1     -12.768   7.336  71.737  1.00  0.00    -0.335 C  
HETATM    3  C   UNL     1     -12.293   8.764  71.898  1.00  0.00    -0.429 C  
HETATM    4  O   UNL     1     -13.843   6.998  71.269  1.00  0.00    -0.291 OA 
ENDROOT
BRANCH   3   5
HETATM    5  C   UNL     1     -13.345   9.757  71.407  1.00  0.00    -0.449 C  
BRANCH   5   6
HETATM    6  C   UNL     1     -12.819  11.196  71.372  1.00  0.00    -0.544 C  
BRANCH   6   7
HETATM    7  C   UNL     1     -12.064  11.500  70.097  1.00  0.00    -0.432 A  
HETATM    8  C   UNL     1     -11.841  12.818  69.687  1.00  0.00    -0.384 A  
HETATM    9  C   UNL     1     -11.187  13.101  68.477  1.00  0.00    -0.307 A  
HETATM   10  C   UNL     1     -10.735  12.085  67.631  1.00  0.00    -0.217 A  
HETATM   11  C   UNL     1     -10.915  10.767  68.088  1.00  0.00    -0.308 A  
HETATM   12  C   UNL     1     -11.569  10.474  69.295  1.00  0.00    -0.308 A  
BRANCH  10  13
HETATM   13  N   UNL     1     -10.150  12.328  66.386  1.00  0.00    -0.222 NA 
BRANCH  13  14
HETATM   14  C   UNL     1      -9.268  11.341  65.730  1.00  0.00    -0.219 C  
HETATM   15 CL   UNL     1     -10.751  11.388  63.404  1.00  0.00    -0.439 Cl 
HETATM   16  C   UNL     1      -9.990  10.449  64.719  1.00  0.00    -0.339 C  
ENDBRANCH  13  14
BRANCH  13  17
HETATM   17  C   UNL     1      -9.928  13.743  66.008  1.00  0.00    -0.306 C  
HETATM   18  C   UNL     1     -10.773  14.229  64.824  1.00  0.00    -0.416 C  
HETATM   19 CL   UNL     1     -12.525  14.184  65.158  1.00  0.00    -0.453 Cl 
ENDBRANCH  13  17
ENDBRANCH  10  13
ENDBRANCH   6   7
ENDBRANCH   5   6
ENDBRANCH   3   5
TORSDOF 6
ENDMDL
MODEL       65
REMARK 921   NORMALIZED FREE ENERGY PREDICTED BY IDOCK:   -4.59 KCAL/MOL
REMARK 922        TOTAL FREE ENERGY PREDICTED BY IDOCK:   -6.92 KCAL/MOL
REMARK 923 INTER-LIGAND FREE ENERGY PREDICTED BY IDOCK:   -6.08 KCAL/MOL
REMARK 924 INTRA-LIGAND FREE ENERGY PREDICTED BY IDOCK:   -0.84 KCAL/MOL
REMARK 927      BINDING AFFINITY PREDICTED BY RF-SCORE:    0.00 PKD
ROOT
HETATM    1  O   UNL     1      -8.179   9.955  64.338  1.00  0.00    -0.145 OA 
HETATM    2  C   UNL     1      -8.917  10.737  63.516  1.00  0.00    -0.185 C  
HETATM    3  C   UNL     1     -10.238  11.139  64.135  1.00  0.00    -0.405 C  
HETATM    4  O   UNL     1      -8.530  11.058  62.404  1.00  0.00    -0.265 OA 
ENDROOT
BRANCH   3   5
HETATM    5  C   UNL     1     -11.057  12.005  63.178  1.00  0.00    -0.265 C  
BRANCH   5   6
HETATM    6  C   UNL     1     -12.346  12.528  63.822  1.00  0.00    -0.595 C  
BRANCH   6   7
HETATM    7  C   UNL     1     -12.070  13.489  64.957  1.00  0.00    -0.428 A  
HETATM    8  C   UNL     1     -11.443  14.717  64.726  1.00  0.00    -0.410 A  
HETATM    9  C   UNL     1     -11.139  15.587  65.786  1.00  0.00    -0.217 A  
HETATM   10  C   UNL     1     -11.444  15.266  67.112  1.00  0.00    -0.200 A  
HETATM   11  C   UNL     1     -12.128  14.054  67.318  1.00  0.00    -0.405 A  
HETATM   12  C   UNL     1     -12.434  13.177  66.266  1.00  0.00    -0.210 A  
BRANCH  10  13
HETATM   13  N   UNL     1     -11.088  16.071  68.196  1.00  0.00    -0.345 NA 
BRANCH  13  14
HETATM   14  C   UNL     1     -10.659  17.473  68.021  1.00  0.00    -0.384 C  
HETATM   15 CL   UNL     1      -8.054  16.731  67.495  1.00  0.00    -0.182 Cl 
HETATM   16  C   UNL     1      -9.206  17.726  68.429  1.00  0.00    -0.285 C  
ENDBRANCH  13  14
BRANCH  13  17
HETATM   17  C   UNL     1     -10.580  15.387  69.408  1.00  0.00    -0.251 C  
HETATM   18  C   UNL     1     -11.288  15.784  70.710  1.00  0.00    -0.390 C  
HETATM   19 CL   UNL     1     -13.019  15.355  70.716  1.00  0.00    -0.512 Cl 
ENDBRANCH  13  17
ENDBRANCH  10  13
ENDBRANCH   6   7
ENDBRANCH   5   6
ENDBRANCH   3   5
TORSDOF 6
ENDMDL
MODEL       66
REMARK 921   NORMALIZED FREE ENERGY PREDICTED BY IDOCK:   -4.58 KCAL/MOL
REMARK 922        TOTAL FREE ENERGY PREDICTED BY IDOCK:   -6.92 KCAL/MOL
REMARK 923 INTER-LIGAND FREE ENERGY PREDICTED BY IDOCK:   -6.23 KCAL/MOL
REMARK 924 INTRA-LIGAND FREE ENERGY PREDICTED BY IDOCK:   -0.69 KCAL/MOL
REMARK 927      BINDING AFFINITY PREDICTED BY RF-SCORE:    0.00 PKD
ROOT
HETATM    1  O   UNL     1     -14.408   6.666  71.946  1.00  0.00    -0.233 OA 
HETATM    2  C   UNL     1     -13.352   7.411  71.545  1.00  0.00    -0.372 C  
HETATM    3  C   UNL     1     -13.554   8.888  71.807  1.00  0.00    -0.461 C  
HETATM    4  O   UNL     1     -12.364   6.913  71.029  1.00  0.00    -0.381 OA 
ENDROOT
BRANCH   3   5
HETATM    5  C   UNL     1     -12.355   9.705  71.327  1.00  0.00    -0.449 C  
BRANCH   5   6
HETATM    6  C   UNL     1     -12.688  11.193  71.170  1.00  0.00    -0.510 C  
BRANCH   6   7
HETATM    7  C   UNL     1     -12.081  11.787  69.920  1.00  0.00    -0.359 A  
HETATM    8  C   UNL     1     -11.664  10.972  68.862  1.00  0.00    -0.400 A  
HETATM    9  C   UNL     1     -11.052  11.519  67.723  1.00  0.00    -0.319 A  
HETATM   10  C   UNL     1     -10.828  12.893  67.595  1.00  0.00    -0.232 A  
HETATM   11  C   UNL     1     -11.307  13.701  68.642  1.00  0.00    -0.321 A  
HETATM   12  C   UNL     1     -11.919  13.165  69.786  1.00  0.00    -0.382 A  
BRANCH  10  13
HETATM   13  N   UNL     1     -10.154  13.462  66.512  1.00  0.00    -0.274 NA 
BRANCH  13  14
HETATM   14  C   UNL     1     -10.316  12.952  65.136  1.00  0.00    -0.303 C  
HETATM   15 CL   UNL     1     -12.145  14.916  64.499  1.00  0.00    -0.460 Cl 
HETATM   16  C   UNL     1     -11.712  13.185  64.555  1.00  0.00    -0.371 C  
ENDBRANCH  13  14
BRANCH  13  17
HETATM   17  C   UNL     1      -8.875  14.151  66.799  1.00  0.00    -0.167 C  
HETATM   18  C   UNL     1      -7.869  13.323  67.609  1.00  0.00    -0.168 C  
HETATM   19 CL   UNL     1      -7.336  11.851  66.754  1.00  0.00    -0.069 Cl 
ENDBRANCH  13  17
ENDBRANCH  10  13
ENDBRANCH   6   7
ENDBRANCH   5   6
ENDBRANCH   3   5
TORSDOF 6
ENDMDL
MODEL       67
REMARK 921   NORMALIZED FREE ENERGY PREDICTED BY IDOCK:   -4.55 KCAL/MOL
REMARK 922        TOTAL FREE ENERGY PREDICTED BY IDOCK:   -6.87 KCAL/MOL
REMARK 923 INTER-LIGAND FREE ENERGY PREDICTED BY IDOCK:   -6.13 KCAL/MOL
REMARK 924 INTRA-LIGAND FREE ENERGY PREDICTED BY IDOCK:   -0.74 KCAL/MOL
REMARK 927      BINDING AFFINITY PREDICTED BY RF-SCORE:    0.00 PKD
ROOT
HETATM    1  O   UNL     1     -10.449   8.800  68.458  1.00  0.00    -0.206 OA 
HETATM    2  C   UNL     1     -10.833  10.029  68.875  1.00  0.00    -0.220 C  
HETATM    3  C   UNL     1     -11.389  10.873  67.748  1.00  0.00    -0.366 C  
HETATM    4  O   UNL     1     -10.725  10.385  70.037  1.00  0.00    -0.277 OA 
ENDROOT
BRANCH   3   5
HETATM    5  C   UNL     1     -11.797  12.260  68.243  1.00  0.00    -0.367 C  
BRANCH   5   6
HETATM    6  C   UNL     1     -12.029  13.246  67.093  1.00  0.00    -0.400 C  
BRANCH   6   7
HETATM    7  C   UNL     1     -11.337  14.570  67.325  1.00  0.00    -0.363 A  
HETATM    8  C   UNL     1     -10.592  15.182  66.312  1.00  0.00    -0.312 A  
HETATM    9  C   UNL     1      -9.906  16.386  66.542  1.00  0.00    -0.290 A  
HETATM   10  C   UNL     1      -9.932  17.021  67.787  1.00  0.00    -0.280 A  
HETATM   11  C   UNL     1     -10.733  16.422  68.775  1.00  0.00    -0.321 A  
HETATM   12  C   UNL     1     -11.422  15.218  68.556  1.00  0.00    -0.355 A  
BRANCH  10  13
HETATM   13  N   UNL     1      -9.200  18.176  68.073  1.00  0.00    -0.273 NA 
BRANCH  13  14
HETATM   14  C   UNL     1      -7.852  18.118  68.673  1.00  0.00    -0.295 C  
HETATM   15 CL   UNL     1      -6.636  18.796  66.291  1.00  0.00    -0.226 Cl 
HETATM   16  C   UNL     1      -6.760  17.693  67.689  1.00  0.00    -0.171 C  
ENDBRANCH  13  14
BRANCH  13  17
HETATM   17  C   UNL     1      -9.968  19.416  68.329  1.00  0.00    -0.422 C  
HETATM   18  C   UNL     1      -9.920  20.444  67.191  1.00  0.00    -0.428 C  
HETATM   19 CL   UNL     1     -10.649  19.838  65.680  1.00  0.00    -0.556 Cl 
ENDBRANCH  13  17
ENDBRANCH  10  13
ENDBRANCH   6   7
ENDBRANCH   5   6
ENDBRANCH   3   5
TORSDOF 6
ENDMDL
MODEL       68
REMARK 921   NORMALIZED FREE ENERGY PREDICTED BY IDOCK:   -4.54 KCAL/MOL
REMARK 922        TOTAL FREE ENERGY PREDICTED BY IDOCK:   -6.86 KCAL/MOL
REMARK 923 INTER-LIGAND FREE ENERGY PREDICTED BY IDOCK:   -6.13 KCAL/MOL
REMARK 924 INTRA-LIGAND FREE ENERGY PREDICTED BY IDOCK:   -0.73 KCAL/MOL
REMARK 927      BINDING AFFINITY PREDICTED BY RF-SCORE:    0.00 PKD
ROOT
HETATM    1  O   UNL     1     -14.152   9.051  72.703  1.00  0.00    -0.516 OA 
HETATM    2  C   UNL     1     -13.280   8.597  71.774  1.00  0.00    -0.363 C  
HETATM    3  C   UNL     1     -12.369   9.688  71.256  1.00  0.00    -0.449 C  
HETATM    4  O   UNL     1     -13.261   7.430  71.415  1.00  0.00    -0.364 OA 
ENDROOT
BRANCH   3   5
HETATM    5  C   UNL     1     -11.408   9.151  70.196  1.00  0.00    -0.164 C  
BRANCH   5   6
HETATM    6  C   UNL     1     -10.178  10.047  70.014  1.00  0.00    -0.306 C  
BRANCH   6   7
HETATM    7  C   UNL     1     -10.158  10.726  68.663  1.00  0.00    -0.194 A  
HETATM    8  C   UNL     1      -9.145  11.628  68.324  1.00  0.00    -0.187 A  
HETATM    9  C   UNL     1      -9.154  12.298  67.090  1.00  0.00    -0.193 A  
HETATM   10  C   UNL     1     -10.171  12.100  66.152  1.00  0.00    -0.227 A  
HETATM   11  C   UNL     1     -11.149  11.146  66.486  1.00  0.00    -0.233 A  
HETATM   12  C   UNL     1     -11.150  10.471  67.717  1.00  0.00    -0.382 A  
BRANCH  10  13
HETATM   13  N   UNL     1     -10.253  12.806  64.949  1.00  0.00    -0.291 NA 
BRANCH  13  14
HETATM   14  C   UNL     1     -10.455  14.268  64.914  1.00  0.00    -0.430 C  
HETATM   15 CL   UNL     1     -13.105  14.037  65.647  1.00  0.00    -0.382 Cl 
HETATM   16  C   UNL     1     -11.876  14.683  64.525  1.00  0.00    -0.431 C  
ENDBRANCH  13  14
BRANCH  13  17
HETATM   17  C   UNL     1     -10.722  12.061  63.759  1.00  0.00    -0.423 C  
HETATM   18  C   UNL     1      -9.618  11.328  62.986  1.00  0.00    -0.377 C  
HETATM   19 CL   UNL     1      -8.821  10.058  63.953  1.00  0.00    -0.222 Cl 
ENDBRANCH  13  17
ENDBRANCH  10  13
ENDBRANCH   6   7
ENDBRANCH   5   6
ENDBRANCH   3   5
TORSDOF 6
ENDMDL
MODEL       69
REMARK 921   NORMALIZED FREE ENERGY PREDICTED BY IDOCK:   -4.54 KCAL/MOL
REMARK 922        TOTAL FREE ENERGY PREDICTED BY IDOCK:   -6.85 KCAL/MOL
REMARK 923 INTER-LIGAND FREE ENERGY PREDICTED BY IDOCK:   -6.09 KCAL/MOL
REMARK 924 INTRA-LIGAND FREE ENERGY PREDICTED BY IDOCK:   -0.76 KCAL/MOL
REMARK 927      BINDING AFFINITY PREDICTED BY RF-SCORE:    0.00 PKD
ROOT
HETATM    1  O   UNL     1     -12.131  11.179  68.501  1.00  0.00    -0.586 OA 
HETATM    2  C   UNL     1     -11.385  11.121  67.374  1.00  0.00    -0.255 C  
HETATM    3  C   UNL     1     -11.859  12.096  66.318  1.00  0.00    -0.320 C  
HETATM    4  O   UNL     1     -10.444  10.352  67.255  1.00  0.00    -0.221 OA 
ENDROOT
BRANCH   3   5
HETATM    5  C   UNL     1     -11.010  11.996  65.051  1.00  0.00    -0.355 C  
BRANCH   5   6
HETATM    6  C   UNL     1     -10.958  13.318  64.277  1.00  0.00    -0.418 C  
BRANCH   6   7
HETATM    7  C   UNL     1     -10.375  14.443  65.103  1.00  0.00    -0.447 A  
HETATM    8  C   UNL     1     -10.851  15.752  64.977  1.00  0.00    -0.461 A  
HETATM    9  C   UNL     1     -10.275  16.806  65.705  1.00  0.00    -0.258 A  
HETATM   10  C   UNL     1      -9.205  16.598  66.579  1.00  0.00    -0.270 A  
HETATM   11  C   UNL     1      -8.780  15.266  66.737  1.00  0.00    -0.304 A  
HETATM   12  C   UNL     1      -9.347  14.206  66.013  1.00  0.00    -0.108 A  
BRANCH  10  13
HETATM   13  N   UNL     1      -8.558  17.632  67.259  1.00  0.00    -0.227 NA 
BRANCH  13  14
HETATM   14  C   UNL     1      -7.096  17.822  67.186  1.00  0.00    -0.177 C  
HETATM   15 CL   UNL     1      -7.340  19.935  65.429  1.00  0.00    -0.273 Cl 
HETATM   16  C   UNL     1      -6.612  18.356  65.836  1.00  0.00    -0.271 C  
ENDBRANCH  13  14
BRANCH  13  17
HETATM   17  C   UNL     1      -9.216  18.154  68.479  1.00  0.00    -0.314 C  
HETATM   18  C   UNL     1      -9.564  19.647  68.430  1.00  0.00    -0.379 C  
HETATM   19 CL   UNL     1     -10.744  20.042  67.151  1.00  0.00    -0.448 Cl 
ENDBRANCH  13  17
ENDBRANCH  10  13
ENDBRANCH   6   7
ENDBRANCH   5   6
ENDBRANCH   3   5
TORSDOF 6
ENDMDL
MODEL       70
REMARK 921   NORMALIZED FREE ENERGY PREDICTED BY IDOCK:   -4.53 KCAL/MOL
REMARK 922        TOTAL FREE ENERGY PREDICTED BY IDOCK:   -6.85 KCAL/MOL
REMARK 923 INTER-LIGAND FREE ENERGY PREDICTED BY IDOCK:   -6.25 KCAL/MOL
REMARK 924 INTRA-LIGAND FREE ENERGY PREDICTED BY IDOCK:   -0.60 KCAL/MOL
REMARK 927      BINDING AFFINITY PREDICTED BY RF-SCORE:    0.00 PKD
ROOT
HETATM    1  O   UNL     1     -13.258  13.871  65.143  1.00  0.00    -0.768 OA 
HETATM    2  C   UNL     1     -12.238  13.596  65.988  1.00  0.00    -0.449 C  
HETATM    3  C   UNL     1     -11.573  12.272  65.679  1.00  0.00    -0.433 C  
HETATM    4  O   UNL     1     -11.919  14.354  66.890  1.00  0.00    -0.410 OA 
ENDROOT
BRANCH   3   5
HETATM    5  C   UNL     1     -10.438  11.980  66.659  1.00  0.00    -0.247 C  
BRANCH   5   6
HETATM    6  C   UNL     1      -9.941  10.533  66.563  1.00  0.00    -0.266 C  
BRANCH   6   7
HETATM    7  C   UNL     1     -10.186   9.757  67.837  1.00  0.00    -0.237 A  
HETATM    8  C   UNL     1     -10.290   8.363  67.824  1.00  0.00    -0.297 A  
HETATM    9  C   UNL     1     -10.569   7.645  68.998  1.00  0.00    -0.186 A  
HETATM   10  C   UNL     1     -10.760   8.287  70.225  1.00  0.00    -0.235 A  
HETATM   11  C   UNL     1     -10.593   9.683  70.230  1.00  0.00    -0.333 A  
HETATM   12  C   UNL     1     -10.315  10.410  69.061  1.00  0.00    -0.232 A  
BRANCH  10  13
HETATM   13  N   UNL     1     -11.115   7.612  71.395  1.00  0.00    -0.236 NA 
BRANCH  13  14
HETATM   14  C   UNL     1     -11.924   8.253  72.452  1.00  0.00    -0.384 C  
HETATM   15 CL   UNL     1     -14.266   7.169  71.478  1.00  0.00    -0.518 Cl 
HETATM   16  C   UNL     1     -13.346   8.604  72.009  1.00  0.00    -0.392 C  
ENDBRANCH  13  14
BRANCH  13  17
HETATM   17  C   UNL     1     -10.225   6.516  71.840  1.00  0.00    -0.194 C  
HETATM   18  C   UNL     1      -8.763   6.928  72.062  1.00  0.00    -0.125 C  
HETATM   19 CL   UNL     1      -8.573   8.137  73.360  1.00  0.00    -0.304 Cl 
ENDBRANCH  13  17
ENDBRANCH  10  13
ENDBRANCH   6   7
ENDBRANCH   5   6
ENDBRANCH   3   5
TORSDOF 6
ENDMDL
MODEL       71
REMARK 921   NORMALIZED FREE ENERGY PREDICTED BY IDOCK:   -4.47 KCAL/MOL
REMARK 922        TOTAL FREE ENERGY PREDICTED BY IDOCK:   -6.77 KCAL/MOL
REMARK 923 INTER-LIGAND FREE ENERGY PREDICTED BY IDOCK:   -6.14 KCAL/MOL
REMARK 924 INTRA-LIGAND FREE ENERGY PREDICTED BY IDOCK:   -0.63 KCAL/MOL
REMARK 927      BINDING AFFINITY PREDICTED BY RF-SCORE:    0.00 PKD
ROOT
HETATM    1  O   UNL     1     -10.657   4.610  65.710  1.00  0.00    -0.301 OA 
HETATM    2  C   UNL     1     -10.401   5.091  66.948  1.00  0.00    -0.218 C  
HETATM    3  C   UNL     1     -11.052   6.435  67.191  1.00  0.00    -0.422 C  
HETATM    4  O   UNL     1      -9.712   4.483  67.753  1.00  0.00    -0.161 OA 
ENDROOT
BRANCH   3   5
HETATM    5  C   UNL     1     -10.730   6.962  68.589  1.00  0.00    -0.256 C  
BRANCH   5   6
HETATM    6  C   UNL     1      -9.666   8.065  68.566  1.00  0.00    -0.166 C  
BRANCH   6   7
HETATM    7  C   UNL     1     -10.180   9.344  67.944  1.00  0.00    -0.259 A  
HETATM    8  C   UNL     1     -11.109  10.148  68.611  1.00  0.00    -0.254 A  
HETATM    9  C   UNL     1     -11.627  11.308  68.012  1.00  0.00    -0.343 A  
HETATM   10  C   UNL     1     -11.243  11.708  66.729  1.00  0.00    -0.308 A  
HETATM   11  C   UNL     1     -10.264  10.919  66.098  1.00  0.00    -0.304 A  
HETATM   12  C   UNL     1      -9.741   9.757  66.687  1.00  0.00    -0.257 A  
BRANCH  10  13
HETATM   13  N   UNL     1     -11.794  12.811  66.073  1.00  0.00    -0.420 NA 
BRANCH  13  14
HETATM   14  C   UNL     1     -12.037  14.092  66.767  1.00  0.00    -0.442 C  
HETATM   15 CL   UNL     1     -10.173  15.416  65.222  1.00  0.00    -0.396 Cl 
HETATM   16  C   UNL     1     -10.803  14.995  66.839  1.00  0.00    -0.315 C  
ENDBRANCH  13  14
BRANCH  13  17
HETATM   17  C   UNL     1     -12.656  12.539  64.900  1.00  0.00    -0.390 C  
HETATM   18  C   UNL     1     -12.049  12.946  63.551  1.00  0.00    -0.555 C  
HETATM   19 CL   UNL     1     -10.561  12.043  63.161  1.00  0.00    -0.370 Cl 
ENDBRANCH  13  17
ENDBRANCH  10  13
ENDBRANCH   6   7
ENDBRANCH   5   6
ENDBRANCH   3   5
TORSDOF 6
ENDMDL
MODEL       72
REMARK 921   NORMALIZED FREE ENERGY PREDICTED BY IDOCK:   -4.47 KCAL/MOL
REMARK 922        TOTAL FREE ENERGY PREDICTED BY IDOCK:   -6.76 KCAL/MOL
REMARK 923 INTER-LIGAND FREE ENERGY PREDICTED BY IDOCK:   -6.29 KCAL/MOL
REMARK 924 INTRA-LIGAND FREE ENERGY PREDICTED BY IDOCK:   -0.47 KCAL/MOL
REMARK 927      BINDING AFFINITY PREDICTED BY RF-SCORE:    0.00 PKD
ROOT
HETATM    1  O   UNL     1     -11.551  12.396  63.246  1.00  0.00    -0.449 OA 
HETATM    2  C   UNL     1     -12.173  12.604  64.430  1.00  0.00    -0.443 C  
HETATM    3  C   UNL     1     -11.304  13.358  65.413  1.00  0.00    -0.309 C  
HETATM    4  O   UNL     1     -13.307  12.209  64.647  1.00  0.00    -0.608 OA 
ENDROOT
BRANCH   3   5
HETATM    5  C   UNL     1     -12.024  13.562  66.746  1.00  0.00    -0.453 C  
BRANCH   5   6
HETATM    6  C   UNL     1     -11.076  13.450  67.945  1.00  0.00    -0.289 C  
BRANCH   6   7
HETATM    7  C   UNL     1     -11.160  12.098  68.617  1.00  0.00    -0.297 A  
HETATM    8  C   UNL     1     -11.846  11.934  69.824  1.00  0.00    -0.411 A  
HETATM    9  C   UNL     1     -11.880  10.690  70.476  1.00  0.00    -0.453 A  
HETATM   10  C   UNL     1     -11.231   9.568  69.954  1.00  0.00    -0.178 A  
HETATM   11  C   UNL     1     -10.596   9.738  68.710  1.00  0.00    -0.244 A  
HETATM   12  C   UNL     1     -10.555  10.977  68.051  1.00  0.00    -0.241 A  
BRANCH  10  13
HETATM   13  N   UNL     1     -11.179   8.337  70.613  1.00  0.00    -0.259 NA 
BRANCH  13  14
HETATM   14  C   UNL     1     -11.758   8.146  71.958  1.00  0.00    -0.332 C  
HETATM   15 CL   UNL     1      -9.293   8.363  73.177  1.00  0.00    -0.271 Cl 
HETATM   16  C   UNL     1     -10.811   7.454  72.941  1.00  0.00    -0.354 C  
ENDBRANCH  13  14
BRANCH  13  17
HETATM   17  C   UNL     1     -10.071   7.423  70.251  1.00  0.00    -0.197 C  
HETATM   18  C   UNL     1     -10.518   6.072  69.678  1.00  0.00    -0.261 C  
HETATM   19 CL   UNL     1     -11.411   6.232  68.142  1.00  0.00    -0.244 Cl 
ENDBRANCH  13  17
ENDBRANCH  10  13
ENDBRANCH   6   7
ENDBRANCH   5   6
ENDBRANCH   3   5
TORSDOF 6
ENDMDL
MODEL       73
REMARK 921   NORMALIZED FREE ENERGY PREDICTED BY IDOCK:   -4.46 KCAL/MOL
REMARK 922        TOTAL FREE ENERGY PREDICTED BY IDOCK:   -6.75 KCAL/MOL
REMARK 923 INTER-LIGAND FREE ENERGY PREDICTED BY IDOCK:   -6.04 KCAL/MOL
REMARK 924 INTRA-LIGAND FREE ENERGY PREDICTED BY IDOCK:   -0.72 KCAL/MOL
REMARK 927      BINDING AFFINITY PREDICTED BY RF-SCORE:    0.00 PKD
ROOT
HETATM    1  O   UNL     1     -12.532  16.353  72.785  1.00  0.00    -0.422 OA 
HETATM    2  C   UNL     1     -12.991  15.393  71.950  1.00  0.00    -0.414 C  
HETATM    3  C   UNL     1     -12.311  14.059  72.174  1.00  0.00    -0.125 C  
HETATM    4  O   UNL     1     -13.856  15.614  71.118  1.00  0.00    -0.583 OA 
ENDROOT
BRANCH   3   5
HETATM    5  C   UNL     1     -12.836  13.000  71.206  1.00  0.00    -0.370 C  
BRANCH   5   6
HETATM    6  C   UNL     1     -13.395  11.771  71.932  1.00  0.00    -0.401 C  
BRANCH   6   7
HETATM    7  C   UNL     1     -12.611  10.516  71.621  1.00  0.00    -0.498 A  
HETATM    8  C   UNL     1     -12.931   9.297  72.226  1.00  0.00    -0.488 A  
HETATM    9  C   UNL     1     -12.171   8.142  71.978  1.00  0.00    -0.385 A  
HETATM   10  C   UNL     1     -11.065   8.158  71.124  1.00  0.00    -0.245 A  
HETATM   11  C   UNL     1     -10.795   9.379  70.479  1.00  0.00    -0.336 A  
HETATM   12  C   UNL     1     -11.547  10.539  70.722  1.00  0.00    -0.432 A  
BRANCH  10  13
HETATM   13  N   UNL     1     -10.242   7.049  70.915  1.00  0.00    -0.197 NA 
BRANCH  13  14
HETATM   14  C   UNL     1     -10.681   5.892  70.109  1.00  0.00    -0.318 C  
HETATM   15 CL   UNL     1      -9.790   7.039  67.763  1.00  0.00    -0.155 Cl 
HETATM   16  C   UNL     1     -11.105   6.260  68.686  1.00  0.00    -0.325 C  
ENDBRANCH  13  14
BRANCH  13  17
HETATM   17  C   UNL     1      -9.213   6.768  71.941  1.00  0.00    -0.142 C  
HETATM   18  C   UNL     1      -8.169   5.721  71.531  1.00  0.00    -0.119 C  
HETATM   19 CL   UNL     1      -7.193   6.230  70.127  1.00  0.00    -0.078 Cl 
ENDBRANCH  13  17
ENDBRANCH  10  13
ENDBRANCH   6   7
ENDBRANCH   5   6
ENDBRANCH   3   5
TORSDOF 6
ENDMDL
MODEL       74
REMARK 921   NORMALIZED FREE ENERGY PREDICTED BY IDOCK:   -4.46 KCAL/MOL
REMARK 922        TOTAL FREE ENERGY PREDICTED BY IDOCK:   -6.75 KCAL/MOL
REMARK 923 INTER-LIGAND FREE ENERGY PREDICTED BY IDOCK:   -6.08 KCAL/MOL
REMARK 924 INTRA-LIGAND FREE ENERGY PREDICTED BY IDOCK:   -0.66 KCAL/MOL
REMARK 927      BINDING AFFINITY PREDICTED BY RF-SCORE:    0.00 PKD
ROOT
HETATM    1  O   UNL     1     -10.358  17.436  65.344  1.00  0.00    -0.631 OA 
HETATM    2  C   UNL     1     -11.125  16.434  64.857  1.00  0.00    -0.239 C  
HETATM    3  C   UNL     1     -11.250  15.279  65.828  1.00  0.00    -0.247 C  
HETATM    4  O   UNL     1     -11.641  16.487  63.753  1.00  0.00    -1.109 OA 
ENDROOT
BRANCH   3   5
HETATM    5  C   UNL     1     -12.106  14.155  65.245  1.00  0.00    -0.407 C  
BRANCH   5   6
HETATM    6  C   UNL     1     -11.263  12.969  64.764  1.00  0.00    -0.344 C  
BRANCH   6   7
HETATM    7  C   UNL     1     -10.989  11.974  65.869  1.00  0.00    -0.342 A  
HETATM    8  C   UNL     1     -11.692  12.027  67.077  1.00  0.00    -0.341 A  
HETATM    9  C   UNL     1     -11.402  11.136  68.124  1.00  0.00    -0.377 A  
HETATM   10  C   UNL     1     -10.403  10.166  68.009  1.00  0.00    -0.190 A  
HETATM   11  C   UNL     1      -9.748  10.090  66.767  1.00  0.00    -0.239 A  
HETATM   12  C   UNL     1     -10.029  10.976  65.715  1.00  0.00    -0.294 A  
BRANCH  10  13
HETATM   13  N   UNL     1     -10.036   9.317  69.056  1.00  0.00    -0.192 NA 
BRANCH  13  14
HETATM   14  C   UNL     1     -10.784   8.079  69.356  1.00  0.00    -0.159 C  
HETATM   15 CL   UNL     1     -12.532   9.403  71.030  1.00  0.00    -0.337 Cl 
HETATM   16  C   UNL     1     -11.393   8.055  70.759  1.00  0.00    -0.272 C  
ENDBRANCH  13  14
BRANCH  13  17
HETATM   17  C   UNL     1      -9.306   9.921  70.193  1.00  0.00    -0.149 C  
HETATM   18  C   UNL     1      -7.901   9.351  70.427  1.00  0.00    -0.164 C  
HETATM   19 CL   UNL     1      -6.798   9.642  69.056  1.00  0.00    -0.050 Cl 
ENDBRANCH  13  17
ENDBRANCH  10  13
ENDBRANCH   6   7
ENDBRANCH   5   6
ENDBRANCH   3   5
TORSDOF 6
ENDMDL
MODEL       75
REMARK 921   NORMALIZED FREE ENERGY PREDICTED BY IDOCK:   -4.45 KCAL/MOL
REMARK 922        TOTAL FREE ENERGY PREDICTED BY IDOCK:   -6.74 KCAL/MOL
REMARK 923 INTER-LIGAND FREE ENERGY PREDICTED BY IDOCK:   -6.04 KCAL/MOL
REMARK 924 INTRA-LIGAND FREE ENERGY PREDICTED BY IDOCK:   -0.70 KCAL/MOL
REMARK 927      BINDING AFFINITY PREDICTED BY RF-SCORE:    0.00 PKD
ROOT
HETATM    1  O   UNL     1     -10.589   5.300  74.456  1.00  0.00    -0.304 OA 
HETATM    2  C   UNL     1     -10.935   5.964  73.329  1.00  0.00    -0.233 C  
HETATM    3  C   UNL     1     -10.656   7.449  73.426  1.00  0.00    -0.427 C  
HETATM    4  O   UNL     1     -11.419   5.398  72.363  1.00  0.00    -0.235 OA 
ENDROOT
BRANCH   3   5
HETATM    5  C   UNL     1     -11.073   8.176  72.148  1.00  0.00    -0.386 C  
BRANCH   5   6
HETATM    6  C   UNL     1      -9.887   8.841  71.441  1.00  0.00    -0.353 C  
BRANCH   6   7
HETATM    7  C   UNL     1     -10.330   9.828  70.385  1.00  0.00    -0.354 A  
HETATM    8  C   UNL     1      -9.459  10.237  69.370  1.00  0.00    -0.225 A  
HETATM    9  C   UNL     1      -9.852  11.194  68.419  1.00  0.00    -0.188 A  
HETATM   10  C   UNL     1     -11.121  11.780  68.446  1.00  0.00    -0.237 A  
HETATM   11  C   UNL     1     -12.002  11.312  69.438  1.00  0.00    -0.410 A  
HETATM   12  C   UNL     1     -11.619  10.358  70.394  1.00  0.00    -0.423 A  
BRANCH  10  13
HETATM   13  N   UNL     1     -11.518  12.788  67.565  1.00  0.00    -0.315 NA 
BRANCH  13  14
HETATM   14  C   UNL     1     -12.103  14.057  68.043  1.00  0.00    -0.277 C  
HETATM   15 CL   UNL     1      -9.622  15.236  68.307  1.00  0.00    -0.203 Cl 
HETATM   16  C   UNL     1     -11.205  14.818  69.021  1.00  0.00    -0.270 C  
ENDBRANCH  13  14
BRANCH  13  17
HETATM   17  C   UNL     1     -11.900  12.377  66.195  1.00  0.00    -0.376 C  
HETATM   18  C   UNL     1     -11.963  13.523  65.177  1.00  0.00    -0.368 C  
HETATM   19 CL   UNL     1     -10.382  14.311  64.922  1.00  0.00    -0.454 Cl 
ENDBRANCH  13  17
ENDBRANCH  10  13
ENDBRANCH   6   7
ENDBRANCH   5   6
ENDBRANCH   3   5
TORSDOF 6
ENDMDL
MODEL       76
REMARK 921   NORMALIZED FREE ENERGY PREDICTED BY IDOCK:   -4.45 KCAL/MOL
REMARK 922        TOTAL FREE ENERGY PREDICTED BY IDOCK:   -6.73 KCAL/MOL
REMARK 923 INTER-LIGAND FREE ENERGY PREDICTED BY IDOCK:   -5.91 KCAL/MOL
REMARK 924 INTRA-LIGAND FREE ENERGY PREDICTED BY IDOCK:   -0.82 KCAL/MOL
REMARK 927      BINDING AFFINITY PREDICTED BY RF-SCORE:    0.00 PKD
ROOT
HETATM    1  O   UNL     1      -9.712  17.698  65.650  1.00  0.00    -0.525 OA 
HETATM    2  C   UNL     1     -10.602  16.700  65.445  1.00  0.00    -0.237 C  
HETATM    3  C   UNL     1     -10.755  15.806  66.657  1.00  0.00    -0.287 C  
HETATM    4  O   UNL     1     -11.195  16.565  64.387  1.00  0.00    -0.919 OA 
ENDROOT
BRANCH   3   5
HETATM    5  C   UNL     1     -11.752  14.679  66.391  1.00  0.00    -0.329 C  
BRANCH   5   6
HETATM    6  C   UNL     1     -12.096  13.892  67.660  1.00  0.00    -0.342 C  
BRANCH   6   7
HETATM    7  C   UNL     1     -11.574  12.473  67.615  1.00  0.00    -0.416 A  
HETATM    8  C   UNL     1     -11.570  11.669  68.759  1.00  0.00    -0.374 A  
HETATM    9  C   UNL     1     -11.036  10.370  68.730  1.00  0.00    -0.298 A  
HETATM   10  C   UNL     1     -10.486   9.826  67.566  1.00  0.00    -0.251 A  
HETATM   11  C   UNL     1     -10.553  10.628  66.412  1.00  0.00    -0.240 A  
HETATM   12  C   UNL     1     -11.082  11.928  66.431  1.00  0.00    -0.359 A  
BRANCH  10  13
HETATM   13  N   UNL     1      -9.878   8.570  67.521  1.00  0.00    -0.165 NA 
BRANCH  13  14
HETATM   14  C   UNL     1      -8.459   8.401  67.149  1.00  0.00    -0.123 C  
HETATM   15 CL   UNL     1      -7.643   8.438  69.784  1.00  0.00    -0.085 Cl 
HETATM   16  C   UNL     1      -7.485   9.069  68.122  1.00  0.00    -0.084 C  
ENDBRANCH  13  14
BRANCH  13  17
HETATM   17  C   UNL     1     -10.755   7.404  67.267  1.00  0.00    -0.308 C  
HETATM   18  C   UNL     1     -10.793   6.372  68.402  1.00  0.00    -0.311 C  
HETATM   19 CL   UNL     1     -11.456   7.036  69.919  1.00  0.00    -0.258 Cl 
ENDBRANCH  13  17
ENDBRANCH  10  13
ENDBRANCH   6   7
ENDBRANCH   5   6
ENDBRANCH   3   5
TORSDOF 6
ENDMDL
MODEL       77
REMARK 921   NORMALIZED FREE ENERGY PREDICTED BY IDOCK:   -4.44 KCAL/MOL
REMARK 922        TOTAL FREE ENERGY PREDICTED BY IDOCK:   -6.73 KCAL/MOL
REMARK 923 INTER-LIGAND FREE ENERGY PREDICTED BY IDOCK:   -6.10 KCAL/MOL
REMARK 924 INTRA-LIGAND FREE ENERGY PREDICTED BY IDOCK:   -0.63 KCAL/MOL
REMARK 927      BINDING AFFINITY PREDICTED BY RF-SCORE:    0.00 PKD
ROOT
HETATM    1  O   UNL     1     -14.387   8.957  72.803  1.00  0.00    -0.600 OA 
HETATM    2  C   UNL     1     -13.558   8.507  71.833  1.00  0.00    -0.396 C  
HETATM    3  C   UNL     1     -12.532   9.542  71.424  1.00  0.00    -0.450 C  
HETATM    4  O   UNL     1     -13.659   7.386  71.361  1.00  0.00    -0.379 OA 
ENDROOT
BRANCH   3   5
HETATM    5  C   UNL     1     -11.623   9.013  70.316  1.00  0.00    -0.082 C  
BRANCH   5   6
HETATM    6  C   UNL     1     -10.296   9.775  70.236  1.00  0.00    -0.348 C  
BRANCH   6   7
HETATM    7  C   UNL     1     -10.297  10.815  69.139  1.00  0.00    -0.238 A  
HETATM    8  C   UNL     1     -11.496  11.320  68.625  1.00  0.00    -0.362 A  
HETATM    9  C   UNL     1     -11.499  12.248  67.571  1.00  0.00    -0.414 A  
HETATM   10  C   UNL     1     -10.314  12.702  66.986  1.00  0.00    -0.232 A  
HETATM   11  C   UNL     1      -9.118  12.228  67.555  1.00  0.00    -0.182 A  
HETATM   12  C   UNL     1      -9.103  11.300  68.609  1.00  0.00    -0.153 A  
BRANCH  10  13
HETATM   13  N   UNL     1     -10.282  13.563  65.887  1.00  0.00    -0.296 NA 
BRANCH  13  14
HETATM   14  C   UNL     1     -10.469  13.074  64.506  1.00  0.00    -0.392 C  
HETATM   15 CL   UNL     1     -12.631  14.736  64.087  1.00  0.00    -0.210 Cl 
HETATM   16  C   UNL     1     -11.926  13.097  64.039  1.00  0.00    -0.460 C  
ENDBRANCH  13  14
BRANCH  13  17
HETATM   17  C   UNL     1      -9.499  14.812  66.029  1.00  0.00    -0.264 C  
HETATM   18  C   UNL     1     -10.331  16.051  66.386  1.00  0.00    -0.305 C  
HETATM   19 CL   UNL     1     -11.136  15.912  67.972  1.00  0.00    -0.338 Cl 
ENDBRANCH  13  17
ENDBRANCH  10  13
ENDBRANCH   6   7
ENDBRANCH   5   6
ENDBRANCH   3   5
TORSDOF 6
ENDMDL
MODEL       78
REMARK 921   NORMALIZED FREE ENERGY PREDICTED BY IDOCK:   -4.43 KCAL/MOL
REMARK 922        TOTAL FREE ENERGY PREDICTED BY IDOCK:   -6.71 KCAL/MOL
REMARK 923 INTER-LIGAND FREE ENERGY PREDICTED BY IDOCK:   -5.91 KCAL/MOL
REMARK 924 INTRA-LIGAND FREE ENERGY PREDICTED BY IDOCK:   -0.81 KCAL/MOL
REMARK 927      BINDING AFFINITY PREDICTED BY RF-SCORE:    0.00 PKD
ROOT
HETATM    1  O   UNL     1     -10.692   4.987  70.316  1.00  0.00    -0.177 OA 
HETATM    2  C   UNL     1     -10.970   6.064  69.545  1.00  0.00    -0.397 C  
HETATM    3  C   UNL     1     -10.642   5.828  68.086  1.00  0.00    -0.286 C  
HETATM    4  O   UNL     1     -11.429   7.095  70.009  1.00  0.00    -0.241 OA 
ENDROOT
BRANCH   3   5
HETATM    5  C   UNL     1     -10.948   7.066  67.243  1.00  0.00    -0.372 C  
BRANCH   5   6
HETATM    6  C   UNL     1      -9.708   7.937  67.014  1.00  0.00    -0.269 C  
BRANCH   6   7
HETATM    7  C   UNL     1     -10.050   9.407  66.917  1.00  0.00    -0.314 A  
HETATM    8  C   UNL     1     -10.990   9.986  67.776  1.00  0.00    -0.310 A  
HETATM    9  C   UNL     1     -11.348  11.339  67.653  1.00  0.00    -0.352 A  
HETATM   10  C   UNL     1     -10.788  12.162  66.671  1.00  0.00    -0.268 A  
HETATM   11  C   UNL     1      -9.802  11.577  65.857  1.00  0.00    -0.262 A  
HETATM   12  C   UNL     1      -9.439  10.225  65.970  1.00  0.00    -0.234 A  
BRANCH  10  13
HETATM   13  N   UNL     1     -11.176  13.488  66.471  1.00  0.00    -0.301 NA 
BRANCH  13  14
HETATM   14  C   UNL     1     -12.520  13.843  65.972  1.00  0.00    -0.461 C  
HETATM   15 CL   UNL     1     -11.864  13.162  63.380  1.00  0.00    -0.547 Cl 
HETATM   16  C   UNL     1     -12.524  14.357  64.531  1.00  0.00    -0.339 C  
ENDBRANCH  13  14
BRANCH  13  17
HETATM   17  C   UNL     1     -10.104  14.471  66.192  1.00  0.00    -0.305 C  
HETATM   18  C   UNL     1     -10.042  15.647  67.175  1.00  0.00    -0.256 C  
HETATM   19 CL   UNL     1      -9.678  15.136  68.845  1.00  0.00    -0.216 Cl 
ENDBRANCH  13  17
ENDBRANCH  10  13
ENDBRANCH   6   7
ENDBRANCH   5   6
ENDBRANCH   3   5
TORSDOF 6
ENDMDL
MODEL       79
REMARK 921   NORMALIZED FREE ENERGY PREDICTED BY IDOCK:   -4.42 KCAL/MOL
REMARK 922        TOTAL FREE ENERGY PREDICTED BY IDOCK:   -6.70 KCAL/MOL
REMARK 923 INTER-LIGAND FREE ENERGY PREDICTED BY IDOCK:   -5.95 KCAL/MOL
REMARK 924 INTRA-LIGAND FREE ENERGY PREDICTED BY IDOCK:   -0.75 KCAL/MOL
REMARK 927      BINDING AFFINITY PREDICTED BY RF-SCORE:    0.00 PKD
ROOT
HETATM    1  O   UNL     1      -8.356   6.048  69.202  1.00  0.00    -0.112 OA 
HETATM    2  C   UNL     1      -8.448   7.355  69.542  1.00  0.00    -0.133 C  
HETATM    3  C   UNL     1      -9.386   7.583  70.708  1.00  0.00    -0.162 C  
HETATM    4  O   UNL     1      -7.831   8.226  68.950  1.00  0.00    -0.107 OA 
ENDROOT
BRANCH   3   5
HETATM    5  C   UNL     1      -9.484   9.068  71.057  1.00  0.00    -0.342 C  
BRANCH   5   6
HETATM    6  C   UNL     1     -10.920   9.594  70.969  1.00  0.00    -0.431 C  
BRANCH   6   7
HETATM    7  C   UNL     1     -11.141  10.454  69.744  1.00  0.00    -0.352 A  
HETATM    8  C   UNL     1     -10.868   9.966  68.462  1.00  0.00    -0.257 A  
HETATM    9  C   UNL     1     -11.023  10.781  67.329  1.00  0.00    -0.359 A  
HETATM   10  C   UNL     1     -11.450  12.108  67.428  1.00  0.00    -0.345 A  
HETATM   11  C   UNL     1     -11.776  12.561  68.719  1.00  0.00    -0.371 A  
HETATM   12  C   UNL     1     -11.623  11.756  69.859  1.00  0.00    -0.351 A  
BRANCH  10  13
HETATM   13  N   UNL     1     -11.541  12.968  66.332  1.00  0.00    -0.345 NA 
BRANCH  13  14
HETATM   14  C   UNL     1     -12.443  12.694  65.196  1.00  0.00    -0.463 C  
HETATM   15 CL   UNL     1     -10.598  11.044  63.978  1.00  0.00    -0.437 Cl 
HETATM   16  C   UNL     1     -11.710  12.436  63.877  1.00  0.00    -0.447 C  
ENDBRANCH  13  14
BRANCH  13  17
HETATM   17  C   UNL     1     -10.356  13.803  66.027  1.00  0.00    -0.308 C  
HETATM   18  C   UNL     1     -10.604  15.315  66.096  1.00  0.00    -0.313 C  
HETATM   19 CL   UNL     1     -11.062  15.869  67.729  1.00  0.00    -0.315 Cl 
ENDBRANCH  13  17
ENDBRANCH  10  13
ENDBRANCH   6   7
ENDBRANCH   5   6
ENDBRANCH   3   5
TORSDOF 6
ENDMDL
MODEL       80
REMARK 921   NORMALIZED FREE ENERGY PREDICTED BY IDOCK:   -4.42 KCAL/MOL
REMARK 922        TOTAL FREE ENERGY PREDICTED BY IDOCK:   -6.69 KCAL/MOL
REMARK 923 INTER-LIGAND FREE ENERGY PREDICTED BY IDOCK:   -5.89 KCAL/MOL
REMARK 924 INTRA-LIGAND FREE ENERGY PREDICTED BY IDOCK:   -0.80 KCAL/MOL
REMARK 927      BINDING AFFINITY PREDICTED BY RF-SCORE:    0.00 PKD
ROOT
HETATM    1  O   UNL     1     -11.053   5.605  69.754  1.00  0.00    -0.328 OA 
HETATM    2  C   UNL     1     -10.428   6.703  70.239  1.00  0.00    -0.209 C  
HETATM    3  C   UNL     1     -10.106   7.709  69.155  1.00  0.00    -0.194 C  
HETATM    4  O   UNL     1     -10.166   6.832  71.424  1.00  0.00    -0.197 OA 
ENDROOT
BRANCH   3   5
HETATM    5  C   UNL     1      -9.386   8.929  69.727  1.00  0.00    -0.169 C  
BRANCH   5   6
HETATM    6  C   UNL     1     -10.359  10.027  70.170  1.00  0.00    -0.321 C  
BRANCH   6   7
HETATM    7  C   UNL     1     -10.619  11.038  69.075  1.00  0.00    -0.258 A  
HETATM    8  C   UNL     1     -11.749  11.861  69.107  1.00  0.00    -0.380 A  
HETATM    9  C   UNL     1     -12.018  12.763  68.065  1.00  0.00    -0.315 A  
HETATM   10  C   UNL     1     -11.178  12.876  66.954  1.00  0.00    -0.291 A  
HETATM   11  C   UNL     1     -10.016  12.084  66.968  1.00  0.00    -0.218 A  
HETATM   12  C   UNL     1      -9.738  11.178  68.004  1.00  0.00    -0.183 A  
BRANCH  10  13
HETATM   13  N   UNL     1     -11.456  13.705  65.864  1.00  0.00    -0.310 NA 
BRANCH  13  14
HETATM   14  C   UNL     1     -12.552  13.413  64.919  1.00  0.00    -0.360 C  
HETATM   15 CL   UNL     1     -11.069  11.489  63.611  1.00  0.00    -0.485 Cl 
HETATM   16  C   UNL     1     -12.070  12.966  63.538  1.00  0.00    -0.555 C  
ENDBRANCH  13  14
BRANCH  13  17
HETATM   17  C   UNL     1     -10.335  14.509  65.324  1.00  0.00    -0.410 C  
HETATM   18  C   UNL     1     -10.462  16.020  65.556  1.00  0.00    -0.405 C  
HETATM   19 CL   UNL     1     -10.460  16.459  67.285  1.00  0.00    -0.303 Cl 
ENDBRANCH  13  17
ENDBRANCH  10  13
ENDBRANCH   6   7
ENDBRANCH   5   6
ENDBRANCH   3   5
TORSDOF 6
ENDMDL
MODEL       81
REMARK 921   NORMALIZED FREE ENERGY PREDICTED BY IDOCK:   -4.42 KCAL/MOL
REMARK 922        TOTAL FREE ENERGY PREDICTED BY IDOCK:   -6.69 KCAL/MOL
REMARK 923 INTER-LIGAND FREE ENERGY PREDICTED BY IDOCK:   -6.42 KCAL/MOL
REMARK 924 INTRA-LIGAND FREE ENERGY PREDICTED BY IDOCK:   -0.27 KCAL/MOL
REMARK 927      BINDING AFFINITY PREDICTED BY RF-SCORE:    0.00 PKD
ROOT
HETATM    1  O   UNL     1     -13.263  12.103  63.744  1.00  0.00    -0.763 OA 
HETATM    2  C   UNL     1     -12.003  12.381  64.153  1.00  0.00    -0.435 C  
HETATM    3  C   UNL     1     -11.879  12.408  65.661  1.00  0.00    -0.468 C  
HETATM    4  O   UNL     1     -11.094  12.586  63.365  1.00  0.00    -0.459 OA 
ENDROOT
BRANCH   3   5
HETATM    5  C   UNL     1     -10.452  12.743  66.093  1.00  0.00    -0.284 C  
BRANCH   5   6
HETATM    6  C   UNL     1      -9.593  11.489  66.291  1.00  0.00    -0.239 C  
BRANCH   6   7
HETATM    7  C   UNL     1     -10.096  10.623  67.423  1.00  0.00    -0.231 A  
HETATM    8  C   UNL     1     -10.372  11.168  68.681  1.00  0.00    -0.219 A  
HETATM    9  C   UNL     1     -10.789  10.355  69.747  1.00  0.00    -0.342 A  
HETATM   10  C   UNL     1     -10.942   8.973  69.604  1.00  0.00    -0.136 A  
HETATM   11  C   UNL     1     -10.716   8.452  68.318  1.00  0.00    -0.084 A  
HETATM   12  C   UNL     1     -10.297   9.255  67.245  1.00  0.00    -0.332 A  
BRANCH  10  13
HETATM   13  N   UNL     1     -11.279   8.126  70.662  1.00  0.00    -0.263 NA 
BRANCH  13  14
HETATM   14  C   UNL     1     -11.650   6.713  70.443  1.00  0.00    -0.398 C  
HETATM   15 CL   UNL     1      -9.907   5.834  72.394  1.00  0.00    -0.182 Cl 
HETATM   16  C   UNL     1     -10.509   5.730  70.716  1.00  0.00    -0.258 C  
ENDBRANCH  13  14
BRANCH  13  17
HETATM   17  C   UNL     1     -11.830   8.756  71.884  1.00  0.00    -0.367 C  
HETATM   18  C   UNL     1     -13.296   9.195  71.772  1.00  0.00    -0.406 C  
HETATM   19 CL   UNL     1     -14.410   7.827  71.501  1.00  0.00    -0.557 Cl 
ENDBRANCH  13  17
ENDBRANCH  10  13
ENDBRANCH   6   7
ENDBRANCH   5   6
ENDBRANCH   3   5
TORSDOF 6
ENDMDL
MODEL       82
REMARK 921   NORMALIZED FREE ENERGY PREDICTED BY IDOCK:   -4.40 KCAL/MOL
REMARK 922        TOTAL FREE ENERGY PREDICTED BY IDOCK:   -6.67 KCAL/MOL
REMARK 923 INTER-LIGAND FREE ENERGY PREDICTED BY IDOCK:   -6.53 KCAL/MOL
REMARK 924 INTRA-LIGAND FREE ENERGY PREDICTED BY IDOCK:   -0.15 KCAL/MOL
REMARK 927      BINDING AFFINITY PREDICTED BY RF-SCORE:    0.00 PKD
ROOT
HETATM    1  O   UNL     1     -14.314   7.192  71.703  1.00  0.00    -0.417 OA 
HETATM    2  C   UNL     1     -13.327   8.101  71.876  1.00  0.00    -0.324 C  
HETATM    3  C   UNL     1     -13.699   9.466  71.339  1.00  0.00    -0.309 C  
HETATM    4  O   UNL     1     -12.265   7.815  72.405  1.00  0.00    -0.282 OA 
ENDROOT
BRANCH   3   5
HETATM    5  C   UNL     1     -12.560  10.467  71.531  1.00  0.00    -0.544 C  
BRANCH   5   6
HETATM    6  C   UNL     1     -13.060  11.914  71.600  1.00  0.00    -0.433 C  
BRANCH   6   7
HETATM    7  C   UNL     1     -12.423  12.791  70.545  1.00  0.00    -0.280 A  
HETATM    8  C   UNL     1     -12.516  14.185  70.614  1.00  0.00    -0.432 A  
HETATM    9  C   UNL     1     -11.971  14.998  69.608  1.00  0.00    -0.356 A  
HETATM   10  C   UNL     1     -11.319  14.457  68.496  1.00  0.00    -0.282 A  
HETATM   11  C   UNL     1     -11.184  13.057  68.474  1.00  0.00    -0.309 A  
HETATM   12  C   UNL     1     -11.727  12.235  69.475  1.00  0.00    -0.398 A  
BRANCH  10  13
HETATM   13  N   UNL     1     -10.833  15.231  67.440  1.00  0.00    -0.298 NA 
BRANCH  13  14
HETATM   14  C   UNL     1      -9.944  14.669  66.403  1.00  0.00    -0.283 C  
HETATM   15 CL   UNL     1     -11.374  15.862  64.367  1.00  0.00    -0.383 Cl 
HETATM   16  C   UNL     1     -10.650  14.391  65.075  1.00  0.00    -0.432 C  
ENDBRANCH  13  14
BRANCH  13  17
HETATM   17  C   UNL     1     -10.716  16.690  67.670  1.00  0.00    -0.306 C  
HETATM   18  C   UNL     1      -9.464  17.116  68.447  1.00  0.00    -0.276 C  
HETATM   19 CL   UNL     1      -7.949  16.733  67.585  1.00  0.00    -0.183 Cl 
ENDBRANCH  13  17
ENDBRANCH  10  13
ENDBRANCH   6   7
ENDBRANCH   5   6
ENDBRANCH   3   5
TORSDOF 6
ENDMDL
MODEL       83
REMARK 921   NORMALIZED FREE ENERGY PREDICTED BY IDOCK:   -4.40 KCAL/MOL
REMARK 922        TOTAL FREE ENERGY PREDICTED BY IDOCK:   -6.67 KCAL/MOL
REMARK 923 INTER-LIGAND FREE ENERGY PREDICTED BY IDOCK:   -5.97 KCAL/MOL
REMARK 924 INTRA-LIGAND FREE ENERGY PREDICTED BY IDOCK:   -0.70 KCAL/MOL
REMARK 927      BINDING AFFINITY PREDICTED BY RF-SCORE:    0.00 PKD
ROOT
HETATM    1  O   UNL     1     -12.134  16.272  71.726  1.00  0.00    -0.462 OA 
HETATM    2  C   UNL     1     -12.458  15.345  70.795  1.00  0.00    -0.423 C  
HETATM    3  C   UNL     1     -11.592  15.443  69.558  1.00  0.00    -0.346 C  
HETATM    4  O   UNL     1     -13.356  14.537  70.966  1.00  0.00    -0.369 OA 
ENDROOT
BRANCH   3   5
HETATM    5  C   UNL     1     -11.991  14.398  68.517  1.00  0.00    -0.333 C  
BRANCH   5   6
HETATM    6  C   UNL     1     -10.794  13.577  68.025  1.00  0.00    -0.266 C  
BRANCH   6   7
HETATM    7  C   UNL     1     -10.715  12.222  68.692  1.00  0.00    -0.261 A  
HETATM    8  C   UNL     1     -11.773  11.737  69.467  1.00  0.00    -0.408 A  
HETATM    9  C   UNL     1     -11.679  10.502  70.129  1.00  0.00    -0.410 A  
HETATM   10  C   UNL     1     -10.531   9.709  70.050  1.00  0.00    -0.261 A  
HETATM   11  C   UNL     1      -9.502  10.186  69.218  1.00  0.00    -0.231 A  
HETATM   12  C   UNL     1      -9.584  11.419  68.553  1.00  0.00    -0.190 A  
BRANCH  10  13
HETATM   13  N   UNL     1     -10.374   8.514  70.756  1.00  0.00    -0.193 NA 
BRANCH  13  14
HETATM   14  C   UNL     1     -10.639   8.424  72.206  1.00  0.00    -0.342 C  
HETATM   15 CL   UNL     1     -12.908   6.902  71.815  1.00  0.00    -0.390 Cl 
HETATM   16  C   UNL     1     -12.126   8.328  72.554  1.00  0.00    -0.337 C  
ENDBRANCH  13  14
BRANCH  13  17
HETATM   17  C   UNL     1      -9.411   7.530  70.214  1.00  0.00    -0.161 C  
HETATM   18  C   UNL     1     -10.015   6.159  69.882  1.00  0.00    -0.172 C  
HETATM   19 CL   UNL     1     -11.254   6.240  68.601  1.00  0.00    -0.413 Cl 
ENDBRANCH  13  17
ENDBRANCH  10  13
ENDBRANCH   6   7
ENDBRANCH   5   6
ENDBRANCH   3   5
TORSDOF 6
ENDMDL
MODEL       84
REMARK 921   NORMALIZED FREE ENERGY PREDICTED BY IDOCK:   -4.39 KCAL/MOL
REMARK 922        TOTAL FREE ENERGY PREDICTED BY IDOCK:   -6.66 KCAL/MOL
REMARK 923 INTER-LIGAND FREE ENERGY PREDICTED BY IDOCK:   -6.15 KCAL/MOL
REMARK 924 INTRA-LIGAND FREE ENERGY PREDICTED BY IDOCK:   -0.52 KCAL/MOL
REMARK 927      BINDING AFFINITY PREDICTED BY RF-SCORE:    0.00 PKD
ROOT
HETATM    1  O   UNL     1     -14.391   7.183  71.698  1.00  0.00    -0.417 OA 
HETATM    2  C   UNL     1     -13.086   7.525  71.598  1.00  0.00    -0.358 C  
HETATM    3  C   UNL     1     -12.880   9.025  71.610  1.00  0.00    -0.419 C  
HETATM    4  O   UNL     1     -12.200   6.691  71.506  1.00  0.00    -0.344 OA 
ENDROOT
BRANCH   3   5
HETATM    5  C   UNL     1     -11.401   9.382  71.477  1.00  0.00    -0.464 C  
BRANCH   5   6
HETATM    6  C   UNL     1     -10.893   9.240  70.037  1.00  0.00    -0.264 C  
BRANCH   6   7
HETATM    7  C   UNL     1     -10.879  10.561  69.302  1.00  0.00    -0.284 A  
HETATM    8  C   UNL     1      -9.702  11.057  68.732  1.00  0.00    -0.199 A  
HETATM    9  C   UNL     1      -9.676  12.308  68.095  1.00  0.00    -0.213 A  
HETATM   10  C   UNL     1     -10.816  13.111  68.004  1.00  0.00    -0.242 A  
HETATM   11  C   UNL     1     -12.003  12.570  68.530  1.00  0.00    -0.266 A  
HETATM   12  C   UNL     1     -12.039  11.321  69.171  1.00  0.00    -0.348 A  
BRANCH  10  13
HETATM   13  N   UNL     1     -10.809  14.392  67.446  1.00  0.00    -0.287 NA 
BRANCH  13  14
HETATM   14  C   UNL     1     -10.017  14.715  66.242  1.00  0.00    -0.290 C  
HETATM   15 CL   UNL     1     -12.177  14.321  64.572  1.00  0.00    -0.479 Cl 
HETATM   16  C   UNL     1     -10.475  13.971  64.986  1.00  0.00    -0.420 C  
ENDBRANCH  13  14
BRANCH  13  17
HETATM   17  C   UNL     1     -11.097  15.526  68.353  1.00  0.00    -0.315 C  
HETATM   18  C   UNL     1     -10.243  15.558  69.627  1.00  0.00    -0.286 C  
HETATM   19 CL   UNL     1      -8.503  15.759  69.291  1.00  0.00    -0.252 Cl 
ENDBRANCH  13  17
ENDBRANCH  10  13
ENDBRANCH   6   7
ENDBRANCH   5   6
ENDBRANCH   3   5
TORSDOF 6
ENDMDL
MODEL       85
REMARK 921   NORMALIZED FREE ENERGY PREDICTED BY IDOCK:   -4.38 KCAL/MOL
REMARK 922        TOTAL FREE ENERGY PREDICTED BY IDOCK:   -6.64 KCAL/MOL
REMARK 923 INTER-LIGAND FREE ENERGY PREDICTED BY IDOCK:   -6.12 KCAL/MOL
REMARK 924 INTRA-LIGAND FREE ENERGY PREDICTED BY IDOCK:   -0.52 KCAL/MOL
REMARK 927      BINDING AFFINITY PREDICTED BY RF-SCORE:    0.00 PKD
ROOT
HETATM    1  O   UNL     1     -10.619   8.503  72.195  1.00  0.00    -0.304 OA 
HETATM    2  C   UNL     1     -10.819   9.487  71.288  1.00  0.00    -0.343 C  
HETATM    3  C   UNL     1     -12.179  10.136  71.432  1.00  0.00    -0.492 C  
HETATM    4  O   UNL     1      -9.976   9.788  70.459  1.00  0.00    -0.265 OA 
ENDROOT
BRANCH   3   5
HETATM    5  C   UNL     1     -12.384  11.230  70.384  1.00  0.00    -0.415 C  
BRANCH   5   6
HETATM    6  C   UNL     1     -12.560  12.616  71.014  1.00  0.00    -0.354 C  
BRANCH   6   7
HETATM    7  C   UNL     1     -12.000  13.717  70.141  1.00  0.00    -0.407 A  
HETATM    8  C   UNL     1     -11.444  13.433  68.890  1.00  0.00    -0.347 A  
HETATM    9  C   UNL     1     -10.877  14.447  68.102  1.00  0.00    -0.251 A  
HETATM   10  C   UNL     1     -10.839  15.777  68.529  1.00  0.00    -0.290 A  
HETATM   11  C   UNL     1     -11.456  16.052  69.763  1.00  0.00    -0.318 A  
HETATM   12  C   UNL     1     -12.024  15.046  70.560  1.00  0.00    -0.358 A  
BRANCH  10  13
HETATM   13  N   UNL     1     -10.215  16.797  67.807  1.00  0.00    -0.292 NA 
BRANCH  13  14
HETATM   14  C   UNL     1      -8.929  16.588  67.112  1.00  0.00    -0.205 C  
HETATM   15 CL   UNL     1      -7.644  15.894  69.453  1.00  0.00    -0.230 Cl 
HETATM   16  C   UNL     1      -7.706  16.898  67.977  1.00  0.00    -0.177 C  
ENDBRANCH  13  14
BRANCH  13  17
HETATM   17  C   UNL     1     -10.511  18.190  68.211  1.00  0.00    -0.317 C  
HETATM   18  C   UNL     1     -10.030  19.259  67.221  1.00  0.00    -0.363 C  
HETATM   19 CL   UNL     1     -10.826  19.137  65.629  1.00  0.00    -0.395 Cl 
ENDBRANCH  13  17
ENDBRANCH  10  13
ENDBRANCH   6   7
ENDBRANCH   5   6
ENDBRANCH   3   5
TORSDOF 6
ENDMDL
MODEL       86
REMARK 921   NORMALIZED FREE ENERGY PREDICTED BY IDOCK:   -4.37 KCAL/MOL
REMARK 922        TOTAL FREE ENERGY PREDICTED BY IDOCK:   -6.63 KCAL/MOL
REMARK 923 INTER-LIGAND FREE ENERGY PREDICTED BY IDOCK:   -5.85 KCAL/MOL
REMARK 924 INTRA-LIGAND FREE ENERGY PREDICTED BY IDOCK:   -0.78 KCAL/MOL
REMARK 927      BINDING AFFINITY PREDICTED BY RF-SCORE:    0.00 PKD
ROOT
HETATM    1  O   UNL     1     -13.433   9.333  72.419  1.00  0.00    -0.451 OA 
HETATM    2  C   UNL     1     -12.430   8.695  71.773  1.00  0.00    -0.346 C  
HETATM    3  C   UNL     1     -11.376   9.650  71.257  1.00  0.00    -0.458 C  
HETATM    4  O   UNL     1     -12.413   7.482  71.637  1.00  0.00    -0.316 OA 
ENDROOT
BRANCH   3   5
HETATM    5  C   UNL     1     -10.267   8.904  70.516  1.00  0.00    -0.247 C  
BRANCH   5   6
HETATM    6  C   UNL     1     -10.482   8.894  68.999  1.00  0.00    -0.231 C  
BRANCH   6   7
HETATM    7  C   UNL     1     -10.448  10.285  68.407  1.00  0.00    -0.228 A  
HETATM    8  C   UNL     1      -9.252  11.006  68.327  1.00  0.00    -0.165 A  
HETATM    9  C   UNL     1      -9.229  12.317  67.825  1.00  0.00    -0.191 A  
HETATM   10  C   UNL     1     -10.391  12.960  67.390  1.00  0.00    -0.233 A  
HETATM   11  C   UNL     1     -11.573  12.199  67.423  1.00  0.00    -0.410 A  
HETATM   12  C   UNL     1     -11.608  10.888  67.924  1.00  0.00    -0.270 A  
BRANCH  10  13
HETATM   13  N   UNL     1     -10.416  14.288  66.958  1.00  0.00    -0.270 NA 
BRANCH  13  14
HETATM   14  C   UNL     1     -11.393  15.263  67.485  1.00  0.00    -0.297 C  
HETATM   15 CL   UNL     1      -9.766  15.917  69.615  1.00  0.00    -0.253 Cl 
HETATM   16  C   UNL     1     -11.363  15.399  69.009  1.00  0.00    -0.316 C  
ENDBRANCH  13  14
BRANCH  13  17
HETATM   17  C   UNL     1      -9.894  14.568  65.601  1.00  0.00    -0.305 C  
HETATM   18  C   UNL     1     -10.506  13.706  64.489  1.00  0.00    -0.390 C  
HETATM   19 CL   UNL     1     -12.260  13.969  64.295  1.00  0.00    -0.472 Cl 
ENDBRANCH  13  17
ENDBRANCH  10  13
ENDBRANCH   6   7
ENDBRANCH   5   6
ENDBRANCH   3   5
TORSDOF 6
ENDMDL
MODEL       87
REMARK 921   NORMALIZED FREE ENERGY PREDICTED BY IDOCK:   -4.36 KCAL/MOL
REMARK 922        TOTAL FREE ENERGY PREDICTED BY IDOCK:   -6.61 KCAL/MOL
REMARK 923 INTER-LIGAND FREE ENERGY PREDICTED BY IDOCK:   -6.15 KCAL/MOL
REMARK 924 INTRA-LIGAND FREE ENERGY PREDICTED BY IDOCK:   -0.46 KCAL/MOL
REMARK 927      BINDING AFFINITY PREDICTED BY RF-SCORE:    0.00 PKD
ROOT
HETATM    1  O   UNL     1     -10.117  17.088  65.668  1.00  0.00    -0.554 OA 
HETATM    2  C   UNL     1     -10.873  16.247  64.925  1.00  0.00    -0.296 C  
HETATM    3  C   UNL     1     -11.075  14.906  65.597  1.00  0.00    -0.348 C  
HETATM    4  O   UNL     1     -11.323  16.567  63.836  1.00  0.00    -1.057 OA 
ENDROOT
BRANCH   3   5
HETATM    5  C   UNL     1     -11.915  13.972  64.728  1.00  0.00    -0.432 C  
BRANCH   5   6
HETATM    6  C   UNL     1     -11.085  12.836  64.119  1.00  0.00    -0.432 C  
BRANCH   6   7
HETATM    7  C   UNL     1     -10.865  11.701  65.093  1.00  0.00    -0.346 A  
HETATM    8  C   UNL     1     -11.403  11.743  66.383  1.00  0.00    -0.361 A  
HETATM    9  C   UNL     1     -11.156  10.714  67.306  1.00  0.00    -0.313 A  
HETATM   10  C   UNL     1     -10.362   9.610  66.982  1.00  0.00    -0.248 A  
HETATM   11  C   UNL     1      -9.879   9.556  65.662  1.00  0.00    -0.343 A  
HETATM   12  C   UNL     1     -10.120  10.581  64.732  1.00  0.00    -0.406 A  
BRANCH  10  13
HETATM   13  N   UNL     1     -10.032   8.608  67.897  1.00  0.00    -0.178 NA 
BRANCH  13  14
HETATM   14  C   UNL     1     -10.628   7.258  67.827  1.00  0.00    -0.221 C  
HETATM   15 CL   UNL     1      -8.195   6.089  67.252  1.00  0.00    -0.106 Cl 
HETATM   16  C   UNL     1      -9.917   6.325  66.844  1.00  0.00    -0.169 C  
ENDBRANCH  13  14
BRANCH  13  17
HETATM   17  C   UNL     1      -9.572   9.041  69.237  1.00  0.00    -0.162 C  
HETATM   18  C   UNL     1      -8.140   8.618  69.588  1.00  0.00    -0.112 C  
HETATM   19 CL   UNL     1      -6.919   9.336  68.504  1.00  0.00    -0.066 Cl 
ENDBRANCH  13  17
ENDBRANCH  10  13
ENDBRANCH   6   7
ENDBRANCH   5   6
ENDBRANCH   3   5
TORSDOF 6
ENDMDL
MODEL       88
REMARK 921   NORMALIZED FREE ENERGY PREDICTED BY IDOCK:   -4.35 KCAL/MOL
REMARK 922        TOTAL FREE ENERGY PREDICTED BY IDOCK:   -6.60 KCAL/MOL
REMARK 923 INTER-LIGAND FREE ENERGY PREDICTED BY IDOCK:   -5.81 KCAL/MOL
REMARK 924 INTRA-LIGAND FREE ENERGY PREDICTED BY IDOCK:   -0.79 KCAL/MOL
REMARK 927      BINDING AFFINITY PREDICTED BY RF-SCORE:    0.00 PKD
ROOT
HETATM    1  O   UNL     1     -12.291  15.976  73.650  1.00  0.00    -0.475 OA 
HETATM    2  C   UNL     1     -12.828  15.211  72.672  1.00  0.00    -0.386 C  
HETATM    3  C   UNL     1     -12.270  15.547  71.305  1.00  0.00    -0.447 C  
HETATM    4  O   UNL     1     -13.668  14.356  72.901  1.00  0.00    -0.598 OA 
ENDROOT
BRANCH   3   5
HETATM    5  C   UNL     1     -12.907  14.682  70.219  1.00  0.00    -0.254 C  
BRANCH   5   6
HETATM    6  C   UNL     1     -11.892  14.235  69.160  1.00  0.00    -0.368 C  
BRANCH   6   7
HETATM    7  C   UNL     1     -11.418  12.816  69.383  1.00  0.00    -0.321 A  
HETATM    8  C   UNL     1     -12.046  11.984  70.316  1.00  0.00    -0.395 A  
HETATM    9  C   UNL     1     -11.574  10.685  70.562  1.00  0.00    -0.444 A  
HETATM   10  C   UNL     1     -10.461  10.168  69.894  1.00  0.00    -0.275 A  
HETATM   11  C   UNL     1      -9.879  10.997  68.918  1.00  0.00    -0.189 A  
HETATM   12  C   UNL     1     -10.342  12.298  68.666  1.00  0.00    -0.204 A  
BRANCH  10  13
HETATM   13  N   UNL     1      -9.918   8.910  70.169  1.00  0.00    -0.179 NA 
BRANCH  13  14
HETATM   14  C   UNL     1      -8.479   8.626  69.998  1.00  0.00    -0.130 C  
HETATM   15 CL   UNL     1      -8.794   8.045  67.319  1.00  0.00    -0.131 Cl 
HETATM   16  C   UNL     1      -8.185   7.571  68.929  1.00  0.00    -0.128 C  
ENDBRANCH  13  14
BRANCH  13  17
HETATM   17  C   UNL     1     -10.824   7.744  70.058  1.00  0.00    -0.241 C  
HETATM   18  C   UNL     1     -10.933   6.895  71.331  1.00  0.00    -0.240 C  
HETATM   19 CL   UNL     1     -11.622   7.796  72.708  1.00  0.00    -0.400 Cl 
ENDBRANCH  13  17
ENDBRANCH  10  13
ENDBRANCH   6   7
ENDBRANCH   5   6
ENDBRANCH   3   5
TORSDOF 6
ENDMDL
MODEL       89
REMARK 921   NORMALIZED FREE ENERGY PREDICTED BY IDOCK:   -4.30 KCAL/MOL
REMARK 922        TOTAL FREE ENERGY PREDICTED BY IDOCK:   -6.53 KCAL/MOL
REMARK 923 INTER-LIGAND FREE ENERGY PREDICTED BY IDOCK:   -5.91 KCAL/MOL
REMARK 924 INTRA-LIGAND FREE ENERGY PREDICTED BY IDOCK:   -0.62 KCAL/MOL
REMARK 927      BINDING AFFINITY PREDICTED BY RF-SCORE:    0.00 PKD
ROOT
HETATM    1  O   UNL     1     -10.041   4.233  70.071  1.00  0.00    -0.196 OA 
HETATM    2  C   UNL     1     -10.427   5.519  69.901  1.00  0.00    -0.316 C  
HETATM    3  C   UNL     1      -9.587   6.242  68.870  1.00  0.00    -0.135 C  
HETATM    4  O   UNL     1     -11.352   6.009  70.528  1.00  0.00    -0.323 OA 
ENDROOT
BRANCH   3   5
HETATM    5  C   UNL     1     -10.033   7.695  68.712  1.00  0.00    -0.178 C  
BRANCH   5   6
HETATM    6  C   UNL     1     -10.388   8.042  67.262  1.00  0.00    -0.371 C  
BRANCH   6   7
HETATM    7  C   UNL     1     -10.433   9.535  67.025  1.00  0.00    -0.302 A  
HETATM    8  C   UNL     1     -11.106  10.385  67.908  1.00  0.00    -0.363 A  
HETATM    9  C   UNL     1     -11.192  11.765  67.661  1.00  0.00    -0.345 A  
HETATM   10  C   UNL     1     -10.619  12.348  66.527  1.00  0.00    -0.235 A  
HETATM   11  C   UNL     1      -9.897  11.486  65.682  1.00  0.00    -0.269 A  
HETATM   12  C   UNL     1      -9.805  10.105  65.919  1.00  0.00    -0.308 A  
BRANCH  10  13
HETATM   13  N   UNL     1     -10.752  13.701  66.211  1.00  0.00    -0.283 NA 
BRANCH  13  14
HETATM   14  C   UNL     1      -9.833  14.724  66.751  1.00  0.00    -0.255 C  
HETATM   15 CL   UNL     1     -11.358  15.060  69.025  1.00  0.00    -0.285 Cl 
HETATM   16  C   UNL     1     -10.527  15.777  67.617  1.00  0.00    -0.282 C  
ENDBRANCH  13  14
BRANCH  13  17
HETATM   17  C   UNL     1     -12.103  14.180  65.840  1.00  0.00    -0.426 C  
HETATM   18  C   UNL     1     -12.309  14.415  64.338  1.00  0.00    -0.403 C  
HETATM   19 CL   UNL     1     -12.145  12.923  63.374  1.00  0.00    -0.632 Cl 
ENDBRANCH  13  17
ENDBRANCH  10  13
ENDBRANCH   6   7
ENDBRANCH   5   6
ENDBRANCH   3   5
TORSDOF 6
ENDMDL
MODEL       90
REMARK 921   NORMALIZED FREE ENERGY PREDICTED BY IDOCK:   -4.29 KCAL/MOL
REMARK 922        TOTAL FREE ENERGY PREDICTED BY IDOCK:   -6.52 KCAL/MOL
REMARK 923 INTER-LIGAND FREE ENERGY PREDICTED BY IDOCK:   -5.77 KCAL/MOL
REMARK 924 INTRA-LIGAND FREE ENERGY PREDICTED BY IDOCK:   -0.75 KCAL/MOL
REMARK 927      BINDING AFFINITY PREDICTED BY RF-SCORE:    0.00 PKD
ROOT
HETATM    1  O   UNL     1     -11.484  16.061  71.082  1.00  0.00    -0.396 OA 
HETATM    2  C   UNL     1     -10.883  15.696  69.926  1.00  0.00    -0.318 C  
HETATM    3  C   UNL     1     -11.837  15.706  68.751  1.00  0.00    -0.336 C  
HETATM    4  O   UNL     1      -9.701  15.394  69.875  1.00  0.00    -0.267 OA 
ENDROOT
BRANCH   3   5
HETATM    5  C   UNL     1     -11.136  15.271  67.465  1.00  0.00    -0.324 C  
BRANCH   5   6
HETATM    6  C   UNL     1     -11.873  14.131  66.755  1.00  0.00    -0.449 C  
BRANCH   6   7
HETATM    7  C   UNL     1     -11.381  12.770  67.193  1.00  0.00    -0.365 A  
HETATM    8  C   UNL     1     -10.401  12.089  66.464  1.00  0.00    -0.240 A  
HETATM    9  C   UNL     1      -9.981  10.802  66.840  1.00  0.00    -0.240 A  
HETATM   10  C   UNL     1     -10.522  10.146  67.949  1.00  0.00    -0.222 A  
HETATM   11  C   UNL     1     -11.463  10.871  68.703  1.00  0.00    -0.380 A  
HETATM   12  C   UNL     1     -11.891  12.156  68.335  1.00  0.00    -0.360 A  
BRANCH  10  13
HETATM   13  N   UNL     1     -10.185   8.839  68.306  1.00  0.00    -0.196 NA 
BRANCH  13  14
HETATM   14  C   UNL     1      -8.942   8.526  69.041  1.00  0.00    -0.146 C  
HETATM   15 CL   UNL     1     -10.111   9.069  71.481  1.00  0.00    -0.399 Cl 
HETATM   16  C   UNL     1      -8.771   9.333  70.330  1.00  0.00    -0.219 C  
ENDBRANCH  13  14
BRANCH  13  17
HETATM   17  C   UNL     1     -10.732   7.747  67.470  1.00  0.00    -0.195 C  
HETATM   18  C   UNL     1     -10.600   6.345  68.080  1.00  0.00    -0.254 C  
HETATM   19 CL   UNL     1     -11.510   6.164  69.604  1.00  0.00    -0.461 Cl 
ENDBRANCH  13  17
ENDBRANCH  10  13
ENDBRANCH   6   7
ENDBRANCH   5   6
ENDBRANCH   3   5
TORSDOF 6
ENDMDL
MODEL       91
REMARK 921   NORMALIZED FREE ENERGY PREDICTED BY IDOCK:   -4.27 KCAL/MOL
REMARK 922        TOTAL FREE ENERGY PREDICTED BY IDOCK:   -6.50 KCAL/MOL
REMARK 923 INTER-LIGAND FREE ENERGY PREDICTED BY IDOCK:   -5.56 KCAL/MOL
REMARK 924 INTRA-LIGAND FREE ENERGY PREDICTED BY IDOCK:   -0.94 KCAL/MOL
REMARK 927      BINDING AFFINITY PREDICTED BY RF-SCORE:    0.00 PKD
ROOT
HETATM    1  O   UNL     1     -11.446  12.174  63.407  1.00  0.00    -0.427 OA 
HETATM    2  C   UNL     1     -12.137  12.799  64.388  1.00  0.00    -0.416 C  
HETATM    3  C   UNL     1     -11.273  13.754  65.183  1.00  0.00    -0.320 C  
HETATM    4  O   UNL     1     -13.323  12.588  64.584  1.00  0.00    -0.804 OA 
ENDROOT
BRANCH   3   5
HETATM    5  C   UNL     1     -12.074  14.430  66.295  1.00  0.00    -0.384 C  
BRANCH   5   6
HETATM    6  C   UNL     1     -11.362  14.363  67.651  1.00  0.00    -0.348 C  
BRANCH   6   7
HETATM    7  C   UNL     1     -10.941  12.955  68.008  1.00  0.00    -0.271 A  
HETATM    8  C   UNL     1     -11.886  11.935  68.157  1.00  0.00    -0.338 A  
HETATM    9  C   UNL     1     -11.501  10.640  68.539  1.00  0.00    -0.333 A  
HETATM   10  C   UNL     1     -10.165  10.313  68.791  1.00  0.00    -0.192 A  
HETATM   11  C   UNL     1      -9.224  11.336  68.578  1.00  0.00    -0.181 A  
HETATM   12  C   UNL     1      -9.598  12.635  68.197  1.00  0.00    -0.219 A  
BRANCH  10  13
HETATM   13  N   UNL     1      -9.756   9.058  69.247  1.00  0.00    -0.165 NA 
BRANCH  13  14
HETATM   14  C   UNL     1      -8.383   8.558  69.032  1.00  0.00    -0.118 C  
HETATM   15 CL   UNL     1      -8.866   8.035  66.367  1.00  0.00    -0.168 Cl 
HETATM   16  C   UNL     1      -8.286   7.472  67.959  1.00  0.00    -0.124 C  
ENDBRANCH  13  14
BRANCH  13  17
HETATM   17  C   UNL     1     -10.803   8.022  69.405  1.00  0.00    -0.094 C  
HETATM   18  C   UNL     1     -10.829   7.344  70.781  1.00  0.00    -0.241 C  
HETATM   19 CL   UNL     1     -11.200   8.480  72.106  1.00  0.00    -0.412 Cl 
ENDBRANCH  13  17
ENDBRANCH  10  13
ENDBRANCH   6   7
ENDBRANCH   5   6
ENDBRANCH   3   5
TORSDOF 6
ENDMDL
MODEL       92
REMARK 921   NORMALIZED FREE ENERGY PREDICTED BY IDOCK:   -4.27 KCAL/MOL
REMARK 922        TOTAL FREE ENERGY PREDICTED BY IDOCK:   -6.50 KCAL/MOL
REMARK 923 INTER-LIGAND FREE ENERGY PREDICTED BY IDOCK:   -5.75 KCAL/MOL
REMARK 924 INTRA-LIGAND FREE ENERGY PREDICTED BY IDOCK:   -0.74 KCAL/MOL
REMARK 927      BINDING AFFINITY PREDICTED BY RF-SCORE:    0.00 PKD
ROOT
HETATM    1  O   UNL     1     -11.751  12.616  64.592  1.00  0.00    -0.325 OA 
HETATM    2  C   UNL     1     -11.640  12.957  65.897  1.00  0.00    -0.377 C  
HETATM    3  C   UNL     1     -11.146  11.810  66.752  1.00  0.00    -0.360 C  
HETATM    4  O   UNL     1     -11.920  14.073  66.304  1.00  0.00    -0.390 OA 
ENDROOT
BRANCH   3   5
HETATM    5  C   UNL     1     -11.048  12.218  68.222  1.00  0.00    -0.282 C  
BRANCH   5   6
HETATM    6  C   UNL     1     -12.105  11.528  69.091  1.00  0.00    -0.329 C  
BRANCH   6   7
HETATM    7  C   UNL     1     -11.492  10.574  70.091  1.00  0.00    -0.405 A  
HETATM    8  C   UNL     1     -10.175  10.127  69.947  1.00  0.00    -0.284 A  
HETATM    9  C   UNL     1      -9.621   9.201  70.846  1.00  0.00    -0.347 A  
HETATM   10  C   UNL     1     -10.357   8.683  71.916  1.00  0.00    -0.335 A  
HETATM   11  C   UNL     1     -11.659   9.189  72.079  1.00  0.00    -0.371 A  
HETATM   12  C   UNL     1     -12.223  10.114  71.185  1.00  0.00    -0.490 A  
BRANCH  10  13
HETATM   13  N   UNL     1      -9.865   7.704  72.782  1.00  0.00    -0.204 NA 
BRANCH  13  14
HETATM   14  C   UNL     1     -10.726   6.633  73.322  1.00  0.00    -0.287 C  
HETATM   15 CL   UNL     1     -10.054   4.904  71.279  1.00  0.00    -0.269 Cl 
HETATM   16  C   UNL     1     -11.315   5.719  72.245  1.00  0.00    -0.278 C  
ENDBRANCH  13  14
BRANCH  13  17
HETATM   17  C   UNL     1      -8.687   8.061  73.606  1.00  0.00    -0.268 C  
HETATM   18  C   UNL     1      -7.613   6.969  73.694  1.00  0.00    -0.085 C  
HETATM   19 CL   UNL     1      -6.882   6.588  72.112  1.00  0.00    -0.067 Cl 
ENDBRANCH  13  17
ENDBRANCH  10  13
ENDBRANCH   6   7
ENDBRANCH   5   6
ENDBRANCH   3   5
TORSDOF 6
ENDMDL
MODEL       93
REMARK 921   NORMALIZED FREE ENERGY PREDICTED BY IDOCK:   -4.25 KCAL/MOL
REMARK 922        TOTAL FREE ENERGY PREDICTED BY IDOCK:   -6.47 KCAL/MOL
REMARK 923 INTER-LIGAND FREE ENERGY PREDICTED BY IDOCK:   -5.64 KCAL/MOL
REMARK 924 INTRA-LIGAND FREE ENERGY PREDICTED BY IDOCK:   -0.83 KCAL/MOL
REMARK 927      BINDING AFFINITY PREDICTED BY RF-SCORE:    0.00 PKD
ROOT
HETATM    1  O   UNL     1     -12.126  16.209  71.681  1.00  0.00    -0.461 OA 
HETATM    2  C   UNL     1     -12.451  15.251  70.783  1.00  0.00    -0.402 C  
HETATM    3  C   UNL     1     -11.612  15.330  69.526  1.00  0.00    -0.339 C  
HETATM    4  O   UNL     1     -13.332  14.432  70.994  1.00  0.00    -0.361 OA 
ENDROOT
BRANCH   3   5
HETATM    5  C   UNL     1     -12.013  14.249  68.523  1.00  0.00    -0.352 C  
BRANCH   5   6
HETATM    6  C   UNL     1     -10.802  13.492  67.964  1.00  0.00    -0.266 C  
BRANCH   6   7
HETATM    7  C   UNL     1     -10.582  12.168  68.661  1.00  0.00    -0.248 A  
HETATM    8  C   UNL     1      -9.431  11.410  68.422  1.00  0.00    -0.194 A  
HETATM    9  C   UNL     1      -9.251  10.157  69.029  1.00  0.00    -0.188 A  
HETATM   10  C   UNL     1     -10.207   9.610  69.889  1.00  0.00    -0.245 A  
HETATM   11  C   UNL     1     -11.329  10.413  70.162  1.00  0.00    -0.397 A  
HETATM   12  C   UNL     1     -11.520  11.667  69.561  1.00  0.00    -0.371 A  
BRANCH  10  13
HETATM   13  N   UNL     1     -10.096   8.335  70.447  1.00  0.00    -0.189 NA 
BRANCH  13  14
HETATM   14  C   UNL     1      -8.809   7.810  70.947  1.00  0.00    -0.142 C  
HETATM   15 CL   UNL     1      -9.654   7.910  73.571  1.00  0.00    -0.333 Cl 
HETATM   16  C   UNL     1      -8.433   8.327  72.337  1.00  0.00    -0.190 C  
ENDBRANCH  13  14
BRANCH  13  17
HETATM   17  C   UNL     1     -11.082   7.319  70.014  1.00  0.00    -0.240 C  
HETATM   18  C   UNL     1     -12.005   6.808  71.128  1.00  0.00    -0.370 C  
HETATM   19 CL   UNL     1     -13.039   8.090  71.814  1.00  0.00    -0.348 Cl 
ENDBRANCH  13  17
ENDBRANCH  10  13
ENDBRANCH   6   7
ENDBRANCH   5   6
ENDBRANCH   3   5
TORSDOF 6
ENDMDL
MODEL       94
REMARK 921   NORMALIZED FREE ENERGY PREDICTED BY IDOCK:   -4.24 KCAL/MOL
REMARK 922        TOTAL FREE ENERGY PREDICTED BY IDOCK:   -6.45 KCAL/MOL
REMARK 923 INTER-LIGAND FREE ENERGY PREDICTED BY IDOCK:   -5.70 KCAL/MOL
REMARK 924 INTRA-LIGAND FREE ENERGY PREDICTED BY IDOCK:   -0.75 KCAL/MOL
REMARK 927      BINDING AFFINITY PREDICTED BY RF-SCORE:    0.00 PKD
ROOT
HETATM    1  O   UNL     1     -10.871   4.631  65.691  1.00  0.00    -0.292 OA 
HETATM    2  C   UNL     1     -10.003   5.505  66.251  1.00  0.00    -0.140 C  
HETATM    3  C   UNL     1     -10.705   6.646  66.955  1.00  0.00    -0.401 C  
HETATM    4  O   UNL     1      -8.793   5.360  66.173  1.00  0.00    -0.130 OA 
ENDROOT
BRANCH   3   5
HETATM    5  C   UNL     1      -9.701   7.626  67.561  1.00  0.00    -0.197 C  
BRANCH   5   6
HETATM    6  C   UNL     1     -10.367   8.639  68.498  1.00  0.00    -0.228 C  
BRANCH   6   7
HETATM    7  C   UNL     1     -10.612   9.970  67.823  1.00  0.00    -0.311 A  
HETATM    8  C   UNL     1      -9.932  10.320  66.652  1.00  0.00    -0.270 A  
HETATM    9  C   UNL     1     -10.120  11.576  66.053  1.00  0.00    -0.270 A  
HETATM   10  C   UNL     1     -10.985  12.530  66.597  1.00  0.00    -0.266 A  
HETATM   11  C   UNL     1     -11.704  12.137  67.741  1.00  0.00    -0.390 A  
HETATM   12  C   UNL     1     -11.522  10.884  68.348  1.00  0.00    -0.374 A  
BRANCH  10  13
HETATM   13  N   UNL     1     -11.137  13.815  66.072  1.00  0.00    -0.290 NA 
BRANCH  13  14
HETATM   14  C   UNL     1     -12.413  14.274  65.488  1.00  0.00    -0.422 C  
HETATM   15 CL   UNL     1     -12.058  12.747  63.218  1.00  0.00    -0.600 Cl 
HETATM   16  C   UNL     1     -12.402  14.335  63.959  1.00  0.00    -0.244 C  
ENDBRANCH  13  14
BRANCH  13  17
HETATM   17  C   UNL     1      -9.918  14.489  65.570  1.00  0.00    -0.342 C  
HETATM   18  C   UNL     1      -9.709  15.913  66.100  1.00  0.00    -0.321 C  
HETATM   19 CL   UNL     1      -9.486  15.969  67.869  1.00  0.00    -0.209 Cl 
ENDBRANCH  13  17
ENDBRANCH  10  13
ENDBRANCH   6   7
ENDBRANCH   5   6
ENDBRANCH   3   5
TORSDOF 6
ENDMDL
MODEL       95
REMARK 921   NORMALIZED FREE ENERGY PREDICTED BY IDOCK:   -4.23 KCAL/MOL
REMARK 922        TOTAL FREE ENERGY PREDICTED BY IDOCK:   -6.44 KCAL/MOL
REMARK 923 INTER-LIGAND FREE ENERGY PREDICTED BY IDOCK:   -5.84 KCAL/MOL
REMARK 924 INTRA-LIGAND FREE ENERGY PREDICTED BY IDOCK:   -0.60 KCAL/MOL
REMARK 927      BINDING AFFINITY PREDICTED BY RF-SCORE:    0.00 PKD
ROOT
HETATM    1  O   UNL     1      -9.817   3.890  69.716  1.00  0.00    -0.195 OA 
HETATM    2  C   UNL     1      -9.617   5.064  69.074  1.00  0.00    -0.150 C  
HETATM    3  C   UNL     1     -10.743   6.049  69.309  1.00  0.00    -0.401 C  
HETATM    4  O   UNL     1      -8.630   5.270  68.387  1.00  0.00    -0.096 OA 
ENDROOT
BRANCH   3   5
HETATM    5  C   UNL     1     -10.500   7.357  68.557  1.00  0.00    -0.215 C  
BRANCH   5   6
HETATM    6  C   UNL     1     -10.696   8.588  69.450  1.00  0.00    -0.166 C  
BRANCH   6   7
HETATM    7  C   UNL     1     -10.878   9.855  68.645  1.00  0.00    -0.244 A  
HETATM    8  C   UNL     1     -11.543  10.962  69.184  1.00  0.00    -0.389 A  
HETATM    9  C   UNL     1     -11.758  12.120  68.420  1.00  0.00    -0.388 A  
HETATM   10  C   UNL     1     -11.327  12.219  67.094  1.00  0.00    -0.335 A  
HETATM   11  C   UNL     1     -10.609  11.119  66.590  1.00  0.00    -0.314 A  
HETATM   12  C   UNL     1     -10.389   9.956  67.344  1.00  0.00    -0.301 A  
BRANCH  10  13
HETATM   13  N   UNL     1     -11.592  13.324  66.282  1.00  0.00    -0.330 NA 
BRANCH  13  14
HETATM   14  C   UNL     1     -12.654  13.303  65.257  1.00  0.00    -0.470 C  
HETATM   15 CL   UNL     1     -10.999  12.111  63.399  1.00  0.00    -0.489 Cl 
HETATM   16  C   UNL     1     -12.129  13.427  63.825  1.00  0.00    -0.456 C  
ENDBRANCH  13  14
BRANCH  13  17
HETATM   17  C   UNL     1     -10.475  14.264  66.035  1.00  0.00    -0.301 C  
HETATM   18  C   UNL     1     -10.718  15.693  66.539  1.00  0.00    -0.293 C  
HETATM   19 CL   UNL     1     -10.916  15.778  68.310  1.00  0.00    -0.310 Cl 
ENDBRANCH  13  17
ENDBRANCH  10  13
ENDBRANCH   6   7
ENDBRANCH   5   6
ENDBRANCH   3   5
TORSDOF 6
ENDMDL
MODEL       96
REMARK 921   NORMALIZED FREE ENERGY PREDICTED BY IDOCK:   -4.22 KCAL/MOL
REMARK 922        TOTAL FREE ENERGY PREDICTED BY IDOCK:   -6.43 KCAL/MOL
REMARK 923 INTER-LIGAND FREE ENERGY PREDICTED BY IDOCK:   -5.59 KCAL/MOL
REMARK 924 INTRA-LIGAND FREE ENERGY PREDICTED BY IDOCK:   -0.84 KCAL/MOL
REMARK 927      BINDING AFFINITY PREDICTED BY RF-SCORE:    0.00 PKD
ROOT
HETATM    1  O   UNL     1     -10.918   5.480  68.377  1.00  0.00    -0.102 OA 
HETATM    2  C   UNL     1     -10.475   6.469  69.187  1.00  0.00    -0.221 C  
HETATM    3  C   UNL     1     -11.429   6.751  70.328  1.00  0.00    -0.414 C  
HETATM    4  O   UNL     1      -9.421   7.051  68.987  1.00  0.00    -0.140 OA 
ENDROOT
BRANCH   3   5
HETATM    5  C   UNL     1     -10.914   7.884  71.215  1.00  0.00    -0.266 C  
BRANCH   5   6
HETATM    6  C   UNL     1     -11.934   9.018  71.366  1.00  0.00    -0.400 C  
BRANCH   6   7
HETATM    7  C   UNL     1     -11.563  10.234  70.548  1.00  0.00    -0.424 A  
HETATM    8  C   UNL     1     -12.225  11.453  70.726  1.00  0.00    -0.475 A  
HETATM    9  C   UNL     1     -11.917  12.569  69.931  1.00  0.00    -0.371 A  
HETATM   10  C   UNL     1     -10.945  12.513  68.929  1.00  0.00    -0.227 A  
HETATM   11  C   UNL     1     -10.248  11.297  68.805  1.00  0.00    -0.215 A  
HETATM   12  C   UNL     1     -10.549  10.175  69.593  1.00  0.00    -0.286 A  
BRANCH  10  13
HETATM   13  N   UNL     1     -10.667  13.579  68.070  1.00  0.00    -0.245 NA 
BRANCH  13  14
HETATM   14  C   UNL     1     -11.741  14.357  67.419  1.00  0.00    -0.397 C  
HETATM   15 CL   UNL     1     -12.201  12.380  65.550  1.00  0.00    -0.441 Cl 
HETATM   16  C   UNL     1     -11.864  14.095  65.917  1.00  0.00    -0.384 C  
ENDBRANCH  13  14
BRANCH  13  17
HETATM   17  C   UNL     1      -9.367  13.556  67.362  1.00  0.00    -0.228 C  
HETATM   18  C   UNL     1      -8.476  14.778  67.621  1.00  0.00    -0.177 C  
HETATM   19 CL   UNL     1      -7.988  14.930  69.330  1.00  0.00    -0.173 Cl 
ENDBRANCH  13  17
ENDBRANCH  10  13
ENDBRANCH   6   7
ENDBRANCH   5   6
ENDBRANCH   3   5
TORSDOF 6
ENDMDL
MODEL       97
REMARK 921   NORMALIZED FREE ENERGY PREDICTED BY IDOCK:   -4.21 KCAL/MOL
REMARK 922        TOTAL FREE ENERGY PREDICTED BY IDOCK:   -6.42 KCAL/MOL
REMARK 923 INTER-LIGAND FREE ENERGY PREDICTED BY IDOCK:   -6.47 KCAL/MOL
REMARK 924 INTRA-LIGAND FREE ENERGY PREDICTED BY IDOCK:    0.05 KCAL/MOL
REMARK 927      BINDING AFFINITY PREDICTED BY RF-SCORE:    0.00 PKD
ROOT
HETATM    1  O   UNL     1     -12.082  14.459  66.410  1.00  0.00    -0.414 OA 
HETATM    2  C   UNL     1     -11.969  13.163  66.783  1.00  0.00    -0.373 C  
HETATM    3  C   UNL     1     -11.572  13.014  68.236  1.00  0.00    -0.375 C  
HETATM    4  O   UNL     1     -12.169  12.243  66.007  1.00  0.00    -0.646 OA 
ENDROOT
BRANCH   3   5
HETATM    5  C   UNL     1     -11.434  11.543  68.625  1.00  0.00    -0.354 C  
BRANCH   5   6
HETATM    6  C   UNL     1     -12.403  11.140  69.742  1.00  0.00    -0.315 C  
BRANCH   6   7
HETATM    7  C   UNL     1     -11.805  10.114  70.678  1.00  0.00    -0.431 A  
HETATM    8  C   UNL     1     -12.596   9.449  71.620  1.00  0.00    -0.460 A  
HETATM    9  C   UNL     1     -12.032   8.535  72.524  1.00  0.00    -0.401 A  
HETATM   10  C   UNL     1     -10.664   8.252  72.527  1.00  0.00    -0.341 A  
HETATM   11  C   UNL     1      -9.895   8.885  71.534  1.00  0.00    -0.384 A  
HETATM   12  C   UNL     1     -10.448   9.802  70.627  1.00  0.00    -0.358 A  
BRANCH  10  13
HETATM   13  N   UNL     1     -10.058   7.407  73.461  1.00  0.00    -0.327 NA 
BRANCH  13  14
HETATM   14  C   UNL     1      -8.670   7.618  73.920  1.00  0.00    -0.251 C  
HETATM   15 CL   UNL     1      -7.628   6.234  71.772  1.00  0.00    -0.094 Cl 
HETATM   16  C   UNL     1      -7.718   6.482  73.538  1.00  0.00    -0.091 C  
ENDBRANCH  13  14
BRANCH  13  17
HETATM   17  C   UNL     1     -10.560   6.017  73.540  1.00  0.00    -0.268 C  
HETATM   18  C   UNL     1     -11.459   5.593  72.371  1.00  0.00    -0.251 C  
HETATM   19 CL   UNL     1     -10.610   5.613  70.802  1.00  0.00    -0.331 Cl 
ENDBRANCH  13  17
ENDBRANCH  10  13
ENDBRANCH   6   7
ENDBRANCH   5   6
ENDBRANCH   3   5
TORSDOF 6
ENDMDL
MODEL       98
REMARK 921   NORMALIZED FREE ENERGY PREDICTED BY IDOCK:   -4.21 KCAL/MOL
REMARK 922        TOTAL FREE ENERGY PREDICTED BY IDOCK:   -6.41 KCAL/MOL
REMARK 923 INTER-LIGAND FREE ENERGY PREDICTED BY IDOCK:   -5.64 KCAL/MOL
REMARK 924 INTRA-LIGAND FREE ENERGY PREDICTED BY IDOCK:   -0.77 KCAL/MOL
REMARK 927      BINDING AFFINITY PREDICTED BY RF-SCORE:    0.00 PKD
ROOT
HETATM    1  O   UNL     1     -11.233  15.027  67.365  1.00  0.00    -0.319 OA 
HETATM    2  C   UNL     1     -11.592  14.713  68.631  1.00  0.00    -0.314 C  
HETATM    3  C   UNL     1     -11.627  13.218  68.866  1.00  0.00    -0.357 C  
HETATM    4  O   UNL     1     -11.854  15.566  69.464  1.00  0.00    -0.334 OA 
ENDROOT
BRANCH   3   5
HETATM    5  C   UNL     1     -12.053  12.893  70.298  1.00  0.00    -0.377 C  
BRANCH   5   6
HETATM    6  C   UNL     1     -13.028  11.712  70.362  1.00  0.00     0.167 C  
BRANCH   6   7
HETATM    7  C   UNL     1     -12.394  10.478  70.965  1.00  0.00    -0.503 A  
HETATM    8  C   UNL     1     -11.066  10.140  70.686  1.00  0.00    -0.397 A  
HETATM    9  C   UNL     1     -10.492   8.967  71.203  1.00  0.00    -0.363 A  
HETATM   10  C   UNL     1     -11.218   8.087  72.010  1.00  0.00    -0.298 A  
HETATM   11  C   UNL     1     -12.533   8.473  72.327  1.00  0.00    -0.448 A  
HETATM   12  C   UNL     1     -13.116   9.643  71.815  1.00  0.00    -0.514 A  
BRANCH  10  13
HETATM   13  N   UNL     1     -10.704   6.875  72.477  1.00  0.00    -0.221 NA 
BRANCH  13  14
HETATM   14  C   UNL     1     -10.912   5.606  71.750  1.00  0.00    -0.226 C  
HETATM   15 CL   UNL     1      -8.272   5.492  70.959  1.00  0.00    -0.117 Cl 
HETATM   16  C   UNL     1     -10.004   5.442  70.530  1.00  0.00    -0.221 C  
ENDBRANCH  13  14
BRANCH  13  17
HETATM   17  C   UNL     1     -10.478   6.754  73.936  1.00  0.00    -0.327 C  
HETATM   18  C   UNL     1      -9.004   6.653  74.349  1.00  0.00    -0.181 C  
HETATM   19 CL   UNL     1      -8.066   8.111  73.928  1.00  0.00    -0.285 Cl 
ENDBRANCH  13  17
ENDBRANCH  10  13
ENDBRANCH   6   7
ENDBRANCH   5   6
ENDBRANCH   3   5
TORSDOF 6
ENDMDL
MODEL       99
REMARK 921   NORMALIZED FREE ENERGY PREDICTED BY IDOCK:   -4.20 KCAL/MOL
REMARK 922        TOTAL FREE ENERGY PREDICTED BY IDOCK:   -6.39 KCAL/MOL
REMARK 923 INTER-LIGAND FREE ENERGY PREDICTED BY IDOCK:   -5.78 KCAL/MOL
REMARK 924 INTRA-LIGAND FREE ENERGY PREDICTED BY IDOCK:   -0.61 KCAL/MOL
REMARK 927      BINDING AFFINITY PREDICTED BY RF-SCORE:    0.00 PKD
ROOT
HETATM    1  O   UNL     1     -11.710  16.702  64.000  1.00  0.00    -1.143 OA 
HETATM    2  C   UNL     1     -11.112  15.962  64.963  1.00  0.00    -0.360 C  
HETATM    3  C   UNL     1     -10.982  14.505  64.575  1.00  0.00    -0.264 C  
HETATM    4  O   UNL     1     -10.737  16.449  66.018  1.00  0.00    -0.284 OA 
ENDROOT
BRANCH   3   5
HETATM    5  C   UNL     1     -10.322  13.692  65.687  1.00  0.00    -0.309 C  
BRANCH   5   6
HETATM    6  C   UNL     1     -11.318  12.783  66.415  1.00  0.00    -0.369 C  
BRANCH   6   7
HETATM    7  C   UNL     1     -10.797  11.372  66.574  1.00  0.00    -0.334 A  
HETATM    8  C   UNL     1     -10.156  10.717  65.517  1.00  0.00    -0.343 A  
HETATM    9  C   UNL     1      -9.719   9.389  65.647  1.00  0.00    -0.336 A  
HETATM   10  C   UNL     1      -9.905   8.664  66.827  1.00  0.00    -0.253 A  
HETATM   11  C   UNL     1     -10.497   9.358  67.897  1.00  0.00    -0.296 A  
HETATM   12  C   UNL     1     -10.940  10.685  67.778  1.00  0.00    -0.364 A  
BRANCH  10  13
HETATM   13  N   UNL     1      -9.552   7.320  66.964  1.00  0.00    -0.156 NA 
BRANCH  13  14
HETATM   14  C   UNL     1     -10.537   6.232  66.799  1.00  0.00    -0.265 C  
HETATM   15 CL   UNL     1     -11.378   6.437  69.418  1.00  0.00    -0.466 Cl 
HETATM   16  C   UNL     1     -10.781   5.424  68.075  1.00  0.00    -0.006 C  
ENDBRANCH  13  14
BRANCH  13  17
HETATM   17  C   UNL     1      -8.389   7.011  67.828  1.00  0.00    -0.117 C  
HETATM   18  C   UNL     1      -7.088   6.720  67.070  1.00  0.00    -0.072 C  
HETATM   19 CL   UNL     1      -6.511   8.117  66.123  1.00  0.00    -0.046 Cl 
ENDBRANCH  13  17
ENDBRANCH  10  13
ENDBRANCH   6   7
ENDBRANCH   5   6
ENDBRANCH   3   5
TORSDOF 6
ENDMDL
MODEL      100
REMARK 921   NORMALIZED FREE ENERGY PREDICTED BY IDOCK:   -4.19 KCAL/MOL
REMARK 922        TOTAL FREE ENERGY PREDICTED BY IDOCK:   -6.39 KCAL/MOL
REMARK 923 INTER-LIGAND FREE ENERGY PREDICTED BY IDOCK:   -5.77 KCAL/MOL
REMARK 924 INTRA-LIGAND FREE ENERGY PREDICTED BY IDOCK:   -0.61 KCAL/MOL
REMARK 927      BINDING AFFINITY PREDICTED BY RF-SCORE:    0.00 PKD
ROOT
HETATM    1  O   UNL     1      -9.264  17.054  67.632  1.00  0.00    -0.230 OA 
HETATM    2  C   UNL     1      -9.269  15.843  68.236  1.00  0.00    -0.189 C  
HETATM    3  C   UNL     1     -10.197  14.861  67.553  1.00  0.00    -0.233 C  
HETATM    4  O   UNL     1      -8.591  15.605  69.223  1.00  0.00    -0.236 OA 
ENDROOT
BRANCH   3   5
HETATM    5  C   UNL     1     -10.197  13.510  68.267  1.00  0.00    -0.250 C  
BRANCH   5   6
HETATM    6  C   UNL     1     -11.490  13.264  69.052  1.00  0.00    -0.350 C  
BRANCH   6   7
HETATM    7  C   UNL     1     -11.555  11.867  69.625  1.00  0.00    -0.387 A  
HETATM    8  C   UNL     1     -12.435  11.555  70.667  1.00  0.00    -0.405 A  
HETATM    9  C   UNL     1     -12.459  10.271  71.235  1.00  0.00    -0.514 A  
HETATM   10  C   UNL     1     -11.609   9.253  70.792  1.00  0.00    -0.285 A  
HETATM   11  C   UNL     1     -10.774   9.569  69.705  1.00  0.00    -0.259 A  
HETATM   12  C   UNL     1     -10.741  10.850  69.131  1.00  0.00    -0.265 A  
BRANCH  10  13
HETATM   13  N   UNL     1     -11.552   7.990  71.385  1.00  0.00    -0.260 NA 
BRANCH  13  14
HETATM   14  C   UNL     1     -12.072   6.785  70.707  1.00  0.00    -0.347 C  
HETATM   15 CL   UNL     1      -9.551   5.689  70.471  1.00  0.00    -0.208 Cl 
HETATM   16  C   UNL     1     -11.090   6.172  69.706  1.00  0.00    -0.416 C  
ENDBRANCH  13  14
BRANCH  13  17
HETATM   17  C   UNL     1     -11.528   7.938  72.864  1.00  0.00    -0.297 C  
HETATM   18  C   UNL     1     -10.271   7.291  73.461  1.00  0.00    -0.358 C  
HETATM   19 CL   UNL     1      -8.779   8.191  73.076  1.00  0.00    -0.285 Cl 
ENDBRANCH  13  17
ENDBRANCH  10  13
ENDBRANCH   6   7
ENDBRANCH   5   6
ENDBRANCH   3   5
TORSDOF 6
ENDMDL
MODEL      101
REMARK 921   NORMALIZED FREE ENERGY PREDICTED BY IDOCK:   -4.16 KCAL/MOL
REMARK 922        TOTAL FREE ENERGY PREDICTED BY IDOCK:   -6.34 KCAL/MOL
REMARK 923 INTER-LIGAND FREE ENERGY PREDICTED BY IDOCK:   -5.48 KCAL/MOL
REMARK 924 INTRA-LIGAND FREE ENERGY PREDICTED BY IDOCK:   -0.87 KCAL/MOL
REMARK 927      BINDING AFFINITY PREDICTED BY RF-SCORE:    0.00 PKD
ROOT
HETATM    1  O   UNL     1     -12.291  12.950  70.484  1.00  0.00    -0.342 OA 
HETATM    2  C   UNL     1     -12.848  12.041  71.316  1.00  0.00    -0.265 C  
HETATM    3  C   UNL     1     -12.625  10.618  70.851  1.00  0.00    -0.503 C  
HETATM    4  O   UNL     1     -13.460  12.368  72.321  1.00  0.00    -0.541 OA 
ENDROOT
BRANCH   3   5
HETATM    5  C   UNL     1     -13.281   9.615  71.799  1.00  0.00    -0.520 C  
BRANCH   5   6
HETATM    6  C   UNL     1     -12.260   8.677  72.454  1.00  0.00    -0.419 C  
BRANCH   6   7
HETATM    7  C   UNL     1     -11.441   7.920  71.433  1.00  0.00    -0.293 A  
HETATM    8  C   UNL     1     -12.024   6.940  70.624  1.00  0.00    -0.400 A  
HETATM    9  C   UNL     1     -11.253   6.200  69.713  1.00  0.00    -0.494 A  
HETATM   10  C   UNL     1      -9.877   6.403  69.577  1.00  0.00    -0.154 A  
HETATM   11  C   UNL     1      -9.320   7.433  70.356  1.00  0.00    -0.161 A  
HETATM   12  C   UNL     1     -10.081   8.178  71.271  1.00  0.00    -0.240 A  
BRANCH  10  13
HETATM   13  N   UNL     1      -9.068   5.634  68.738  1.00  0.00    -0.117 NA 
BRANCH  13  14
HETATM   14  C   UNL     1      -7.970   6.229  67.950  1.00  0.00    -0.111 C  
HETATM   15 CL   UNL     1      -9.713   7.775  66.472  1.00  0.00    -0.282 Cl 
HETATM   16  C   UNL     1      -8.370   6.599  66.520  1.00  0.00    -0.117 C  
ENDBRANCH  13  14
BRANCH  13  17
HETATM   17  C   UNL     1      -9.652   4.388  68.191  1.00  0.00    -0.142 C  
HETATM   18  C   UNL     1      -9.156   3.100  68.862  1.00  0.00    -0.148 C  
HETATM   19 CL   UNL     1      -9.588   3.009  70.590  1.00  0.00    -0.230 Cl 
ENDBRANCH  13  17
ENDBRANCH  10  13
ENDBRANCH   6   7
ENDBRANCH   5   6
ENDBRANCH   3   5
TORSDOF 6
ENDMDL
MODEL      102
REMARK 921   NORMALIZED FREE ENERGY PREDICTED BY IDOCK:   -4.11 KCAL/MOL
REMARK 922        TOTAL FREE ENERGY PREDICTED BY IDOCK:   -6.28 KCAL/MOL
REMARK 923 INTER-LIGAND FREE ENERGY PREDICTED BY IDOCK:   -5.38 KCAL/MOL
REMARK 924 INTRA-LIGAND FREE ENERGY PREDICTED BY IDOCK:   -0.90 KCAL/MOL
REMARK 927      BINDING AFFINITY PREDICTED BY RF-SCORE:    0.00 PKD
ROOT
HETATM    1  O   UNL     1      -8.792  15.975  68.234  1.00  0.00    -0.175 OA 
HETATM    2  C   UNL     1      -9.346  15.663  67.039  1.00  0.00    -0.226 C  
HETATM    3  C   UNL     1     -10.722  15.050  67.183  1.00  0.00    -0.303 C  
HETATM    4  O   UNL     1      -8.769  15.865  65.983  1.00  0.00    -0.321 OA 
ENDROOT
BRANCH   3   5
HETATM    5  C   UNL     1     -11.314  14.691  65.821  1.00  0.00    -0.340 C  
BRANCH   5   6
HETATM    6  C   UNL     1     -12.302  13.523  65.903  1.00  0.00    -0.507 C  
BRANCH   6   7
HETATM    7  C   UNL     1     -11.634  12.237  66.338  1.00  0.00    -0.445 A  
HETATM    8  C   UNL     1     -10.775  11.545  65.478  1.00  0.00    -0.328 A  
HETATM    9  C   UNL     1     -10.196  10.324  65.861  1.00  0.00    -0.293 A  
HETATM   10  C   UNL     1     -10.452   9.747  67.108  1.00  0.00    -0.250 A  
HETATM   11  C   UNL     1     -11.271  10.487  67.980  1.00  0.00    -0.361 A  
HETATM   12  C   UNL     1     -11.856  11.707  67.607  1.00  0.00    -0.216 A  
BRANCH  10  13
HETATM   13  N   UNL     1      -9.955   8.499  67.491  1.00  0.00    -0.184 NA 
BRANCH  13  14
HETATM   14  C   UNL     1      -8.509   8.249  67.651  1.00  0.00    -0.130 C  
HETATM   15 CL   UNL     1      -8.547   9.031  70.297  1.00  0.00    -0.167 Cl 
HETATM   16  C   UNL     1      -7.834   9.174  68.666  1.00  0.00    -0.097 C  
ENDBRANCH  13  14
BRANCH  13  17
HETATM   17  C   UNL     1     -10.783   7.314  67.169  1.00  0.00    -0.343 C  
HETATM   18  C   UNL     1     -10.638   6.145  68.153  1.00  0.00    -0.264 C  
HETATM   19 CL   UNL     1     -11.173   6.559  69.804  1.00  0.00    -0.428 Cl 
ENDBRANCH  13  17
ENDBRANCH  10  13
ENDBRANCH   6   7
ENDBRANCH   5   6
ENDBRANCH   3   5
TORSDOF 6
ENDMDL
MODEL      103
REMARK 921   NORMALIZED FREE ENERGY PREDICTED BY IDOCK:   -4.11 KCAL/MOL
REMARK 922        TOTAL FREE ENERGY PREDICTED BY IDOCK:   -6.27 KCAL/MOL
REMARK 923 INTER-LIGAND FREE ENERGY PREDICTED BY IDOCK:   -5.20 KCAL/MOL
REMARK 924 INTRA-LIGAND FREE ENERGY PREDICTED BY IDOCK:   -1.07 KCAL/MOL
REMARK 927      BINDING AFFINITY PREDICTED BY RF-SCORE:    0.00 PKD
ROOT
HETATM    1  O   UNL     1     -11.549  16.168  70.882  1.00  0.00    -0.400 OA 
HETATM    2  C   UNL     1     -10.817  15.929  69.769  1.00  0.00    -0.328 C  
HETATM    3  C   UNL     1     -11.678  15.785  68.532  1.00  0.00    -0.328 C  
HETATM    4  O   UNL     1      -9.600  15.840  69.797  1.00  0.00    -0.265 OA 
ENDROOT
BRANCH   3   5
HETATM    5  C   UNL     1     -10.828  15.497  67.296  1.00  0.00    -0.313 C  
BRANCH   5   6
HETATM    6  C   UNL     1     -11.236  14.195  66.597  1.00  0.00    -0.330 C  
BRANCH   6   7
HETATM    7  C   UNL     1     -10.899  12.973  67.421  1.00  0.00    -0.269 A  
HETATM    8  C   UNL     1     -11.900  12.102  67.864  1.00  0.00    -0.338 A  
HETATM    9  C   UNL     1     -11.593  10.996  68.672  1.00  0.00    -0.385 A  
HETATM   10  C   UNL     1     -10.284  10.718  69.073  1.00  0.00    -0.213 A  
HETATM   11  C   UNL     1      -9.284  11.570  68.570  1.00  0.00    -0.167 A  
HETATM   12  C   UNL     1      -9.580  12.679  67.762  1.00  0.00    -0.197 A  
BRANCH  10  13
HETATM   13  N   UNL     1      -9.953   9.673  69.939  1.00  0.00    -0.225 NA 
BRANCH  13  14
HETATM   14  C   UNL     1      -8.559   9.407  70.347  1.00  0.00    -0.230 C  
HETATM   15 CL   UNL     1      -7.966   8.189  67.943  1.00  0.00    -0.125 Cl 
HETATM   16  C   UNL     1      -7.969   8.138  69.728  1.00  0.00    -0.111 C  
ENDBRANCH  13  14
BRANCH  13  17
HETATM   17  C   UNL     1     -10.868   8.509  69.975  1.00  0.00    -0.223 C  
HETATM   18  C   UNL     1     -11.539   8.264  71.333  1.00  0.00    -0.280 C  
HETATM   19 CL   UNL     1     -12.597   9.610  71.836  1.00  0.00    -0.475 Cl 
ENDBRANCH  13  17
ENDBRANCH  10  13
ENDBRANCH   6   7
ENDBRANCH   5   6
ENDBRANCH   3   5
TORSDOF 6
ENDMDL
MODEL      104
REMARK 921   NORMALIZED FREE ENERGY PREDICTED BY IDOCK:   -4.11 KCAL/MOL
REMARK 922        TOTAL FREE ENERGY PREDICTED BY IDOCK:   -6.27 KCAL/MOL
REMARK 923 INTER-LIGAND FREE ENERGY PREDICTED BY IDOCK:   -5.51 KCAL/MOL
REMARK 924 INTRA-LIGAND FREE ENERGY PREDICTED BY IDOCK:   -0.76 KCAL/MOL
REMARK 927      BINDING AFFINITY PREDICTED BY RF-SCORE:    0.00 PKD
ROOT
HETATM    1  O   UNL     1      -8.051  15.630  67.465  1.00  0.00    -0.141 OA 
HETATM    2  C   UNL     1      -9.071  15.138  66.725  1.00  0.00    -0.256 C  
HETATM    3  C   UNL     1      -9.386  13.697  67.063  1.00  0.00    -0.249 C  
HETATM    4  O   UNL     1      -9.647  15.808  65.883  1.00  0.00    -0.317 OA 
ENDROOT
BRANCH   3   5
HETATM    5  C   UNL     1     -10.527  13.162  66.199  1.00  0.00    -0.287 C  
BRANCH   5   6
HETATM    6  C   UNL     1     -11.758  12.780  67.029  1.00  0.00    -0.440 C  
BRANCH   6   7
HETATM    7  C   UNL     1     -11.478  11.635  67.977  1.00  0.00    -0.385 A  
HETATM    8  C   UNL     1     -10.882  10.454  67.525  1.00  0.00    -0.358 A  
HETATM    9  C   UNL     1     -10.669   9.371  68.393  1.00  0.00    -0.213 A  
HETATM   10  C   UNL     1     -11.044   9.421  69.738  1.00  0.00    -0.172 A  
HETATM   11  C   UNL     1     -11.587  10.638  70.188  1.00  0.00    -0.414 A  
HETATM   12  C   UNL     1     -11.806  11.726  69.328  1.00  0.00    -0.389 A  
BRANCH  10  13
HETATM   13  N   UNL     1     -10.918   8.337  70.610  1.00  0.00    -0.237 NA 
BRANCH  13  14
HETATM   14  C   UNL     1     -11.761   7.131  70.484  1.00  0.00    -0.272 C  
HETATM   15 CL   UNL     1     -13.978   8.433  71.484  1.00  0.00    -0.417 Cl 
HETATM   16  C   UNL     1     -12.864   7.039  71.540  1.00  0.00    -0.372 C  
ENDBRANCH  13  14
BRANCH  13  17
HETATM   17  C   UNL     1     -10.392   8.618  71.966  1.00  0.00    -0.346 C  
HETATM   18  C   UNL     1      -9.333   7.623  72.459  1.00  0.00    -0.163 C  
HETATM   19 CL   UNL     1      -7.857   7.628  71.458  1.00  0.00    -0.084 Cl 
ENDBRANCH  13  17
ENDBRANCH  10  13
ENDBRANCH   6   7
ENDBRANCH   5   6
ENDBRANCH   3   5
TORSDOF 6
ENDMDL
MODEL      105
REMARK 921   NORMALIZED FREE ENERGY PREDICTED BY IDOCK:   -4.10 KCAL/MOL
REMARK 922        TOTAL FREE ENERGY PREDICTED BY IDOCK:   -6.26 KCAL/MOL
REMARK 923 INTER-LIGAND FREE ENERGY PREDICTED BY IDOCK:   -5.45 KCAL/MOL
REMARK 924 INTRA-LIGAND FREE ENERGY PREDICTED BY IDOCK:   -0.81 KCAL/MOL
REMARK 927      BINDING AFFINITY PREDICTED BY RF-SCORE:    0.00 PKD
ROOT
HETATM    1  O   UNL     1     -12.173  12.919  70.390  1.00  0.00    -0.354 OA 
HETATM    2  C   UNL     1     -12.800  12.046  71.212  1.00  0.00    -0.265 C  
HETATM    3  C   UNL     1     -12.670  10.614  70.740  1.00  0.00    -0.468 C  
HETATM    4  O   UNL     1     -13.398  12.409  72.212  1.00  0.00    -0.522 OA 
ENDROOT
BRANCH   3   5
HETATM    5  C   UNL     1     -13.403   9.654  71.676  1.00  0.00    -0.485 C  
BRANCH   5   6
HETATM    6  C   UNL     1     -12.441   8.745  72.450  1.00  0.00    -0.421 C  
BRANCH   6   7
HETATM    7  C   UNL     1     -11.528   7.964  71.532  1.00  0.00    -0.301 A  
HETATM    8  C   UNL     1     -10.159   8.243  71.468  1.00  0.00    -0.270 A  
HETATM    9  C   UNL     1      -9.319   7.553  70.579  1.00  0.00    -0.160 A  
HETATM   10  C   UNL     1      -9.810   6.566  69.719  1.00  0.00    -0.165 A  
HETATM   11  C   UNL     1     -11.177   6.258  69.840  1.00  0.00    -0.498 A  
HETATM   12  C   UNL     1     -12.025   6.943  70.725  1.00  0.00    -0.424 A  
BRANCH  10  13
HETATM   13  N   UNL     1      -9.019   5.915  68.769  1.00  0.00    -0.117 NA 
BRANCH  13  14
HETATM   14  C   UNL     1      -8.447   4.576  69.014  1.00  0.00    -0.079 C  
HETATM   15 CL   UNL     1      -9.691   3.511  66.793  1.00  0.00    -0.135 Cl 
HETATM   16  C   UNL     1      -9.344   3.430  68.543  1.00  0.00    -0.168 C  
ENDBRANCH  13  14
BRANCH  13  17
HETATM   17  C   UNL     1      -8.283   6.766  67.806  1.00  0.00    -0.120 C  
HETATM   18  C   UNL     1      -9.045   7.073  66.511  1.00  0.00    -0.156 C  
HETATM   19 CL   UNL     1     -10.540   8.004  66.791  1.00  0.00    -0.340 Cl 
ENDBRANCH  13  17
ENDBRANCH  10  13
ENDBRANCH   6   7
ENDBRANCH   5   6
ENDBRANCH   3   5
TORSDOF 6
ENDMDL
MODEL      106
REMARK 921   NORMALIZED FREE ENERGY PREDICTED BY IDOCK:   -4.07 KCAL/MOL
REMARK 922        TOTAL FREE ENERGY PREDICTED BY IDOCK:   -6.22 KCAL/MOL
REMARK 923 INTER-LIGAND FREE ENERGY PREDICTED BY IDOCK:   -5.57 KCAL/MOL
REMARK 924 INTRA-LIGAND FREE ENERGY PREDICTED BY IDOCK:   -0.65 KCAL/MOL
REMARK 927      BINDING AFFINITY PREDICTED BY RF-SCORE:    0.00 PKD
ROOT
HETATM    1  O   UNL     1      -8.402   3.830  64.972  1.00  0.00    -0.100 OA 
HETATM    2  C   UNL     1      -9.503   4.498  65.386  1.00  0.00    -0.172 C  
HETATM    3  C   UNL     1      -9.164   5.681  66.267  1.00  0.00    -0.165 C  
HETATM    4  O   UNL     1     -10.630   4.153  65.069  1.00  0.00    -0.240 OA 
ENDROOT
BRANCH   3   5
HETATM    5  C   UNL     1     -10.427   6.404  66.734  1.00  0.00    -0.304 C  
BRANCH   5   6
HETATM    6  C   UNL     1     -10.141   7.414  67.851  1.00  0.00    -0.220 C  
BRANCH   6   7
HETATM    7  C   UNL     1     -10.357   8.841  67.402  1.00  0.00    -0.349 A  
HETATM    8  C   UNL     1      -9.843   9.299  66.185  1.00  0.00    -0.363 A  
HETATM    9  C   UNL     1      -9.997  10.638  65.790  1.00  0.00    -0.315 A  
HETATM   10  C   UNL     1     -10.663  11.570  66.592  1.00  0.00    -0.268 A  
HETATM   11  C   UNL     1     -11.224  11.077  67.784  1.00  0.00    -0.374 A  
HETATM   12  C   UNL     1     -11.074   9.741  68.188  1.00  0.00    -0.169 A  
BRANCH  10  13
HETATM   13  N   UNL     1     -10.768  12.924  66.268  1.00  0.00    -0.272 NA 
BRANCH  13  14
HETATM   14  C   UNL     1      -9.827  13.930  66.800  1.00  0.00    -0.274 C  
HETATM   15 CL   UNL     1     -11.314  14.275  69.098  1.00  0.00    -0.290 Cl 
HETATM   16  C   UNL     1     -10.493  14.988  67.682  1.00  0.00    -0.247 C  
ENDBRANCH  13  14
BRANCH  13  17
HETATM   17  C   UNL     1     -12.110  13.429  65.897  1.00  0.00    -0.439 C  
HETATM   18  C   UNL     1     -12.280  13.762  64.409  1.00  0.00    -0.399 C  
HETATM   19 CL   UNL     1     -12.093  12.335  63.354  1.00  0.00    -0.612 Cl 
ENDBRANCH  13  17
ENDBRANCH  10  13
ENDBRANCH   6   7
ENDBRANCH   5   6
ENDBRANCH   3   5
TORSDOF 6
ENDMDL
MODEL      107
REMARK 921   NORMALIZED FREE ENERGY PREDICTED BY IDOCK:   -4.05 KCAL/MOL
REMARK 922        TOTAL FREE ENERGY PREDICTED BY IDOCK:   -6.19 KCAL/MOL
REMARK 923 INTER-LIGAND FREE ENERGY PREDICTED BY IDOCK:   -5.47 KCAL/MOL
REMARK 924 INTRA-LIGAND FREE ENERGY PREDICTED BY IDOCK:   -0.72 KCAL/MOL
REMARK 927      BINDING AFFINITY PREDICTED BY RF-SCORE:    0.00 PKD
ROOT
HETATM    1  O   UNL     1     -10.383   5.065  66.793  1.00  0.00    -0.236 OA 
HETATM    2  C   UNL     1     -10.651   6.262  67.365  1.00  0.00    -0.291 C  
HETATM    3  C   UNL     1     -10.041   7.416  66.600  1.00  0.00    -0.253 C  
HETATM    4  O   UNL     1     -11.310   6.361  68.388  1.00  0.00    -0.280 OA 
ENDROOT
BRANCH   3   5
HETATM    5  C   UNL     1     -10.343   8.752  67.278  1.00  0.00    -0.360 C  
BRANCH   5   6
HETATM    6  C   UNL     1     -10.490   9.898  66.271  1.00  0.00    -0.171 C  
BRANCH   6   7
HETATM    7  C   UNL     1     -10.542  11.251  66.946  1.00  0.00    -0.300 A  
HETATM    8  C   UNL     1     -11.524  12.187  66.609  1.00  0.00    -0.426 A  
HETATM    9  C   UNL     1     -11.542  13.462  67.198  1.00  0.00    -0.399 A  
HETATM   10  C   UNL     1     -10.584  13.853  68.137  1.00  0.00    -0.252 A  
HETATM   11  C   UNL     1      -9.640  12.878  68.506  1.00  0.00    -0.113 A  
HETATM   12  C   UNL     1      -9.613  11.601  67.923  1.00  0.00    -0.180 A  
BRANCH  10  13
HETATM   13  N   UNL     1     -10.526  15.137  68.684  1.00  0.00    -0.228 NA 
BRANCH  13  14
HETATM   14  C   UNL     1     -10.295  15.363  70.125  1.00  0.00    -0.239 C  
HETATM   15 CL   UNL     1     -12.772  14.353  70.799  1.00  0.00    -0.409 Cl 
HETATM   16  C   UNL     1     -11.571  15.670  70.911  1.00  0.00    -0.389 C  
ENDBRANCH  13  14
BRANCH  13  17
HETATM   17  C   UNL     1     -11.260  16.209  67.972  1.00  0.00    -0.291 C  
HETATM   18  C   UNL     1     -10.386  17.379  67.502  1.00  0.00    -0.351 C  
HETATM   19 CL   UNL     1      -9.155  16.888  66.307  1.00  0.00    -0.307 Cl 
ENDBRANCH  13  17
ENDBRANCH  10  13
ENDBRANCH   6   7
ENDBRANCH   5   6
ENDBRANCH   3   5
TORSDOF 6
ENDMDL
MODEL      108
REMARK 921   NORMALIZED FREE ENERGY PREDICTED BY IDOCK:   -4.04 KCAL/MOL
REMARK 922        TOTAL FREE ENERGY PREDICTED BY IDOCK:   -6.19 KCAL/MOL
REMARK 923 INTER-LIGAND FREE ENERGY PREDICTED BY IDOCK:   -5.48 KCAL/MOL
REMARK 924 INTRA-LIGAND FREE ENERGY PREDICTED BY IDOCK:   -0.71 KCAL/MOL
REMARK 927      BINDING AFFINITY PREDICTED BY RF-SCORE:    0.00 PKD
ROOT
HETATM    1  O   UNL     1      -9.592   7.748  73.755  1.00  0.00    -0.288 OA 
HETATM    2  C   UNL     1     -10.496   7.783  72.749  1.00  0.00    -0.328 C  
HETATM    3  C   UNL     1      -9.841   7.854  71.386  1.00  0.00    -0.203 C  
HETATM    4  O   UNL     1     -11.699   7.762  72.954  1.00  0.00    -0.315 OA 
ENDROOT
BRANCH   3   5
HETATM    5  C   UNL     1     -10.885   7.911  70.272  1.00  0.00    -0.241 C  
BRANCH   5   6
HETATM    6  C   UNL     1     -10.337   8.552  68.992  1.00  0.00    -0.229 C  
BRANCH   6   7
HETATM    7  C   UNL     1     -10.540  10.051  68.969  1.00  0.00    -0.235 A  
HETATM    8  C   UNL     1     -11.620  10.643  69.632  1.00  0.00    -0.368 A  
HETATM    9  C   UNL     1     -11.838  12.028  69.568  1.00  0.00    -0.390 A  
HETATM   10  C   UNL     1     -10.996  12.874  68.841  1.00  0.00    -0.228 A  
HETATM   11  C   UNL     1      -9.882  12.268  68.231  1.00  0.00    -0.217 A  
HETATM   12  C   UNL     1      -9.655  10.884  68.287  1.00  0.00    -0.169 A  
BRANCH  10  13
HETATM   13  N   UNL     1     -11.226  14.243  68.693  1.00  0.00    -0.250 NA 
BRANCH  13  14
HETATM   14  C   UNL     1     -11.709  14.821  67.422  1.00  0.00    -0.350 C  
HETATM   15 CL   UNL     1      -9.146  15.115  66.446  1.00  0.00    -0.327 Cl 
HETATM   16  C   UNL     1     -10.743  15.831  66.800  1.00  0.00    -0.293 C  
ENDBRANCH  13  14
BRANCH  13  17
HETATM   17  C   UNL     1     -10.454  15.157  69.565  1.00  0.00    -0.260 C  
HETATM   18  C   UNL     1     -11.300  15.952  70.568  1.00  0.00    -0.390 C  
HETATM   19 CL   UNL     1     -12.142  14.907  71.745  1.00  0.00    -0.400 Cl 
ENDBRANCH  13  17
ENDBRANCH  10  13
ENDBRANCH   6   7
ENDBRANCH   5   6
ENDBRANCH   3   5
TORSDOF 6
ENDMDL
MODEL      109
REMARK 921   NORMALIZED FREE ENERGY PREDICTED BY IDOCK:   -4.04 KCAL/MOL
REMARK 922        TOTAL FREE ENERGY PREDICTED BY IDOCK:   -6.18 KCAL/MOL
REMARK 923 INTER-LIGAND FREE ENERGY PREDICTED BY IDOCK:   -5.47 KCAL/MOL
REMARK 924 INTRA-LIGAND FREE ENERGY PREDICTED BY IDOCK:   -0.71 KCAL/MOL
REMARK 927      BINDING AFFINITY PREDICTED BY RF-SCORE:    0.00 PKD
ROOT
HETATM    1  O   UNL     1     -10.373   5.065  66.817  1.00  0.00    -0.236 OA 
HETATM    2  C   UNL     1     -10.664   6.278  67.341  1.00  0.00    -0.331 C  
HETATM    3  C   UNL     1      -9.970   7.406  66.608  1.00  0.00    -0.261 C  
HETATM    4  O   UNL     1     -11.405   6.411  68.302  1.00  0.00    -0.268 OA 
ENDROOT
BRANCH   3   5
HETATM    5  C   UNL     1     -10.302   8.760  67.232  1.00  0.00    -0.360 C  
BRANCH   5   6
HETATM    6  C   UNL     1     -10.261   9.901  66.209  1.00  0.00    -0.282 C  
BRANCH   6   7
HETATM    7  C   UNL     1     -10.489  11.252  66.847  1.00  0.00    -0.286 A  
HETATM    8  C   UNL     1     -11.644  11.993  66.575  1.00  0.00    -0.384 A  
HETATM    9  C   UNL     1     -11.832  13.270  67.127  1.00  0.00    -0.424 A  
HETATM   10  C   UNL     1     -10.880  13.859  67.963  1.00  0.00    -0.246 A  
HETATM   11  C   UNL     1      -9.754  13.075  68.273  1.00  0.00    -0.221 A  
HETATM   12  C   UNL     1      -9.555  11.798  67.726  1.00  0.00    -0.184 A  
BRANCH  10  13
HETATM   13  N   UNL     1     -10.999  15.157  68.466  1.00  0.00    -0.251 NA 
BRANCH  13  14
HETATM   14  C   UNL     1     -11.255  16.315  67.587  1.00  0.00    -0.111 C  
HETATM   15 CL   UNL     1      -8.765  16.121  66.414  1.00  0.00    -0.332 Cl 
HETATM   16  C   UNL     1      -9.996  17.114  67.243  1.00  0.00    -0.274 C  
ENDBRANCH  13  14
BRANCH  13  17
HETATM   17  C   UNL     1     -10.305  15.454  69.740  1.00  0.00    -0.286 C  
HETATM   18  C   UNL     1     -11.222  15.938  70.871  1.00  0.00    -0.351 C  
HETATM   19 CL   UNL     1     -12.425  14.714  71.358  1.00  0.00    -0.387 Cl 
ENDBRANCH  13  17
ENDBRANCH  10  13
ENDBRANCH   6   7
ENDBRANCH   5   6
ENDBRANCH   3   5
TORSDOF 6
ENDMDL
MODEL      110
REMARK 921   NORMALIZED FREE ENERGY PREDICTED BY IDOCK:   -3.99 KCAL/MOL
REMARK 922        TOTAL FREE ENERGY PREDICTED BY IDOCK:   -6.12 KCAL/MOL
REMARK 923 INTER-LIGAND FREE ENERGY PREDICTED BY IDOCK:   -5.29 KCAL/MOL
REMARK 924 INTRA-LIGAND FREE ENERGY PREDICTED BY IDOCK:   -0.83 KCAL/MOL
REMARK 927      BINDING AFFINITY PREDICTED BY RF-SCORE:    0.00 PKD
ROOT
HETATM    1  O   UNL     1     -12.188  13.745  71.296  1.00  0.00    -0.340 OA 
HETATM    2  C   UNL     1     -12.952  12.674  71.612  1.00  0.00    -0.299 C  
HETATM    3  C   UNL     1     -12.519  11.421  70.884  1.00  0.00    -0.478 C  
HETATM    4  O   UNL     1     -13.883  12.749  72.399  1.00  0.00    -0.501 OA 
ENDROOT
BRANCH   3   5
HETATM    5  C   UNL     1     -13.410  10.233  71.245  1.00  0.00    -0.369 C  
BRANCH   5   6
HETATM    6  C   UNL     1     -12.852   9.421  72.419  1.00  0.00    -0.394 C  
BRANCH   6   7
HETATM    7  C   UNL     1     -11.859   8.373  71.970  1.00  0.00    -0.417 A  
HETATM    8  C   UNL     1     -12.275   7.244  71.257  1.00  0.00    -0.389 A  
HETATM    9  C   UNL     1     -11.361   6.244  70.886  1.00  0.00    -0.389 A  
HETATM   10  C   UNL     1     -10.005   6.328  71.212  1.00  0.00    -0.180 A  
HETATM   11  C   UNL     1      -9.596   7.498  71.877  1.00  0.00    -0.178 A  
HETATM   12  C   UNL     1     -10.501   8.503  72.255  1.00  0.00    -0.402 A  
BRANCH  10  13
HETATM   13  N   UNL     1      -9.084   5.318  70.927  1.00  0.00    -0.136 NA 
BRANCH  13  14
HETATM   14  C   UNL     1      -8.282   4.669  71.984  1.00  0.00    -0.105 C  
HETATM   15 CL   UNL     1     -10.267   2.829  72.521  1.00  0.00    -0.233 Cl 
HETATM   16  C   UNL     1      -9.125   4.068  73.111  1.00  0.00    -0.106 C  
ENDBRANCH  13  14
BRANCH  13  17
HETATM   17  C   UNL     1      -8.491   5.307  69.570  1.00  0.00    -0.094 C  
HETATM   18  C   UNL     1      -8.085   3.919  69.059  1.00  0.00    -0.062 C  
HETATM   19 CL   UNL     1      -9.473   2.811  68.888  1.00  0.00    -0.221 Cl 
ENDBRANCH  13  17
ENDBRANCH  10  13
ENDBRANCH   6   7
ENDBRANCH   5   6
ENDBRANCH   3   5
TORSDOF 6
ENDMDL
MODEL      111
REMARK 921   NORMALIZED FREE ENERGY PREDICTED BY IDOCK:   -3.99 KCAL/MOL
REMARK 922        TOTAL FREE ENERGY PREDICTED BY IDOCK:   -6.11 KCAL/MOL
REMARK 923 INTER-LIGAND FREE ENERGY PREDICTED BY IDOCK:   -5.37 KCAL/MOL
REMARK 924 INTRA-LIGAND FREE ENERGY PREDICTED BY IDOCK:   -0.75 KCAL/MOL
REMARK 927      BINDING AFFINITY PREDICTED BY RF-SCORE:    0.00 PKD
ROOT
HETATM    1  O   UNL     1     -12.732  11.563  71.117  1.00  0.00    -0.393 OA 
HETATM    2  C   UNL     1     -12.042  11.506  69.955  1.00  0.00    -0.331 C  
HETATM    3  C   UNL     1     -11.542  12.865  69.514  1.00  0.00    -0.348 C  
HETATM    4  O   UNL     1     -11.865  10.458  69.354  1.00  0.00    -0.211 OA 
ENDROOT
BRANCH   3   5
HETATM    5  C   UNL     1     -10.783  12.773  68.191  1.00  0.00    -0.243 C  
BRANCH   5   6
HETATM    6  C   UNL     1      -9.340  13.277  68.309  1.00  0.00    -0.205 C  
BRANCH   6   7
HETATM    7  C   UNL     1      -9.194  14.709  67.847  1.00  0.00    -0.197 A  
HETATM    8  C   UNL     1      -9.440  15.067  66.517  1.00  0.00    -0.306 A  
HETATM    9  C   UNL     1      -9.254  16.387  66.075  1.00  0.00    -0.328 A  
HETATM   10  C   UNL     1      -8.814  17.396  66.936  1.00  0.00    -0.242 A  
HETATM   11  C   UNL     1      -8.629  17.030  68.282  1.00  0.00    -0.234 A  
HETATM   12  C   UNL     1      -8.811  15.714  68.733  1.00  0.00    -0.208 A  
BRANCH  10  13
HETATM   13  N   UNL     1      -8.545  18.700  66.514  1.00  0.00    -0.294 NA 
BRANCH  13  14
HETATM   14  C   UNL     1      -7.329  19.423  66.937  1.00  0.00    -0.216 C  
HETATM   15 CL   UNL     1      -6.060  18.932  64.537  1.00  0.00    -0.244 Cl 
HETATM   16  C   UNL     1      -6.041  18.872  66.321  1.00  0.00    -0.173 C  
ENDBRANCH  13  14
BRANCH  13  17
HETATM   17  C   UNL     1      -9.705  19.546  66.150  1.00  0.00    -0.387 C  
HETATM   18  C   UNL     1     -10.876  19.486  67.139  1.00  0.00    -0.437 C  
HETATM   19 CL   UNL     1     -10.444  20.091  68.761  1.00  0.00    -0.369 Cl 
ENDBRANCH  13  17
ENDBRANCH  10  13
ENDBRANCH   6   7
ENDBRANCH   5   6
ENDBRANCH   3   5
TORSDOF 6
ENDMDL
MODEL      112
REMARK 921   NORMALIZED FREE ENERGY PREDICTED BY IDOCK:   -3.98 KCAL/MOL
REMARK 922        TOTAL FREE ENERGY PREDICTED BY IDOCK:   -6.11 KCAL/MOL
REMARK 923 INTER-LIGAND FREE ENERGY PREDICTED BY IDOCK:   -5.44 KCAL/MOL
REMARK 924 INTRA-LIGAND FREE ENERGY PREDICTED BY IDOCK:   -0.67 KCAL/MOL
REMARK 927      BINDING AFFINITY PREDICTED BY RF-SCORE:    0.00 PKD
ROOT
HETATM    1  O   UNL     1     -11.605  16.487  63.717  1.00  0.00    -1.109 OA 
HETATM    2  C   UNL     1     -10.969  15.873  64.742  1.00  0.00    -0.375 C  
HETATM    3  C   UNL     1     -11.136  14.369  64.707  1.00  0.00    -0.402 C  
HETATM    4  O   UNL     1     -10.343  16.496  65.585  1.00  0.00    -0.438 OA 
ENDROOT
BRANCH   3   5
HETATM    5  C   UNL     1     -10.424  13.705  65.885  1.00  0.00    -0.297 C  
BRANCH   5   6
HETATM    6  C   UNL     1     -11.300  12.659  66.582  1.00  0.00    -0.379 C  
BRANCH   6   7
HETATM    7  C   UNL     1     -10.604  11.324  66.714  1.00  0.00    -0.305 A  
HETATM    8  C   UNL     1     -11.052  10.362  67.625  1.00  0.00    -0.361 A  
HETATM    9  C   UNL     1     -10.375   9.143  67.784  1.00  0.00    -0.302 A  
HETATM   10  C   UNL     1      -9.227   8.837  67.049  1.00  0.00    -0.142 A  
HETATM   11  C   UNL     1      -8.825   9.790  66.096  1.00  0.00    -0.162 A  
HETATM   12  C   UNL     1      -9.494  11.013  65.930  1.00  0.00    -0.244 A  
BRANCH  10  13
HETATM   13  N   UNL     1      -8.485   7.668  67.237  1.00  0.00    -0.121 NA 
BRANCH  13  14
HETATM   14  C   UNL     1      -7.423   7.573  68.260  1.00  0.00    -0.109 C  
HETATM   15 CL   UNL     1      -5.520   8.601  66.548  1.00  0.00    -0.035 Cl 
HETATM   16  C   UNL     1      -6.031   7.317  67.679  1.00  0.00    -0.034 C  
ENDBRANCH  13  14
BRANCH  13  17
HETATM   17  C   UNL     1      -8.343   6.763  66.074  1.00  0.00    -0.134 C  
HETATM   18  C   UNL     1      -8.948   5.367  66.273  1.00  0.00    -0.137 C  
HETATM   19 CL   UNL     1     -10.713   5.406  66.526  1.00  0.00    -0.358 Cl 
ENDBRANCH  13  17
ENDBRANCH  10  13
ENDBRANCH   6   7
ENDBRANCH   5   6
ENDBRANCH   3   5
TORSDOF 6
ENDMDL
MODEL      113
REMARK 921   NORMALIZED FREE ENERGY PREDICTED BY IDOCK:   -3.97 KCAL/MOL
REMARK 922        TOTAL FREE ENERGY PREDICTED BY IDOCK:   -6.09 KCAL/MOL
REMARK 923 INTER-LIGAND FREE ENERGY PREDICTED BY IDOCK:   -6.20 KCAL/MOL
REMARK 924 INTRA-LIGAND FREE ENERGY PREDICTED BY IDOCK:    0.10 KCAL/MOL
REMARK 927      BINDING AFFINITY PREDICTED BY RF-SCORE:    0.00 PKD
ROOT
HETATM    1  O   UNL     1     -12.028  10.954  68.073  1.00  0.00    -0.586 OA 
HETATM    2  C   UNL     1     -11.890  12.125  67.409  1.00  0.00    -0.227 C  
HETATM    3  C   UNL     1     -11.607  13.285  68.339  1.00  0.00    -0.372 C  
HETATM    4  O   UNL     1     -11.993  12.201  66.195  1.00  0.00    -0.593 OA 
ENDROOT
BRANCH   3   5
HETATM    5  C   UNL     1     -11.474  14.596  67.565  1.00  0.00    -0.378 C  
BRANCH   5   6
HETATM    6  C   UNL     1     -11.525  15.823  68.482  1.00  0.00    -0.381 C  
BRANCH   6   7
HETATM    7  C   UNL     1     -10.490  16.861  68.109  1.00  0.00    -0.350 A  
HETATM    8  C   UNL     1     -10.405  18.074  68.798  1.00  0.00    -0.294 A  
HETATM    9  C   UNL     1      -9.479  19.060  68.419  1.00  0.00    -0.417 A  
HETATM   10  C   UNL     1      -8.610  18.877  67.340  1.00  0.00    -0.274 A  
HETATM   11  C   UNL     1      -8.670  17.627  66.697  1.00  0.00    -0.286 A  
HETATM   12  C   UNL     1      -9.592  16.636  67.067  1.00  0.00    -0.250 A  
BRANCH  10  13
HETATM   13  N   UNL     1      -7.731  19.864  66.888  1.00  0.00    -0.274 NA 
BRANCH  13  14
HETATM   14  C   UNL     1      -7.293  19.934  65.479  1.00  0.00    -0.247 C  
HETATM   15 CL   UNL     1      -5.398  17.963  65.849  1.00  0.00    -0.225 Cl 
HETATM   16  C   UNL     1      -5.812  19.604  65.280  1.00  0.00    -0.193 C  
ENDBRANCH  13  14
BRANCH  13  17
HETATM   17  C   UNL     1      -6.804  20.451  67.882  1.00  0.00    -0.301 C  
HETATM   18  C   UNL     1      -6.674  19.652  69.185  1.00  0.00    -0.348 C  
HETATM   19 CL   UNL     1      -5.996  18.021  68.933  1.00  0.00    -0.199 Cl 
ENDBRANCH  13  17
ENDBRANCH  10  13
ENDBRANCH   6   7
ENDBRANCH   5   6
ENDBRANCH   3   5
TORSDOF 6
ENDMDL
MODEL      114
REMARK 921   NORMALIZED FREE ENERGY PREDICTED BY IDOCK:   -3.97 KCAL/MOL
REMARK 922        TOTAL FREE ENERGY PREDICTED BY IDOCK:   -6.09 KCAL/MOL
REMARK 923 INTER-LIGAND FREE ENERGY PREDICTED BY IDOCK:   -5.77 KCAL/MOL
REMARK 924 INTRA-LIGAND FREE ENERGY PREDICTED BY IDOCK:   -0.33 KCAL/MOL
REMARK 927      BINDING AFFINITY PREDICTED BY RF-SCORE:    0.00 PKD
ROOT
HETATM    1  O   UNL     1     -11.648   5.684  72.653  1.00  0.00    -0.307 OA 
HETATM    2  C   UNL     1     -11.065   5.734  71.432  1.00  0.00    -0.204 C  
HETATM    3  C   UNL     1     -11.813   6.634  70.473  1.00  0.00    -0.430 C  
HETATM    4  O   UNL     1     -10.052   5.107  71.169  1.00  0.00    -0.201 OA 
ENDROOT
BRANCH   3   5
HETATM    5  C   UNL     1     -11.145   6.657  69.099  1.00  0.00    -0.332 C  
BRANCH   5   6
HETATM    6  C   UNL     1      -9.937   7.600  69.053  1.00  0.00    -0.181 C  
BRANCH   6   7
HETATM    7  C   UNL     1     -10.307   8.980  68.557  1.00  0.00    -0.233 A  
HETATM    8  C   UNL     1     -10.908   9.914  69.407  1.00  0.00    -0.265 A  
HETATM    9  C   UNL     1     -11.299  11.178  68.934  1.00  0.00    -0.344 A  
HETATM   10  C   UNL     1     -11.113  11.555  67.601  1.00  0.00    -0.266 A  
HETATM   11  C   UNL     1     -10.454  10.625  66.777  1.00  0.00    -0.303 A  
HETATM   12  C   UNL     1     -10.060   9.359  67.239  1.00  0.00    -0.285 A  
BRANCH  10  13
HETATM   13  N   UNL     1     -11.559  12.772  67.080  1.00  0.00    -0.340 NA 
BRANCH  13  14
HETATM   14  C   UNL     1     -11.965  13.894  67.951  1.00  0.00    -0.358 C  
HETATM   15 CL   UNL     1      -9.437  14.999  67.901  1.00  0.00    -0.194 Cl 
HETATM   16  C   UNL     1     -10.837  14.417  68.843  1.00  0.00    -0.256 C  
ENDBRANCH  13  14
BRANCH  13  17
HETATM   17  C   UNL     1     -12.175  12.745  65.733  1.00  0.00    -0.408 C  
HETATM   18  C   UNL     1     -12.410  14.126  65.110  1.00  0.00    -0.451 C  
HETATM   19 CL   UNL     1     -10.896  15.027  64.829  1.00  0.00    -0.406 Cl 
ENDBRANCH  13  17
ENDBRANCH  10  13
ENDBRANCH   6   7
ENDBRANCH   5   6
ENDBRANCH   3   5
TORSDOF 6
ENDMDL
MODEL      115
REMARK 921   NORMALIZED FREE ENERGY PREDICTED BY IDOCK:   -3.95 KCAL/MOL
REMARK 922        TOTAL FREE ENERGY PREDICTED BY IDOCK:   -6.07 KCAL/MOL
REMARK 923 INTER-LIGAND FREE ENERGY PREDICTED BY IDOCK:   -5.34 KCAL/MOL
REMARK 924 INTRA-LIGAND FREE ENERGY PREDICTED BY IDOCK:   -0.73 KCAL/MOL
REMARK 927      BINDING AFFINITY PREDICTED BY RF-SCORE:    0.00 PKD
ROOT
HETATM    1  O   UNL     1     -11.852  15.768  73.096  1.00  0.00    -0.444 OA 
HETATM    2  C   UNL     1     -12.450  14.861  72.289  1.00  0.00    -0.341 C  
HETATM    3  C   UNL     1     -12.012  14.996  70.846  1.00  0.00    -0.374 C  
HETATM    4  O   UNL     1     -13.251  14.043  72.711  1.00  0.00    -0.503 OA 
ENDROOT
BRANCH   3   5
HETATM    5  C   UNL     1     -12.717  13.973  69.956  1.00  0.00    -0.136 C  
BRANCH   5   6
HETATM    6  C   UNL     1     -11.877  13.585  68.734  1.00  0.00    -0.390 C  
BRANCH   6   7
HETATM    7  C   UNL     1     -11.309  12.188  68.848  1.00  0.00    -0.335 A  
HETATM    8  C   UNL     1     -10.472  11.667  67.856  1.00  0.00    -0.217 A  
HETATM    9  C   UNL     1      -9.987  10.351  67.935  1.00  0.00    -0.192 A  
HETATM   10  C   UNL     1     -10.319   9.507  68.998  1.00  0.00    -0.206 A  
HETATM   11  C   UNL     1     -11.112  10.068  70.015  1.00  0.00    -0.350 A  
HETATM   12  C   UNL     1     -11.604  11.382  69.945  1.00  0.00    -0.402 A  
BRANCH  10  13
HETATM   13  N   UNL     1      -9.918   8.171  69.070  1.00  0.00    -0.184 NA 
BRANCH  13  14
HETATM   14  C   UNL     1     -10.751   7.075  68.535  1.00  0.00    -0.179 C  
HETATM   15 CL   UNL     1     -12.204   6.883  70.872  1.00  0.00    -0.433 Cl 
HETATM   16  C   UNL     1     -11.230   6.090  69.603  1.00  0.00    -0.357 C  
ENDBRANCH  13  14
BRANCH  13  17
HETATM   17  C   UNL     1      -8.990   7.801  70.164  1.00  0.00    -0.146 C  
HETATM   18  C   UNL     1      -7.564   7.468  69.708  1.00  0.00    -0.094 C  
HETATM   19 CL   UNL     1      -6.738   8.855  68.947  1.00  0.00    -0.052 Cl 
ENDBRANCH  13  17
ENDBRANCH  10  13
ENDBRANCH   6   7
ENDBRANCH   5   6
ENDBRANCH   3   5
TORSDOF 6
ENDMDL
MODEL      116
REMARK 921   NORMALIZED FREE ENERGY PREDICTED BY IDOCK:   -3.93 KCAL/MOL
REMARK 922        TOTAL FREE ENERGY PREDICTED BY IDOCK:   -6.03 KCAL/MOL
REMARK 923 INTER-LIGAND FREE ENERGY PREDICTED BY IDOCK:   -5.23 KCAL/MOL
REMARK 924 INTRA-LIGAND FREE ENERGY PREDICTED BY IDOCK:   -0.80 KCAL/MOL
REMARK 927      BINDING AFFINITY PREDICTED BY RF-SCORE:    0.00 PKD
ROOT
HETATM    1  O   UNL     1     -10.512  19.215  65.739  1.00  0.00    -0.502 OA 
HETATM    2  C   UNL     1      -9.857  18.931  66.888  1.00  0.00    -0.329 C  
HETATM    3  C   UNL     1     -10.059  17.496  67.327  1.00  0.00    -0.327 C  
HETATM    4  O   UNL     1      -9.190  19.764  67.480  1.00  0.00    -0.312 OA 
ENDROOT
BRANCH   3   5
HETATM    5  C   UNL     1      -9.323  17.208  68.635  1.00  0.00    -0.269 C  
BRANCH   5   6
HETATM    6  C   UNL     1      -9.925  16.020  69.394  1.00  0.00    -0.262 C  
BRANCH   6   7
HETATM    7  C   UNL     1     -10.046  14.788  68.525  1.00  0.00    -0.230 A  
HETATM    8  C   UNL     1      -8.935  14.265  67.856  1.00  0.00    -0.186 A  
HETATM    9  C   UNL     1      -9.057  13.152  67.008  1.00  0.00    -0.231 A  
HETATM   10  C   UNL     1     -10.286  12.524  66.791  1.00  0.00    -0.226 A  
HETATM   11  C   UNL     1     -11.380  13.027  67.518  1.00  0.00    -0.346 A  
HETATM   12  C   UNL     1     -11.269  14.139  68.367  1.00  0.00    -0.289 A  
BRANCH  10  13
HETATM   13  N   UNL     1     -10.458  11.465  65.896  1.00  0.00    -0.252 NA 
BRANCH  13  14
HETATM   14  C   UNL     1     -11.352  11.569  64.724  1.00  0.00    -0.135 C  
HETATM   15 CL   UNL     1      -9.241  11.411  62.954  1.00  0.00    -0.345 Cl 
HETATM   16  C   UNL     1     -10.707  12.259  63.520  1.00  0.00    -0.451 C  
ENDBRANCH  13  14
BRANCH  13  17
HETATM   17  C   UNL     1     -10.233  10.097  66.416  1.00  0.00    -0.221 C  
HETATM   18  C   UNL     1      -9.069   9.346  65.757  1.00  0.00    -0.200 C  
HETATM   19 CL   UNL     1      -7.492  10.133  66.032  1.00  0.00    -0.112 Cl 
ENDBRANCH  13  17
ENDBRANCH  10  13
ENDBRANCH   6   7
ENDBRANCH   5   6
ENDBRANCH   3   5
TORSDOF 6
ENDMDL
MODEL      117
REMARK 921   NORMALIZED FREE ENERGY PREDICTED BY IDOCK:   -3.92 KCAL/MOL
REMARK 922        TOTAL FREE ENERGY PREDICTED BY IDOCK:   -6.02 KCAL/MOL
REMARK 923 INTER-LIGAND FREE ENERGY PREDICTED BY IDOCK:   -5.08 KCAL/MOL
REMARK 924 INTRA-LIGAND FREE ENERGY PREDICTED BY IDOCK:   -0.94 KCAL/MOL
REMARK 927      BINDING AFFINITY PREDICTED BY RF-SCORE:    0.00 PKD
ROOT
HETATM    1  O   UNL     1     -11.538  16.125  71.849  1.00  0.00    -0.458 OA 
HETATM    2  C   UNL     1     -11.823  15.900  70.546  1.00  0.00    -0.350 C  
HETATM    3  C   UNL     1     -10.847  16.586  69.615  1.00  0.00    -0.322 C  
HETATM    4  O   UNL     1     -12.772  15.217  70.197  1.00  0.00    -0.322 OA 
ENDROOT
BRANCH   3   5
HETATM    5  C   UNL     1     -11.204  16.330  68.151  1.00  0.00    -0.298 C  
BRANCH   5   6
HETATM    6  C   UNL     1     -10.095  15.583  67.402  1.00  0.00    -0.246 C  
BRANCH   6   7
HETATM    7  C   UNL     1     -10.177  14.086  67.600  1.00  0.00    -0.241 A  
HETATM    8  C   UNL     1     -11.367  13.391  67.363  1.00  0.00    -0.338 A  
HETATM    9  C   UNL     1     -11.459  12.010  67.598  1.00  0.00    -0.392 A  
HETATM   10  C   UNL     1     -10.375  11.271  68.079  1.00  0.00    -0.183 A  
HETATM   11  C   UNL     1      -9.170  11.976  68.255  1.00  0.00    -0.192 A  
HETATM   12  C   UNL     1      -9.068  13.357  68.025  1.00  0.00    -0.205 A  
BRANCH  10  13
HETATM   13  N   UNL     1     -10.453   9.913  68.396  1.00  0.00    -0.198 NA 
BRANCH  13  14
HETATM   14  C   UNL     1      -9.846   9.361  69.624  1.00  0.00    -0.193 C  
HETATM   15 CL   UNL     1     -12.273   9.304  70.936  1.00  0.00    -0.299 Cl 
HETATM   16  C   UNL     1     -10.556   9.795  70.908  1.00  0.00    -0.274 C  
ENDBRANCH  13  14
BRANCH  13  17
HETATM   17  C   UNL     1     -10.607   8.964  67.270  1.00  0.00    -0.234 C  
HETATM   18  C   UNL     1      -9.490   9.029  66.221  1.00  0.00    -0.242 C  
HETATM   19 CL   UNL     1      -7.892   8.592  66.883  1.00  0.00    -0.091 Cl 
ENDBRANCH  13  17
ENDBRANCH  10  13
ENDBRANCH   6   7
ENDBRANCH   5   6
ENDBRANCH   3   5
TORSDOF 6
ENDMDL
MODEL      118
REMARK 921   NORMALIZED FREE ENERGY PREDICTED BY IDOCK:   -3.91 KCAL/MOL
REMARK 922        TOTAL FREE ENERGY PREDICTED BY IDOCK:   -6.01 KCAL/MOL
REMARK 923 INTER-LIGAND FREE ENERGY PREDICTED BY IDOCK:   -6.21 KCAL/MOL
REMARK 924 INTRA-LIGAND FREE ENERGY PREDICTED BY IDOCK:    0.20 KCAL/MOL
REMARK 927      BINDING AFFINITY PREDICTED BY RF-SCORE:    0.00 PKD
ROOT
HETATM    1  O   UNL     1      -7.622  15.888  67.062  1.00  0.00    -0.197 OA 
HETATM    2  C   UNL     1      -8.800  15.993  66.406  1.00  0.00    -0.328 C  
HETATM    3  C   UNL     1      -9.597  14.707  66.441  1.00  0.00    -0.323 C  
HETATM    4  O   UNL     1      -9.148  17.025  65.854  1.00  0.00    -0.510 OA 
ENDROOT
BRANCH   3   5
HETATM    5  C   UNL     1     -10.913  14.849  65.678  1.00  0.00    -0.347 C  
BRANCH   5   6
HETATM    6  C   UNL     1     -12.133  14.548  66.555  1.00  0.00    -0.330 C  
BRANCH   6   7
HETATM    7  C   UNL     1     -11.877  13.415  67.524  1.00  0.00    -0.408 A  
HETATM    8  C   UNL     1     -11.515  12.144  67.067  1.00  0.00    -0.415 A  
HETATM    9  C   UNL     1     -11.327  11.079  67.963  1.00  0.00    -0.374 A  
HETATM   10  C   UNL     1     -11.497  11.236  69.341  1.00  0.00    -0.301 A  
HETATM   11  C   UNL     1     -11.803  12.535  69.785  1.00  0.00    -0.380 A  
HETATM   12  C   UNL     1     -11.994  13.607  68.899  1.00  0.00    -0.392 A  
BRANCH  10  13
HETATM   13  N   UNL     1     -11.395  10.182  70.251  1.00  0.00    -0.293 NA 
BRANCH  13  14
HETATM   14  C   UNL     1     -11.060   8.809  69.823  1.00  0.00    -0.073 C  
HETATM   15 CL   UNL     1      -8.560   8.933  70.985  1.00  0.00    -0.232 Cl 
HETATM   16  C   UNL     1      -9.569   8.598  69.550  1.00  0.00    -0.170 C  
ENDBRANCH  13  14
BRANCH  13  17
HETATM   17  C   UNL     1     -12.174  10.295  71.506  1.00  0.00    -0.353 C  
HETATM   18  C   UNL     1     -12.753   8.970  72.020  1.00  0.00    -0.398 C  
HETATM   19 CL   UNL     1     -11.492   7.783  72.448  1.00  0.00    -0.383 Cl 
ENDBRANCH  13  17
ENDBRANCH  10  13
ENDBRANCH   6   7
ENDBRANCH   5   6
ENDBRANCH   3   5
TORSDOF 6
ENDMDL
MODEL      119
REMARK 921   NORMALIZED FREE ENERGY PREDICTED BY IDOCK:   -3.90 KCAL/MOL
REMARK 922        TOTAL FREE ENERGY PREDICTED BY IDOCK:   -6.00 KCAL/MOL
REMARK 923 INTER-LIGAND FREE ENERGY PREDICTED BY IDOCK:   -5.40 KCAL/MOL
REMARK 924 INTRA-LIGAND FREE ENERGY PREDICTED BY IDOCK:   -0.59 KCAL/MOL
REMARK 927      BINDING AFFINITY PREDICTED BY RF-SCORE:    0.00 PKD
ROOT
HETATM    1  O   UNL     1      -9.119   3.537  69.068  1.00  0.00    -0.113 OA 
HETATM    2  C   UNL     1      -9.818   4.682  68.889  1.00  0.00    -0.140 C  
HETATM    3  C   UNL     1      -9.515   5.340  67.560  1.00  0.00    -0.136 C  
HETATM    4  O   UNL     1     -10.595   5.108  69.728  1.00  0.00    -0.272 OA 
ENDROOT
BRANCH   3   5
HETATM    5  C   UNL     1     -10.303   6.638  67.392  1.00  0.00    -0.279 C  
BRANCH   5   6
HETATM    6  C   UNL     1      -9.524   7.696  66.603  1.00  0.00    -0.255 C  
BRANCH   6   7
HETATM    7  C   UNL     1     -10.143   9.071  66.723  1.00  0.00    -0.344 A  
HETATM    8  C   UNL     1     -10.149   9.956  65.640  1.00  0.00    -0.307 A  
HETATM    9  C   UNL     1     -10.676  11.252  65.766  1.00  0.00    -0.284 A  
HETATM   10  C   UNL     1     -11.210  11.715  66.971  1.00  0.00    -0.314 A  
HETATM   11  C   UNL     1     -11.248  10.792  68.031  1.00  0.00    -0.372 A  
HETATM   12  C   UNL     1     -10.723   9.495  67.917  1.00  0.00    -0.285 A  
BRANCH  10  13
HETATM   13  N   UNL     1     -11.671  13.021  67.153  1.00  0.00    -0.367 NA 
BRANCH  13  14
HETATM   14  C   UNL     1     -12.453  13.726  66.117  1.00  0.00    -0.418 C  
HETATM   15 CL   UNL     1     -10.177  14.506  64.766  1.00  0.00    -0.358 Cl 
HETATM   16  C   UNL     1     -11.734  14.940  65.525  1.00  0.00    -0.211 C  
ENDBRANCH  13  14
BRANCH  13  17
HETATM   17  C   UNL     1     -10.907  13.884  68.083  1.00  0.00    -0.249 C  
HETATM   18  C   UNL     1     -11.719  14.421  69.270  1.00  0.00    -0.317 C  
HETATM   19 CL   UNL     1     -12.319  13.127  70.341  1.00  0.00    -0.382 Cl 
ENDBRANCH  13  17
ENDBRANCH  10  13
ENDBRANCH   6   7
ENDBRANCH   5   6
ENDBRANCH   3   5
TORSDOF 6
ENDMDL
MODEL      120
REMARK 921   NORMALIZED FREE ENERGY PREDICTED BY IDOCK:   -3.86 KCAL/MOL
REMARK 922        TOTAL FREE ENERGY PREDICTED BY IDOCK:   -5.94 KCAL/MOL
REMARK 923 INTER-LIGAND FREE ENERGY PREDICTED BY IDOCK:   -5.22 KCAL/MOL
REMARK 924 INTRA-LIGAND FREE ENERGY PREDICTED BY IDOCK:   -0.72 KCAL/MOL
REMARK 927      BINDING AFFINITY PREDICTED BY RF-SCORE:    0.00 PKD
ROOT
HETATM    1  O   UNL     1     -12.151  13.605  71.102  1.00  0.00    -0.301 OA 
HETATM    2  C   UNL     1     -12.894  12.575  71.568  1.00  0.00    -0.265 C  
HETATM    3  C   UNL     1     -12.523  11.258  70.923  1.00  0.00    -0.493 C  
HETATM    4  O   UNL     1     -13.761  12.729  72.414  1.00  0.00    -0.546 OA 
ENDROOT
BRANCH   3   5
HETATM    5  C   UNL     1     -13.389  10.117  71.455  1.00  0.00    -0.434 C  
BRANCH   5   6
HETATM    6  C   UNL     1     -12.693   9.325  72.568  1.00  0.00    -0.310 C  
BRANCH   6   7
HETATM    7  C   UNL     1     -11.768   8.261  72.022  1.00  0.00    -0.407 A  
HETATM    8  C   UNL     1     -10.383   8.454  71.996  1.00  0.00    -0.374 A  
HETATM    9  C   UNL     1      -9.527   7.489  71.441  1.00  0.00    -0.159 A  
HETATM   10  C   UNL     1     -10.016   6.302  70.890  1.00  0.00    -0.186 A  
HETATM   11  C   UNL     1     -11.405   6.099  70.978  1.00  0.00    -0.348 A  
HETATM   12  C   UNL     1     -12.270   7.058  71.529  1.00  0.00    -0.407 A  
BRANCH  10  13
HETATM   13  N   UNL     1      -9.202   5.357  70.261  1.00  0.00    -0.144 NA 
BRANCH  13  14
HETATM   14  C   UNL     1      -9.603   4.690  69.006  1.00  0.00    -0.172 C  
HETATM   15 CL   UNL     1      -8.454   6.661  67.455  1.00  0.00    -0.121 Cl 
HETATM   16  C   UNL     1      -9.878   5.661  67.856  1.00  0.00    -0.133 C  
ENDBRANCH  13  14
BRANCH  13  17
HETATM   17  C   UNL     1      -8.254   4.605  71.116  1.00  0.00    -0.092 C  
HETATM   18  C   UNL     1      -8.841   4.120  72.448  1.00  0.00    -0.107 C  
HETATM   19 CL   UNL     1     -10.180   2.960  72.234  1.00  0.00    -0.218 Cl 
ENDBRANCH  13  17
ENDBRANCH  10  13
ENDBRANCH   6   7
ENDBRANCH   5   6
ENDBRANCH   3   5
TORSDOF 6
ENDMDL
MODEL      121
REMARK 921   NORMALIZED FREE ENERGY PREDICTED BY IDOCK:   -3.83 KCAL/MOL
REMARK 922        TOTAL FREE ENERGY PREDICTED BY IDOCK:   -5.90 KCAL/MOL
REMARK 923 INTER-LIGAND FREE ENERGY PREDICTED BY IDOCK:   -5.45 KCAL/MOL
REMARK 924 INTRA-LIGAND FREE ENERGY PREDICTED BY IDOCK:   -0.45 KCAL/MOL
REMARK 927      BINDING AFFINITY PREDICTED BY RF-SCORE:    0.00 PKD
ROOT
HETATM    1  O   UNL     1     -11.796  10.584  69.369  1.00  0.00    -0.261 OA 
HETATM    2  C   UNL     1     -12.186  11.211  70.503  1.00  0.00    -0.384 C  
HETATM    3  C   UNL     1     -12.507  12.672  70.273  1.00  0.00    -0.163 C  
HETATM    4  O   UNL     1     -12.256  10.631  71.574  1.00  0.00    -0.335 OA 
ENDROOT
BRANCH   3   5
HETATM    5  C   UNL     1     -12.926  13.358  71.573  1.00  0.00    -0.429 C  
BRANCH   5   6
HETATM    6  C   UNL     1     -12.123  14.634  71.845  1.00  0.00    -0.375 C  
BRANCH   6   7
HETATM    7  C   UNL     1     -11.435  15.154  70.603  1.00  0.00    -0.345 A  
HETATM    8  C   UNL     1     -10.043  15.101  70.474  1.00  0.00     0.274 A  
HETATM    9  C   UNL     1      -9.400  15.631  69.343  1.00  0.00    -0.279 A  
HETATM   10  C   UNL     1     -10.114  16.235  68.305  1.00  0.00    -0.243 A  
HETATM   11  C   UNL     1     -11.515  16.226  68.426  1.00  0.00    -0.243 A  
HETATM   12  C   UNL     1     -12.169  15.701  69.552  1.00  0.00    -0.231 A  
BRANCH  10  13
HETATM   13  N   UNL     1      -9.502  16.840  67.205  1.00  0.00    -0.228 NA 
BRANCH  13  14
HETATM   14  C   UNL     1      -8.937  16.050  66.092  1.00  0.00    -0.345 C  
HETATM   15 CL   UNL     1     -11.380  15.876  64.823  1.00  0.00    -0.369 Cl 
HETATM   16  C   UNL     1      -9.930  15.063  65.474  1.00  0.00    -0.356 C  
ENDBRANCH  13  14
BRANCH  13  17
HETATM   17  C   UNL     1      -8.902  18.178  67.416  1.00  0.00    -0.256 C  
HETATM   18  C   UNL     1      -9.067  19.146  66.237  1.00  0.00    -0.310 C  
HETATM   19 CL   UNL     1     -10.774  19.533  65.892  1.00  0.00    -0.568 Cl 
ENDBRANCH  13  17
ENDBRANCH  10  13
ENDBRANCH   6   7
ENDBRANCH   5   6
ENDBRANCH   3   5
TORSDOF 6
ENDMDL
MODEL      122
REMARK 921   NORMALIZED FREE ENERGY PREDICTED BY IDOCK:   -3.82 KCAL/MOL
REMARK 922        TOTAL FREE ENERGY PREDICTED BY IDOCK:   -5.89 KCAL/MOL
REMARK 923 INTER-LIGAND FREE ENERGY PREDICTED BY IDOCK:   -5.98 KCAL/MOL
REMARK 924 INTRA-LIGAND FREE ENERGY PREDICTED BY IDOCK:    0.10 KCAL/MOL
REMARK 927      BINDING AFFINITY PREDICTED BY RF-SCORE:    0.00 PKD
ROOT
HETATM    1  O   UNL     1     -10.220  16.955  65.227  1.00  0.00    -0.607 OA 
HETATM    2  C   UNL     1     -11.192  16.147  64.742  1.00  0.00    -0.304 C  
HETATM    3  C   UNL     1     -11.210  14.795  65.422  1.00  0.00    -0.347 C  
HETATM    4  O   UNL     1     -11.949  16.501  63.852  1.00  0.00    -0.979 OA 
ENDROOT
BRANCH   3   5
HETATM    5  C   UNL     1     -12.304  13.898  64.843  1.00  0.00    -0.445 C  
BRANCH   5   6
HETATM    6  C   UNL     1     -11.810  13.072  63.650  1.00  0.00    -0.580 C  
BRANCH   6   7
HETATM    7  C   UNL     1     -11.023  11.855  64.083  1.00  0.00    -0.430 A  
HETATM    8  C   UNL     1     -11.158  11.330  65.372  1.00  0.00    -0.138 A  
HETATM    9  C   UNL     1     -10.389  10.232  65.792  1.00  0.00    -0.236 A  
HETATM   10  C   UNL     1      -9.457   9.621  64.949  1.00  0.00    -0.220 A  
HETATM   11  C   UNL     1      -9.378  10.125  63.638  1.00  0.00    -0.336 A  
HETATM   12  C   UNL     1     -10.141  11.223  63.209  1.00  0.00    -0.428 A  
BRANCH  10  13
HETATM   13  N   UNL     1      -8.622   8.578  65.357  1.00  0.00    -0.176 NA 
BRANCH  13  14
HETATM   14  C   UNL     1      -9.066   7.555  66.326  1.00  0.00    -0.157 C  
HETATM   15 CL   UNL     1      -8.758   9.277  68.460  1.00  0.00    -0.128 Cl 
HETATM   16  C   UNL     1      -8.418   7.695  67.705  1.00  0.00    -0.122 C  
ENDBRANCH  13  14
BRANCH  13  17
HETATM   17  C   UNL     1      -7.162   8.818  65.295  1.00  0.00    -0.084 C  
HETATM   18  C   UNL     1      -6.760  10.296  65.206  1.00  0.00    -0.126 C  
HETATM   19 CL   UNL     1      -7.249  11.235  66.641  1.00  0.00    -0.141 Cl 
ENDBRANCH  13  17
ENDBRANCH  10  13
ENDBRANCH   6   7
ENDBRANCH   5   6
ENDBRANCH   3   5
TORSDOF 6
ENDMDL
MODEL      123
REMARK 921   NORMALIZED FREE ENERGY PREDICTED BY IDOCK:   -3.82 KCAL/MOL
REMARK 922        TOTAL FREE ENERGY PREDICTED BY IDOCK:   -5.88 KCAL/MOL
REMARK 923 INTER-LIGAND FREE ENERGY PREDICTED BY IDOCK:   -5.19 KCAL/MOL
REMARK 924 INTRA-LIGAND FREE ENERGY PREDICTED BY IDOCK:   -0.70 KCAL/MOL
REMARK 927      BINDING AFFINITY PREDICTED BY RF-SCORE:    0.00 PKD
ROOT
HETATM    1  O   UNL     1      -9.916  20.171  66.986  1.00  0.00    -0.406 OA 
HETATM    2  C   UNL     1     -10.040  19.287  68.003  1.00  0.00    -0.400 C  
HETATM    3  C   UNL     1     -10.299  17.878  67.514  1.00  0.00    -0.383 C  
HETATM    4  O   UNL     1      -9.950  19.623  69.173  1.00  0.00    -0.441 OA 
ENDROOT
BRANCH   3   5
HETATM    5  C   UNL     1     -10.452  16.905  68.682  1.00  0.00    -0.352 C  
BRANCH   5   6
HETATM    6  C   UNL     1     -11.512  15.831  68.412  1.00  0.00    -0.367 C  
BRANCH   6   7
HETATM    7  C   UNL     1     -10.899  14.518  67.980  1.00  0.00    -0.249 A  
HETATM    8  C   UNL     1     -11.691  13.488  67.462  1.00  0.00    -0.403 A  
HETATM    9  C   UNL     1     -11.131  12.250  67.109  1.00  0.00    -0.330 A  
HETATM   10  C   UNL     1      -9.767  11.989  67.261  1.00  0.00    -0.185 A  
HETATM   11  C   UNL     1      -8.977  13.056  67.727  1.00  0.00    -0.191 A  
HETATM   12  C   UNL     1      -9.527  14.297  68.085  1.00  0.00    -0.204 A  
BRANCH  10  13
HETATM   13  N   UNL     1      -9.189  10.746  66.993  1.00  0.00    -0.151 NA 
BRANCH  13  14
HETATM   14  C   UNL     1      -9.669   9.881  65.896  1.00  0.00    -0.262 C  
HETATM   15 CL   UNL     1      -7.275  10.077  64.539  1.00  0.00    -0.138 Cl 
HETATM   16  C   UNL     1      -9.055  10.218  64.536  1.00  0.00    -0.234 C  
ENDBRANCH  13  14
BRANCH  13  17
HETATM   17  C   UNL     1      -8.530  10.050  68.122  1.00  0.00    -0.114 C  
HETATM   18  C   UNL     1      -9.377   9.953  69.397  1.00  0.00    -0.214 C  
HETATM   19 CL   UNL     1     -10.868   9.001  69.168  1.00  0.00    -0.167 Cl 
ENDBRANCH  13  17
ENDBRANCH  10  13
ENDBRANCH   6   7
ENDBRANCH   5   6
ENDBRANCH   3   5
TORSDOF 6
ENDMDL
MODEL      124
REMARK 921   NORMALIZED FREE ENERGY PREDICTED BY IDOCK:   -3.82 KCAL/MOL
REMARK 922        TOTAL FREE ENERGY PREDICTED BY IDOCK:   -5.88 KCAL/MOL
REMARK 923 INTER-LIGAND FREE ENERGY PREDICTED BY IDOCK:   -5.28 KCAL/MOL
REMARK 924 INTRA-LIGAND FREE ENERGY PREDICTED BY IDOCK:   -0.60 KCAL/MOL
REMARK 927      BINDING AFFINITY PREDICTED BY RF-SCORE:    0.00 PKD
ROOT
HETATM    1  O   UNL     1     -10.793   5.074  66.074  1.00  0.00    -0.283 OA 
HETATM    2  C   UNL     1      -9.925   6.025  66.489  1.00  0.00    -0.141 C  
HETATM    3  C   UNL     1     -10.627   7.221  67.095  1.00  0.00    -0.416 C  
HETATM    4  O   UNL     1      -8.717   5.900  66.368  1.00  0.00    -0.122 OA 
ENDROOT
BRANCH   3   5
HETATM    5  C   UNL     1      -9.624   8.286  67.537  1.00  0.00    -0.194 C  
BRANCH   5   6
HETATM    6  C   UNL     1     -10.165   9.163  68.672  1.00  0.00    -0.225 C  
BRANCH   6   7
HETATM    7  C   UNL     1     -10.393  10.592  68.233  1.00  0.00    -0.201 A  
HETATM    8  C   UNL     1      -9.353  11.355  67.691  1.00  0.00    -0.159 A  
HETATM    9  C   UNL     1      -9.549  12.698  67.332  1.00  0.00    -0.194 A  
HETATM   10  C   UNL     1     -10.783  13.332  67.502  1.00  0.00    -0.250 A  
HETATM   11  C   UNL     1     -11.832  12.533  67.992  1.00  0.00    -0.382 A  
HETATM   12  C   UNL     1     -11.645  11.190  68.356  1.00  0.00    -0.376 A  
BRANCH  10  13
HETATM   13  N   UNL     1     -10.993  14.686  67.228  1.00  0.00    -0.308 NA 
BRANCH  13  14
HETATM   14  C   UNL     1     -10.322  15.369  66.103  1.00  0.00    -0.313 C  
HETATM   15 CL   UNL     1     -12.283  14.606  64.319  1.00  0.00    -0.500 Cl 
HETATM   16  C   UNL     1     -10.553  14.694  64.750  1.00  0.00    -0.353 C  
ENDBRANCH  13  14
BRANCH  13  17
HETATM   17  C   UNL     1     -11.394  15.550  68.361  1.00  0.00    -0.354 C  
HETATM   18  C   UNL     1     -10.427  15.532  69.553  1.00  0.00    -0.263 C  
HETATM   19 CL   UNL     1      -8.807  16.154  69.140  1.00  0.00    -0.252 Cl 
ENDBRANCH  13  17
ENDBRANCH  10  13
ENDBRANCH   6   7
ENDBRANCH   5   6
ENDBRANCH   3   5
TORSDOF 6
ENDMDL
MODEL      125
REMARK 921   NORMALIZED FREE ENERGY PREDICTED BY IDOCK:   -3.81 KCAL/MOL
REMARK 922        TOTAL FREE ENERGY PREDICTED BY IDOCK:   -5.88 KCAL/MOL
REMARK 923 INTER-LIGAND FREE ENERGY PREDICTED BY IDOCK:   -5.88 KCAL/MOL
REMARK 924 INTRA-LIGAND FREE ENERGY PREDICTED BY IDOCK:   -0.00 KCAL/MOL
REMARK 927      BINDING AFFINITY PREDICTED BY RF-SCORE:    0.00 PKD
ROOT
HETATM    1  O   UNL     1     -11.508   9.307  70.480  1.00  0.00    -0.265 OA 
HETATM    2  C   UNL     1     -12.298   9.933  71.382  1.00  0.00    -0.404 C  
HETATM    3  C   UNL     1     -12.550  11.381  71.021  1.00  0.00    -0.487 C  
HETATM    4  O   UNL     1     -12.737   9.364  72.368  1.00  0.00    -0.352 OA 
ENDROOT
BRANCH   3   5
HETATM    5  C   UNL     1     -13.429  12.068  72.065  1.00  0.00    -0.364 C  
BRANCH   5   6
HETATM    6  C   UNL     1     -13.644  13.555  71.761  1.00  0.00    -0.431 C  
BRANCH   6   7
HETATM    7  C   UNL     1     -12.604  14.101  70.809  1.00  0.00    -0.432 A  
HETATM    8  C   UNL     1     -11.708  15.095  71.212  1.00  0.00    -0.409 A  
HETATM    9  C   UNL     1     -10.777  15.640  70.312  1.00  0.00    -0.354 A  
HETATM   10  C   UNL     1     -10.706  15.219  68.981  1.00  0.00    -0.244 A  
HETATM   11  C   UNL     1     -11.575  14.177  68.611  1.00  0.00    -0.352 A  
HETATM   12  C   UNL     1     -12.510  13.627  69.501  1.00  0.00    -0.092 A  
BRANCH  10  13
HETATM   13  N   UNL     1      -9.846  15.792  68.041  1.00  0.00    -0.216 NA 
BRANCH  13  14
HETATM   14  C   UNL     1      -8.380  15.791  68.220  1.00  0.00    -0.163 C  
HETATM   15 CL   UNL     1      -8.144  13.231  67.219  1.00  0.00    -0.172 Cl 
HETATM   16  C   UNL     1      -7.799  14.407  68.518  1.00  0.00    -0.138 C  
ENDBRANCH  13  14
BRANCH  13  17
HETATM   17  C   UNL     1     -10.393  16.883  67.202  1.00  0.00    -0.304 C  
HETATM   18  C   UNL     1     -10.056  16.771  65.709  1.00  0.00    -0.253 C  
HETATM   19 CL   UNL     1     -10.744  15.311  64.950  1.00  0.00    -0.447 Cl 
ENDBRANCH  13  17
ENDBRANCH  10  13
ENDBRANCH   6   7
ENDBRANCH   5   6
ENDBRANCH   3   5
TORSDOF 6
ENDMDL
MODEL      126
REMARK 921   NORMALIZED FREE ENERGY PREDICTED BY IDOCK:   -3.80 KCAL/MOL
REMARK 922        TOTAL FREE ENERGY PREDICTED BY IDOCK:   -5.86 KCAL/MOL
REMARK 923 INTER-LIGAND FREE ENERGY PREDICTED BY IDOCK:   -5.13 KCAL/MOL
REMARK 924 INTRA-LIGAND FREE ENERGY PREDICTED BY IDOCK:   -0.73 KCAL/MOL
REMARK 927      BINDING AFFINITY PREDICTED BY RF-SCORE:    0.00 PKD
ROOT
HETATM    1  O   UNL     1      -9.210   7.899  68.834  1.00  0.00    -0.144 OA 
HETATM    2  C   UNL     1      -9.332   9.119  68.261  1.00  0.00    -0.135 C  
HETATM    3  C   UNL     1     -10.624   9.265  67.485  1.00  0.00    -0.329 C  
HETATM    4  O   UNL     1      -8.475   9.980  68.374  1.00  0.00    -0.109 OA 
ENDROOT
BRANCH   3   5
HETATM    5  C   UNL     1     -10.726  10.644  66.835  1.00  0.00    -0.297 C  
BRANCH   5   6
HETATM    6  C   UNL     1     -11.611  11.604  67.637  1.00  0.00    -0.349 C  
BRANCH   6   7
HETATM    7  C   UNL     1     -11.112  13.030  67.576  1.00  0.00    -0.297 A  
HETATM    8  C   UNL     1     -10.191  13.431  66.603  1.00  0.00    -0.274 A  
HETATM    9  C   UNL     1      -9.687  14.741  66.578  1.00  0.00    -0.295 A  
HETATM   10  C   UNL     1     -10.076  15.698  67.520  1.00  0.00    -0.253 A  
HETATM   11  C   UNL     1     -11.047  15.293  68.453  1.00  0.00    -0.289 A  
HETATM   12  C   UNL     1     -11.556  13.985  68.488  1.00  0.00    -0.357 A  
BRANCH  10  13
HETATM   13  N   UNL     1      -9.538  16.986  67.571  1.00  0.00    -0.246 NA 
BRANCH  13  14
HETATM   14  C   UNL     1      -9.308  17.786  66.352  1.00  0.00    -0.249 C  
HETATM   15 CL   UNL     1     -10.810  19.893  67.311  1.00  0.00    -0.463 Cl 
HETATM   16  C   UNL     1     -10.467  18.724  66.006  1.00  0.00    -0.432 C  
ENDBRANCH  13  14
BRANCH  13  17
HETATM   17  C   UNL     1      -8.673  17.311  68.729  1.00  0.00    -0.232 C  
HETATM   18  C   UNL     1      -7.615  16.250  69.055  1.00  0.00    -0.219 C  
HETATM   19 CL   UNL     1      -6.434  16.021  67.738  1.00  0.00    -0.160 Cl 
ENDBRANCH  13  17
ENDBRANCH  10  13
ENDBRANCH   6   7
ENDBRANCH   5   6
ENDBRANCH   3   5
TORSDOF 6
ENDMDL
MODEL      127
REMARK 921   NORMALIZED FREE ENERGY PREDICTED BY IDOCK:   -3.80 KCAL/MOL
REMARK 922        TOTAL FREE ENERGY PREDICTED BY IDOCK:   -5.86 KCAL/MOL
REMARK 923 INTER-LIGAND FREE ENERGY PREDICTED BY IDOCK:   -5.32 KCAL/MOL
REMARK 924 INTRA-LIGAND FREE ENERGY PREDICTED BY IDOCK:   -0.54 KCAL/MOL
REMARK 927      BINDING AFFINITY PREDICTED BY RF-SCORE:    0.00 PKD
ROOT
HETATM    1  O   UNL     1     -12.739  14.731  72.510  1.00  0.00    -0.335 OA 
HETATM    2  C   UNL     1     -13.340  13.545  72.259  1.00  0.00    -0.531 C  
HETATM    3  C   UNL     1     -12.550  12.692  71.290  1.00  0.00    -0.339 C  
HETATM    4  O   UNL     1     -14.402  13.232  72.772  1.00  0.00    -0.606 OA 
ENDROOT
BRANCH   3   5
HETATM    5  C   UNL     1     -13.260  11.367  71.011  1.00  0.00     0.042 C  
BRANCH   5   6
HETATM    6  C   UNL     1     -13.073  10.355  72.147  1.00  0.00    -0.427 C  
BRANCH   6   7
HETATM    7  C   UNL     1     -12.096   9.259  71.782  1.00  0.00    -0.457 A  
HETATM    8  C   UNL     1     -10.815   9.563  71.311  1.00  0.00    -0.413 A  
HETATM    9  C   UNL     1      -9.926   8.547  70.923  1.00  0.00    -0.237 A  
HETATM   10  C   UNL     1     -10.279   7.197  70.985  1.00  0.00    -0.196 A  
HETATM   11  C   UNL     1     -11.549   6.909  71.517  1.00  0.00    -0.329 A  
HETATM   12  C   UNL     1     -12.446   7.916  71.907  1.00  0.00    -0.352 A  
BRANCH  10  13
HETATM   13  N   UNL     1      -9.449   6.166  70.536  1.00  0.00    -0.163 NA 
BRANCH  13  14
HETATM   14  C   UNL     1      -8.037   6.402  70.173  1.00  0.00    -0.120 C  
HETATM   15 CL   UNL     1      -7.123   5.206  72.486  1.00  0.00    -0.083 Cl 
HETATM   16  C   UNL     1      -7.120   6.608  71.380  1.00  0.00    -0.076 C  
ENDBRANCH  13  14
BRANCH  13  17
HETATM   17  C   UNL     1     -10.102   5.013  69.874  1.00  0.00    -0.274 C  
HETATM   18  C   UNL     1      -9.640   3.640  70.379  1.00  0.00    -0.184 C  
HETATM   19 CL   UNL     1     -10.022   3.371  72.101  1.00  0.00    -0.235 Cl 
ENDBRANCH  13  17
ENDBRANCH  10  13
ENDBRANCH   6   7
ENDBRANCH   5   6
ENDBRANCH   3   5
TORSDOF 6
ENDMDL
MODEL      128
REMARK 921   NORMALIZED FREE ENERGY PREDICTED BY IDOCK:   -3.79 KCAL/MOL
REMARK 922        TOTAL FREE ENERGY PREDICTED BY IDOCK:   -5.84 KCAL/MOL
REMARK 923 INTER-LIGAND FREE ENERGY PREDICTED BY IDOCK:   -5.32 KCAL/MOL
REMARK 924 INTRA-LIGAND FREE ENERGY PREDICTED BY IDOCK:   -0.52 KCAL/MOL
REMARK 927      BINDING AFFINITY PREDICTED BY RF-SCORE:    0.00 PKD
ROOT
HETATM    1  O   UNL     1      -9.004   2.665  63.656  1.00  0.00    -0.092 OA 
HETATM    2  C   UNL     1      -9.933   3.420  64.287  1.00  0.00    -0.181 C  
HETATM    3  C   UNL     1      -9.357   4.178  65.464  1.00  0.00    -0.162 C  
HETATM    4  O   UNL     1     -11.097   3.458  63.922  1.00  0.00    -0.296 OA 
ENDROOT
BRANCH   3   5
HETATM    5  C   UNL     1     -10.431   5.007  66.168  1.00  0.00    -0.334 C  
BRANCH   5   6
HETATM    6  C   UNL     1      -9.957   6.429  66.484  1.00  0.00    -0.162 C  
BRANCH   6   7
HETATM    7  C   UNL     1     -10.363   6.874  67.871  1.00  0.00    -0.239 A  
HETATM    8  C   UNL     1     -11.106   6.035  68.708  1.00  0.00    -0.329 A  
HETATM    9  C   UNL     1     -11.529   6.467  69.976  1.00  0.00    -0.496 A  
HETATM   10  C   UNL     1     -11.233   7.746  70.455  1.00  0.00    -0.257 A  
HETATM   11  C   UNL     1     -10.435   8.553  69.624  1.00  0.00    -0.221 A  
HETATM   12  C   UNL     1     -10.008   8.132  68.354  1.00  0.00    -0.210 A  
BRANCH  10  13
HETATM   13  N   UNL     1     -11.702   8.235  71.677  1.00  0.00    -0.276 NA 
BRANCH  13  14
HETATM   14  C   UNL     1     -11.270   7.659  72.966  1.00  0.00    -0.333 C  
HETATM   15 CL   UNL     1      -8.677   8.534  72.622  1.00  0.00    -0.262 Cl 
HETATM   16  C   UNL     1      -9.810   7.201  72.977  1.00  0.00    -0.195 C  
ENDBRANCH  13  14
BRANCH  13  17
HETATM   17  C   UNL     1     -13.027   8.895  71.676  1.00  0.00    -0.354 C  
HETATM   18  C   UNL     1     -12.986  10.411  71.913  1.00  0.00    -0.450 C  
HETATM   19 CL   UNL     1     -12.111  11.289  70.629  1.00  0.00    -0.471 Cl 
ENDBRANCH  13  17
ENDBRANCH  10  13
ENDBRANCH   6   7
ENDBRANCH   5   6
ENDBRANCH   3   5
TORSDOF 6
ENDMDL
MODEL      129
REMARK 921   NORMALIZED FREE ENERGY PREDICTED BY IDOCK:   -3.77 KCAL/MOL
REMARK 922        TOTAL FREE ENERGY PREDICTED BY IDOCK:   -5.83 KCAL/MOL
REMARK 923 INTER-LIGAND FREE ENERGY PREDICTED BY IDOCK:   -5.47 KCAL/MOL
REMARK 924 INTRA-LIGAND FREE ENERGY PREDICTED BY IDOCK:   -0.36 KCAL/MOL
REMARK 927      BINDING AFFINITY PREDICTED BY RF-SCORE:    0.00 PKD
ROOT
HETATM    1  O   UNL     1     -12.406  11.831  63.415  1.00  0.00    -0.532 OA 
HETATM    2  C   UNL     1     -12.416  12.628  64.509  1.00  0.00    -0.448 C  
HETATM    3  C   UNL     1     -11.040  13.156  64.851  1.00  0.00    -0.335 C  
HETATM    4  O   UNL     1     -13.440  12.869  65.129  1.00  0.00    -0.461 OA 
ENDROOT
BRANCH   3   5
HETATM    5  C   UNL     1     -11.078  14.036  66.099  1.00  0.00    -0.302 C  
BRANCH   5   6
HETATM    6  C   UNL     1     -11.098  15.531  65.760  1.00  0.00    -0.217 C  
BRANCH   6   7
HETATM    7  C   UNL     1     -10.067  16.311  66.545  1.00  0.00    -0.301 A  
HETATM    8  C   UNL     1      -8.988  16.927  65.905  1.00  0.00    -0.075 A  
HETATM    9  C   UNL     1      -8.002  17.607  66.639  1.00  0.00    -0.285 A  
HETATM   10  C   UNL     1      -8.051  17.695  68.033  1.00  0.00    -0.243 A  
HETATM   11  C   UNL     1      -9.175  17.120  68.653  1.00  0.00    -0.263 A  
HETATM   12  C   UNL     1     -10.165  16.437  67.930  1.00  0.00    -0.268 A  
BRANCH  10  13
HETATM   13  N   UNL     1      -7.049  18.295  68.799  1.00  0.00    -0.274 NA 
BRANCH  13  14
HETATM   14  C   UNL     1      -6.169  17.510  69.687  1.00  0.00    -0.227 C  
HETATM   15 CL   UNL     1      -5.190  16.013  67.587  1.00  0.00    -0.148 Cl 
HETATM   16  C   UNL     1      -5.935  16.076  69.209  1.00  0.00    -0.132 C  
ENDBRANCH  13  14
BRANCH  13  17
HETATM   17  C   UNL     1      -7.244  19.715  69.173  1.00  0.00    -0.327 C  
HETATM   18  C   UNL     1      -6.408  20.711  68.360  1.00  0.00    -0.306 C  
HETATM   19 CL   UNL     1      -6.819  20.705  66.624  1.00  0.00    -0.321 Cl 
ENDBRANCH  13  17
ENDBRANCH  10  13
ENDBRANCH   6   7
ENDBRANCH   5   6
ENDBRANCH   3   5
TORSDOF 6
ENDMDL
MODEL      130
REMARK 921   NORMALIZED FREE ENERGY PREDICTED BY IDOCK:   -3.77 KCAL/MOL
REMARK 922        TOTAL FREE ENERGY PREDICTED BY IDOCK:   -5.81 KCAL/MOL
REMARK 923 INTER-LIGAND FREE ENERGY PREDICTED BY IDOCK:   -5.38 KCAL/MOL
REMARK 924 INTRA-LIGAND FREE ENERGY PREDICTED BY IDOCK:   -0.43 KCAL/MOL
REMARK 927      BINDING AFFINITY PREDICTED BY RF-SCORE:    0.00 PKD
ROOT
HETATM    1  O   UNL     1     -11.154   5.635  72.074  1.00  0.00    -0.254 OA 
HETATM    2  C   UNL     1     -10.766   6.646  71.264  1.00  0.00    -0.231 C  
HETATM    3  C   UNL     1     -10.415   7.901  72.035  1.00  0.00    -0.289 C  
HETATM    4  O   UNL     1     -10.720   6.527  70.050  1.00  0.00    -0.211 OA 
ENDROOT
BRANCH   3   5
HETATM    5  C   UNL     1      -9.999   9.031  71.094  1.00  0.00    -0.365 C  
BRANCH   5   6
HETATM    6  C   UNL     1     -11.175   9.937  70.714  1.00  0.00    -0.427 C  
BRANCH   6   7
HETATM    7  C   UNL     1     -10.899  10.740  69.463  1.00  0.00    -0.288 A  
HETATM    8  C   UNL     1     -11.906  11.493  68.852  1.00  0.00    -0.406 A  
HETATM    9  C   UNL     1     -11.664  12.197  67.661  1.00  0.00    -0.386 A  
HETATM   10  C   UNL     1     -10.416  12.175  67.033  1.00  0.00    -0.220 A  
HETATM   11  C   UNL     1      -9.400  11.461  67.694  1.00  0.00    -0.159 A  
HETATM   12  C   UNL     1      -9.631  10.752  68.883  1.00  0.00    -0.204 A  
BRANCH  10  13
HETATM   13  N   UNL     1     -10.162  12.799  65.810  1.00  0.00    -0.285 NA 
BRANCH  13  14
HETATM   14  C   UNL     1      -9.882  14.246  65.714  1.00  0.00    -0.287 C  
HETATM   15 CL   UNL     1     -12.456  14.806  64.891  1.00  0.00    -0.278 Cl 
HETATM   16  C   UNL     1     -10.696  14.958  64.631  1.00  0.00    -0.234 C  
ENDBRANCH  13  14
BRANCH  13  17
HETATM   17  C   UNL     1     -10.737  12.171  64.598  1.00  0.00    -0.304 C  
HETATM   18  C   UNL     1      -9.740  11.356  63.765  1.00  0.00    -0.287 C  
HETATM   19 CL   UNL     1      -9.075   9.958  64.651  1.00  0.00    -0.264 Cl 
ENDBRANCH  13  17
ENDBRANCH  10  13
ENDBRANCH   6   7
ENDBRANCH   5   6
ENDBRANCH   3   5
TORSDOF 6
ENDMDL
MODEL      131
REMARK 921   NORMALIZED FREE ENERGY PREDICTED BY IDOCK:   -3.76 KCAL/MOL
REMARK 922        TOTAL FREE ENERGY PREDICTED BY IDOCK:   -5.80 KCAL/MOL
REMARK 923 INTER-LIGAND FREE ENERGY PREDICTED BY IDOCK:   -5.01 KCAL/MOL
REMARK 924 INTRA-LIGAND FREE ENERGY PREDICTED BY IDOCK:   -0.80 KCAL/MOL
REMARK 927      BINDING AFFINITY PREDICTED BY RF-SCORE:    0.00 PKD
ROOT
HETATM    1  O   UNL     1     -10.523   6.829  73.983  1.00  0.00    -0.364 OA 
HETATM    2  C   UNL     1     -11.031   6.213  72.891  1.00  0.00    -0.262 C  
HETATM    3  C   UNL     1     -10.933   7.069  71.647  1.00  0.00    -0.258 C  
HETATM    4  O   UNL     1     -11.511   5.092  72.941  1.00  0.00    -0.281 OA 
ENDROOT
BRANCH   3   5
HETATM    5  C   UNL     1     -11.531   6.356  70.435  1.00  0.00    -0.458 C  
BRANCH   5   6
HETATM    6  C   UNL     1     -10.461   5.924  69.425  1.00  0.00    -0.343 C  
BRANCH   6   7
HETATM    7  C   UNL     1     -10.024   7.062  68.531  1.00  0.00    -0.158 A  
HETATM    8  C   UNL     1      -8.848   7.772  68.790  1.00  0.00    -0.134 A  
HETATM    9  C   UNL     1      -8.469   8.863  67.991  1.00  0.00    -0.126 A  
HETATM   10  C   UNL     1      -9.245   9.289  66.910  1.00  0.00    -0.144 A  
HETATM   11  C   UNL     1     -10.393   8.526  66.629  1.00  0.00    -0.303 A  
HETATM   12  C   UNL     1     -10.782   7.435  67.423  1.00  0.00    -0.348 A  
BRANCH  10  13
HETATM   13  N   UNL     1      -8.939  10.415  66.143  1.00  0.00    -0.153 NA 
BRANCH  13  14
HETATM   14  C   UNL     1      -8.214  10.313  64.860  1.00  0.00    -0.157 C  
HETATM   15 CL   UNL     1     -10.406  11.170  63.420  1.00  0.00    -0.430 Cl 
HETATM   16  C   UNL     1      -9.114   9.964  63.672  1.00  0.00    -0.259 C  
ENDBRANCH  13  14
BRANCH  13  17
HETATM   17  C   UNL     1      -8.805  11.705  66.858  1.00  0.00    -0.190 C  
HETATM   18  C   UNL     1      -9.940  12.703  66.594  1.00  0.00    -0.242 C  
HETATM   19 CL   UNL     1     -11.528  12.110  67.151  1.00  0.00    -0.398 Cl 
ENDBRANCH  13  17
ENDBRANCH  10  13
ENDBRANCH   6   7
ENDBRANCH   5   6
ENDBRANCH   3   5
TORSDOF 6
ENDMDL
MODEL      132
REMARK 921   NORMALIZED FREE ENERGY PREDICTED BY IDOCK:   -3.75 KCAL/MOL
REMARK 922        TOTAL FREE ENERGY PREDICTED BY IDOCK:   -5.80 KCAL/MOL
REMARK 923 INTER-LIGAND FREE ENERGY PREDICTED BY IDOCK:   -5.15 KCAL/MOL
REMARK 924 INTRA-LIGAND FREE ENERGY PREDICTED BY IDOCK:   -0.64 KCAL/MOL
REMARK 927      BINDING AFFINITY PREDICTED BY RF-SCORE:    0.00 PKD
ROOT
HETATM    1  O   UNL     1     -13.359   9.548  72.597  1.00  0.00    -0.361 OA 
HETATM    2  C   UNL     1     -12.515   9.167  71.611  1.00  0.00    -0.359 C  
HETATM    3  C   UNL     1     -12.342  10.238  70.555  1.00  0.00    -0.371 C  
HETATM    4  O   UNL     1     -11.973   8.073  71.604  1.00  0.00    -0.276 OA 
ENDROOT
BRANCH   3   5
HETATM    5  C   UNL     1     -11.399   9.774  69.445  1.00  0.00    -0.090 C  
BRANCH   5   6
HETATM    6  C   UNL     1     -10.024  10.447  69.528  1.00  0.00    -0.229 C  
BRANCH   6   7
HETATM    7  C   UNL     1      -9.929  11.666  68.638  1.00  0.00    -0.192 A  
HETATM    8  C   UNL     1      -8.956  11.755  67.638  1.00  0.00    -0.169 A  
HETATM    9  C   UNL     1      -8.833  12.908  66.846  1.00  0.00    -0.188 A  
HETATM   10  C   UNL     1      -9.669  14.014  67.022  1.00  0.00    -0.256 A  
HETATM   11  C   UNL     1     -10.679  13.883  67.991  1.00  0.00    -0.255 A  
HETATM   12  C   UNL     1     -10.810  12.736  68.790  1.00  0.00    -0.270 A  
BRANCH  10  13
HETATM   13  N   UNL     1      -9.525  15.205  66.305  1.00  0.00    -0.290 NA 
BRANCH  13  14
HETATM   14  C   UNL     1      -8.289  16.010  66.367  1.00  0.00    -0.309 C  
HETATM   15 CL   UNL     1      -9.090  17.276  68.683  1.00  0.00    -0.267 Cl 
HETATM   16  C   UNL     1      -8.483  17.385  67.008  1.00  0.00    -0.225 C  
ENDBRANCH  13  14
BRANCH  13  17
HETATM   17  C   UNL     1     -10.763  15.948  65.974  1.00  0.00    -0.284 C  
HETATM   18  C   UNL     1     -11.320  15.669  64.572  1.00  0.00    -0.320 C  
HETATM   19 CL   UNL     1     -11.813  13.970  64.347  1.00  0.00    -0.443 Cl 
ENDBRANCH  13  17
ENDBRANCH  10  13
ENDBRANCH   6   7
ENDBRANCH   5   6
ENDBRANCH   3   5
TORSDOF 6
ENDMDL
MODEL      133
REMARK 921   NORMALIZED FREE ENERGY PREDICTED BY IDOCK:   -3.75 KCAL/MOL
REMARK 922        TOTAL FREE ENERGY PREDICTED BY IDOCK:   -5.79 KCAL/MOL
REMARK 923 INTER-LIGAND FREE ENERGY PREDICTED BY IDOCK:   -5.03 KCAL/MOL
REMARK 924 INTRA-LIGAND FREE ENERGY PREDICTED BY IDOCK:   -0.76 KCAL/MOL
REMARK 927      BINDING AFFINITY PREDICTED BY RF-SCORE:    0.00 PKD
ROOT
HETATM    1  O   UNL     1     -10.008  11.568  66.361  1.00  0.00    -0.200 OA 
HETATM    2  C   UNL     1     -11.099  11.616  67.160  1.00  0.00    -0.299 C  
HETATM    3  C   UNL     1     -10.974  10.703  68.360  1.00  0.00    -0.303 C  
HETATM    4  O   UNL     1     -12.059  12.325  66.907  1.00  0.00    -0.583 OA 
ENDROOT
BRANCH   3   5
HETATM    5  C   UNL     1     -12.227  10.763  69.234  1.00  0.00    -0.185 C  
BRANCH   5   6
HETATM    6  C   UNL     1     -11.901  10.664  70.729  1.00  0.00    -0.459 C  
BRANCH   6   7
HETATM    7  C   UNL     1     -11.246   9.350  71.087  1.00  0.00    -0.427 A  
HETATM    8  C   UNL     1     -11.992   8.169  71.163  1.00  0.00    -0.296 A  
HETATM    9  C   UNL     1     -11.394   6.958  71.547  1.00  0.00    -0.302 A  
HETATM   10  C   UNL     1     -10.038   6.876  71.872  1.00  0.00    -0.183 A  
HETATM   11  C   UNL     1      -9.292   8.061  71.732  1.00  0.00    -0.218 A  
HETATM   12  C   UNL     1      -9.880   9.278  71.351  1.00  0.00    -0.296 A  
BRANCH  10  13
HETATM   13  N   UNL     1      -9.428   5.706  72.331  1.00  0.00    -0.144 NA 
BRANCH  13  14
HETATM   14  C   UNL     1      -9.403   5.349  73.764  1.00  0.00    -0.136 C  
HETATM   15 CL   UNL     1     -10.905   3.073  73.341  1.00  0.00    -0.293 Cl 
HETATM   16  C   UNL     1     -10.653   4.600  74.231  1.00  0.00    -0.274 C  
ENDBRANCH  13  14
BRANCH  13  17
HETATM   17  C   UNL     1      -8.332   5.147  71.507  1.00  0.00    -0.120 C  
HETATM   18  C   UNL     1      -8.737   3.959  70.625  1.00  0.00    -0.073 C  
HETATM   19 CL   UNL     1      -9.964   4.388  69.404  1.00  0.00    -0.235 Cl 
ENDBRANCH  13  17
ENDBRANCH  10  13
ENDBRANCH   6   7
ENDBRANCH   5   6
ENDBRANCH   3   5
TORSDOF 6
ENDMDL
MODEL      134
REMARK 921   NORMALIZED FREE ENERGY PREDICTED BY IDOCK:   -3.74 KCAL/MOL
REMARK 922        TOTAL FREE ENERGY PREDICTED BY IDOCK:   -5.78 KCAL/MOL
REMARK 923 INTER-LIGAND FREE ENERGY PREDICTED BY IDOCK:   -5.11 KCAL/MOL
REMARK 924 INTRA-LIGAND FREE ENERGY PREDICTED BY IDOCK:   -0.67 KCAL/MOL
REMARK 927      BINDING AFFINITY PREDICTED BY RF-SCORE:    0.00 PKD
ROOT
HETATM    1  O   UNL     1     -13.579   9.511  71.677  1.00  0.00    -0.380 OA 
HETATM    2  C   UNL     1     -13.092  10.735  71.370  1.00  0.00    -0.369 C  
HETATM    3  C   UNL     1     -12.382  10.756  70.034  1.00  0.00    -0.371 C  
HETATM    4  O   UNL     1     -13.226  11.694  72.114  1.00  0.00    -0.504 OA 
ENDROOT
BRANCH   3   5
HETATM    5  C   UNL     1     -11.827  12.145  69.722  1.00  0.00    -0.397 C  
BRANCH   5   6
HETATM    6  C   UNL     1     -11.194  12.222  68.329  1.00  0.00    -0.315 C  
BRANCH   6   7
HETATM    7  C   UNL     1     -10.182  13.340  68.220  1.00  0.00    -0.250 A  
HETATM    8  C   UNL     1      -8.878  13.093  67.779  1.00  0.00    -0.191 A  
HETATM    9  C   UNL     1      -7.923  14.121  67.727  1.00  0.00    -0.175 A  
HETATM   10  C   UNL     1      -8.226  15.428  68.117  1.00  0.00    -0.144 A  
HETATM   11  C   UNL     1      -9.558  15.670  68.501  1.00  0.00    -0.199 A  
HETATM   12  C   UNL     1     -10.520  14.649  68.558  1.00  0.00    -0.247 A  
BRANCH  10  13
HETATM   13  N   UNL     1      -7.282  16.457  68.152  1.00  0.00    -0.140 NA 
BRANCH  13  14
HETATM   14  C   UNL     1      -6.666  16.994  66.922  1.00  0.00    -0.217 C  
HETATM   15 CL   UNL     1      -8.562  18.987  66.704  1.00  0.00    -0.304 Cl 
HETATM   16  C   UNL     1      -7.671  17.631  65.959  1.00  0.00    -0.193 C  
ENDBRANCH  13  14
BRANCH  13  17
HETATM   17  C   UNL     1      -6.480  16.596  69.389  1.00  0.00    -0.220 C  
HETATM   18  C   UNL     1      -5.744  17.935  69.527  1.00  0.00    -0.229 C  
HETATM   19 CL   UNL     1      -6.854  19.329  69.621  1.00  0.00    -0.266 Cl 
ENDBRANCH  13  17
ENDBRANCH  10  13
ENDBRANCH   6   7
ENDBRANCH   5   6
ENDBRANCH   3   5
TORSDOF 6
ENDMDL
MODEL      135
REMARK 921   NORMALIZED FREE ENERGY PREDICTED BY IDOCK:   -3.74 KCAL/MOL
REMARK 922        TOTAL FREE ENERGY PREDICTED BY IDOCK:   -5.78 KCAL/MOL
REMARK 923 INTER-LIGAND FREE ENERGY PREDICTED BY IDOCK:   -4.99 KCAL/MOL
REMARK 924 INTRA-LIGAND FREE ENERGY PREDICTED BY IDOCK:   -0.79 KCAL/MOL
REMARK 927      BINDING AFFINITY PREDICTED BY RF-SCORE:    0.00 PKD
ROOT
HETATM    1  O   UNL     1     -10.930  19.491  67.263  1.00  0.00    -0.499 OA 
HETATM    2  C   UNL     1     -10.478  18.223  67.396  1.00  0.00    -0.409 C  
HETATM    3  C   UNL     1     -10.437  17.483  66.076  1.00  0.00    -0.274 C  
HETATM    4  O   UNL     1     -10.153  17.758  68.477  1.00  0.00    -0.336 OA 
ENDROOT
BRANCH   3   5
HETATM    5  C   UNL     1      -9.942  16.049  66.259  1.00  0.00    -0.329 C  
BRANCH   5   6
HETATM    6  C   UNL     1     -11.089  15.033  66.276  1.00  0.00    -0.334 C  
BRANCH   6   7
HETATM    7  C   UNL     1     -10.686  13.724  66.915  1.00  0.00    -0.280 A  
HETATM    8  C   UNL     1     -11.195  12.507  66.451  1.00  0.00    -0.353 A  
HETATM    9  C   UNL     1     -10.862  11.295  67.077  1.00  0.00    -0.332 A  
HETATM   10  C   UNL     1     -10.015  11.249  68.187  1.00  0.00    -0.181 A  
HETATM   11  C   UNL     1      -9.466  12.475  68.603  1.00  0.00    -0.010 A  
HETATM   12  C   UNL     1      -9.794  13.693  67.985  1.00  0.00    -0.244 A  
BRANCH  10  13
HETATM   13  N   UNL     1      -9.724  10.072  68.881  1.00  0.00    -0.172 NA 
BRANCH  13  14
HETATM   14  C   UNL     1     -10.778   9.114  69.273  1.00  0.00    -0.183 C  
HETATM   15 CL   UNL     1     -12.126  11.021  70.742  1.00  0.00    -0.457 Cl 
HETATM   16  C   UNL     1     -11.386   9.399  70.648  1.00  0.00    -0.292 C  
ENDBRANCH  13  14
BRANCH  13  17
HETATM   17  C   UNL     1      -8.503  10.065  69.719  1.00  0.00    -0.172 C  
HETATM   18  C   UNL     1      -7.389   9.137  69.218  1.00  0.00    -0.070 C  
HETATM   19 CL   UNL     1      -6.761   9.608  67.616  1.00  0.00    -0.066 Cl 
ENDBRANCH  13  17
ENDBRANCH  10  13
ENDBRANCH   6   7
ENDBRANCH   5   6
ENDBRANCH   3   5
TORSDOF 6
ENDMDL
MODEL      136
REMARK 921   NORMALIZED FREE ENERGY PREDICTED BY IDOCK:   -3.72 KCAL/MOL
REMARK 922        TOTAL FREE ENERGY PREDICTED BY IDOCK:   -5.75 KCAL/MOL
REMARK 923 INTER-LIGAND FREE ENERGY PREDICTED BY IDOCK:   -4.88 KCAL/MOL
REMARK 924 INTRA-LIGAND FREE ENERGY PREDICTED BY IDOCK:   -0.87 KCAL/MOL
REMARK 927      BINDING AFFINITY PREDICTED BY RF-SCORE:    0.00 PKD
ROOT
HETATM    1  O   UNL     1     -12.030   6.513  70.228  1.00  0.00    -0.394 OA 
HETATM    2  C   UNL     1     -11.042   6.591  69.308  1.00  0.00    -0.334 C  
HETATM    3  C   UNL     1      -9.763   7.162  69.881  1.00  0.00    -0.170 C  
HETATM    4  O   UNL     1     -11.200   6.234  68.151  1.00  0.00    -0.327 OA 
ENDROOT
BRANCH   3   5
HETATM    5  C   UNL     1      -8.671   7.255  68.816  1.00  0.00    -0.125 C  
BRANCH   5   6
HETATM    6  C   UNL     1      -7.902   8.579  68.883  1.00  0.00    -0.109 C  
BRANCH   6   7
HETATM    7  C   UNL     1      -8.511   9.641  67.996  1.00  0.00    -0.118 A  
HETATM    8  C   UNL     1      -8.306   9.630  66.613  1.00  0.00    -0.123 A  
HETATM    9  C   UNL     1      -8.828  10.646  65.795  1.00  0.00    -0.198 A  
HETATM   10  C   UNL     1      -9.567  11.709  66.322  1.00  0.00    -0.221 A  
HETATM   11  C   UNL     1      -9.812  11.671  67.706  1.00  0.00    -0.186 A  
HETATM   12  C   UNL     1      -9.294  10.662  68.533  1.00  0.00    -0.170 A  
BRANCH  10  13
HETATM   13  N   UNL     1     -10.034  12.774  65.549  1.00  0.00    -0.255 NA 
BRANCH  13  14
HETATM   14  C   UNL     1     -10.268  12.643  64.097  1.00  0.00    -0.340 C  
HETATM   15 CL   UNL     1     -13.008  12.711  64.415  1.00  0.00    -0.328 Cl 
HETATM   16  C   UNL     1     -11.562  11.904  63.748  1.00  0.00    -0.462 C  
ENDBRANCH  13  14
BRANCH  13  17
HETATM   17  C   UNL     1      -9.737  14.142  66.033  1.00  0.00    -0.274 C  
HETATM   18  C   UNL     1     -10.967  15.045  66.192  1.00  0.00    -0.334 C  
HETATM   19 CL   UNL     1     -12.119  14.440  67.411  1.00  0.00    -0.408 Cl 
ENDBRANCH  13  17
ENDBRANCH  10  13
ENDBRANCH   6   7
ENDBRANCH   5   6
ENDBRANCH   3   5
TORSDOF 6
ENDMDL
MODEL      137
REMARK 921   NORMALIZED FREE ENERGY PREDICTED BY IDOCK:   -3.71 KCAL/MOL
REMARK 922        TOTAL FREE ENERGY PREDICTED BY IDOCK:   -5.74 KCAL/MOL
REMARK 923 INTER-LIGAND FREE ENERGY PREDICTED BY IDOCK:   -5.52 KCAL/MOL
REMARK 924 INTRA-LIGAND FREE ENERGY PREDICTED BY IDOCK:   -0.22 KCAL/MOL
REMARK 927      BINDING AFFINITY PREDICTED BY RF-SCORE:    0.00 PKD
ROOT
HETATM    1  O   UNL     1     -13.197  12.304  63.931  1.00  0.00    -0.766 OA 
HETATM    2  C   UNL     1     -11.992  12.554  64.492  1.00  0.00    -0.404 C  
HETATM    3  C   UNL     1     -12.025  12.443  66.001  1.00  0.00    -0.419 C  
HETATM    4  O   UNL     1     -11.010  12.838  63.826  1.00  0.00    -0.409 OA 
ENDROOT
BRANCH   3   5
HETATM    5  C   UNL     1     -10.656  12.748  66.609  1.00  0.00    -0.272 C  
BRANCH   5   6
HETATM    6  C   UNL     1      -9.695  11.558  66.510  1.00  0.00    -0.226 C  
BRANCH   6   7
HETATM    7  C   UNL     1      -9.789  10.644  67.712  1.00  0.00    -0.187 A  
HETATM    8  C   UNL     1      -9.018   9.481  67.794  1.00  0.00    -0.126 A  
HETATM    9  C   UNL     1      -9.142   8.605  68.885  1.00  0.00    -0.145 A  
HETATM   10  C   UNL     1     -10.039   8.851  69.928  1.00  0.00    -0.195 A  
HETATM   11  C   UNL     1     -10.762  10.055  69.857  1.00  0.00    -0.328 A  
HETATM   12  C   UNL     1     -10.646  10.937  68.770  1.00  0.00    -0.231 A  
BRANCH  10  13
HETATM   13  N   UNL     1     -10.244   7.964  70.988  1.00  0.00    -0.196 NA 
BRANCH  13  14
HETATM   14  C   UNL     1     -10.588   8.434  72.345  1.00  0.00    -0.335 C  
HETATM   15 CL   UNL     1      -7.988   8.163  73.225  1.00  0.00    -0.229 Cl 
HETATM   16  C   UNL     1      -9.725   7.816  73.447  1.00  0.00    -0.290 C  
ENDBRANCH  13  14
BRANCH  13  17
HETATM   17  C   UNL     1      -9.561   6.652  70.914  1.00  0.00    -0.175 C  
HETATM   18  C   UNL     1     -10.435   5.504  70.392  1.00  0.00    -0.286 C  
HETATM   19 CL   UNL     1     -10.980   5.757  68.713  1.00  0.00    -0.304 Cl 
ENDBRANCH  13  17
ENDBRANCH  10  13
ENDBRANCH   6   7
ENDBRANCH   5   6
ENDBRANCH   3   5
TORSDOF 6
ENDMDL
MODEL      138
REMARK 921   NORMALIZED FREE ENERGY PREDICTED BY IDOCK:   -3.70 KCAL/MOL
REMARK 922        TOTAL FREE ENERGY PREDICTED BY IDOCK:   -5.73 KCAL/MOL
REMARK 923 INTER-LIGAND FREE ENERGY PREDICTED BY IDOCK:   -4.99 KCAL/MOL
REMARK 924 INTRA-LIGAND FREE ENERGY PREDICTED BY IDOCK:   -0.74 KCAL/MOL
REMARK 927      BINDING AFFINITY PREDICTED BY RF-SCORE:    0.00 PKD
ROOT
HETATM    1  O   UNL     1     -10.288  20.004  66.314  1.00  0.00    -0.459 OA 
HETATM    2  C   UNL     1     -10.046  18.917  67.083  1.00  0.00    -0.358 C  
HETATM    3  C   UNL     1     -10.205  17.622  66.317  1.00  0.00    -0.362 C  
HETATM    4  O   UNL     1      -9.741  19.009  68.261  1.00  0.00    -0.319 OA 
ENDROOT
BRANCH   3   5
HETATM    5  C   UNL     1      -9.944  16.412  67.213  1.00  0.00    -0.258 C  
BRANCH   5   6
HETATM    6  C   UNL     1     -11.095  15.400  67.177  1.00  0.00    -0.291 C  
BRANCH   6   7
HETATM    7  C   UNL     1     -10.613  13.978  67.359  1.00  0.00    -0.278 A  
HETATM    8  C   UNL     1      -9.433  13.534  66.755  1.00  0.00    -0.272 A  
HETATM    9  C   UNL     1      -9.012  12.200  66.881  1.00  0.00    -0.201 A  
HETATM   10  C   UNL     1      -9.750  11.260  67.606  1.00  0.00    -0.171 A  
HETATM   11  C   UNL     1     -10.902  11.740  68.255  1.00  0.00    -0.259 A  
HETATM   12  C   UNL     1     -11.333  13.071  68.135  1.00  0.00    -0.329 A  
BRANCH  10  13
HETATM   13  N   UNL     1      -9.403   9.910  67.688  1.00  0.00    -0.140 NA 
BRANCH  13  14
HETATM   14  C   UNL     1      -8.200   9.371  67.021  1.00  0.00    -0.116 C  
HETATM   15 CL   UNL     1      -9.318   9.658  64.515  1.00  0.00    -0.299 Cl 
HETATM   16  C   UNL     1      -8.502   8.624  65.720  1.00  0.00    -0.151 C  
ENDBRANCH  13  14
BRANCH  13  17
HETATM   17  C   UNL     1     -10.500   8.943  67.921  1.00  0.00    -0.223 C  
HETATM   18  C   UNL     1     -10.357   8.109  69.201  1.00  0.00    -0.220 C  
HETATM   19 CL   UNL     1     -10.391   9.103  70.682  1.00  0.00    -0.278 Cl 
ENDBRANCH  13  17
ENDBRANCH  10  13
ENDBRANCH   6   7
ENDBRANCH   5   6
ENDBRANCH   3   5
TORSDOF 6
ENDMDL
MODEL      139
REMARK 921   NORMALIZED FREE ENERGY PREDICTED BY IDOCK:   -3.70 KCAL/MOL
REMARK 922        TOTAL FREE ENERGY PREDICTED BY IDOCK:   -5.72 KCAL/MOL
REMARK 923 INTER-LIGAND FREE ENERGY PREDICTED BY IDOCK:   -5.60 KCAL/MOL
REMARK 924 INTRA-LIGAND FREE ENERGY PREDICTED BY IDOCK:   -0.12 KCAL/MOL
REMARK 927      BINDING AFFINITY PREDICTED BY RF-SCORE:    0.00 PKD
ROOT
HETATM    1  O   UNL     1     -11.065   7.083  71.482  1.00  0.00    -0.236 OA 
HETATM    2  C   UNL     1     -12.134   7.911  71.471  1.00  0.00    -0.306 C  
HETATM    3  C   UNL     1     -11.784   9.299  70.978  1.00  0.00    -0.378 C  
HETATM    4  O   UNL     1     -13.243   7.547  71.830  1.00  0.00    -0.340 OA 
ENDROOT
BRANCH   3   5
HETATM    5  C   UNL     1     -13.006  10.217  70.993  1.00  0.00    -0.473 C  
BRANCH   5   6
HETATM    6  C   UNL     1     -12.696  11.591  71.597  1.00  0.00    -0.396 C  
BRANCH   6   7
HETATM    7  C   UNL     1     -12.263  12.592  70.550  1.00  0.00    -0.383 A  
HETATM    8  C   UNL     1     -11.890  12.179  69.267  1.00  0.00    -0.370 A  
HETATM    9  C   UNL     1     -11.438  13.102  68.311  1.00  0.00    -0.349 A  
HETATM   10  C   UNL     1     -11.336  14.467  68.595  1.00  0.00    -0.273 A  
HETATM   11  C   UNL     1     -11.771  14.871  69.870  1.00  0.00    -0.347 A  
HETATM   12  C   UNL     1     -12.223  13.956  70.835  1.00  0.00    -0.436 A  
BRANCH  10  13
HETATM   13  N   UNL     1     -10.818  15.401  67.695  1.00  0.00    -0.297 NA 
BRANCH  13  14
HETATM   14  C   UNL     1     -11.258  16.811  67.692  1.00  0.00     0.026 C  
HETATM   15 CL   UNL     1      -8.854  17.684  68.726  1.00  0.00    -0.252 Cl 
HETATM   16  C   UNL     1     -10.637  17.650  68.811  1.00  0.00    -0.190 C  
ENDBRANCH  13  14
BRANCH  13  17
HETATM   17  C   UNL     1     -10.301  14.884  66.407  1.00  0.00    -0.286 C  
HETATM   18  C   UNL     1      -8.995  15.536  65.935  1.00  0.00    -0.098 C  
HETATM   19 CL   UNL     1      -7.632  15.244  67.049  1.00  0.00    -0.219 Cl 
ENDBRANCH  13  17
ENDBRANCH  10  13
ENDBRANCH   6   7
ENDBRANCH   5   6
ENDBRANCH   3   5
TORSDOF 6
ENDMDL
MODEL      140
REMARK 921   NORMALIZED FREE ENERGY PREDICTED BY IDOCK:   -3.68 KCAL/MOL
REMARK 922        TOTAL FREE ENERGY PREDICTED BY IDOCK:   -5.70 KCAL/MOL
REMARK 923 INTER-LIGAND FREE ENERGY PREDICTED BY IDOCK:   -5.16 KCAL/MOL
REMARK 924 INTRA-LIGAND FREE ENERGY PREDICTED BY IDOCK:   -0.55 KCAL/MOL
REMARK 927      BINDING AFFINITY PREDICTED BY RF-SCORE:    0.00 PKD
ROOT
HETATM    1  O   UNL     1     -12.019  15.975  71.523  1.00  0.00    -0.430 OA 
HETATM    2  C   UNL     1     -12.317  14.865  70.809  1.00  0.00    -0.329 C  
HETATM    3  C   UNL     1     -11.540  14.788  69.512  1.00  0.00    -0.339 C  
HETATM    4  O   UNL     1     -13.129  14.041  71.196  1.00  0.00    -0.329 OA 
ENDROOT
BRANCH   3   5
HETATM    5  C   UNL     1     -11.910  13.536  68.718  1.00  0.00    -0.390 C  
BRANCH   5   6
HETATM    6  C   UNL     1     -10.685  12.852  68.101  1.00  0.00    -0.258 C  
BRANCH   6   7
HETATM    7  C   UNL     1     -10.410  11.500  68.721  1.00  0.00    -0.213 A  
HETATM    8  C   UNL     1      -9.369  10.692  68.255  1.00  0.00    -0.156 A  
HETATM    9  C   UNL     1      -9.146   9.414  68.794  1.00  0.00    -0.132 A  
HETATM   10  C   UNL     1      -9.952   8.894  69.811  1.00  0.00    -0.191 A  
HETATM   11  C   UNL     1     -10.956   9.744  70.306  1.00  0.00    -0.352 A  
HETATM   12  C   UNL     1     -11.188  11.022  69.773  1.00  0.00    -0.339 A  
BRANCH  10  13
HETATM   13  N   UNL     1      -9.808   7.599  70.316  1.00  0.00    -0.180 NA 
BRANCH  13  14
HETATM   14  C   UNL     1     -10.831   6.557  70.098  1.00  0.00    -0.282 C  
HETATM   15 CL   UNL     1      -9.638   5.711  67.758  1.00  0.00    -0.121 Cl 
HETATM   16  C   UNL     1     -11.101   6.261  68.621  1.00  0.00    -0.325 C  
ENDBRANCH  13  14
BRANCH  13  17
HETATM   17  C   UNL     1      -8.966   7.435  71.523  1.00  0.00    -0.125 C  
HETATM   18  C   UNL     1      -9.495   8.149  72.774  1.00  0.00    -0.279 C  
HETATM   19 CL   UNL     1     -11.077   7.523  73.312  1.00  0.00    -0.384 Cl 
ENDBRANCH  13  17
ENDBRANCH  10  13
ENDBRANCH   6   7
ENDBRANCH   5   6
ENDBRANCH   3   5
TORSDOF 6
ENDMDL
MODEL      141
REMARK 921   NORMALIZED FREE ENERGY PREDICTED BY IDOCK:   -3.68 KCAL/MOL
REMARK 922        TOTAL FREE ENERGY PREDICTED BY IDOCK:   -5.70 KCAL/MOL
REMARK 923 INTER-LIGAND FREE ENERGY PREDICTED BY IDOCK:   -4.82 KCAL/MOL
REMARK 924 INTRA-LIGAND FREE ENERGY PREDICTED BY IDOCK:   -0.88 KCAL/MOL
REMARK 927      BINDING AFFINITY PREDICTED BY RF-SCORE:    0.00 PKD
ROOT
HETATM    1  O   UNL     1     -12.527  12.622  63.136  1.00  0.00    -0.586 OA 
HETATM    2  C   UNL     1     -12.459  13.542  64.126  1.00  0.00    -0.239 C  
HETATM    3  C   UNL     1     -12.248  12.912  65.486  1.00  0.00    -0.527 C  
HETATM    4  O   UNL     1     -12.564  14.739  63.910  1.00  0.00    -0.834 OA 
ENDROOT
BRANCH   3   5
HETATM    5  C   UNL     1     -12.194  13.972  66.585  1.00  0.00    -0.463 C  
BRANCH   5   6
HETATM    6  C   UNL     1     -10.773  14.188  67.119  1.00  0.00    -0.280 C  
BRANCH   6   7
HETATM    7  C   UNL     1     -10.059  12.883  67.391  1.00  0.00    -0.223 A  
HETATM    8  C   UNL     1      -8.992  12.464  66.591  1.00  0.00    -0.184 A  
HETATM    9  C   UNL     1      -8.363  11.228  66.811  1.00  0.00    -0.156 A  
HETATM   10  C   UNL     1      -8.773  10.363  67.829  1.00  0.00    -0.122 A  
HETATM   11  C   UNL     1      -9.809  10.828  68.660  1.00  0.00    -0.187 A  
HETATM   12  C   UNL     1     -10.446  12.061  68.448  1.00  0.00    -0.231 A  
BRANCH  10  13
HETATM   13  N   UNL     1      -8.222   9.095  68.027  1.00  0.00    -0.112 NA 
BRANCH  13  14
HETATM   14  C   UNL     1      -6.844   8.912  68.526  1.00  0.00    -0.064 C  
HETATM   15 CL   UNL     1      -7.726   8.187  71.037  1.00  0.00    -0.083 Cl 
HETATM   16  C   UNL     1      -6.685   9.217  70.017  1.00  0.00    -0.054 C  
ENDBRANCH  13  14
BRANCH  13  17
HETATM   17  C   UNL     1      -8.765   7.987  67.209  1.00  0.00    -0.131 C  
HETATM   18  C   UNL     1      -9.278   6.788  68.016  1.00  0.00    -0.117 C  
HETATM   19 CL   UNL     1     -10.653   7.203  69.075  1.00  0.00    -0.221 Cl 
ENDBRANCH  13  17
ENDBRANCH  10  13
ENDBRANCH   6   7
ENDBRANCH   5   6
ENDBRANCH   3   5
TORSDOF 6
ENDMDL
MODEL      142
REMARK 921   NORMALIZED FREE ENERGY PREDICTED BY IDOCK:   -3.67 KCAL/MOL
REMARK 922        TOTAL FREE ENERGY PREDICTED BY IDOCK:   -5.69 KCAL/MOL
REMARK 923 INTER-LIGAND FREE ENERGY PREDICTED BY IDOCK:   -4.63 KCAL/MOL
REMARK 924 INTRA-LIGAND FREE ENERGY PREDICTED BY IDOCK:   -1.06 KCAL/MOL
REMARK 927      BINDING AFFINITY PREDICTED BY RF-SCORE:    0.00 PKD
ROOT
HETATM    1  O   UNL     1     -11.329  15.835  71.090  1.00  0.00    -0.351 OA 
HETATM    2  C   UNL     1     -10.726  15.784  69.880  1.00  0.00    -0.328 C  
HETATM    3  C   UNL     1     -11.712  15.914  68.738  1.00  0.00    -0.355 C  
HETATM    4  O   UNL     1      -9.520  15.643  69.759  1.00  0.00    -0.277 OA 
ENDROOT
BRANCH   3   5
HETATM    5  C   UNL     1     -11.006  15.834  67.385  1.00  0.00    -0.279 C  
BRANCH   5   6
HETATM    6  C   UNL     1     -11.562  14.712  66.502  1.00  0.00    -0.350 C  
BRANCH   6   7
HETATM    7  C   UNL     1     -10.984  13.361  66.859  1.00  0.00    -0.295 A  
HETATM    8  C   UNL     1      -9.610  13.195  67.060  1.00  0.00    -0.241 A  
HETATM    9  C   UNL     1      -9.066  11.931  67.340  1.00  0.00    -0.178 A  
HETATM   10  C   UNL     1      -9.866  10.788  67.427  1.00  0.00    -0.177 A  
HETATM   11  C   UNL     1     -11.251  10.985  67.281  1.00  0.00    -0.330 A  
HETATM   12  C   UNL     1     -11.805  12.244  66.999  1.00  0.00    -0.329 A  
BRANCH  10  13
HETATM   13  N   UNL     1      -9.350   9.506  67.627  1.00  0.00    -0.124 NA 
BRANCH  13  14
HETATM   14  C   UNL     1     -10.159   8.423  68.222  1.00  0.00    -0.199 C  
HETATM   15 CL   UNL     1      -9.989   9.525  70.746  1.00  0.00    -0.350 Cl 
HETATM   16  C   UNL     1      -9.793   8.110  69.675  1.00  0.00    -0.184 C  
ENDBRANCH  13  14
BRANCH  13  17
HETATM   17  C   UNL     1      -7.884   9.385  67.799  1.00  0.00    -0.095 C  
HETATM   18  C   UNL     1      -7.159   8.690  66.640  1.00  0.00    -0.080 C  
HETATM   19 CL   UNL     1      -7.300   9.580  65.100  1.00  0.00    -0.105 Cl 
ENDBRANCH  13  17
ENDBRANCH  10  13
ENDBRANCH   6   7
ENDBRANCH   5   6
ENDBRANCH   3   5
TORSDOF 6
ENDMDL
MODEL      143
REMARK 921   NORMALIZED FREE ENERGY PREDICTED BY IDOCK:   -3.67 KCAL/MOL
REMARK 922        TOTAL FREE ENERGY PREDICTED BY IDOCK:   -5.69 KCAL/MOL
REMARK 923 INTER-LIGAND FREE ENERGY PREDICTED BY IDOCK:   -5.56 KCAL/MOL
REMARK 924 INTRA-LIGAND FREE ENERGY PREDICTED BY IDOCK:   -0.13 KCAL/MOL
REMARK 927      BINDING AFFINITY PREDICTED BY RF-SCORE:    0.00 PKD
ROOT
HETATM    1  O   UNL     1     -12.297   6.599  71.503  1.00  0.00    -0.349 OA 
HETATM    2  C   UNL     1     -11.340   7.538  71.320  1.00  0.00    -0.261 C  
HETATM    3  C   UNL     1     -10.385   7.177  70.202  1.00  0.00    -0.218 C  
HETATM    4  O   UNL     1     -11.281   8.548  72.001  1.00  0.00    -0.301 OA 
ENDROOT
BRANCH   3   5
HETATM    5  C   UNL     1      -9.305   8.244  70.030  1.00  0.00    -0.162 C  
BRANCH   5   6
HETATM    6  C   UNL     1      -8.790   8.327  68.589  1.00  0.00    -0.133 C  
BRANCH   6   7
HETATM    7  C   UNL     1      -9.235   9.593  67.893  1.00  0.00    -0.134 A  
HETATM    8  C   UNL     1      -8.818  10.849  68.344  1.00  0.00    -0.147 A  
HETATM    9  C   UNL     1      -9.273  12.028  67.730  1.00  0.00    -0.190 A  
HETATM   10  C   UNL     1     -10.161  12.001  66.652  1.00  0.00    -0.198 A  
HETATM   11  C   UNL     1     -10.522  10.728  66.175  1.00  0.00    -0.278 A  
HETATM   12  C   UNL     1     -10.075   9.544  66.782  1.00  0.00    -0.312 A  
BRANCH  10  13
HETATM   13  N   UNL     1     -10.693  13.153  66.068  1.00  0.00    -0.274 NA 
BRANCH  13  14
HETATM   14  C   UNL     1     -11.978  13.731  66.511  1.00  0.00    -0.434 C  
HETATM   15 CL   UNL     1     -10.754  16.002  67.488  1.00  0.00    -0.317 Cl 
HETATM   16  C   UNL     1     -11.857  14.622  67.748  1.00  0.00    -0.329 C  
ENDBRANCH  13  14
BRANCH  13  17
HETATM   17  C   UNL     1     -10.301  13.445  64.670  1.00  0.00    -0.381 C  
HETATM   18  C   UNL     1     -10.716  12.375  63.653  1.00  0.00    -0.455 C  
HETATM   19 CL   UNL     1     -12.485  12.183  63.531  1.00  0.00    -0.685 Cl 
ENDBRANCH  13  17
ENDBRANCH  10  13
ENDBRANCH   6   7
ENDBRANCH   5   6
ENDBRANCH   3   5
TORSDOF 6
ENDMDL
MODEL      144
REMARK 921   NORMALIZED FREE ENERGY PREDICTED BY IDOCK:   -3.67 KCAL/MOL
REMARK 922        TOTAL FREE ENERGY PREDICTED BY IDOCK:   -5.68 KCAL/MOL
REMARK 923 INTER-LIGAND FREE ENERGY PREDICTED BY IDOCK:   -4.84 KCAL/MOL
REMARK 924 INTRA-LIGAND FREE ENERGY PREDICTED BY IDOCK:   -0.84 KCAL/MOL
REMARK 927      BINDING AFFINITY PREDICTED BY RF-SCORE:    0.00 PKD
ROOT
HETATM    1  O   UNL     1     -11.382  15.932  71.302  1.00  0.00    -0.379 OA 
HETATM    2  C   UNL     1     -10.873  15.729  70.065  1.00  0.00    -0.342 C  
HETATM    3  C   UNL     1     -11.952  15.537  69.021  1.00  0.00    -0.323 C  
HETATM    4  O   UNL     1      -9.671  15.705  69.851  1.00  0.00    -0.283 OA 
ENDROOT
BRANCH   3   5
HETATM    5  C   UNL     1     -11.349  15.291  67.639  1.00  0.00    -0.315 C  
BRANCH   5   6
HETATM    6  C   UNL     1     -11.997  14.101  66.923  1.00  0.00    -0.479 C  
BRANCH   6   7
HETATM    7  C   UNL     1     -11.123  12.867  66.957  1.00  0.00    -0.309 A  
HETATM    8  C   UNL     1     -11.179  11.915  65.935  1.00  0.00    -0.373 A  
HETATM    9  C   UNL     1     -10.407  10.743  65.993  1.00  0.00    -0.300 A  
HETATM   10  C   UNL     1      -9.556  10.474  67.068  1.00  0.00    -0.173 A  
HETATM   11  C   UNL     1      -9.469  11.471  68.057  1.00  0.00    -0.181 A  
HETATM   12  C   UNL     1     -10.238  12.645  68.010  1.00  0.00    -0.230 A  
BRANCH  10  13
HETATM   13  N   UNL     1      -8.833   9.286  67.195  1.00  0.00    -0.127 NA 
BRANCH  13  14
HETATM   14  C   UNL     1      -7.594   9.207  67.995  1.00  0.00    -0.085 C  
HETATM   15 CL   UNL     1      -6.191  10.747  66.186  1.00  0.00    -0.124 Cl 
HETATM   16  C   UNL     1      -6.317   9.252  67.154  1.00  0.00    -0.062 C  
ENDBRANCH  13  14
BRANCH  13  17
HETATM   17  C   UNL     1      -8.958   8.298  66.099  1.00  0.00    -0.181 C  
HETATM   18  C   UNL     1      -9.398   6.898  66.546  1.00  0.00    -0.158 C  
HETATM   19 CL   UNL     1     -11.027   6.883  67.274  1.00  0.00    -0.418 Cl 
ENDBRANCH  13  17
ENDBRANCH  10  13
ENDBRANCH   6   7
ENDBRANCH   5   6
ENDBRANCH   3   5
TORSDOF 6
ENDMDL
MODEL      145
REMARK 921   NORMALIZED FREE ENERGY PREDICTED BY IDOCK:   -3.67 KCAL/MOL
REMARK 922        TOTAL FREE ENERGY PREDICTED BY IDOCK:   -5.68 KCAL/MOL
REMARK 923 INTER-LIGAND FREE ENERGY PREDICTED BY IDOCK:   -4.85 KCAL/MOL
REMARK 924 INTRA-LIGAND FREE ENERGY PREDICTED BY IDOCK:   -0.83 KCAL/MOL
REMARK 927      BINDING AFFINITY PREDICTED BY RF-SCORE:    0.00 PKD
ROOT
HETATM    1  O   UNL     1     -10.596   9.217  67.899  1.00  0.00    -0.240 OA 
HETATM    2  C   UNL     1     -10.818  10.504  67.548  1.00  0.00    -0.301 C  
HETATM    3  C   UNL     1     -11.556  11.276  68.620  1.00  0.00    -0.384 C  
HETATM    4  O   UNL     1     -10.452  10.958  66.475  1.00  0.00    -0.243 OA 
ENDROOT
BRANCH   3   5
HETATM    5  C   UNL     1     -11.808  12.720  68.189  1.00  0.00    -0.372 C  
BRANCH   5   6
HETATM    6  C   UNL     1     -11.555  13.721  69.322  1.00  0.00    -0.362 C  
BRANCH   6   7
HETATM    7  C   UNL     1     -10.707  14.890  68.875  1.00  0.00    -0.245 A  
HETATM    8  C   UNL     1     -10.315  15.884  69.778  1.00  0.00    -0.290 A  
HETATM    9  C   UNL     1      -9.571  16.996  69.353  1.00  0.00     0.066 A  
HETATM   10  C   UNL     1      -9.194  17.164  68.018  1.00  0.00    -0.250 A  
HETATM   11  C   UNL     1      -9.546  16.125  67.137  1.00  0.00    -0.235 A  
HETATM   12  C   UNL     1     -10.291  15.009  67.551  1.00  0.00    -0.241 A  
BRANCH  10  13
HETATM   13  N   UNL     1      -8.522  18.294  67.547  1.00  0.00    -0.247 NA 
BRANCH  13  14
HETATM   14  C   UNL     1      -8.928  19.661  67.932  1.00  0.00    -0.324 C  
HETATM   15 CL   UNL     1     -11.245  19.519  66.440  1.00  0.00    -0.124 Cl 
HETATM   16  C   UNL     1      -9.741  20.386  66.857  1.00  0.00    -0.426 C  
ENDBRANCH  13  14
BRANCH  13  17
HETATM   17  C   UNL     1      -7.819  18.171  66.249  1.00  0.00    -0.245 C  
HETATM   18  C   UNL     1      -6.302  17.975  66.361  1.00  0.00    -0.212 C  
HETATM   19 CL   UNL     1      -5.857  16.460  67.191  1.00  0.00    -0.177 Cl 
ENDBRANCH  13  17
ENDBRANCH  10  13
ENDBRANCH   6   7
ENDBRANCH   5   6
ENDBRANCH   3   5
TORSDOF 6
ENDMDL
MODEL      146
REMARK 921   NORMALIZED FREE ENERGY PREDICTED BY IDOCK:   -3.67 KCAL/MOL
REMARK 922        TOTAL FREE ENERGY PREDICTED BY IDOCK:   -5.68 KCAL/MOL
REMARK 923 INTER-LIGAND FREE ENERGY PREDICTED BY IDOCK:   -5.47 KCAL/MOL
REMARK 924 INTRA-LIGAND FREE ENERGY PREDICTED BY IDOCK:   -0.21 KCAL/MOL
REMARK 927      BINDING AFFINITY PREDICTED BY RF-SCORE:    0.00 PKD
ROOT
HETATM    1  O   UNL     1     -11.681  16.431  70.460  1.00  0.00    -0.221 OA 
HETATM    2  C   UNL     1     -11.692  15.433  71.375  1.00  0.00    -0.395 C  
HETATM    3  C   UNL     1     -13.081  14.876  71.603  1.00  0.00    -0.424 C  
HETATM    4  O   UNL     1     -10.677  15.054  71.936  1.00  0.00     0.169 OA 
ENDROOT
BRANCH   3   5
HETATM    5  C   UNL     1     -13.066  13.766  72.653  1.00  0.00    -0.489 C  
BRANCH   5   6
HETATM    6  C   UNL     1     -13.776  12.496  72.170  1.00  0.00    -0.338 C  
BRANCH   6   7
HETATM    7  C   UNL     1     -12.852  11.582  71.396  1.00  0.00    -0.489 A  
HETATM    8  C   UNL     1     -12.760  10.221  71.704  1.00  0.00    -0.561 A  
HETATM    9  C   UNL     1     -11.864   9.383  71.021  1.00  0.00    -0.396 A  
HETATM   10  C   UNL     1     -11.026   9.866  70.013  1.00  0.00    -0.291 A  
HETATM   11  C   UNL     1     -11.174  11.224  69.678  1.00  0.00    -0.321 A  
HETATM   12  C   UNL     1     -12.066  12.072  70.355  1.00  0.00    -0.407 A  
BRANCH  10  13
HETATM   13  N   UNL     1     -10.070   9.078  69.368  1.00  0.00    -0.192 NA 
BRANCH  13  14
HETATM   14  C   UNL     1     -10.440   7.873  68.599  1.00  0.00    -0.167 C  
HETATM   15 CL   UNL     1      -9.123   8.764  66.344  1.00  0.00    -0.201 Cl 
HETATM   16  C   UNL     1     -10.611   8.129  67.100  1.00  0.00    -0.285 C  
ENDBRANCH  13  14
BRANCH  13  17
HETATM   17  C   UNL     1      -8.696   9.094  69.920  1.00  0.00    -0.163 C  
HETATM   18  C   UNL     1      -8.542   8.386  71.273  1.00  0.00    -0.161 C  
HETATM   19 CL   UNL     1      -8.909   6.643  71.188  1.00  0.00    -0.137 Cl 
ENDBRANCH  13  17
ENDBRANCH  10  13
ENDBRANCH   6   7
ENDBRANCH   5   6
ENDBRANCH   3   5
TORSDOF 6
ENDMDL
MODEL      147
REMARK 921   NORMALIZED FREE ENERGY PREDICTED BY IDOCK:   -3.66 KCAL/MOL
REMARK 922        TOTAL FREE ENERGY PREDICTED BY IDOCK:   -5.66 KCAL/MOL
REMARK 923 INTER-LIGAND FREE ENERGY PREDICTED BY IDOCK:   -4.91 KCAL/MOL
REMARK 924 INTRA-LIGAND FREE ENERGY PREDICTED BY IDOCK:   -0.75 KCAL/MOL
REMARK 927      BINDING AFFINITY PREDICTED BY RF-SCORE:    0.00 PKD
ROOT
HETATM    1  O   UNL     1     -10.726  19.275  67.345  1.00  0.00    -0.463 OA 
HETATM    2  C   UNL     1     -10.418  17.998  67.670  1.00  0.00    -0.409 C  
HETATM    3  C   UNL     1     -10.212  17.126  66.450  1.00  0.00    -0.331 C  
HETATM    4  O   UNL     1     -10.327  17.626  68.828  1.00  0.00    -0.362 OA 
ENDROOT
BRANCH   3   5
HETATM    5  C   UNL     1      -9.883  15.687  66.847  1.00  0.00    -0.245 C  
BRANCH   5   6
HETATM    6  C   UNL     1     -11.129  14.795  66.892  1.00  0.00    -0.339 C  
BRANCH   6   7
HETATM    7  C   UNL     1     -10.806  13.383  67.326  1.00  0.00    -0.278 A  
HETATM    8  C   UNL     1     -11.821  12.484  67.668  1.00  0.00    -0.381 A  
HETATM    9  C   UNL     1     -11.521  11.189  68.122  1.00  0.00    -0.373 A  
HETATM   10  C   UNL     1     -10.203  10.744  68.256  1.00  0.00    -0.167 A  
HETATM   11  C   UNL     1      -9.198  11.641  67.851  1.00  0.00    -0.171 A  
HETATM   12  C   UNL     1      -9.488  12.938  67.398  1.00  0.00    -0.198 A  
BRANCH  10  13
HETATM   13  N   UNL     1      -9.867   9.492  68.776  1.00  0.00    -0.164 NA 
BRANCH  13  14
HETATM   14  C   UNL     1     -10.388   8.238  68.195  1.00  0.00    -0.202 C  
HETATM   15 CL   UNL     1      -8.398   8.159  66.286  1.00  0.00    -0.113 Cl 
HETATM   16  C   UNL     1     -10.136   8.107  66.692  1.00  0.00    -0.273 C  
ENDBRANCH  13  14
BRANCH  13  17
HETATM   17  C   UNL     1      -9.493   9.433  70.208  1.00  0.00    -0.251 C  
HETATM   18  C   UNL     1      -8.627   8.227  70.594  1.00  0.00    -0.136 C  
HETATM   19 CL   UNL     1      -7.042   8.222  69.776  1.00  0.00    -0.055 Cl 
ENDBRANCH  13  17
ENDBRANCH  10  13
ENDBRANCH   6   7
ENDBRANCH   5   6
ENDBRANCH   3   5
TORSDOF 6
ENDMDL
MODEL      148
REMARK 921   NORMALIZED FREE ENERGY PREDICTED BY IDOCK:   -3.65 KCAL/MOL
REMARK 922        TOTAL FREE ENERGY PREDICTED BY IDOCK:   -5.65 KCAL/MOL
REMARK 923 INTER-LIGAND FREE ENERGY PREDICTED BY IDOCK:   -5.04 KCAL/MOL
REMARK 924 INTRA-LIGAND FREE ENERGY PREDICTED BY IDOCK:   -0.62 KCAL/MOL
REMARK 927      BINDING AFFINITY PREDICTED BY RF-SCORE:    0.00 PKD
ROOT
HETATM    1  O   UNL     1     -11.447  16.106  70.522  1.00  0.00    -0.367 OA 
HETATM    2  C   UNL     1     -10.415  16.330  69.677  1.00  0.00    -0.294 C  
HETATM    3  C   UNL     1     -10.747  17.365  68.623  1.00  0.00    -0.249 C  
HETATM    4  O   UNL     1      -9.350  15.743  69.780  1.00  0.00    -0.241 OA 
ENDROOT
BRANCH   3   5
HETATM    5  C   UNL     1      -9.570  17.585  67.673  1.00  0.00    -0.266 C  
BRANCH   5   6
HETATM    6  C   UNL     1      -9.894  17.160  66.236  1.00  0.00    -0.306 C  
BRANCH   6   7
HETATM    7  C   UNL     1     -10.144  15.674  66.120  1.00  0.00    -0.333 A  
HETATM    8  C   UNL     1      -9.132  14.748  66.392  1.00  0.00    -0.267 A  
HETATM    9  C   UNL     1      -9.349  13.370  66.234  1.00  0.00    -0.137 A  
HETATM   10  C   UNL     1     -10.575  12.862  65.796  1.00  0.00    -0.275 A  
HETATM   11  C   UNL     1     -11.598  13.804  65.585  1.00  0.00    -0.339 A  
HETATM   12  C   UNL     1     -11.392  15.184  65.738  1.00  0.00    -0.238 A  
BRANCH  10  13
HETATM   13  N   UNL     1     -10.801  11.506  65.554  1.00  0.00    -0.276 NA 
BRANCH  13  14
HETATM   14  C   UNL     1     -10.294  10.455  66.461  1.00  0.00    -0.224 C  
HETATM   15 CL   UNL     1     -11.911  11.299  68.531  1.00  0.00    -0.353 Cl 
HETATM   16  C   UNL     1     -10.285  10.868  67.934  1.00  0.00    -0.179 C  
ENDBRANCH  13  14
BRANCH  13  17
HETATM   17  C   UNL     1     -11.014  11.096  64.147  1.00  0.00    -0.206 C  
HETATM   18  C   UNL     1      -9.857  11.437  63.200  1.00  0.00    -0.388 C  
HETATM   19 CL   UNL     1      -8.341  10.598  63.626  1.00  0.00    -0.100 Cl 
ENDBRANCH  13  17
ENDBRANCH  10  13
ENDBRANCH   6   7
ENDBRANCH   5   6
ENDBRANCH   3   5
TORSDOF 6
ENDMDL
MODEL      149
REMARK 921   NORMALIZED FREE ENERGY PREDICTED BY IDOCK:   -3.64 KCAL/MOL
REMARK 922        TOTAL FREE ENERGY PREDICTED BY IDOCK:   -5.65 KCAL/MOL
REMARK 923 INTER-LIGAND FREE ENERGY PREDICTED BY IDOCK:   -4.80 KCAL/MOL
REMARK 924 INTRA-LIGAND FREE ENERGY PREDICTED BY IDOCK:   -0.84 KCAL/MOL
REMARK 927      BINDING AFFINITY PREDICTED BY RF-SCORE:    0.00 PKD
ROOT
HETATM    1  O   UNL     1      -7.676   4.037  63.217  1.00  0.00    -0.064 OA 
HETATM    2  C   UNL     1      -8.730   3.864  64.046  1.00  0.00    -0.108 C  
HETATM    3  C   UNL     1      -8.487   4.454  65.419  1.00  0.00    -0.120 C  
HETATM    4  O   UNL     1      -9.747   3.287  63.695  1.00  0.00    -0.118 OA 
ENDROOT
BRANCH   3   5
HETATM    5  C   UNL     1      -9.686   4.227  66.339  1.00  0.00    -0.228 C  
BRANCH   5   6
HETATM    6  C   UNL     1     -10.736   5.337  66.215  1.00  0.00    -0.260 C  
BRANCH   6   7
HETATM    7  C   UNL     1     -10.751   6.249  67.421  1.00  0.00    -0.409 A  
HETATM    8  C   UNL     1     -10.508   7.620  67.292  1.00  0.00    -0.396 A  
HETATM    9  C   UNL     1     -10.470   8.458  68.418  1.00  0.00    -0.208 A  
HETATM   10  C   UNL     1     -10.669   7.965  69.711  1.00  0.00    -0.233 A  
HETATM   11  C   UNL     1     -10.971   6.595  69.815  1.00  0.00    -0.367 A  
HETATM   12  C   UNL     1     -11.009   5.748  68.696  1.00  0.00    -0.198 A  
BRANCH  10  13
HETATM   13  N   UNL     1     -10.562   8.755  70.857  1.00  0.00    -0.207 NA 
BRANCH  13  14
HETATM   14  C   UNL     1     -11.177  10.095  70.943  1.00  0.00    -0.307 C  
HETATM   15 CL   UNL     1     -13.256   9.170  72.503  1.00  0.00    -0.501 Cl 
HETATM   16  C   UNL     1     -12.702  10.065  71.061  1.00  0.00    -0.362 C  
ENDBRANCH  13  14
BRANCH  13  17
HETATM   17  C   UNL     1      -9.386   8.528  71.728  1.00  0.00    -0.253 C  
HETATM   18  C   UNL     1      -9.723   8.250  73.199  1.00  0.00    -0.138 C  
HETATM   19 CL   UNL     1     -10.669   6.754  73.422  1.00  0.00    -0.328 Cl 
ENDBRANCH  13  17
ENDBRANCH  10  13
ENDBRANCH   6   7
ENDBRANCH   5   6
ENDBRANCH   3   5
TORSDOF 6
ENDMDL
MODEL      150
REMARK 921   NORMALIZED FREE ENERGY PREDICTED BY IDOCK:   -3.63 KCAL/MOL
REMARK 922        TOTAL FREE ENERGY PREDICTED BY IDOCK:   -5.63 KCAL/MOL
REMARK 923 INTER-LIGAND FREE ENERGY PREDICTED BY IDOCK:   -4.82 KCAL/MOL
REMARK 924 INTRA-LIGAND FREE ENERGY PREDICTED BY IDOCK:   -0.81 KCAL/MOL
REMARK 927      BINDING AFFINITY PREDICTED BY RF-SCORE:    0.00 PKD
ROOT
HETATM    1  O   UNL     1      -9.007  19.953  65.935  1.00  0.00    -0.339 OA 
HETATM    2  C   UNL     1      -7.968  19.602  66.727  1.00  0.00    -0.292 C  
HETATM    3  C   UNL     1      -7.929  18.114  67.000  1.00  0.00    -0.239 C  
HETATM    4  O   UNL     1      -7.173  20.421  67.159  1.00  0.00    -0.266 OA 
ENDROOT
BRANCH   3   5
HETATM    5  C   UNL     1      -6.758  17.749  67.912  1.00  0.00    -0.192 C  
BRANCH   5   6
HETATM    6  C   UNL     1      -7.191  16.882  69.100  1.00  0.00    -0.209 C  
BRANCH   6   7
HETATM    7  C   UNL     1      -8.044  15.709  68.673  1.00  0.00    -0.158 A  
HETATM    8  C   UNL     1      -7.609  14.824  67.681  1.00  0.00    -0.193 A  
HETATM    9  C   UNL     1      -8.423  13.765  67.247  1.00  0.00    -0.204 A  
HETATM   10  C   UNL     1      -9.697  13.550  67.778  1.00  0.00    -0.226 A  
HETATM   11  C   UNL     1     -10.093  14.414  68.816  1.00  0.00    -0.234 A  
HETATM   12  C   UNL     1      -9.288  15.477  69.256  1.00  0.00    -0.266 A  
BRANCH  10  13
HETATM   13  N   UNL     1     -10.563  12.556  67.317  1.00  0.00    -0.226 NA 
BRANCH  13  14
HETATM   14  C   UNL     1     -11.991  12.824  67.053  1.00  0.00    -0.295 C  
HETATM   15 CL   UNL     1     -11.614  12.783  64.320  1.00  0.00    -0.402 Cl 
HETATM   16  C   UNL     1     -12.240  13.618  65.769  1.00  0.00    -0.464 C  
ENDBRANCH  13  14
BRANCH  13  17
HETATM   17  C   UNL     1     -10.220  11.154  67.648  1.00  0.00    -0.181 C  
HETATM   18  C   UNL     1     -10.262  10.187  66.458  1.00  0.00    -0.223 C  
HETATM   19 CL   UNL     1      -9.072  10.592  65.193  1.00  0.00    -0.209 Cl 
ENDBRANCH  13  17
ENDBRANCH  10  13
ENDBRANCH   6   7
ENDBRANCH   5   6
ENDBRANCH   3   5
TORSDOF 6
ENDMDL
MODEL      151
REMARK 921   NORMALIZED FREE ENERGY PREDICTED BY IDOCK:   -3.63 KCAL/MOL
REMARK 922        TOTAL FREE ENERGY PREDICTED BY IDOCK:   -5.63 KCAL/MOL
REMARK 923 INTER-LIGAND FREE ENERGY PREDICTED BY IDOCK:   -4.95 KCAL/MOL
REMARK 924 INTRA-LIGAND FREE ENERGY PREDICTED BY IDOCK:   -0.68 KCAL/MOL
REMARK 927      BINDING AFFINITY PREDICTED BY RF-SCORE:    0.00 PKD
ROOT
HETATM    1  O   UNL     1      -9.510  16.610  68.077  1.00  0.00    -0.219 OA 
HETATM    2  C   UNL     1     -10.022  15.359  68.120  1.00  0.00    -0.221 C  
HETATM    3  C   UNL     1     -11.440  15.298  67.594  1.00  0.00    -0.287 C  
HETATM    4  O   UNL     1      -9.385  14.409  68.545  1.00  0.00    -0.198 OA 
ENDROOT
BRANCH   3   5
HETATM    5  C   UNL     1     -12.000  13.878  67.671  1.00  0.00    -0.403 C  
BRANCH   5   6
HETATM    6  C   UNL     1     -11.749  13.081  66.386  1.00  0.00    -0.444 C  
BRANCH   6   7
HETATM    7  C   UNL     1     -11.219  11.693  66.666  1.00  0.00    -0.362 A  
HETATM    8  C   UNL     1     -11.344  11.117  67.934  1.00  0.00    -0.378 A  
HETATM    9  C   UNL     1     -10.806   9.849  68.210  1.00  0.00    -0.275 A  
HETATM   10  C   UNL     1     -10.123   9.112  67.239  1.00  0.00    -0.233 A  
HETATM   11  C   UNL     1     -10.060   9.682  65.955  1.00  0.00    -0.304 A  
HETATM   12  C   UNL     1     -10.593  10.949  65.669  1.00  0.00    -0.233 A  
BRANCH  10  13
HETATM   13  N   UNL     1      -9.510   7.884  67.499  1.00  0.00    -0.142 NA 
BRANCH  13  14
HETATM   14  C   UNL     1      -8.041   7.735  67.527  1.00  0.00    -0.124 C  
HETATM   15 CL   UNL     1      -7.937   7.113  64.841  1.00  0.00    -0.126 Cl 
HETATM   16  C   UNL     1      -7.509   6.707  66.526  1.00  0.00    -0.078 C  
ENDBRANCH  13  14
BRANCH  13  17
HETATM   17  C   UNL     1     -10.276   6.662  67.166  1.00  0.00    -0.213 C  
HETATM   18  C   UNL     1     -10.524   5.719  68.352  1.00  0.00    -0.222 C  
HETATM   19 CL   UNL     1     -11.514   6.465  69.634  1.00  0.00    -0.485 Cl 
ENDBRANCH  13  17
ENDBRANCH  10  13
ENDBRANCH   6   7
ENDBRANCH   5   6
ENDBRANCH   3   5
TORSDOF 6
ENDMDL
MODEL      152
REMARK 921   NORMALIZED FREE ENERGY PREDICTED BY IDOCK:   -3.63 KCAL/MOL
REMARK 922        TOTAL FREE ENERGY PREDICTED BY IDOCK:   -5.63 KCAL/MOL
REMARK 923 INTER-LIGAND FREE ENERGY PREDICTED BY IDOCK:   -4.83 KCAL/MOL
REMARK 924 INTRA-LIGAND FREE ENERGY PREDICTED BY IDOCK:   -0.80 KCAL/MOL
REMARK 927      BINDING AFFINITY PREDICTED BY RF-SCORE:    0.00 PKD
ROOT
HETATM    1  O   UNL     1      -8.402   3.056  64.890  1.00  0.00    -0.093 OA 
HETATM    2  C   UNL     1      -8.153   4.171  65.615  1.00  0.00    -0.101 C  
HETATM    3  C   UNL     1      -8.902   5.378  65.092  1.00  0.00    -0.111 C  
HETATM    4  O   UNL     1      -7.400   4.168  66.575  1.00  0.00    -0.077 OA 
ENDROOT
BRANCH   3   5
HETATM    5  C   UNL     1      -8.588   6.625  65.917  1.00  0.00    -0.153 C  
BRANCH   5   6
HETATM    6  C   UNL     1      -9.828   7.187  66.622  1.00  0.00    -0.237 C  
BRANCH   6   7
HETATM    7  C   UNL     1      -9.933   8.689  66.487  1.00  0.00    -0.353 A  
HETATM    8  C   UNL     1      -9.332   9.361  65.418  1.00  0.00    -0.311 A  
HETATM    9  C   UNL     1      -9.384  10.761  65.320  1.00  0.00    -0.247 A  
HETATM   10  C   UNL     1     -10.031  11.542  66.281  1.00  0.00    -0.220 A  
HETATM   11  C   UNL     1     -10.681  10.845  67.316  1.00  0.00    -0.317 A  
HETATM   12  C   UNL     1     -10.633   9.446  67.424  1.00  0.00    -0.326 A  
BRANCH  10  13
HETATM   13  N   UNL     1     -10.037  12.939  66.256  1.00  0.00    -0.271 NA 
BRANCH  13  14
HETATM   14  C   UNL     1     -10.172  13.697  64.996  1.00  0.00    -0.334 C  
HETATM   15 CL   UNL     1     -12.888  14.028  65.350  1.00  0.00    -0.515 Cl 
HETATM   16  C   UNL     1     -11.529  13.516  64.312  1.00  0.00    -0.383 C  
ENDBRANCH  13  14
BRANCH  13  17
HETATM   17  C   UNL     1      -9.337  13.637  67.358  1.00  0.00    -0.227 C  
HETATM   18  C   UNL     1     -10.198  14.649  68.124  1.00  0.00    -0.231 C  
HETATM   19 CL   UNL     1     -11.581  13.890  68.959  1.00  0.00    -0.324 Cl 
ENDBRANCH  13  17
ENDBRANCH  10  13
ENDBRANCH   6   7
ENDBRANCH   5   6
ENDBRANCH   3   5
TORSDOF 6
ENDMDL
MODEL      153
REMARK 921   NORMALIZED FREE ENERGY PREDICTED BY IDOCK:   -3.62 KCAL/MOL
REMARK 922        TOTAL FREE ENERGY PREDICTED BY IDOCK:   -5.61 KCAL/MOL
REMARK 923 INTER-LIGAND FREE ENERGY PREDICTED BY IDOCK:   -4.85 KCAL/MOL
REMARK 924 INTRA-LIGAND FREE ENERGY PREDICTED BY IDOCK:   -0.77 KCAL/MOL
REMARK 927      BINDING AFFINITY PREDICTED BY RF-SCORE:    0.00 PKD
ROOT
HETATM    1  O   UNL     1      -7.999  15.041  69.023  1.00  0.00    -0.157 OA 
HETATM    2  C   UNL     1      -8.735  14.845  67.904  1.00  0.00    -0.164 C  
HETATM    3  C   UNL     1     -10.156  14.425  68.214  1.00  0.00    -0.239 C  
HETATM    4  O   UNL     1      -8.271  14.995  66.786  1.00  0.00    -0.204 OA 
ENDROOT
BRANCH   3   5
HETATM    5  C   UNL     1     -10.957  14.193  66.934  1.00  0.00    -0.302 C  
BRANCH   5   6
HETATM    6  C   UNL     1     -12.078  13.165  67.125  1.00  0.00    -0.343 C  
BRANCH   6   7
HETATM    7  C   UNL     1     -11.576  11.878  67.740  1.00  0.00    -0.393 A  
HETATM    8  C   UNL     1     -10.771  10.997  67.012  1.00  0.00    -0.319 A  
HETATM    9  C   UNL     1     -10.348   9.777  67.564  1.00  0.00    -0.291 A  
HETATM   10  C   UNL     1     -10.713   9.388  68.856  1.00  0.00    -0.178 A  
HETATM   11  C   UNL     1     -11.473  10.313  69.594  1.00  0.00    -0.297 A  
HETATM   12  C   UNL     1     -11.902  11.535  69.050  1.00  0.00    -0.408 A  
BRANCH  10  13
HETATM   13  N   UNL     1     -10.375   8.150  69.408  1.00  0.00    -0.215 NA 
BRANCH  13  14
HETATM   14  C   UNL     1      -9.210   7.375  68.935  1.00  0.00    -0.142 C  
HETATM   15 CL   UNL     1     -10.625   6.324  66.813  1.00  0.00    -0.333 Cl 
HETATM   16  C   UNL     1      -9.585   6.064  68.241  1.00  0.00    -0.119 C  
ENDBRANCH  13  14
BRANCH  13  17
HETATM   17  C   UNL     1     -11.469   7.362  70.020  1.00  0.00    -0.065 C  
HETATM   18  C   UNL     1     -11.202   6.909  71.462  1.00  0.00    -0.256 C  
HETATM   19 CL   UNL     1     -11.024   8.276  72.595  1.00  0.00    -0.423 Cl 
ENDBRANCH  13  17
ENDBRANCH  10  13
ENDBRANCH   6   7
ENDBRANCH   5   6
ENDBRANCH   3   5
TORSDOF 6
ENDMDL
MODEL      154
REMARK 921   NORMALIZED FREE ENERGY PREDICTED BY IDOCK:   -3.60 KCAL/MOL
REMARK 922        TOTAL FREE ENERGY PREDICTED BY IDOCK:   -5.59 KCAL/MOL
REMARK 923 INTER-LIGAND FREE ENERGY PREDICTED BY IDOCK:   -4.85 KCAL/MOL
REMARK 924 INTRA-LIGAND FREE ENERGY PREDICTED BY IDOCK:   -0.74 KCAL/MOL
REMARK 927      BINDING AFFINITY PREDICTED BY RF-SCORE:    0.00 PKD
ROOT
HETATM    1  O   UNL     1      -8.609   6.399  68.319  1.00  0.00    -0.115 OA 
HETATM    2  C   UNL     1      -9.029   6.752  69.555  1.00  0.00    -0.139 C  
HETATM    3  C   UNL     1     -10.370   7.454  69.530  1.00  0.00    -0.218 C  
HETATM    4  O   UNL     1      -8.372   6.519  70.557  1.00  0.00    -0.129 OA 
ENDROOT
BRANCH   3   5
HETATM    5  C   UNL     1     -10.811   7.857  70.937  1.00  0.00    -0.245 C  
BRANCH   5   6
HETATM    6  C   UNL     1     -10.343   9.267  71.313  1.00  0.00    -0.397 C  
BRANCH   6   7
HETATM    7  C   UNL     1     -10.670  10.284  70.243  1.00  0.00    -0.310 A  
HETATM    8  C   UNL     1     -11.900  10.949  70.232  1.00  0.00    -0.450 A  
HETATM    9  C   UNL     1     -12.225  11.855  69.210  1.00  0.00    -0.169 A  
HETATM   10  C   UNL     1     -11.343  12.129  68.161  1.00  0.00    -0.293 A  
HETATM   11  C   UNL     1     -10.088  11.497  68.221  1.00  0.00    -0.205 A  
HETATM   12  C   UNL     1      -9.754  10.588  69.238  1.00  0.00    -0.215 A  
BRANCH  10  13
HETATM   13  N   UNL     1     -11.664  12.964  67.088  1.00  0.00    -0.365 NA 
BRANCH  13  14
HETATM   14  C   UNL     1     -11.859  14.418  67.260  1.00  0.00    -0.405 C  
HETATM   15 CL   UNL     1      -9.495  15.006  65.965  1.00  0.00    -0.344 Cl 
HETATM   16  C   UNL     1     -10.551  15.202  67.391  1.00  0.00    -0.271 C  
ENDBRANCH  13  14
BRANCH  13  17
HETATM   17  C   UNL     1     -12.371  12.350  65.941  1.00  0.00     0.052 C  
HETATM   18  C   UNL     1     -11.635  12.464  64.600  1.00  0.00    -0.343 C  
HETATM   19 CL   UNL     1     -10.068  11.612  64.595  1.00  0.00    -0.289 Cl 
ENDBRANCH  13  17
ENDBRANCH  10  13
ENDBRANCH   6   7
ENDBRANCH   5   6
ENDBRANCH   3   5
TORSDOF 6
ENDMDL
MODEL      155
REMARK 921   NORMALIZED FREE ENERGY PREDICTED BY IDOCK:   -3.58 KCAL/MOL
REMARK 922        TOTAL FREE ENERGY PREDICTED BY IDOCK:   -5.56 KCAL/MOL
REMARK 923 INTER-LIGAND FREE ENERGY PREDICTED BY IDOCK:   -5.02 KCAL/MOL
REMARK 924 INTRA-LIGAND FREE ENERGY PREDICTED BY IDOCK:   -0.54 KCAL/MOL
REMARK 927      BINDING AFFINITY PREDICTED BY RF-SCORE:    0.00 PKD
ROOT
HETATM    1  O   UNL     1     -10.755  16.100  70.275  1.00  0.00    -0.301 OA 
HETATM    2  C   UNL     1     -10.977  16.177  68.942  1.00  0.00    -0.324 C  
HETATM    3  C   UNL     1      -9.693  16.282  68.148  1.00  0.00    -0.227 C  
HETATM    4  O   UNL     1     -12.102  16.163  68.469  1.00  0.00    -0.089 OA 
ENDROOT
BRANCH   3   5
HETATM    5  C   UNL     1      -9.975  16.386  66.650  1.00  0.00    -0.281 C  
BRANCH   5   6
HETATM    6  C   UNL     1      -9.568  15.118  65.891  1.00  0.00    -0.373 C  
BRANCH   6   7
HETATM    7  C   UNL     1      -9.901  13.858  66.659  1.00  0.00    -0.288 A  
HETATM    8  C   UNL     1     -11.195  13.329  66.650  1.00  0.00    -0.332 A  
HETATM    9  C   UNL     1     -11.517  12.189  67.404  1.00  0.00    -0.415 A  
HETATM   10  C   UNL     1     -10.568  11.539  68.197  1.00  0.00    -0.196 A  
HETATM   11  C   UNL     1      -9.258  12.050  68.146  1.00  0.00    -0.195 A  
HETATM   12  C   UNL     1      -8.926  13.190  67.397  1.00  0.00    -0.201 A  
BRANCH  10  13
HETATM   13  N   UNL     1     -10.871  10.451  69.019  1.00  0.00    -0.220 NA 
BRANCH  13  14
HETATM   14  C   UNL     1     -10.199   9.145  68.867  1.00  0.00    -0.207 C  
HETATM   15 CL   UNL     1      -9.783   8.911  71.584  1.00  0.00    -0.376 Cl 
HETATM   16  C   UNL     1      -9.125   8.880  69.924  1.00  0.00    -0.161 C  
ENDBRANCH  13  14
BRANCH  13  17
HETATM   17  C   UNL     1     -12.224  10.414  69.619  1.00  0.00    -0.048 C  
HETATM   18  C   UNL     1     -12.377  11.239  70.903  1.00  0.00    -0.388 C  
HETATM   19 CL   UNL     1     -12.114  12.984  70.642  1.00  0.00    -0.400 Cl 
ENDBRANCH  13  17
ENDBRANCH  10  13
ENDBRANCH   6   7
ENDBRANCH   5   6
ENDBRANCH   3   5
TORSDOF 6
ENDMDL
MODEL      156
REMARK 921   NORMALIZED FREE ENERGY PREDICTED BY IDOCK:   -3.57 KCAL/MOL
REMARK 922        TOTAL FREE ENERGY PREDICTED BY IDOCK:   -5.55 KCAL/MOL
REMARK 923 INTER-LIGAND FREE ENERGY PREDICTED BY IDOCK:   -5.04 KCAL/MOL
REMARK 924 INTRA-LIGAND FREE ENERGY PREDICTED BY IDOCK:   -0.52 KCAL/MOL
REMARK 927      BINDING AFFINITY PREDICTED BY RF-SCORE:    0.00 PKD
ROOT
HETATM    1  O   UNL     1     -14.339   7.743  71.263  1.00  0.00    -0.384 OA 
HETATM    2  C   UNL     1     -13.049   7.534  71.612  1.00  0.00    -0.358 C  
HETATM    3  C   UNL     1     -12.266   8.824  71.729  1.00  0.00    -0.415 C  
HETATM    4  O   UNL     1     -12.599   6.415  71.800  1.00  0.00    -0.286 OA 
ENDROOT
BRANCH   3   5
HETATM    5  C   UNL     1     -10.809   8.556  72.105  1.00  0.00    -0.427 C  
BRANCH   5   6
HETATM    6  C   UNL     1     -10.021   7.905  70.963  1.00  0.00    -0.200 C  
BRANCH   6   7
HETATM    7  C   UNL     1      -9.833   8.841  69.790  1.00  0.00    -0.189 A  
HETATM    8  C   UNL     1     -10.548   8.661  68.602  1.00  0.00    -0.165 A  
HETATM    9  C   UNL     1     -10.336   9.497  67.494  1.00  0.00    -0.306 A  
HETATM   10  C   UNL     1      -9.404  10.538  67.526  1.00  0.00    -0.149 A  
HETATM   11  C   UNL     1      -8.738  10.740  68.748  1.00  0.00    -0.163 A  
HETATM   12  C   UNL     1      -8.941   9.909  69.861  1.00  0.00    -0.231 A  
BRANCH  10  13
HETATM   13  N   UNL     1      -9.112  11.339  66.420  1.00  0.00    -0.186 NA 
BRANCH  13  14
HETATM   14  C   UNL     1      -8.181  10.901  65.360  1.00  0.00    -0.016 C  
HETATM   15 CL   UNL     1     -10.162  10.944  63.440  1.00  0.00    -0.390 Cl 
HETATM   16  C   UNL     1      -8.847  10.063  64.266  1.00  0.00    -0.220 C  
ENDBRANCH  13  14
BRANCH  13  17
HETATM   17  C   UNL     1      -9.251  12.804  66.590  1.00  0.00    -0.212 C  
HETATM   18  C   UNL     1     -10.223  13.473  65.609  1.00  0.00    -0.296 C  
HETATM   19 CL   UNL     1     -11.901  12.897  65.794  1.00  0.00    -0.442 Cl 
ENDBRANCH  13  17
ENDBRANCH  10  13
ENDBRANCH   6   7
ENDBRANCH   5   6
ENDBRANCH   3   5
TORSDOF 6
ENDMDL
MODEL      157
REMARK 921   NORMALIZED FREE ENERGY PREDICTED BY IDOCK:   -3.57 KCAL/MOL
REMARK 922        TOTAL FREE ENERGY PREDICTED BY IDOCK:   -5.55 KCAL/MOL
REMARK 923 INTER-LIGAND FREE ENERGY PREDICTED BY IDOCK:   -4.62 KCAL/MOL
REMARK 924 INTRA-LIGAND FREE ENERGY PREDICTED BY IDOCK:   -0.94 KCAL/MOL
REMARK 927      BINDING AFFINITY PREDICTED BY RF-SCORE:    0.00 PKD
ROOT
HETATM    1  O   UNL     1      -9.212   2.502  64.654  1.00  0.00    -0.129 OA 
HETATM    2  C   UNL     1      -9.514   3.789  64.945  1.00  0.00    -0.167 C  
HETATM    3  C   UNL     1      -8.285   4.610  65.270  1.00  0.00    -0.117 C  
HETATM    4  O   UNL     1     -10.661   4.205  64.939  1.00  0.00    -0.250 OA 
ENDROOT
BRANCH   3   5
HETATM    5  C   UNL     1      -8.657   6.052  65.612  1.00  0.00    -0.154 C  
BRANCH   5   6
HETATM    6  C   UNL     1      -7.990   6.537  66.905  1.00  0.00    -0.112 C  
BRANCH   6   7
HETATM    7  C   UNL     1      -8.923   6.463  68.093  1.00  0.00    -0.116 A  
HETATM    8  C   UNL     1     -10.295   6.260  67.921  1.00  0.00    -0.239 A  
HETATM    9  C   UNL     1     -11.169   6.244  69.021  1.00  0.00    -0.415 A  
HETATM   10  C   UNL     1     -10.711   6.434  70.327  1.00  0.00    -0.266 A  
HETATM   11  C   UNL     1      -9.321   6.577  70.485  1.00  0.00    -0.167 A  
HETATM   12  C   UNL     1      -8.439   6.596  69.393  1.00  0.00    -0.131 A  
BRANCH  10  13
HETATM   13  N   UNL     1     -11.560   6.501  71.435  1.00  0.00    -0.306 NA 
BRANCH  13  14
HETATM   14  C   UNL     1     -12.840   7.237  71.395  1.00  0.00    -0.382 C  
HETATM   15 CL   UNL     1     -11.565   9.683  71.350  1.00  0.00    -0.455 Cl 
HETATM   16  C   UNL     1     -12.784   8.603  72.081  1.00  0.00    -0.392 C  
ENDBRANCH  13  14
BRANCH  13  17
HETATM   17  C   UNL     1     -10.940   6.357  72.772  1.00  0.00    -0.257 C  
HETATM   18  C   UNL     1     -11.139   4.983  73.425  1.00  0.00    -0.335 C  
HETATM   19 CL   UNL     1     -10.382   3.659  72.499  1.00  0.00    -0.226 Cl 
ENDBRANCH  13  17
ENDBRANCH  10  13
ENDBRANCH   6   7
ENDBRANCH   5   6
ENDBRANCH   3   5
TORSDOF 6
ENDMDL
MODEL      158
REMARK 921   NORMALIZED FREE ENERGY PREDICTED BY IDOCK:   -3.56 KCAL/MOL
REMARK 922        TOTAL FREE ENERGY PREDICTED BY IDOCK:   -5.54 KCAL/MOL
REMARK 923 INTER-LIGAND FREE ENERGY PREDICTED BY IDOCK:   -5.89 KCAL/MOL
REMARK 924 INTRA-LIGAND FREE ENERGY PREDICTED BY IDOCK:    0.35 KCAL/MOL
REMARK 927      BINDING AFFINITY PREDICTED BY RF-SCORE:    0.00 PKD
ROOT
HETATM    1  O   UNL     1      -8.645   9.055  64.247  1.00  0.00    -0.189 OA 
HETATM    2  C   UNL     1      -9.324  10.006  63.564  1.00  0.00    -0.256 C  
HETATM    3  C   UNL     1     -10.194  10.854  64.467  1.00  0.00    -0.422 C  
HETATM    4  O   UNL     1      -9.224  10.135  62.355  1.00  0.00    -0.264 OA 
ENDROOT
BRANCH   3   5
HETATM    5  C   UNL     1     -10.962  11.906  63.668  1.00  0.00    -0.511 C  
BRANCH   5   6
HETATM    6  C   UNL     1     -11.832  12.797  64.562  1.00  0.00    -0.436 C  
BRANCH   6   7
HETATM    7  C   UNL     1     -11.052  13.949  65.154  1.00  0.00    -0.334 A  
HETATM    8  C   UNL     1     -11.359  15.273  64.826  1.00  0.00    -0.396 A  
HETATM    9  C   UNL     1     -10.602  16.341  65.335  1.00  0.00    -0.371 A  
HETATM   10  C   UNL     1      -9.512  16.131  66.184  1.00  0.00    -0.327 A  
HETATM   11  C   UNL     1      -9.255  14.798  66.550  1.00  0.00    -0.304 A  
HETATM   12  C   UNL     1     -10.005  13.723  66.045  1.00  0.00    -0.319 A  
BRANCH  10  13
HETATM   13  N   UNL     1      -8.691  17.163  66.646  1.00  0.00    -0.237 NA 
BRANCH  13  14
HETATM   14  C   UNL     1      -7.219  17.049  66.646  1.00  0.00    -0.258 C  
HETATM   15 CL   UNL     1      -7.177  16.109  69.240  1.00  0.00    -0.219 Cl 
HETATM   16  C   UNL     1      -6.586  17.273  68.022  1.00  0.00    -0.165 C  
ENDBRANCH  13  14
BRANCH  13  17
HETATM   17  C   UNL     1      -9.267  18.087  67.649  1.00  0.00    -0.259 C  
HETATM   18  C   UNL     1     -10.510  17.552  68.372  1.00  0.00    -0.372 C  
HETATM   19 CL   UNL     1     -10.175  16.089  69.336  1.00  0.00    -0.252 Cl 
ENDBRANCH  13  17
ENDBRANCH  10  13
ENDBRANCH   6   7
ENDBRANCH   5   6
ENDBRANCH   3   5
TORSDOF 6
ENDMDL
MODEL      159
REMARK 921   NORMALIZED FREE ENERGY PREDICTED BY IDOCK:   -3.56 KCAL/MOL
REMARK 922        TOTAL FREE ENERGY PREDICTED BY IDOCK:   -5.53 KCAL/MOL
REMARK 923 INTER-LIGAND FREE ENERGY PREDICTED BY IDOCK:   -4.80 KCAL/MOL
REMARK 924 INTRA-LIGAND FREE ENERGY PREDICTED BY IDOCK:   -0.73 KCAL/MOL
REMARK 927      BINDING AFFINITY PREDICTED BY RF-SCORE:    0.00 PKD
ROOT
HETATM    1  O   UNL     1      -9.825  16.388  68.388  1.00  0.00    -0.221 OA 
HETATM    2  C   UNL     1     -10.237  15.099  68.368  1.00  0.00    -0.221 C  
HETATM    3  C   UNL     1     -11.528  14.919  67.599  1.00  0.00    -0.366 C  
HETATM    4  O   UNL     1      -9.613  14.208  68.922  1.00  0.00    -0.163 OA 
ENDROOT
BRANCH   3   5
HETATM    5  C   UNL     1     -11.979  13.458  67.608  1.00  0.00    -0.362 C  
BRANCH   5   6
HETATM    6  C   UNL     1     -11.694  12.751  66.278  1.00  0.00    -0.460 C  
BRANCH   6   7
HETATM    7  C   UNL     1     -11.034  11.405  66.475  1.00  0.00    -0.328 A  
HETATM    8  C   UNL     1     -11.117  10.733  67.698  1.00  0.00    -0.384 A  
HETATM    9  C   UNL     1     -10.461   9.507  67.897  1.00  0.00    -0.293 A  
HETATM   10  C   UNL     1      -9.696   8.910  66.892  1.00  0.00    -0.202 A  
HETATM   11  C   UNL     1      -9.673   9.571  65.651  1.00  0.00    -0.361 A  
HETATM   12  C   UNL     1     -10.324  10.797  65.441  1.00  0.00    -0.315 A  
BRANCH  10  13
HETATM   13  N   UNL     1      -8.968   7.733  67.081  1.00  0.00    -0.123 NA 
BRANCH  13  14
HETATM   14  C   UNL     1      -9.356   6.726  68.089  1.00  0.00    -0.122 C  
HETATM   15 CL   UNL     1     -10.669   5.185  66.215  1.00  0.00    -0.344 Cl 
HETATM   16  C   UNL     1     -10.687   6.034  67.785  1.00  0.00    -0.289 C  
ENDBRANCH  13  14
BRANCH  13  17
HETATM   17  C   UNL     1      -7.533   7.760  66.716  1.00  0.00    -0.090 C  
HETATM   18  C   UNL     1      -6.976   6.423  66.208  1.00  0.00    -0.066 C  
HETATM   19 CL   UNL     1      -7.753   5.878  64.697  1.00  0.00    -0.093 Cl 
ENDBRANCH  13  17
ENDBRANCH  10  13
ENDBRANCH   6   7
ENDBRANCH   5   6
ENDBRANCH   3   5
TORSDOF 6
ENDMDL
MODEL      160
REMARK 921   NORMALIZED FREE ENERGY PREDICTED BY IDOCK:   -3.55 KCAL/MOL
REMARK 922        TOTAL FREE ENERGY PREDICTED BY IDOCK:   -5.52 KCAL/MOL
REMARK 923 INTER-LIGAND FREE ENERGY PREDICTED BY IDOCK:   -4.65 KCAL/MOL
REMARK 924 INTRA-LIGAND FREE ENERGY PREDICTED BY IDOCK:   -0.87 KCAL/MOL
REMARK 927      BINDING AFFINITY PREDICTED BY RF-SCORE:    0.00 PKD
ROOT
HETATM    1  O   UNL     1     -11.938  15.810  72.234  1.00  0.00    -0.399 OA 
HETATM    2  C   UNL     1     -12.171  14.989  71.184  1.00  0.00    -0.320 C  
HETATM    3  C   UNL     1     -11.605  15.533  69.889  1.00  0.00    -0.348 C  
HETATM    4  O   UNL     1     -12.778  13.937  71.303  1.00  0.00    -0.333 OA 
ENDROOT
BRANCH   3   5
HETATM    5  C   UNL     1     -11.900  14.595  68.719  1.00  0.00    -0.348 C  
BRANCH   5   6
HETATM    6  C   UNL     1     -10.622  14.079  68.048  1.00  0.00    -0.250 C  
BRANCH   6   7
HETATM    7  C   UNL     1     -10.315  12.647  68.426  1.00  0.00    -0.241 A  
HETATM    8  C   UNL     1      -9.025  12.125  68.284  1.00  0.00    -0.186 A  
HETATM    9  C   UNL     1      -8.751  10.781  68.585  1.00  0.00    -0.152 A  
HETATM   10  C   UNL     1      -9.746   9.908  69.033  1.00  0.00    -0.193 A  
HETATM   11  C   UNL     1     -11.023  10.467  69.225  1.00  0.00    -0.287 A  
HETATM   12  C   UNL     1     -11.309  11.809  68.926  1.00  0.00    -0.326 A  
BRANCH  10  13
HETATM   13  N   UNL     1      -9.526   8.549  69.267  1.00  0.00    -0.157 NA 
BRANCH  13  14
HETATM   14  C   UNL     1      -8.404   8.072  70.101  1.00  0.00    -0.126 C  
HETATM   15 CL   UNL     1      -9.928   8.149  72.400  1.00  0.00    -0.313 Cl 
HETATM   16  C   UNL     1      -8.434   8.606  71.535  1.00  0.00    -0.181 C  
ENDBRANCH  13  14
BRANCH  13  17
HETATM   17  C   UNL     1     -10.020   7.598  68.246  1.00  0.00    -0.176 C  
HETATM   18  C   UNL     1      -9.589   7.920  66.809  1.00  0.00    -0.215 C  
HETATM   19 CL   UNL     1      -7.820   7.850  66.585  1.00  0.00    -0.100 Cl 
ENDBRANCH  13  17
ENDBRANCH  10  13
ENDBRANCH   6   7
ENDBRANCH   5   6
ENDBRANCH   3   5
TORSDOF 6
ENDMDL
MODEL      161
REMARK 921   NORMALIZED FREE ENERGY PREDICTED BY IDOCK:   -3.54 KCAL/MOL
REMARK 922        TOTAL FREE ENERGY PREDICTED BY IDOCK:   -5.51 KCAL/MOL
REMARK 923 INTER-LIGAND FREE ENERGY PREDICTED BY IDOCK:   -5.98 KCAL/MOL
REMARK 924 INTRA-LIGAND FREE ENERGY PREDICTED BY IDOCK:    0.47 KCAL/MOL
REMARK 927      BINDING AFFINITY PREDICTED BY RF-SCORE:    0.00 PKD
ROOT
HETATM    1  O   UNL     1     -11.603   4.992  73.238  1.00  0.00    -0.322 OA 
HETATM    2  C   UNL     1     -11.074   6.233  73.129  1.00  0.00    -0.171 C  
HETATM    3  C   UNL     1     -11.352   6.861  71.780  1.00  0.00    -0.295 C  
HETATM    4  O   UNL     1     -10.446   6.754  74.036  1.00  0.00    -0.364 OA 
ENDROOT
BRANCH   3   5
HETATM    5  C   UNL     1     -10.728   8.253  71.678  1.00  0.00    -0.320 C  
BRANCH   5   6
HETATM    6  C   UNL     1     -11.776   9.369  71.746  1.00  0.00    -0.444 C  
BRANCH   6   7
HETATM    7  C   UNL     1     -11.688  10.310  70.565  1.00  0.00    -0.418 A  
HETATM    8  C   UNL     1     -11.059   9.920  69.378  1.00  0.00    -0.237 A  
HETATM    9  C   UNL     1     -10.931  10.811  68.300  1.00  0.00    -0.307 A  
HETATM   10  C   UNL     1     -11.417  12.119  68.363  1.00  0.00    -0.304 A  
HETATM   11  C   UNL     1     -12.099  12.473  69.542  1.00  0.00    -0.248 A  
HETATM   12  C   UNL     1     -12.231  11.591  70.626  1.00  0.00    -0.473 A  
BRANCH  10  13
HETATM   13  N   UNL     1     -11.239  13.054  67.341  1.00  0.00    -0.276 NA 
BRANCH  13  14
HETATM   14  C   UNL     1      -9.980  13.141  66.573  1.00  0.00    -0.268 C  
HETATM   15 CL   UNL     1     -10.948  11.498  64.579  1.00  0.00    -0.381 Cl 
HETATM   16  C   UNL     1      -9.667  11.882  65.763  1.00  0.00    -0.237 C  
ENDBRANCH  13  14
BRANCH  13  17
HETATM   17  C   UNL     1     -12.036  14.300  67.418  1.00  0.00    -0.336 C  
HETATM   18  C   UNL     1     -11.355  15.450  68.171  1.00  0.00    -0.348 C  
HETATM   19 CL   UNL     1      -9.850  15.997  67.386  1.00  0.00    -0.234 Cl 
ENDBRANCH  13  17
ENDBRANCH  10  13
ENDBRANCH   6   7
ENDBRANCH   5   6
ENDBRANCH   3   5
TORSDOF 6
ENDMDL
MODEL      162
REMARK 921   NORMALIZED FREE ENERGY PREDICTED BY IDOCK:   -3.53 KCAL/MOL
REMARK 922        TOTAL FREE ENERGY PREDICTED BY IDOCK:   -5.50 KCAL/MOL
REMARK 923 INTER-LIGAND FREE ENERGY PREDICTED BY IDOCK:   -5.07 KCAL/MOL
REMARK 924 INTRA-LIGAND FREE ENERGY PREDICTED BY IDOCK:   -0.43 KCAL/MOL
REMARK 927      BINDING AFFINITY PREDICTED BY RF-SCORE:    0.00 PKD
ROOT
HETATM    1  O   UNL     1      -5.979   9.053  64.613  1.00  0.00    -0.064 OA 
HETATM    2  C   UNL     1      -7.197   9.250  64.058  1.00  0.00    -0.098 C  
HETATM    3  C   UNL     1      -7.994  10.315  64.779  1.00  0.00    -0.141 C  
HETATM    4  O   UNL     1      -7.578   8.618  63.086  1.00  0.00    -0.103 OA 
ENDROOT
BRANCH   3   5
HETATM    5  C   UNL     1      -9.371  10.503  64.142  1.00  0.00    -0.309 C  
BRANCH   5   6
HETATM    6  C   UNL     1     -10.426  10.958  65.156  1.00  0.00    -0.316 C  
BRANCH   6   7
HETATM    7  C   UNL     1     -10.131  12.333  65.713  1.00  0.00    -0.274 A  
HETATM    8  C   UNL     1      -9.495  12.490  66.948  1.00  0.00    -0.219 A  
HETATM    9  C   UNL     1      -9.267  13.765  67.489  1.00  0.00    -0.216 A  
HETATM   10  C   UNL     1      -9.668  14.928  66.826  1.00  0.00    -0.251 A  
HETATM   11  C   UNL     1     -10.252  14.753  65.559  1.00  0.00    -0.400 A  
HETATM   12  C   UNL     1     -10.485  13.482  65.009  1.00  0.00    -0.390 A  
BRANCH  10  13
HETATM   13  N   UNL     1      -9.527  16.207  67.370  1.00  0.00    -0.225 NA 
BRANCH  13  14
HETATM   14  C   UNL     1      -8.929  17.320  66.605  1.00  0.00    -0.256 C  
HETATM   15 CL   UNL     1     -10.872  19.092  67.439  1.00  0.00    -0.569 Cl 
HETATM   16  C   UNL     1      -9.952  18.342  66.105  1.00  0.00    -0.319 C  
ENDBRANCH  13  14
BRANCH  13  17
HETATM   17  C   UNL     1      -9.424  16.308  68.844  1.00  0.00    -0.252 C  
HETATM   18  C   UNL     1     -10.743  16.633  69.557  1.00  0.00    -0.306 C  
HETATM   19 CL   UNL     1     -11.979  15.365  69.338  1.00  0.00    -0.359 Cl 
ENDBRANCH  13  17
ENDBRANCH  10  13
ENDBRANCH   6   7
ENDBRANCH   5   6
ENDBRANCH   3   5
TORSDOF 6
ENDMDL
MODEL      163
REMARK 921   NORMALIZED FREE ENERGY PREDICTED BY IDOCK:   -3.51 KCAL/MOL
REMARK 922        TOTAL FREE ENERGY PREDICTED BY IDOCK:   -5.47 KCAL/MOL
REMARK 923 INTER-LIGAND FREE ENERGY PREDICTED BY IDOCK:   -4.89 KCAL/MOL
REMARK 924 INTRA-LIGAND FREE ENERGY PREDICTED BY IDOCK:   -0.58 KCAL/MOL
REMARK 927      BINDING AFFINITY PREDICTED BY RF-SCORE:    0.00 PKD
ROOT
HETATM    1  O   UNL     1     -11.018  11.876  64.625  1.00  0.00    -0.295 OA 
HETATM    2  C   UNL     1     -10.315  10.770  64.962  1.00  0.00    -0.287 C  
HETATM    3  C   UNL     1     -10.407  10.456  66.439  1.00  0.00    -0.278 C  
HETATM    4  O   UNL     1      -9.685  10.125  64.140  1.00  0.00    -0.307 OA 
ENDROOT
BRANCH   3   5
HETATM    5  C   UNL     1      -9.590   9.214  66.794  1.00  0.00    -0.253 C  
BRANCH   5   6
HETATM    6  C   UNL     1     -10.468   7.972  66.984  1.00  0.00    -0.410 C  
BRANCH   6   7
HETATM    7  C   UNL     1     -10.533   7.533  68.430  1.00  0.00    -0.212 A  
HETATM    8  C   UNL     1     -10.303   8.439  69.470  1.00  0.00    -0.219 A  
HETATM    9  C   UNL     1     -10.311   8.022  70.811  1.00  0.00    -0.214 A  
HETATM   10  C   UNL     1     -10.544   6.690  71.165  1.00  0.00    -0.228 A  
HETATM   11  C   UNL     1     -10.832   5.806  70.110  1.00  0.00    -0.383 A  
HETATM   12  C   UNL     1     -10.825   6.213  68.766  1.00  0.00    -0.402 A  
BRANCH  10  13
HETATM   13  N   UNL     1     -10.484   6.225  72.481  1.00  0.00    -0.197 NA 
BRANCH  13  14
HETATM   14  C   UNL     1     -11.118   4.956  72.892  1.00  0.00    -0.256 C  
HETATM   15 CL   UNL     1      -8.727   3.923  73.804  1.00  0.00    -0.093 Cl 
HETATM   16  C   UNL     1     -10.188   3.745  72.792  1.00  0.00    -0.166 C  
ENDBRANCH  13  14
BRANCH  13  17
HETATM   17  C   UNL     1     -10.317   7.238  73.549  1.00  0.00    -0.366 C  
HETATM   18  C   UNL     1      -8.945   7.225  74.234  1.00  0.00    -0.208 C  
HETATM   19 CL   UNL     1      -7.608   7.611  73.117  1.00  0.00    -0.119 Cl 
ENDBRANCH  13  17
ENDBRANCH  10  13
ENDBRANCH   6   7
ENDBRANCH   5   6
ENDBRANCH   3   5
TORSDOF 6
ENDMDL
MODEL      164
REMARK 921   NORMALIZED FREE ENERGY PREDICTED BY IDOCK:   -3.51 KCAL/MOL
REMARK 922        TOTAL FREE ENERGY PREDICTED BY IDOCK:   -5.47 KCAL/MOL
REMARK 923 INTER-LIGAND FREE ENERGY PREDICTED BY IDOCK:   -4.87 KCAL/MOL
REMARK 924 INTRA-LIGAND FREE ENERGY PREDICTED BY IDOCK:   -0.60 KCAL/MOL
REMARK 927      BINDING AFFINITY PREDICTED BY RF-SCORE:    0.00 PKD
ROOT
HETATM    1  O   UNL     1     -10.329  20.135  66.326  1.00  0.00    -0.444 OA 
HETATM    2  C   UNL     1     -10.371  19.335  67.416  1.00  0.00    -0.438 C  
HETATM    3  C   UNL     1     -10.596  17.882  67.056  1.00  0.00    -0.287 C  
HETATM    4  O   UNL     1     -10.243  19.771  68.549  1.00  0.00    -0.440 OA 
ENDROOT
BRANCH   3   5
HETATM    5  C   UNL     1     -10.658  17.005  68.307  1.00  0.00    -0.372 C  
BRANCH   5   6
HETATM    6  C   UNL     1     -11.562  15.782  68.118  1.00  0.00    -0.259 C  
BRANCH   6   7
HETATM    7  C   UNL     1     -10.773  14.523  67.842  1.00  0.00    -0.245 A  
HETATM    8  C   UNL     1     -10.247  14.265  66.572  1.00  0.00    -0.277 A  
HETATM    9  C   UNL     1      -9.559  13.071  66.301  1.00  0.00    -0.243 A  
HETATM   10  C   UNL     1      -9.372  12.091  67.279  1.00  0.00    -0.180 A  
HETATM   11  C   UNL     1      -9.855  12.394  68.565  1.00  0.00    -0.156 A  
HETATM   12  C   UNL     1     -10.546  13.584  68.846  1.00  0.00    -0.188 A  
BRANCH  10  13
HETATM   13  N   UNL     1      -8.761  10.861  67.025  1.00  0.00    -0.139 NA 
BRANCH  13  14
HETATM   14  C   UNL     1      -8.704   9.791  68.042  1.00  0.00    -0.118 C  
HETATM   15 CL   UNL     1     -10.584   8.270  66.716  1.00  0.00    -0.332 Cl 
HETATM   16  C   UNL     1     -10.028   9.046  68.224  1.00  0.00    -0.173 C  
ENDBRANCH  13  14
BRANCH  13  17
HETATM   17  C   UNL     1      -7.689  10.837  66.003  1.00  0.00    -0.139 C  
HETATM   18  C   UNL     1      -7.845   9.743  64.939  1.00  0.00    -0.133 C  
HETATM   19 CL   UNL     1      -9.320   9.939  63.954  1.00  0.00    -0.305 Cl 
ENDBRANCH  13  17
ENDBRANCH  10  13
ENDBRANCH   6   7
ENDBRANCH   5   6
ENDBRANCH   3   5
TORSDOF 6
ENDMDL
MODEL      165
REMARK 921   NORMALIZED FREE ENERGY PREDICTED BY IDOCK:   -3.50 KCAL/MOL
REMARK 922        TOTAL FREE ENERGY PREDICTED BY IDOCK:   -5.45 KCAL/MOL
REMARK 923 INTER-LIGAND FREE ENERGY PREDICTED BY IDOCK:   -4.44 KCAL/MOL
REMARK 924 INTRA-LIGAND FREE ENERGY PREDICTED BY IDOCK:   -1.01 KCAL/MOL
REMARK 927      BINDING AFFINITY PREDICTED BY RF-SCORE:    0.00 PKD
ROOT
HETATM    1  O   UNL     1      -9.654   3.338  67.446  1.00  0.00    -0.201 OA 
HETATM    2  C   UNL     1      -9.701   4.525  66.798  1.00  0.00    -0.206 C  
HETATM    3  C   UNL     1      -8.373   5.250  66.825  1.00  0.00    -0.108 C  
HETATM    4  O   UNL     1     -10.720   4.935  66.265  1.00  0.00    -0.305 OA 
ENDROOT
BRANCH   3   5
HETATM    5  C   UNL     1      -8.461   6.594  66.103  1.00  0.00    -0.135 C  
BRANCH   5   6
HETATM    6  C   UNL     1      -8.008   7.762  66.986  1.00  0.00    -0.116 C  
BRANCH   6   7
HETATM    7  C   UNL     1      -8.796   7.845  68.274  1.00  0.00    -0.129 A  
HETATM    8  C   UNL     1      -8.155   7.794  69.516  1.00  0.00    -0.126 A  
HETATM    9  C   UNL     1      -8.890   7.818  70.713  1.00  0.00    -0.139 A  
HETATM   10  C   UNL     1     -10.285   7.889  70.718  1.00  0.00    -0.194 A  
HETATM   11  C   UNL     1     -10.908   7.999  69.462  1.00  0.00    -0.135 A  
HETATM   12  C   UNL     1     -10.183   7.974  68.260  1.00  0.00    -0.243 A  
BRANCH  10  13
HETATM   13  N   UNL     1     -11.051   7.837  71.885  1.00  0.00    -0.247 NA 
BRANCH  13  14
HETATM   14  C   UNL     1     -10.537   7.233  73.131  1.00  0.00    -0.355 C  
HETATM   15 CL   UNL     1     -10.239   4.759  71.945  1.00  0.00    -0.262 Cl 
HETATM   16  C   UNL     1     -10.884   5.750  73.283  1.00  0.00    -0.272 C  
ENDBRANCH  13  14
BRANCH  13  17
HETATM   17  C   UNL     1     -12.523   7.838  71.728  1.00  0.00    -0.320 C  
HETATM   18  C   UNL     1     -13.215   9.127  72.192  1.00  0.00    -0.458 C  
HETATM   19 CL   UNL     1     -12.721  10.557  71.247  1.00  0.00    -0.492 Cl 
ENDBRANCH  13  17
ENDBRANCH  10  13
ENDBRANCH   6   7
ENDBRANCH   5   6
ENDBRANCH   3   5
TORSDOF 6
ENDMDL
MODEL      166
REMARK 921   NORMALIZED FREE ENERGY PREDICTED BY IDOCK:   -3.49 KCAL/MOL
REMARK 922        TOTAL FREE ENERGY PREDICTED BY IDOCK:   -5.44 KCAL/MOL
REMARK 923 INTER-LIGAND FREE ENERGY PREDICTED BY IDOCK:   -4.62 KCAL/MOL
REMARK 924 INTRA-LIGAND FREE ENERGY PREDICTED BY IDOCK:   -0.83 KCAL/MOL
REMARK 927      BINDING AFFINITY PREDICTED BY RF-SCORE:    0.00 PKD
ROOT
HETATM    1  O   UNL     1     -12.212  12.529  67.918  1.00  0.00    -0.352 OA 
HETATM    2  C   UNL     1     -11.620  12.226  66.740  1.00  0.00    -0.369 C  
HETATM    3  C   UNL     1     -10.203  11.723  66.919  1.00  0.00    -0.236 C  
HETATM    4  O   UNL     1     -12.192  12.360  65.670  1.00  0.00    -0.599 OA 
ENDROOT
BRANCH   3   5
HETATM    5  C   UNL     1      -9.553  11.407  65.572  1.00  0.00    -0.256 C  
BRANCH   5   6
HETATM    6  C   UNL     1      -9.690   9.929  65.190  1.00  0.00    -0.376 C  
BRANCH   6   7
HETATM    7  C   UNL     1      -9.552   9.013  66.386  1.00  0.00    -0.309 A  
HETATM    8  C   UNL     1     -10.643   8.278  66.861  1.00  0.00    -0.302 A  
HETATM    9  C   UNL     1     -10.530   7.468  68.002  1.00  0.00    -0.253 A  
HETATM   10  C   UNL     1      -9.332   7.363  68.714  1.00  0.00    -0.144 A  
HETATM   11  C   UNL     1      -8.231   8.063  68.188  1.00  0.00    -0.126 A  
HETATM   12  C   UNL     1      -8.334   8.876  67.048  1.00  0.00    -0.106 A  
BRANCH  10  13
HETATM   13  N   UNL     1      -9.205   6.629  69.896  1.00  0.00    -0.147 NA 
BRANCH  13  14
HETATM   14  C   UNL     1      -7.901   6.446  70.565  1.00  0.00    -0.107 C  
HETATM   15 CL   UNL     1      -7.048   4.638  68.664  1.00  0.00    -0.052 Cl 
HETATM   16  C   UNL     1      -7.308   5.047  70.382  1.00  0.00    -0.055 C  
ENDBRANCH  13  14
BRANCH  13  17
HETATM   17  C   UNL     1     -10.214   5.575  70.149  1.00  0.00    -0.263 C  
HETATM   18  C   UNL     1     -11.005   5.747  71.453  1.00  0.00    -0.237 C  
HETATM   19 CL   UNL     1     -11.983   7.239  71.478  1.00  0.00    -0.327 Cl 
ENDBRANCH  13  17
ENDBRANCH  10  13
ENDBRANCH   6   7
ENDBRANCH   5   6
ENDBRANCH   3   5
TORSDOF 6
ENDMDL
MODEL      167
REMARK 921   NORMALIZED FREE ENERGY PREDICTED BY IDOCK:   -3.49 KCAL/MOL
REMARK 922        TOTAL FREE ENERGY PREDICTED BY IDOCK:   -5.44 KCAL/MOL
REMARK 923 INTER-LIGAND FREE ENERGY PREDICTED BY IDOCK:   -4.59 KCAL/MOL
REMARK 924 INTRA-LIGAND FREE ENERGY PREDICTED BY IDOCK:   -0.85 KCAL/MOL
REMARK 927      BINDING AFFINITY PREDICTED BY RF-SCORE:    0.00 PKD
ROOT
HETATM    1  O   UNL     1     -12.041   8.713  72.265  1.00  0.00    -0.364 OA 
HETATM    2  C   UNL     1     -11.179   8.589  71.229  1.00  0.00    -0.265 C  
HETATM    3  C   UNL     1      -9.796   9.105  71.565  1.00  0.00    -0.335 C  
HETATM    4  O   UNL     1     -11.515   8.113  70.157  1.00  0.00    -0.153 OA 
ENDROOT
BRANCH   3   5
HETATM    5  C   UNL     1      -8.850   8.970  70.372  1.00  0.00    -0.228 C  
BRANCH   5   6
HETATM    6  C   UNL     1      -8.311  10.324  69.898  1.00  0.00    -0.025 C  
BRANCH   6   7
HETATM    7  C   UNL     1      -8.787  10.675  68.506  1.00  0.00    -0.148 A  
HETATM    8  C   UNL     1      -8.435  11.889  67.908  1.00  0.00    -0.154 A  
HETATM    9  C   UNL     1      -8.919  12.238  66.637  1.00  0.00    -0.189 A  
HETATM   10  C   UNL     1      -9.772  11.397  65.917  1.00  0.00    -0.227 A  
HETATM   11  C   UNL     1     -10.067  10.155  66.510  1.00  0.00    -0.296 A  
HETATM   12  C   UNL     1      -9.590   9.797  67.780  1.00  0.00    -0.157 A  
BRANCH  10  13
HETATM   13  N   UNL     1     -10.334  11.745  64.687  1.00  0.00    -0.275 NA 
BRANCH  13  14
HETATM   14  C   UNL     1     -10.422  10.784  63.569  1.00  0.00    -0.070 C  
HETATM   15 CL   UNL     1      -7.708  10.292  63.624  1.00  0.00    -0.139 Cl 
HETATM   16  C   UNL     1      -9.166  10.740  62.696  1.00  0.00    -0.324 C  
ENDBRANCH  13  14
BRANCH  13  17
HETATM   17  C   UNL     1     -10.295  13.176  64.307  1.00  0.00    -0.339 C  
HETATM   18  C   UNL     1     -11.672  13.833  64.148  1.00  0.00    -0.364 C  
HETATM   19 CL   UNL     1     -12.607  13.858  65.667  1.00  0.00    -0.544 Cl 
ENDBRANCH  13  17
ENDBRANCH  10  13
ENDBRANCH   6   7
ENDBRANCH   5   6
ENDBRANCH   3   5
TORSDOF 6
ENDMDL
MODEL      168
REMARK 921   NORMALIZED FREE ENERGY PREDICTED BY IDOCK:   -3.49 KCAL/MOL
REMARK 922        TOTAL FREE ENERGY PREDICTED BY IDOCK:   -5.44 KCAL/MOL
REMARK 923 INTER-LIGAND FREE ENERGY PREDICTED BY IDOCK:   -5.11 KCAL/MOL
REMARK 924 INTRA-LIGAND FREE ENERGY PREDICTED BY IDOCK:   -0.33 KCAL/MOL
REMARK 927      BINDING AFFINITY PREDICTED BY RF-SCORE:    0.00 PKD
ROOT
HETATM    1  O   UNL     1     -10.720  17.367  65.129  1.00  0.00    -0.684 OA 
HETATM    2  C   UNL     1     -10.194  16.223  65.624  1.00  0.00    -0.343 C  
HETATM    3  C   UNL     1     -11.258  15.248  66.079  1.00  0.00    -0.231 C  
HETATM    4  O   UNL     1      -8.990  16.034  65.685  1.00  0.00    -0.331 OA 
ENDROOT
BRANCH   3   5
HETATM    5  C   UNL     1     -10.636  13.975  66.650  1.00  0.00    -0.274 C  
BRANCH   5   6
HETATM    6  C   UNL     1     -10.901  13.818  68.151  1.00  0.00    -0.261 C  
BRANCH   6   7
HETATM    7  C   UNL     1     -10.765  12.383  68.610  1.00  0.00    -0.260 A  
HETATM    8  C   UNL     1      -9.547  11.704  68.500  1.00  0.00    -0.181 A  
HETATM    9  C   UNL     1      -9.433  10.356  68.878  1.00  0.00    -0.190 A  
HETATM   10  C   UNL     1     -10.523   9.635  69.372  1.00  0.00    -0.220 A  
HETATM   11  C   UNL     1     -11.723  10.351  69.530  1.00  0.00    -0.259 A  
HETATM   12  C   UNL     1     -11.849  11.698  69.155  1.00  0.00    -0.390 A  
BRANCH  10  13
HETATM   13  N   UNL     1     -10.465   8.274  69.683  1.00  0.00    -0.220 NA 
BRANCH  13  14
HETATM   14  C   UNL     1     -11.120   7.251  68.843  1.00  0.00     0.070 C  
HETATM   15 CL   UNL     1      -8.972   7.126  67.117  1.00  0.00    -0.123 Cl 
HETATM   16  C   UNL     1     -10.728   7.327  67.366  1.00  0.00    -0.288 C  
ENDBRANCH  13  14
BRANCH  13  17
HETATM   17  C   UNL     1     -10.274   7.914  71.107  1.00  0.00    -0.195 C  
HETATM   18  C   UNL     1     -11.451   8.279  72.022  1.00  0.00    -0.334 C  
HETATM   19 CL   UNL     1     -12.952   7.413  71.598  1.00  0.00    -0.398 Cl 
ENDBRANCH  13  17
ENDBRANCH  10  13
ENDBRANCH   6   7
ENDBRANCH   5   6
ENDBRANCH   3   5
TORSDOF 6
ENDMDL
MODEL      169
REMARK 921   NORMALIZED FREE ENERGY PREDICTED BY IDOCK:   -3.47 KCAL/MOL
REMARK 922        TOTAL FREE ENERGY PREDICTED BY IDOCK:   -5.41 KCAL/MOL
REMARK 923 INTER-LIGAND FREE ENERGY PREDICTED BY IDOCK:   -4.82 KCAL/MOL
REMARK 924 INTRA-LIGAND FREE ENERGY PREDICTED BY IDOCK:   -0.59 KCAL/MOL
REMARK 927      BINDING AFFINITY PREDICTED BY RF-SCORE:    0.00 PKD
ROOT
HETATM    1  O   UNL     1      -7.645  16.939  67.246  1.00  0.00    -0.156 OA 
HETATM    2  C   UNL     1      -7.935  15.869  68.023  1.00  0.00    -0.136 C  
HETATM    3  C   UNL     1      -7.457  14.568  67.414  1.00  0.00    -0.194 C  
HETATM    4  O   UNL     1      -8.521  15.978  69.088  1.00  0.00    -0.235 OA 
ENDROOT
BRANCH   3   5
HETATM    5  C   UNL     1      -7.814  13.377  68.303  1.00  0.00    -0.143 C  
BRANCH   5   6
HETATM    6  C   UNL     1      -8.548  12.273  67.533  1.00  0.00    -0.174 C  
BRANCH   6   7
HETATM    7  C   UNL     1      -9.311  11.345  68.450  1.00  0.00    -0.194 A  
HETATM    8  C   UNL     1     -10.690  11.488  68.637  1.00  0.00    -0.242 A  
HETATM    9  C   UNL     1     -11.390  10.659  69.529  1.00  0.00    -0.342 A  
HETATM   10  C   UNL     1     -10.746   9.664  70.269  1.00  0.00    -0.281 A  
HETATM   11  C   UNL     1      -9.372   9.496  70.023  1.00  0.00    -0.265 A  
HETATM   12  C   UNL     1      -8.662  10.320  69.135  1.00  0.00    -0.176 A  
BRANCH  10  13
HETATM   13  N   UNL     1     -11.397   8.874  71.220  1.00  0.00    -0.277 NA 
BRANCH  13  14
HETATM   14  C   UNL     1     -12.312   9.455  72.224  1.00  0.00    -0.228 C  
HETATM   15 CL   UNL     1     -14.409   7.861  71.404  1.00  0.00    -0.507 Cl 
HETATM   16  C   UNL     1     -13.774   9.488  71.775  1.00  0.00    -0.309 C  
ENDBRANCH  13  14
BRANCH  13  17
HETATM   17  C   UNL     1     -10.744   7.601  71.601  1.00  0.00    -0.211 C  
HETATM   18  C   UNL     1     -11.305   6.358  70.897  1.00  0.00    -0.338 C  
HETATM   19 CL   UNL     1     -11.074   6.402  69.128  1.00  0.00    -0.413 Cl 
ENDBRANCH  13  17
ENDBRANCH  10  13
ENDBRANCH   6   7
ENDBRANCH   5   6
ENDBRANCH   3   5
TORSDOF 6
ENDMDL
MODEL      170
REMARK 921   NORMALIZED FREE ENERGY PREDICTED BY IDOCK:   -3.46 KCAL/MOL
REMARK 922        TOTAL FREE ENERGY PREDICTED BY IDOCK:   -5.40 KCAL/MOL
REMARK 923 INTER-LIGAND FREE ENERGY PREDICTED BY IDOCK:   -4.80 KCAL/MOL
REMARK 924 INTRA-LIGAND FREE ENERGY PREDICTED BY IDOCK:   -0.60 KCAL/MOL
REMARK 927      BINDING AFFINITY PREDICTED BY RF-SCORE:    0.00 PKD
ROOT
HETATM    1  O   UNL     1     -10.899  18.779  67.318  1.00  0.00    -0.443 OA 
HETATM    2  C   UNL     1     -10.582  17.466  67.397  1.00  0.00    -0.308 C  
HETATM    3  C   UNL     1      -9.826  16.981  66.178  1.00  0.00    -0.297 C  
HETATM    4  O   UNL     1     -10.890  16.779  68.357  1.00  0.00    -0.343 OA 
ENDROOT
BRANCH   3   5
HETATM    5  C   UNL     1      -9.498  15.492  66.286  1.00  0.00    -0.356 C  
BRANCH   5   6
HETATM    6  C   UNL     1     -10.630  14.604  65.758  1.00  0.00    -0.330 C  
BRANCH   6   7
HETATM    7  C   UNL     1     -10.360  13.134  65.988  1.00  0.00    -0.292 A  
HETATM    8  C   UNL     1      -9.644  12.699  67.107  1.00  0.00    -0.207 A  
HETATM    9  C   UNL     1      -9.348  11.339  67.294  1.00  0.00    -0.173 A  
HETATM   10  C   UNL     1      -9.749  10.365  66.376  1.00  0.00    -0.201 A  
HETATM   11  C   UNL     1     -10.519  10.815  65.288  1.00  0.00    -0.282 A  
HETATM   12  C   UNL     1     -10.819  12.172  65.091  1.00  0.00    -0.343 A  
BRANCH  10  13
HETATM   13  N   UNL     1      -9.406   9.016  66.490  1.00  0.00    -0.175 NA 
BRANCH  13  14
HETATM   14  C   UNL     1      -9.266   8.354  67.803  1.00  0.00    -0.131 C  
HETATM   15 CL   UNL     1     -11.099   6.400  67.144  1.00  0.00    -0.460 Cl 
HETATM   16  C   UNL     1     -10.543   7.660  68.281  1.00  0.00    -0.124 C  
ENDBRANCH  13  14
BRANCH  13  17
HETATM   17  C   UNL     1      -8.627   8.420  65.380  1.00  0.00    -0.167 C  
HETATM   18  C   UNL     1      -7.420   9.251  64.927  1.00  0.00    -0.107 C  
HETATM   19 CL   UNL     1      -6.192   9.444  66.206  1.00  0.00    -0.063 Cl 
ENDBRANCH  13  17
ENDBRANCH  10  13
ENDBRANCH   6   7
ENDBRANCH   5   6
ENDBRANCH   3   5
TORSDOF 6
ENDMDL
MODEL      171
REMARK 921   NORMALIZED FREE ENERGY PREDICTED BY IDOCK:   -3.46 KCAL/MOL
REMARK 922        TOTAL FREE ENERGY PREDICTED BY IDOCK:   -5.40 KCAL/MOL
REMARK 923 INTER-LIGAND FREE ENERGY PREDICTED BY IDOCK:   -4.84 KCAL/MOL
REMARK 924 INTRA-LIGAND FREE ENERGY PREDICTED BY IDOCK:   -0.56 KCAL/MOL
REMARK 927      BINDING AFFINITY PREDICTED BY RF-SCORE:    0.00 PKD
ROOT
HETATM    1  O   UNL     1     -10.350  19.967  66.460  1.00  0.00    -0.451 OA 
HETATM    2  C   UNL     1     -10.107  19.042  67.417  1.00  0.00    -0.370 C  
HETATM    3  C   UNL     1     -10.568  17.659  67.012  1.00  0.00    -0.254 C  
HETATM    4  O   UNL     1      -9.577  19.328  68.479  1.00  0.00    -0.355 OA 
ENDROOT
BRANCH   3   5
HETATM    5  C   UNL     1     -10.298  16.639  68.118  1.00  0.00    -0.303 C  
BRANCH   5   6
HETATM    6  C   UNL     1     -11.586  16.160  68.797  1.00  0.00    -0.297 C  
BRANCH   6   7
HETATM    7  C   UNL     1     -11.512  14.706  69.206  1.00  0.00    -0.322 A  
HETATM    8  C   UNL     1     -10.753  13.789  68.474  1.00  0.00    -0.274 A  
HETATM    9  C   UNL     1     -10.725  12.428  68.823  1.00  0.00    -0.242 A  
HETATM   10  C   UNL     1     -11.452  11.931  69.907  1.00  0.00    -0.186 A  
HETATM   11  C   UNL     1     -12.162  12.879  70.667  1.00  0.00    -0.386 A  
HETATM   12  C   UNL     1     -12.198  14.240  70.326  1.00  0.00    -0.407 A  
BRANCH  10  13
HETATM   13  N   UNL     1     -11.509  10.575  70.235  1.00  0.00    -0.311 NA 
BRANCH  13  14
HETATM   14  C   UNL     1     -10.307   9.717  70.223  1.00  0.00    -0.291 C  
HETATM   15 CL   UNL     1     -10.659   9.063  67.566  1.00  0.00    -0.332 Cl 
HETATM   16  C   UNL     1     -10.404   8.538  69.253  1.00  0.00    -0.221 C  
ENDBRANCH  13  14
BRANCH  13  17
HETATM   17  C   UNL     1     -12.799   9.881  70.020  1.00  0.00     0.439 C  
HETATM   18  C   UNL     1     -13.257   9.003  71.192  1.00  0.00    -0.117 C  
HETATM   19 CL   UNL     1     -13.560   9.939  72.681  1.00  0.00    -0.159 Cl 
ENDBRANCH  13  17
ENDBRANCH  10  13
ENDBRANCH   6   7
ENDBRANCH   5   6
ENDBRANCH   3   5
TORSDOF 6
ENDMDL
MODEL      172
REMARK 921   NORMALIZED FREE ENERGY PREDICTED BY IDOCK:   -3.44 KCAL/MOL
REMARK 922        TOTAL FREE ENERGY PREDICTED BY IDOCK:   -5.38 KCAL/MOL
REMARK 923 INTER-LIGAND FREE ENERGY PREDICTED BY IDOCK:   -4.58 KCAL/MOL
REMARK 924 INTRA-LIGAND FREE ENERGY PREDICTED BY IDOCK:   -0.79 KCAL/MOL
REMARK 927      BINDING AFFINITY PREDICTED BY RF-SCORE:    0.00 PKD
ROOT
HETATM    1  O   UNL     1     -12.248  12.388  67.945  1.00  0.00    -0.379 OA 
HETATM    2  C   UNL     1     -11.634  12.102  66.773  1.00  0.00    -0.345 C  
HETATM    3  C   UNL     1     -10.237  11.555  66.973  1.00  0.00    -0.244 C  
HETATM    4  O   UNL     1     -12.175  12.283  65.694  1.00  0.00    -0.605 OA 
ENDROOT
BRANCH   3   5
HETATM    5  C   UNL     1      -9.561  11.259  65.634  1.00  0.00    -0.260 C  
BRANCH   5   6
HETATM    6  C   UNL     1      -9.722   9.795  65.210  1.00  0.00    -0.371 C  
BRANCH   6   7
HETATM    7  C   UNL     1      -9.498   8.838  66.358  1.00  0.00    -0.291 A  
HETATM    8  C   UNL     1     -10.513   7.977  66.789  1.00  0.00    -0.319 A  
HETATM    9  C   UNL     1     -10.323   7.125  67.888  1.00  0.00    -0.248 A  
HETATM   10  C   UNL     1      -9.121   7.100  68.602  1.00  0.00    -0.133 A  
HETATM   11  C   UNL     1      -8.093   7.929  68.118  1.00  0.00    -0.123 A  
HETATM   12  C   UNL     1      -8.273   8.786  67.020  1.00  0.00    -0.103 A  
BRANCH  10  13
HETATM   13  N   UNL     1      -8.924   6.323  69.745  1.00  0.00    -0.139 NA 
BRANCH  13  14
HETATM   14  C   UNL     1      -9.763   5.143  70.042  1.00  0.00    -0.205 C  
HETATM   15 CL   UNL     1     -11.834   6.707  70.979  1.00  0.00    -0.417 Cl 
HETATM   16  C   UNL     1     -10.707   5.345  71.229  1.00  0.00    -0.179 C  
ENDBRANCH  13  14
BRANCH  13  17
HETATM   17  C   UNL     1      -8.307   6.987  70.916  1.00  0.00    -0.129 C  
HETATM   18  C   UNL     1      -7.065   6.278  71.471  1.00  0.00    -0.078 C  
HETATM   19 CL   UNL     1      -5.719   6.219  70.301  1.00  0.00    -0.017 Cl 
ENDBRANCH  13  17
ENDBRANCH  10  13
ENDBRANCH   6   7
ENDBRANCH   5   6
ENDBRANCH   3   5
TORSDOF 6
ENDMDL
MODEL      173
REMARK 921   NORMALIZED FREE ENERGY PREDICTED BY IDOCK:   -3.44 KCAL/MOL
REMARK 922        TOTAL FREE ENERGY PREDICTED BY IDOCK:   -5.37 KCAL/MOL
REMARK 923 INTER-LIGAND FREE ENERGY PREDICTED BY IDOCK:   -4.36 KCAL/MOL
REMARK 924 INTRA-LIGAND FREE ENERGY PREDICTED BY IDOCK:   -1.01 KCAL/MOL
REMARK 927      BINDING AFFINITY PREDICTED BY RF-SCORE:    0.00 PKD
ROOT
HETATM    1  O   UNL     1      -9.816   9.094  71.547  1.00  0.00    -0.304 OA 
HETATM    2  C   UNL     1     -10.039   9.610  70.317  1.00  0.00    -0.275 C  
HETATM    3  C   UNL     1     -11.349  10.363  70.235  1.00  0.00    -0.406 C  
HETATM    4  O   UNL     1      -9.250   9.461  69.397  1.00  0.00    -0.150 OA 
ENDROOT
BRANCH   3   5
HETATM    5  C   UNL     1     -11.582  10.918  68.830  1.00  0.00    -0.378 C  
BRANCH   5   6
HETATM    6  C   UNL     1     -11.951  12.406  68.844  1.00  0.00    -0.289 C  
BRANCH   6   7
HETATM    7  C   UNL     1     -10.742  13.298  68.677  1.00  0.00    -0.281 A  
HETATM    8  C   UNL     1      -9.560  12.812  68.109  1.00  0.00    -0.223 A  
HETATM    9  C   UNL     1      -8.420  13.625  68.002  1.00  0.00    -0.174 A  
HETATM   10  C   UNL     1      -8.412  14.946  68.457  1.00  0.00    -0.163 A  
HETATM   11  C   UNL     1      -9.627  15.435  68.970  1.00  0.00    -0.236 A  
HETATM   12  C   UNL     1     -10.772  14.630  69.084  1.00  0.00    -0.263 A  
BRANCH  10  13
HETATM   13  N   UNL     1      -7.275  15.757  68.436  1.00  0.00    -0.117 NA 
BRANCH  13  14
HETATM   14  C   UNL     1      -5.911  15.190  68.400  1.00  0.00    -0.105 C  
HETATM   15 CL   UNL     1      -6.115  14.231  70.978  1.00  0.00    -0.183 Cl 
HETATM   16  C   UNL     1      -5.215  15.178  69.762  1.00  0.00    -0.096 C  
ENDBRANCH  13  14
BRANCH  13  17
HETATM   17  C   UNL     1      -7.397  17.107  69.032  1.00  0.00    -0.217 C  
HETATM   18  C   UNL     1      -7.199  18.263  68.043  1.00  0.00    -0.236 C  
HETATM   19 CL   UNL     1      -8.433  18.291  66.755  1.00  0.00    -0.261 Cl 
ENDBRANCH  13  17
ENDBRANCH  10  13
ENDBRANCH   6   7
ENDBRANCH   5   6
ENDBRANCH   3   5
TORSDOF 6
ENDMDL
MODEL      174
REMARK 921   NORMALIZED FREE ENERGY PREDICTED BY IDOCK:   -3.42 KCAL/MOL
REMARK 922        TOTAL FREE ENERGY PREDICTED BY IDOCK:   -5.35 KCAL/MOL
REMARK 923 INTER-LIGAND FREE ENERGY PREDICTED BY IDOCK:   -4.66 KCAL/MOL
REMARK 924 INTRA-LIGAND FREE ENERGY PREDICTED BY IDOCK:   -0.69 KCAL/MOL
REMARK 927      BINDING AFFINITY PREDICTED BY RF-SCORE:    0.00 PKD
ROOT
HETATM    1  O   UNL     1      -7.027   4.509  64.759  1.00  0.00    -0.051 OA 
HETATM    2  C   UNL     1      -7.164   5.854  64.796  1.00  0.00    -0.063 C  
HETATM    3  C   UNL     1      -6.590   6.527  63.567  1.00  0.00    -0.040 C  
HETATM    4  O   UNL     1      -7.694   6.429  65.734  1.00  0.00    -0.085 OA 
ENDROOT
BRANCH   3   5
HETATM    5  C   UNL     1      -6.743   8.045  63.645  1.00  0.00    -0.074 C  
BRANCH   5   6
HETATM    6  C   UNL     1      -7.933   8.555  62.824  1.00  0.00    -0.157 C  
BRANCH   6   7
HETATM    7  C   UNL     1      -8.763   9.564  63.585  1.00  0.00    -0.239 A  
HETATM    8  C   UNL     1      -9.644  10.422  62.919  1.00  0.00    -0.331 A  
HETATM    9  C   UNL     1     -10.377  11.395  63.619  1.00  0.00    -0.463 A  
HETATM   10  C   UNL     1     -10.257  11.552  65.002  1.00  0.00    -0.280 A  
HETATM   11  C   UNL     1      -9.412  10.642  65.662  1.00  0.00    -0.257 A  
HETATM   12  C   UNL     1      -8.674   9.667  64.972  1.00  0.00    -0.202 A  
BRANCH  10  13
HETATM   13  N   UNL     1     -10.911  12.557  65.719  1.00  0.00    -0.270 NA 
BRANCH  13  14
HETATM   14  C   UNL     1     -10.435  13.010  67.041  1.00  0.00    -0.247 C  
HETATM   15 CL   UNL     1     -11.597  10.862  68.324  1.00  0.00    -0.371 Cl 
HETATM   16  C   UNL     1     -11.367  12.627  68.193  1.00  0.00    -0.290 C  
ENDBRANCH  13  14
BRANCH  13  17
HETATM   17  C   UNL     1     -12.355  12.746  65.453  1.00  0.00    -0.470 C  
HETATM   18  C   UNL     1     -12.824  14.207  65.477  1.00  0.00    -0.376 C  
HETATM   19 CL   UNL     1     -12.061  15.201  64.208  1.00  0.00    -0.392 Cl 
ENDBRANCH  13  17
ENDBRANCH  10  13
ENDBRANCH   6   7
ENDBRANCH   5   6
ENDBRANCH   3   5
TORSDOF 6
ENDMDL
MODEL      175
REMARK 921   NORMALIZED FREE ENERGY PREDICTED BY IDOCK:   -3.39 KCAL/MOL
REMARK 922        TOTAL FREE ENERGY PREDICTED BY IDOCK:   -5.31 KCAL/MOL
REMARK 923 INTER-LIGAND FREE ENERGY PREDICTED BY IDOCK:   -4.67 KCAL/MOL
REMARK 924 INTRA-LIGAND FREE ENERGY PREDICTED BY IDOCK:   -0.64 KCAL/MOL
REMARK 927      BINDING AFFINITY PREDICTED BY RF-SCORE:    0.00 PKD
ROOT
HETATM    1  O   UNL     1      -8.040   6.601  69.364  1.00  0.00    -0.115 OA 
HETATM    2  C   UNL     1      -8.486   7.764  68.834  1.00  0.00    -0.129 C  
HETATM    3  C   UNL     1      -9.851   7.621  68.196  1.00  0.00    -0.186 C  
HETATM    4  O   UNL     1      -7.831   8.793  68.881  1.00  0.00    -0.100 OA 
ENDROOT
BRANCH   3   5
HETATM    5  C   UNL     1     -10.320   8.944  67.590  1.00  0.00    -0.313 C  
BRANCH   5   6
HETATM    6  C   UNL     1     -10.940   9.877  68.636  1.00  0.00    -0.222 C  
BRANCH   6   7
HETATM    7  C   UNL     1     -10.757  11.336  68.282  1.00  0.00    -0.231 A  
HETATM    8  C   UNL     1     -11.824  12.236  68.360  1.00  0.00    -0.358 A  
HETATM    9  C   UNL     1     -11.668  13.580  67.981  1.00  0.00    -0.394 A  
HETATM   10  C   UNL     1     -10.450  14.075  67.508  1.00  0.00    -0.252 A  
HETATM   11  C   UNL     1      -9.374  13.169  67.492  1.00  0.00    -0.207 A  
HETATM   12  C   UNL     1      -9.520  11.824  67.867  1.00  0.00    -0.191 A  
BRANCH  10  13
HETATM   13  N   UNL     1     -10.281  15.383  67.050  1.00  0.00    -0.257 NA 
BRANCH  13  14
HETATM   14  C   UNL     1     -10.981  16.525  67.672  1.00  0.00    -0.207 C  
HETATM   15 CL   UNL     1      -8.610  17.748  68.374  1.00  0.00    -0.286 Cl 
HETATM   16  C   UNL     1     -10.223  17.145  68.847  1.00  0.00    -0.332 C  
ENDBRANCH  13  14
BRANCH  13  17
HETATM   17  C   UNL     1      -9.892  15.559  65.632  1.00  0.00    -0.342 C  
HETATM   18  C   UNL     1     -10.644  14.655  64.647  1.00  0.00    -0.240 C  
HETATM   19 CL   UNL     1     -12.399  14.974  64.613  1.00  0.00    -0.303 Cl 
ENDBRANCH  13  17
ENDBRANCH  10  13
ENDBRANCH   6   7
ENDBRANCH   5   6
ENDBRANCH   3   5
TORSDOF 6
ENDMDL
MODEL      176
REMARK 921   NORMALIZED FREE ENERGY PREDICTED BY IDOCK:   -3.38 KCAL/MOL
REMARK 922        TOTAL FREE ENERGY PREDICTED BY IDOCK:   -5.30 KCAL/MOL
REMARK 923 INTER-LIGAND FREE ENERGY PREDICTED BY IDOCK:   -4.50 KCAL/MOL
REMARK 924 INTRA-LIGAND FREE ENERGY PREDICTED BY IDOCK:   -0.80 KCAL/MOL
REMARK 927      BINDING AFFINITY PREDICTED BY RF-SCORE:    0.00 PKD
ROOT
HETATM    1  O   UNL     1      -9.180   3.826  67.206  1.00  0.00    -0.153 OA 
HETATM    2  C   UNL     1      -9.939   4.940  67.091  1.00  0.00    -0.197 C  
HETATM    3  C   UNL     1      -9.354   6.116  67.842  1.00  0.00    -0.113 C  
HETATM    4  O   UNL     1     -10.977   4.956  66.449  1.00  0.00    -0.123 OA 
ENDROOT
BRANCH   3   5
HETATM    5  C   UNL     1     -10.241   7.354  67.710  1.00  0.00    -0.250 C  
BRANCH   5   6
HETATM    6  C   UNL     1     -10.535   8.008  69.065  1.00  0.00    -0.212 C  
BRANCH   6   7
HETATM    7  C   UNL     1     -10.787   9.494  68.941  1.00  0.00    -0.177 A  
HETATM    8  C   UNL     1     -11.785  10.121  69.694  1.00  0.00    -0.165 A  
HETATM    9  C   UNL     1     -12.055  11.491  69.541  1.00  0.00    -0.351 A  
HETATM   10  C   UNL     1     -11.348  12.284  68.633  1.00  0.00    -0.291 A  
HETATM   11  C   UNL     1     -10.310  11.648  67.928  1.00  0.00    -0.206 A  
HETATM   12  C   UNL     1     -10.032  10.280  68.072  1.00  0.00    -0.177 A  
BRANCH  10  13
HETATM   13  N   UNL     1     -11.641  13.630  68.400  1.00  0.00    -0.319 NA 
BRANCH  13  14
HETATM   14  C   UNL     1     -12.133  14.519  69.472  1.00  0.00    -0.306 C  
HETATM   15 CL   UNL     1      -9.657  15.690  69.797  1.00  0.00    -0.260 Cl 
HETATM   16  C   UNL     1     -11.071  14.870  70.515  1.00  0.00    -0.159 C  
ENDBRANCH  13  14
BRANCH  13  17
HETATM   17  C   UNL     1     -12.022  14.009  67.020  1.00  0.00    -0.438 C  
HETATM   18  C   UNL     1     -11.211  15.169  66.429  1.00  0.00    -0.277 C  
HETATM   19 CL   UNL     1      -9.476  14.788  66.265  1.00  0.00    -0.325 Cl 
ENDBRANCH  13  17
ENDBRANCH  10  13
ENDBRANCH   6   7
ENDBRANCH   5   6
ENDBRANCH   3   5
TORSDOF 6
ENDMDL
MODEL      177
REMARK 921   NORMALIZED FREE ENERGY PREDICTED BY IDOCK:   -3.37 KCAL/MOL
REMARK 922        TOTAL FREE ENERGY PREDICTED BY IDOCK:   -5.28 KCAL/MOL
REMARK 923 INTER-LIGAND FREE ENERGY PREDICTED BY IDOCK:   -5.14 KCAL/MOL
REMARK 924 INTRA-LIGAND FREE ENERGY PREDICTED BY IDOCK:   -0.13 KCAL/MOL
REMARK 927      BINDING AFFINITY PREDICTED BY RF-SCORE:    0.00 PKD
ROOT
HETATM    1  O   UNL     1      -9.046  17.121  65.795  1.00  0.00    -0.525 OA 
HETATM    2  C   UNL     1     -10.052  16.228  65.943  1.00  0.00    -0.357 C  
HETATM    3  C   UNL     1      -9.750  15.189  67.002  1.00  0.00    -0.237 C  
HETATM    4  O   UNL     1     -11.074  16.283  65.277  1.00  0.00    -0.259 OA 
ENDROOT
BRANCH   3   5
HETATM    5  C   UNL     1     -10.894  14.184  67.134  1.00  0.00    -0.291 C  
BRANCH   5   6
HETATM    6  C   UNL     1     -10.653  12.914  66.312  1.00  0.00    -0.281 C  
BRANCH   6   7
HETATM    7  C   UNL     1     -10.556  11.679  67.180  1.00  0.00    -0.269 A  
HETATM    8  C   UNL     1     -11.438  11.476  68.246  1.00  0.00    -0.368 A  
HETATM    9  C   UNL     1     -11.316  10.357  69.085  1.00  0.00    -0.286 A  
HETATM   10  C   UNL     1     -10.312   9.402  68.898  1.00  0.00    -0.213 A  
HETATM   11  C   UNL     1      -9.472   9.593  67.786  1.00  0.00    -0.146 A  
HETATM   12  C   UNL     1      -9.585  10.709  66.942  1.00  0.00    -0.200 A  
BRANCH  10  13
HETATM   13  N   UNL     1     -10.114   8.320  69.758  1.00  0.00    -0.193 NA 
BRANCH  13  14
HETATM   14  C   UNL     1     -11.115   7.935  70.774  1.00  0.00    -0.256 C  
HETATM   15 CL   UNL     1     -10.714   5.244  70.318  1.00  0.00    -0.295 Cl 
HETATM   16  C   UNL     1     -11.838   6.624  70.458  1.00  0.00    -0.370 C  
ENDBRANCH  13  14
BRANCH  13  17
HETATM   17  C   UNL     1      -8.714   7.940  70.055  1.00  0.00    -0.140 C  
HETATM   18  C   UNL     1      -8.094   8.669  71.254  1.00  0.00    -0.147 C  
HETATM   19 CL   UNL     1      -8.930   8.312  72.789  1.00  0.00    -0.310 Cl 
ENDBRANCH  13  17
ENDBRANCH  10  13
ENDBRANCH   6   7
ENDBRANCH   5   6
ENDBRANCH   3   5
TORSDOF 6
ENDMDL
MODEL      178
REMARK 921   NORMALIZED FREE ENERGY PREDICTED BY IDOCK:   -3.35 KCAL/MOL
REMARK 922        TOTAL FREE ENERGY PREDICTED BY IDOCK:   -5.26 KCAL/MOL
REMARK 923 INTER-LIGAND FREE ENERGY PREDICTED BY IDOCK:   -4.28 KCAL/MOL
REMARK 924 INTRA-LIGAND FREE ENERGY PREDICTED BY IDOCK:   -0.97 KCAL/MOL
REMARK 927      BINDING AFFINITY PREDICTED BY RF-SCORE:    0.00 PKD
ROOT
HETATM    1  O   UNL     1     -13.276  10.625  71.684  1.00  0.00    -0.412 OA 
HETATM    2  C   UNL     1     -12.085  10.184  71.218  1.00  0.00    -0.394 C  
HETATM    3  C   UNL     1     -11.768  10.726  69.840  1.00  0.00    -0.412 C  
HETATM    4  O   UNL     1     -11.373   9.430  71.862  1.00  0.00    -0.370 OA 
ENDROOT
BRANCH   3   5
HETATM    5  C   UNL     1     -10.427  10.197  69.332  1.00  0.00    -0.254 C  
BRANCH   5   6
HETATM    6  C   UNL     1     -10.580   8.910  68.514  1.00  0.00    -0.183 C  
BRANCH   6   7
HETATM    7  C   UNL     1     -10.168   7.682  69.295  1.00  0.00    -0.210 A  
HETATM    8  C   UNL     1      -8.962   7.648  70.001  1.00  0.00    -0.143 A  
HETATM    9  C   UNL     1      -8.554   6.490  70.683  1.00  0.00    -0.139 A  
HETATM   10  C   UNL     1      -9.327   5.325  70.684  1.00  0.00    -0.162 A  
HETATM   11  C   UNL     1     -10.564   5.398  70.018  1.00  0.00    -0.354 A  
HETATM   12  C   UNL     1     -10.980   6.550  69.332  1.00  0.00    -0.395 A  
BRANCH  10  13
HETATM   13  N   UNL     1      -8.917   4.134  71.286  1.00  0.00    -0.109 NA 
BRANCH  13  14
HETATM   14  C   UNL     1      -9.833   2.987  71.454  1.00  0.00    -0.103 C  
HETATM   15 CL   UNL     1     -11.196   4.228  73.507  1.00  0.00    -0.374 Cl 
HETATM   16  C   UNL     1     -10.322   2.798  72.891  1.00  0.00    -0.153 C  
ENDBRANCH  13  14
BRANCH  13  17
HETATM   17  C   UNL     1      -7.801   4.216  72.257  1.00  0.00    -0.082 C  
HETATM   18  C   UNL     1      -6.549   3.423  71.860  1.00  0.00    -0.015 C  
HETATM   19 CL   UNL     1      -5.801   4.018  70.354  1.00  0.00    -0.016 Cl 
ENDBRANCH  13  17
ENDBRANCH  10  13
ENDBRANCH   6   7
ENDBRANCH   5   6
ENDBRANCH   3   5
TORSDOF 6
ENDMDL
MODEL      179
REMARK 921   NORMALIZED FREE ENERGY PREDICTED BY IDOCK:   -3.35 KCAL/MOL
REMARK 922        TOTAL FREE ENERGY PREDICTED BY IDOCK:   -5.25 KCAL/MOL
REMARK 923 INTER-LIGAND FREE ENERGY PREDICTED BY IDOCK:   -4.57 KCAL/MOL
REMARK 924 INTRA-LIGAND FREE ENERGY PREDICTED BY IDOCK:   -0.69 KCAL/MOL
REMARK 927      BINDING AFFINITY PREDICTED BY RF-SCORE:    0.00 PKD
ROOT
HETATM    1  O   UNL     1     -10.095  20.184  66.653  1.00  0.00    -0.434 OA 
HETATM    2  C   UNL     1     -10.074  19.030  67.359  1.00  0.00    -0.370 C  
HETATM    3  C   UNL     1     -10.198  17.809  66.473  1.00  0.00    -0.358 C  
HETATM    4  O   UNL     1      -9.970  19.013  68.575  1.00  0.00    -0.379 OA 
ENDROOT
BRANCH   3   5
HETATM    5  C   UNL     1     -10.191  16.523  67.298  1.00  0.00    -0.287 C  
BRANCH   5   6
HETATM    6  C   UNL     1     -10.980  15.393  66.626  1.00  0.00    -0.275 C  
BRANCH   6   7
HETATM    7  C   UNL     1     -10.280  14.058  66.742  1.00  0.00    -0.264 A  
HETATM    8  C   UNL     1      -8.915  13.982  67.037  1.00  0.00    -0.248 A  
HETATM    9  C   UNL     1      -8.253  12.744  67.093  1.00  0.00    -0.146 A  
HETATM   10  C   UNL     1      -8.922  11.541  66.855  1.00  0.00    -0.179 A  
HETATM   11  C   UNL     1     -10.305  11.633  66.618  1.00  0.00    -0.257 A  
HETATM   12  C   UNL     1     -10.976  12.865  66.558  1.00  0.00    -0.300 A  
BRANCH  10  13
HETATM   13  N   UNL     1      -8.280  10.300  66.826  1.00  0.00    -0.123 NA 
BRANCH  13  14
HETATM   14  C   UNL     1      -7.001  10.066  67.525  1.00  0.00    -0.086 C  
HETATM   15 CL   UNL     1      -5.533  11.084  65.422  1.00  0.00    -0.090 Cl 
HETATM   16  C   UNL     1      -5.834   9.761  66.584  1.00  0.00    -0.054 C  
ENDBRANCH  13  14
BRANCH  13  17
HETATM   17  C   UNL     1      -8.548   9.427  65.660  1.00  0.00    -0.142 C  
HETATM   18  C   UNL     1      -8.947   7.989  66.016  1.00  0.00    -0.163 C  
HETATM   19 CL   UNL     1     -10.477   7.901  66.930  1.00  0.00    -0.412 Cl 
ENDBRANCH  13  17
ENDBRANCH  10  13
ENDBRANCH   6   7
ENDBRANCH   5   6
ENDBRANCH   3   5
TORSDOF 6
ENDMDL
MODEL      180
REMARK 921   NORMALIZED FREE ENERGY PREDICTED BY IDOCK:   -3.34 KCAL/MOL
REMARK 922        TOTAL FREE ENERGY PREDICTED BY IDOCK:   -5.24 KCAL/MOL
REMARK 923 INTER-LIGAND FREE ENERGY PREDICTED BY IDOCK:   -4.61 KCAL/MOL
REMARK 924 INTRA-LIGAND FREE ENERGY PREDICTED BY IDOCK:   -0.63 KCAL/MOL
REMARK 927      BINDING AFFINITY PREDICTED BY RF-SCORE:    0.00 PKD
ROOT
HETATM    1  O   UNL     1     -14.342   9.087  72.411  1.00  0.00    -0.499 OA 
HETATM    2  C   UNL     1     -13.274   8.390  71.958  1.00  0.00    -0.346 C  
HETATM    3  C   UNL     1     -11.996   9.199  72.005  1.00  0.00    -0.421 C  
HETATM    4  O   UNL     1     -13.370   7.241  71.558  1.00  0.00    -0.379 OA 
ENDROOT
BRANCH   3   5
HETATM    5  C   UNL     1     -10.811   8.394  71.471  1.00  0.00    -0.323 C  
BRANCH   5   6
HETATM    6  C   UNL     1     -10.795   8.327  69.940  1.00  0.00    -0.213 C  
BRANCH   6   7
HETATM    7  C   UNL     1     -10.189   9.565  69.318  1.00  0.00    -0.212 A  
HETATM    8  C   UNL     1      -8.819   9.639  69.047  1.00  0.00    -0.147 A  
HETATM    9  C   UNL     1      -8.247  10.807  68.518  1.00  0.00    -0.136 A  
HETATM   10  C   UNL     1      -9.013  11.944  68.244  1.00  0.00    -0.178 A  
HETATM   11  C   UNL     1     -10.397  11.830  68.468  1.00  0.00    -0.228 A  
HETATM   12  C   UNL     1     -10.979  10.667  68.998  1.00  0.00    -0.295 A  
BRANCH  10  13
HETATM   13  N   UNL     1      -8.466  13.146  67.792  1.00  0.00    -0.171 NA 
BRANCH  13  14
HETATM   14  C   UNL     1      -7.028  13.284  67.483  1.00  0.00    -0.144 C  
HETATM   15 CL   UNL     1      -6.347  13.398  70.154  1.00  0.00    -0.052 Cl 
HETATM   16  C   UNL     1      -6.254  14.104  68.517  1.00  0.00    -0.093 C  
ENDBRANCH  13  14
BRANCH  13  17
HETATM   17  C   UNL     1      -9.165  14.394  68.175  1.00  0.00    -0.199 C  
HETATM   18  C   UNL     1      -9.297  15.426  67.048  1.00  0.00    -0.224 C  
HETATM   19 CL   UNL     1     -10.276  14.834  65.678  1.00  0.00    -0.354 Cl 
ENDBRANCH  13  17
ENDBRANCH  10  13
ENDBRANCH   6   7
ENDBRANCH   5   6
ENDBRANCH   3   5
TORSDOF 6
ENDMDL
MODEL      181
REMARK 921   NORMALIZED FREE ENERGY PREDICTED BY IDOCK:   -3.34 KCAL/MOL
REMARK 922        TOTAL FREE ENERGY PREDICTED BY IDOCK:   -5.24 KCAL/MOL
REMARK 923 INTER-LIGAND FREE ENERGY PREDICTED BY IDOCK:   -4.37 KCAL/MOL
REMARK 924 INTRA-LIGAND FREE ENERGY PREDICTED BY IDOCK:   -0.87 KCAL/MOL
REMARK 927      BINDING AFFINITY PREDICTED BY RF-SCORE:    0.00 PKD
ROOT
HETATM    1  O   UNL     1     -13.083  10.651  72.070  1.00  0.00    -0.481 OA 
HETATM    2  C   UNL     1     -12.040  10.617  71.208  1.00  0.00    -0.299 C  
HETATM    3  C   UNL     1     -12.166  11.650  70.109  1.00  0.00    -0.367 C  
HETATM    4  O   UNL     1     -11.120   9.825  71.332  1.00  0.00    -0.359 OA 
ENDROOT
BRANCH   3   5
HETATM    5  C   UNL     1     -10.985  11.576  69.142  1.00  0.00    -0.276 C  
BRANCH   5   6
HETATM    6  C   UNL     1     -11.390  11.031  67.767  1.00  0.00    -0.365 C  
BRANCH   6   7
HETATM    7  C   UNL     1     -10.514   9.879  67.328  1.00  0.00    -0.319 A  
HETATM    8  C   UNL     1      -9.824   9.920  66.112  1.00  0.00    -0.324 A  
HETATM    9  C   UNL     1      -9.053   8.829  65.679  1.00  0.00    -0.247 A  
HETATM   10  C   UNL     1      -8.944   7.659  66.434  1.00  0.00    -0.167 A  
HETATM   11  C   UNL     1      -9.596   7.659  67.680  1.00  0.00    -0.175 A  
HETATM   12  C   UNL     1     -10.371   8.743  68.122  1.00  0.00    -0.266 A  
BRANCH  10  13
HETATM   13  N   UNL     1      -8.250   6.527  65.999  1.00  0.00    -0.121 NA 
BRANCH  13  14
HETATM   14  C   UNL     1      -8.484   5.931  64.668  1.00  0.00    -0.029 C  
HETATM   15 CL   UNL     1     -10.706   4.554  65.547  1.00  0.00    -0.266 Cl 
HETATM   16  C   UNL     1      -9.124   4.543  64.721  1.00  0.00    -0.152 C  
ENDBRANCH  13  14
BRANCH  13  17
HETATM   17  C   UNL     1      -7.742   5.604  67.039  1.00  0.00    -0.101 C  
HETATM   18  C   UNL     1      -6.218   5.616  67.216  1.00  0.00    -0.030 C  
HETATM   19 CL   UNL     1      -5.595   7.197  67.759  1.00  0.00    -0.023 Cl 
ENDBRANCH  13  17
ENDBRANCH  10  13
ENDBRANCH   6   7
ENDBRANCH   5   6
ENDBRANCH   3   5
TORSDOF 6
ENDMDL
MODEL      182
REMARK 921   NORMALIZED FREE ENERGY PREDICTED BY IDOCK:   -3.32 KCAL/MOL
REMARK 922        TOTAL FREE ENERGY PREDICTED BY IDOCK:   -5.22 KCAL/MOL
REMARK 923 INTER-LIGAND FREE ENERGY PREDICTED BY IDOCK:   -4.74 KCAL/MOL
REMARK 924 INTRA-LIGAND FREE ENERGY PREDICTED BY IDOCK:   -0.48 KCAL/MOL
REMARK 927      BINDING AFFINITY PREDICTED BY RF-SCORE:    0.00 PKD
ROOT
HETATM    1  O   UNL     1      -6.637   8.964  64.650  1.00  0.00    -0.066 OA 
HETATM    2  C   UNL     1      -7.905   9.367  64.405  1.00  0.00    -0.123 C  
HETATM    3  C   UNL     1      -8.393  10.385  65.412  1.00  0.00    -0.166 C  
HETATM    4  O   UNL     1      -8.556   8.932  63.467  1.00  0.00    -0.177 OA 
ENDROOT
BRANCH   3   5
HETATM    5  C   UNL     1      -9.833  10.807  65.122  1.00  0.00    -0.333 C  
BRANCH   5   6
HETATM    6  C   UNL     1     -10.527  11.400  66.353  1.00  0.00    -0.299 C  
BRANCH   6   7
HETATM    7  C   UNL     1     -10.280  12.886  66.489  1.00  0.00    -0.264 A  
HETATM    8  C   UNL     1     -10.312  13.728  65.373  1.00  0.00    -0.347 A  
HETATM    9  C   UNL     1     -10.031  15.099  65.491  1.00  0.00    -0.384 A  
HETATM   10  C   UNL     1      -9.705  15.680  66.719  1.00  0.00    -0.241 A  
HETATM   11  C   UNL     1      -9.737  14.829  67.839  1.00  0.00    -0.211 A  
HETATM   12  C   UNL     1     -10.015  13.457  67.732  1.00  0.00    -0.233 A  
BRANCH  10  13
HETATM   13  N   UNL     1      -9.346  17.023  66.861  1.00  0.00    -0.243 NA 
BRANCH  13  14
HETATM   14  C   UNL     1     -10.336  18.066  67.196  1.00  0.00    -0.374 C  
HETATM   15 CL   UNL     1      -8.583  19.346  68.899  1.00  0.00    -0.384 Cl 
HETATM   16  C   UNL     1     -10.188  18.618  68.615  1.00  0.00    -0.313 C  
ENDBRANCH  13  14
BRANCH  13  17
HETATM   17  C   UNL     1      -8.149  17.483  66.120  1.00  0.00    -0.209 C  
HETATM   18  C   UNL     1      -6.854  17.498  66.942  1.00  0.00    -0.185 C  
HETATM   19 CL   UNL     1      -6.368  15.874  67.499  1.00  0.00    -0.187 Cl 
ENDBRANCH  13  17
ENDBRANCH  10  13
ENDBRANCH   6   7
ENDBRANCH   5   6
ENDBRANCH   3   5
TORSDOF 6
ENDMDL
MODEL      183
REMARK 921   NORMALIZED FREE ENERGY PREDICTED BY IDOCK:   -3.31 KCAL/MOL
REMARK 922        TOTAL FREE ENERGY PREDICTED BY IDOCK:   -5.20 KCAL/MOL
REMARK 923 INTER-LIGAND FREE ENERGY PREDICTED BY IDOCK:   -5.59 KCAL/MOL
REMARK 924 INTRA-LIGAND FREE ENERGY PREDICTED BY IDOCK:    0.39 KCAL/MOL
REMARK 927      BINDING AFFINITY PREDICTED BY RF-SCORE:    0.00 PKD
ROOT
HETATM    1  O   UNL     1     -11.256  16.599  70.603  1.00  0.00    -0.245 OA 
HETATM    2  C   UNL     1     -11.537  15.674  71.550  1.00  0.00    -0.435 C  
HETATM    3  C   UNL     1     -13.023  15.536  71.798  1.00  0.00    -0.528 C  
HETATM    4  O   UNL     1     -10.663  15.043  72.122  1.00  0.00     0.303 OA 
ENDROOT
BRANCH   3   5
HETATM    5  C   UNL     1     -13.310  14.499  72.883  1.00  0.00    -0.579 C  
BRANCH   5   6
HETATM    6  C   UNL     1     -14.074  13.285  72.344  1.00  0.00    -0.460 C  
BRANCH   6   7
HETATM    7  C   UNL     1     -13.178  12.338  71.578  1.00  0.00    -0.268 A  
HETATM    8  C   UNL     1     -13.063  10.995  71.949  1.00  0.00    -0.525 A  
HETATM    9  C   UNL     1     -12.191  10.127  71.271  1.00  0.00    -0.496 A  
HETATM   10  C   UNL     1     -11.401  10.563  70.205  1.00  0.00    -0.323 A  
HETATM   11  C   UNL     1     -11.574  11.902  69.808  1.00  0.00    -0.359 A  
HETATM   12  C   UNL     1     -12.441  12.778  70.480  1.00  0.00    -0.280 A  
BRANCH  10  13
HETATM   13  N   UNL     1     -10.468   9.749  69.558  1.00  0.00    -0.217 NA 
BRANCH  13  14
HETATM   14  C   UNL     1      -9.047   9.717  69.961  1.00  0.00    -0.237 C  
HETATM   15 CL   UNL     1      -9.079   6.977  70.282  1.00  0.00    -0.156 Cl 
HETATM   16  C   UNL     1      -8.713   8.594  70.944  1.00  0.00    -0.181 C  
ENDBRANCH  13  14
BRANCH  13  17
HETATM   17  C   UNL     1     -10.748   9.385  68.151  1.00  0.00    -0.178 C  
HETATM   18  C   UNL     1     -10.794  10.573  67.180  1.00  0.00    -0.259 C  
HETATM   19 CL   UNL     1      -9.234  11.429  67.059  1.00  0.00    -0.168 Cl 
ENDBRANCH  13  17
ENDBRANCH  10  13
ENDBRANCH   6   7
ENDBRANCH   5   6
ENDBRANCH   3   5
TORSDOF 6
ENDMDL
MODEL      184
REMARK 921   NORMALIZED FREE ENERGY PREDICTED BY IDOCK:   -3.31 KCAL/MOL
REMARK 922        TOTAL FREE ENERGY PREDICTED BY IDOCK:   -5.19 KCAL/MOL
REMARK 923 INTER-LIGAND FREE ENERGY PREDICTED BY IDOCK:   -4.45 KCAL/MOL
REMARK 924 INTRA-LIGAND FREE ENERGY PREDICTED BY IDOCK:   -0.75 KCAL/MOL
REMARK 927      BINDING AFFINITY PREDICTED BY RF-SCORE:    0.00 PKD
ROOT
HETATM    1  O   UNL     1     -14.263   9.729  72.898  1.00  0.00    -0.056 OA 
HETATM    2  C   UNL     1     -13.735   8.877  71.989  1.00  0.00    -0.459 C  
HETATM    3  C   UNL     1     -12.266   8.610  72.235  1.00  0.00    -0.447 C  
HETATM    4  O   UNL     1     -14.399   8.400  71.083  1.00  0.00    -0.285 OA 
ENDROOT
BRANCH   3   5
HETATM    5  C   UNL     1     -11.692   7.660  71.184  1.00  0.00    -0.311 C  
BRANCH   5   6
HETATM    6  C   UNL     1     -10.278   8.058  70.747  1.00  0.00    -0.209 C  
BRANCH   6   7
HETATM    7  C   UNL     1     -10.287   9.125  69.676  1.00  0.00    -0.226 A  
HETATM    8  C   UNL     1      -9.914   8.830  68.361  1.00  0.00    -0.200 A  
HETATM    9  C   UNL     1      -9.872   9.831  67.377  1.00  0.00    -0.219 A  
HETATM   10  C   UNL     1     -10.195  11.160  67.665  1.00  0.00    -0.181 A  
HETATM   11  C   UNL     1     -10.625  11.426  68.978  1.00  0.00    -0.224 A  
HETATM   12  C   UNL     1     -10.669  10.432  69.969  1.00  0.00    -0.321 A  
BRANCH  10  13
HETATM   13  N   UNL     1     -10.090  12.194  66.732  1.00  0.00    -0.199 NA 
BRANCH  13  14
HETATM   14  C   UNL     1     -11.082  12.376  65.653  1.00  0.00    -0.306 C  
HETATM   15 CL   UNL     1     -12.143  14.624  66.850  1.00  0.00    -0.319 Cl 
HETATM   16  C   UNL     1     -12.392  13.012  66.124  1.00  0.00    -0.265 C  
ENDBRANCH  13  14
BRANCH  13  17
HETATM   17  C   UNL     1      -8.734  12.722  66.458  1.00  0.00     0.025 C  
HETATM   18  C   UNL     1      -8.541  14.202  66.812  1.00  0.00    -0.069 C  
HETATM   19 CL   UNL     1      -8.744  14.531  68.554  1.00  0.00    -0.174 Cl 
ENDBRANCH  13  17
ENDBRANCH  10  13
ENDBRANCH   6   7
ENDBRANCH   5   6
ENDBRANCH   3   5
TORSDOF 6
ENDMDL
MODEL      185
REMARK 921   NORMALIZED FREE ENERGY PREDICTED BY IDOCK:   -3.28 KCAL/MOL
REMARK 922        TOTAL FREE ENERGY PREDICTED BY IDOCK:   -5.15 KCAL/MOL
REMARK 923 INTER-LIGAND FREE ENERGY PREDICTED BY IDOCK:   -4.37 KCAL/MOL
REMARK 924 INTRA-LIGAND FREE ENERGY PREDICTED BY IDOCK:   -0.78 KCAL/MOL
REMARK 927      BINDING AFFINITY PREDICTED BY RF-SCORE:    0.00 PKD
ROOT
HETATM    1  O   UNL     1      -9.137  16.426  65.539  1.00  0.00    -0.390 OA 
HETATM    2  C   UNL     1      -9.347  15.360  66.346  1.00  0.00    -0.299 C  
HETATM    3  C   UNL     1     -10.169  14.281  65.674  1.00  0.00    -0.366 C  
HETATM    4  O   UNL     1      -8.912  15.310  67.485  1.00  0.00    -0.178 OA 
ENDROOT
BRANCH   3   5
HETATM    5  C   UNL     1     -10.407  13.100  66.614  1.00  0.00    -0.265 C  
BRANCH   5   6
HETATM    6  C   UNL     1      -9.378  11.980  66.416  1.00  0.00    -0.232 C  
BRANCH   6   7
HETATM    7  C   UNL     1      -9.715  10.745  67.220  1.00  0.00    -0.187 A  
HETATM    8  C   UNL     1     -10.730  10.764  68.182  1.00  0.00    -0.257 A  
HETATM    9  C   UNL     1     -11.008   9.633  68.965  1.00  0.00    -0.161 A  
HETATM   10  C   UNL     1     -10.286   8.444  68.825  1.00  0.00    -0.207 A  
HETATM   11  C   UNL     1      -9.309   8.425  67.813  1.00  0.00    -0.150 A  
HETATM   12  C   UNL     1      -9.022   9.551  67.025  1.00  0.00    -0.150 A  
BRANCH  10  13
HETATM   13  N   UNL     1     -10.483   7.327  69.639  1.00  0.00    -0.225 NA 
BRANCH  13  14
HETATM   14  C   UNL     1     -11.259   7.401  70.894  1.00  0.00    -0.270 C  
HETATM   15 CL   UNL     1      -9.190   8.638  72.236  1.00  0.00    -0.338 Cl 
HETATM   16  C   UNL     1     -10.396   7.323  72.155  1.00  0.00    -0.193 C  
ENDBRANCH  13  14
BRANCH  13  17
HETATM   17  C   UNL     1      -9.465   6.254  69.572  1.00  0.00    -0.141 C  
HETATM   18  C   UNL     1      -9.972   4.925  68.996  1.00  0.00    -0.167 C  
HETATM   19 CL   UNL     1     -10.505   5.065  67.299  1.00  0.00    -0.195 Cl 
ENDBRANCH  13  17
ENDBRANCH  10  13
ENDBRANCH   6   7
ENDBRANCH   5   6
ENDBRANCH   3   5
TORSDOF 6
ENDMDL
MODEL      186
REMARK 921   NORMALIZED FREE ENERGY PREDICTED BY IDOCK:   -3.27 KCAL/MOL
REMARK 922        TOTAL FREE ENERGY PREDICTED BY IDOCK:   -5.14 KCAL/MOL
REMARK 923 INTER-LIGAND FREE ENERGY PREDICTED BY IDOCK:   -4.45 KCAL/MOL
REMARK 924 INTRA-LIGAND FREE ENERGY PREDICTED BY IDOCK:   -0.69 KCAL/MOL
REMARK 927      BINDING AFFINITY PREDICTED BY RF-SCORE:    0.00 PKD
ROOT
HETATM    1  O   UNL     1     -10.555  11.705  64.656  1.00  0.00    -0.280 OA 
HETATM    2  C   UNL     1     -11.283  12.049  65.744  1.00  0.00    -0.334 C  
HETATM    3  C   UNL     1     -10.483  11.962  67.025  1.00  0.00    -0.253 C  
HETATM    4  O   UNL     1     -12.454  12.384  65.663  1.00  0.00    -0.640 OA 
ENDROOT
BRANCH   3   5
HETATM    5  C   UNL     1     -11.335  12.337  68.237  1.00  0.00    -0.339 C  
BRANCH   5   6
HETATM    6  C   UNL     1     -11.993  11.116  68.889  1.00  0.00    -0.367 C  
BRANCH   6   7
HETATM    7  C   UNL     1     -11.006   9.998  69.138  1.00  0.00    -0.256 A  
HETATM    8  C   UNL     1     -10.773   9.014  68.172  1.00  0.00    -0.165 A  
HETATM    9  C   UNL     1      -9.896   7.946  68.422  1.00  0.00    -0.185 A  
HETATM   10  C   UNL     1      -9.223   7.816  69.640  1.00  0.00    -0.153 A  
HETATM   11  C   UNL     1      -9.425   8.846  70.576  1.00  0.00    -0.243 A  
HETATM   12  C   UNL     1     -10.301   9.917  70.337  1.00  0.00    -0.322 A  
BRANCH  10  13
HETATM   13  N   UNL     1      -8.405   6.727  69.951  1.00  0.00    -0.134 NA 
BRANCH  13  14
HETATM   14  C   UNL     1      -8.451   6.067  71.271  1.00  0.00    -0.128 C  
HETATM   15 CL   UNL     1      -9.808   3.887  70.264  1.00  0.00    -0.238 Cl 
HETATM   16  C   UNL     1      -9.688   5.191  71.478  1.00  0.00    -0.166 C  
ENDBRANCH  13  14
BRANCH  13  17
HETATM   17  C   UNL     1      -7.124   6.613  69.216  1.00  0.00    -0.084 C  
HETATM   18  C   UNL     1      -6.927   5.283  68.477  1.00  0.00    -0.057 C  
HETATM   19 CL   UNL     1      -8.139   5.017  67.195  1.00  0.00    -0.107 Cl 
ENDBRANCH  13  17
ENDBRANCH  10  13
ENDBRANCH   6   7
ENDBRANCH   5   6
ENDBRANCH   3   5
TORSDOF 6
ENDMDL
MODEL      187
REMARK 921   NORMALIZED FREE ENERGY PREDICTED BY IDOCK:   -3.26 KCAL/MOL
REMARK 922        TOTAL FREE ENERGY PREDICTED BY IDOCK:   -5.13 KCAL/MOL
REMARK 923 INTER-LIGAND FREE ENERGY PREDICTED BY IDOCK:   -4.25 KCAL/MOL
REMARK 924 INTRA-LIGAND FREE ENERGY PREDICTED BY IDOCK:   -0.88 KCAL/MOL
REMARK 927      BINDING AFFINITY PREDICTED BY RF-SCORE:    0.00 PKD
ROOT
HETATM    1  O   UNL     1     -11.910  14.619  69.476  1.00  0.00    -0.295 OA 
HETATM    2  C   UNL     1     -11.353  14.557  68.244  1.00  0.00    -0.297 C  
HETATM    3  C   UNL     1      -9.995  13.889  68.258  1.00  0.00    -0.238 C  
HETATM    4  O   UNL     1     -11.911  15.005  67.255  1.00  0.00    -0.307 OA 
ENDROOT
BRANCH   3   5
HETATM    5  C   UNL     1      -9.383  13.851  66.858  1.00  0.00    -0.265 C  
BRANCH   5   6
HETATM    6  C   UNL     1      -9.878  12.655  66.037  1.00  0.00    -0.260 C  
BRANCH   6   7
HETATM    7  C   UNL     1      -9.728  11.347  66.780  1.00  0.00    -0.221 A  
HETATM    8  C   UNL     1     -10.848  10.633  67.216  1.00  0.00    -0.345 A  
HETATM    9  C   UNL     1     -10.710   9.445  67.952  1.00  0.00    -0.269 A  
HETATM   10  C   UNL     1      -9.455   8.928  68.285  1.00  0.00    -0.140 A  
HETATM   11  C   UNL     1      -8.341   9.628  67.788  1.00  0.00    -0.121 A  
HETATM   12  C   UNL     1      -8.468  10.817  67.052  1.00  0.00    -0.128 A  
BRANCH  10  13
HETATM   13  N   UNL     1      -9.280   7.793  69.081  1.00  0.00    -0.145 NA 
BRANCH  13  14
HETATM   14  C   UNL     1      -8.088   6.930  68.959  1.00  0.00    -0.117 C  
HETATM   15 CL   UNL     1      -8.785   6.127  66.413  1.00  0.00    -0.133 Cl 
HETATM   16  C   UNL     1      -8.309   5.697  68.079  1.00  0.00    -0.100 C  
ENDBRANCH  13  14
BRANCH  13  17
HETATM   17  C   UNL     1     -10.502   7.137  69.600  1.00  0.00    -0.229 C  
HETATM   18  C   UNL     1     -10.710   7.278  71.113  1.00  0.00    -0.228 C  
HETATM   19 CL   UNL     1     -10.927   8.972  71.628  1.00  0.00    -0.412 Cl 
ENDBRANCH  13  17
ENDBRANCH  10  13
ENDBRANCH   6   7
ENDBRANCH   5   6
ENDBRANCH   3   5
TORSDOF 6
ENDMDL
MODEL      188
REMARK 921   NORMALIZED FREE ENERGY PREDICTED BY IDOCK:   -3.26 KCAL/MOL
REMARK 922        TOTAL FREE ENERGY PREDICTED BY IDOCK:   -5.13 KCAL/MOL
REMARK 923 INTER-LIGAND FREE ENERGY PREDICTED BY IDOCK:   -4.54 KCAL/MOL
REMARK 924 INTRA-LIGAND FREE ENERGY PREDICTED BY IDOCK:   -0.59 KCAL/MOL
REMARK 927      BINDING AFFINITY PREDICTED BY RF-SCORE:    0.00 PKD
ROOT
HETATM    1  O   UNL     1     -10.651  18.024  66.337  1.00  0.00    -0.339 OA 
HETATM    2  C   UNL     1     -10.018  16.832  66.237  1.00  0.00    -0.320 C  
HETATM    3  C   UNL     1     -10.836  15.695  66.811  1.00  0.00    -0.277 C  
HETATM    4  O   UNL     1      -8.910  16.724  65.737  1.00  0.00    -0.505 OA 
ENDROOT
BRANCH   3   5
HETATM    5  C   UNL     1     -10.091  14.366  66.701  1.00  0.00    -0.276 C  
BRANCH   5   6
HETATM    6  C   UNL     1      -9.501  13.915  68.042  1.00  0.00    -0.208 C  
BRANCH   6   7
HETATM    7  C   UNL     1      -9.440  12.409  68.164  1.00  0.00    -0.214 A  
HETATM    8  C   UNL     1     -10.564  11.670  68.547  1.00  0.00    -0.241 A  
HETATM    9  C   UNL     1     -10.494  10.277  68.711  1.00  0.00    -0.222 A  
HETATM   10  C   UNL     1      -9.306   9.570  68.505  1.00  0.00    -0.137 A  
HETATM   11  C   UNL     1      -8.203  10.322  68.063  1.00  0.00    -0.113 A  
HETATM   12  C   UNL     1      -8.261  11.715  67.898  1.00  0.00    -0.141 A  
BRANCH  10  13
HETATM   13  N   UNL     1      -9.181   8.198  68.734  1.00  0.00    -0.144 NA 
BRANCH  13  14
HETATM   14  C   UNL     1      -9.028   7.643  70.094  1.00  0.00    -0.146 C  
HETATM   15 CL   UNL     1     -11.597   6.636  70.098  1.00  0.00    -0.451 Cl 
HETATM   16  C   UNL     1     -10.332   7.612  70.895  1.00  0.00    -0.201 C  
ENDBRANCH  13  14
BRANCH  13  17
HETATM   17  C   UNL     1      -8.621   7.378  67.635  1.00  0.00    -0.119 C  
HETATM   18  C   UNL     1      -9.411   6.100  67.323  1.00  0.00    -0.114 C  
HETATM   19 CL   UNL     1     -11.070   6.432  66.756  1.00  0.00    -0.366 Cl 
ENDBRANCH  13  17
ENDBRANCH  10  13
ENDBRANCH   6   7
ENDBRANCH   5   6
ENDBRANCH   3   5
TORSDOF 6
ENDMDL
MODEL      189
REMARK 921   NORMALIZED FREE ENERGY PREDICTED BY IDOCK:   -3.26 KCAL/MOL
REMARK 922        TOTAL FREE ENERGY PREDICTED BY IDOCK:   -5.13 KCAL/MOL
REMARK 923 INTER-LIGAND FREE ENERGY PREDICTED BY IDOCK:   -4.27 KCAL/MOL
REMARK 924 INTRA-LIGAND FREE ENERGY PREDICTED BY IDOCK:   -0.86 KCAL/MOL
REMARK 927      BINDING AFFINITY PREDICTED BY RF-SCORE:    0.00 PKD
ROOT
HETATM    1  O   UNL     1     -11.349   7.938  73.117  1.00  0.00    -0.361 OA 
HETATM    2  C   UNL     1     -11.789   7.317  71.998  1.00  0.00    -0.296 C  
HETATM    3  C   UNL     1     -10.679   6.598  71.263  1.00  0.00    -0.269 C  
HETATM    4  O   UNL     1     -12.958   7.357  71.649  1.00  0.00    -0.349 OA 
ENDROOT
BRANCH   3   5
HETATM    5  C   UNL     1     -11.200   5.922  69.996  1.00  0.00    -0.341 C  
BRANCH   5   6
HETATM    6  C   UNL     1     -10.084   5.637  68.984  1.00  0.00    -0.259 C  
BRANCH   6   7
HETATM    7  C   UNL     1      -9.667   6.878  68.227  1.00  0.00    -0.132 A  
HETATM    8  C   UNL     1     -10.522   7.476  67.296  1.00  0.00    -0.391 A  
HETATM    9  C   UNL     1     -10.115   8.597  66.554  1.00  0.00    -0.339 A  
HETATM   10  C   UNL     1      -8.845   9.160  66.708  1.00  0.00    -0.127 A  
HETATM   11  C   UNL     1      -8.022   8.581  67.691  1.00  0.00    -0.107 A  
HETATM   12  C   UNL     1      -8.418   7.460  68.436  1.00  0.00    -0.125 A  
BRANCH  10  13
HETATM   13  N   UNL     1      -8.381  10.226  65.933  1.00  0.00    -0.140 NA 
BRANCH  13  14
HETATM   14  C   UNL     1      -7.543  11.300  66.504  1.00  0.00    -0.111 C  
HETATM   15 CL   UNL     1      -9.479  11.989  68.345  1.00  0.00    -0.200 Cl 
HETATM   16  C   UNL     1      -8.348  12.480  67.053  1.00  0.00    -0.144 C  
ENDBRANCH  13  14
BRANCH  13  17
HETATM   17  C   UNL     1      -9.179  10.594  64.742  1.00  0.00    -0.220 C  
HETATM   18  C   UNL     1      -8.523  10.246  63.399  1.00  0.00    -0.185 C  
HETATM   19 CL   UNL     1      -8.281   8.492  63.181  1.00  0.00    -0.171 Cl 
ENDBRANCH  13  17
ENDBRANCH  10  13
ENDBRANCH   6   7
ENDBRANCH   5   6
ENDBRANCH   3   5
TORSDOF 6
ENDMDL
MODEL      190
REMARK 921   NORMALIZED FREE ENERGY PREDICTED BY IDOCK:   -3.21 KCAL/MOL
REMARK 922        TOTAL FREE ENERGY PREDICTED BY IDOCK:   -5.06 KCAL/MOL
REMARK 923 INTER-LIGAND FREE ENERGY PREDICTED BY IDOCK:   -4.63 KCAL/MOL
REMARK 924 INTRA-LIGAND FREE ENERGY PREDICTED BY IDOCK:   -0.44 KCAL/MOL
REMARK 927      BINDING AFFINITY PREDICTED BY RF-SCORE:    0.00 PKD
ROOT
HETATM    1  O   UNL     1     -10.956  13.728  64.096  1.00  0.00    -0.317 OA 
HETATM    2  C   UNL     1     -10.289  12.553  64.159  1.00  0.00    -0.390 C  
HETATM    3  C   UNL     1      -9.936  12.164  65.578  1.00  0.00    -0.269 C  
HETATM    4  O   UNL     1     -10.015  11.906  63.160  1.00  0.00    -0.422 OA 
ENDROOT
BRANCH   3   5
HETATM    5  C   UNL     1      -9.167  10.844  65.617  1.00  0.00    -0.227 C  
BRANCH   5   6
HETATM    6  C   UNL     1     -10.098   9.626  65.596  1.00  0.00    -0.231 C  
BRANCH   6   7
HETATM    7  C   UNL     1      -9.948   8.769  66.833  1.00  0.00    -0.327 A  
HETATM    8  C   UNL     1     -10.631   7.555  66.956  1.00  0.00    -0.409 A  
HETATM    9  C   UNL     1     -10.533   6.784  68.126  1.00  0.00    -0.251 A  
HETATM   10  C   UNL     1      -9.758   7.193  69.215  1.00  0.00    -0.159 A  
HETATM   11  C   UNL     1      -9.032   8.386  69.049  1.00  0.00    -0.147 A  
HETATM   12  C   UNL     1      -9.124   9.165  67.884  1.00  0.00    -0.134 A  
BRANCH  10  13
HETATM   13  N   UNL     1      -9.699   6.491  70.421  1.00  0.00    -0.171 NA 
BRANCH  13  14
HETATM   14  C   UNL     1     -10.127   5.081  70.526  1.00  0.00    -0.253 C  
HETATM   15 CL   UNL     1      -7.671   4.286  71.498  1.00  0.00    -0.071 Cl 
HETATM   16  C   UNL     1      -8.992   4.077  70.316  1.00  0.00    -0.095 C  
ENDBRANCH  13  14
BRANCH  13  17
HETATM   17  C   UNL     1      -9.776   7.283  71.669  1.00  0.00    -0.154 C  
HETATM   18  C   UNL     1     -10.899   8.329  71.694  1.00  0.00    -0.256 C  
HETATM   19 CL   UNL     1     -12.525   7.602  71.591  1.00  0.00    -0.344 Cl 
ENDBRANCH  13  17
ENDBRANCH  10  13
ENDBRANCH   6   7
ENDBRANCH   5   6
ENDBRANCH   3   5
TORSDOF 6
ENDMDL
MODEL      191
REMARK 921   NORMALIZED FREE ENERGY PREDICTED BY IDOCK:   -3.19 KCAL/MOL
REMARK 922        TOTAL FREE ENERGY PREDICTED BY IDOCK:   -5.03 KCAL/MOL
REMARK 923 INTER-LIGAND FREE ENERGY PREDICTED BY IDOCK:   -4.25 KCAL/MOL
REMARK 924 INTRA-LIGAND FREE ENERGY PREDICTED BY IDOCK:   -0.79 KCAL/MOL
REMARK 927      BINDING AFFINITY PREDICTED BY RF-SCORE:    0.00 PKD
ROOT
HETATM    1  O   UNL     1     -10.302   8.742  71.944  1.00  0.00    -0.299 OA 
HETATM    2  C   UNL     1     -10.400   9.472  70.809  1.00  0.00    -0.306 C  
HETATM    3  C   UNL     1      -9.397   9.043  69.759  1.00  0.00    -0.176 C  
HETATM    4  O   UNL     1     -11.216  10.370  70.681  1.00  0.00    -0.319 OA 
ENDROOT
BRANCH   3   5
HETATM    5  C   UNL     1      -9.518   9.895  68.496  1.00  0.00    -0.149 C  
BRANCH   5   6
HETATM    6  C   UNL     1     -10.568   9.349  67.522  1.00  0.00    -0.333 C  
BRANCH   6   7
HETATM    7  C   UNL     1     -10.178   8.002  66.956  1.00  0.00    -0.374 A  
HETATM    8  C   UNL     1     -10.996   6.881  67.132  1.00  0.00    -0.427 A  
HETATM    9  C   UNL     1     -10.610   5.619  66.652  1.00  0.00    -0.361 A  
HETATM   10  C   UNL     1      -9.397   5.424  65.986  1.00  0.00    -0.156 A  
HETATM   11  C   UNL     1      -8.615   6.573  65.767  1.00  0.00    -0.149 A  
HETATM   12  C   UNL     1      -8.991   7.839  66.244  1.00  0.00    -0.209 A  
BRANCH  10  13
HETATM   13  N   UNL     1      -8.947   4.171  65.565  1.00  0.00    -0.126 NA 
BRANCH  13  14
HETATM   14  C   UNL     1      -9.831   3.218  64.864  1.00  0.00    -0.060 C  
HETATM   15 CL   UNL     1      -9.439   4.462  62.433  1.00  0.00    -0.130 Cl 
HETATM   16  C   UNL     1     -10.563   3.826  63.666  1.00  0.00    -0.246 C  
ENDBRANCH  13  14
BRANCH  13  17
HETATM   17  C   UNL     1      -7.816   3.573  66.311  1.00  0.00    -0.088 C  
HETATM   18  C   UNL     1      -8.028   3.480  67.828  1.00  0.00    -0.080 C  
HETATM   19 CL   UNL     1      -9.393   2.421  68.273  1.00  0.00    -0.257 Cl 
ENDBRANCH  13  17
ENDBRANCH  10  13
ENDBRANCH   6   7
ENDBRANCH   5   6
ENDBRANCH   3   5
TORSDOF 6
ENDMDL
MODEL      192
REMARK 921   NORMALIZED FREE ENERGY PREDICTED BY IDOCK:   -3.19 KCAL/MOL
REMARK 922        TOTAL FREE ENERGY PREDICTED BY IDOCK:   -5.03 KCAL/MOL
REMARK 923 INTER-LIGAND FREE ENERGY PREDICTED BY IDOCK:   -4.61 KCAL/MOL
REMARK 924 INTRA-LIGAND FREE ENERGY PREDICTED BY IDOCK:   -0.42 KCAL/MOL
REMARK 927      BINDING AFFINITY PREDICTED BY RF-SCORE:    0.00 PKD
ROOT
HETATM    1  O   UNL     1      -9.888  11.563  67.508  1.00  0.00    -0.186 OA 
HETATM    2  C   UNL     1     -11.089  11.399  68.110  1.00  0.00    -0.248 C  
HETATM    3  C   UNL     1     -10.958  10.869  69.522  1.00  0.00    -0.306 C  
HETATM    4  O   UNL     1     -12.140  11.655  67.546  1.00  0.00    -0.611 OA 
ENDROOT
BRANCH   3   5
HETATM    5  C   UNL     1     -12.328  10.675  70.171  1.00  0.00    -0.370 C  
BRANCH   5   6
HETATM    6  C   UNL     1     -12.237   9.966  71.526  1.00  0.00    -0.505 C  
BRANCH   6   7
HETATM    7  C   UNL     1     -11.359   8.736  71.472  1.00  0.00    -0.375 A  
HETATM    8  C   UNL     1     -11.728   7.621  70.712  1.00  0.00    -0.260 A  
HETATM    9  C   UNL     1     -10.940   6.458  70.702  1.00  0.00    -0.355 A  
HETATM   10  C   UNL     1      -9.762   6.360  71.449  1.00  0.00    -0.172 A  
HETATM   11  C   UNL     1      -9.378   7.512  72.159  1.00  0.00    -0.176 A  
HETATM   12  C   UNL     1     -10.159   8.679  72.177  1.00  0.00    -0.388 A  
BRANCH  10  13
HETATM   13  N   UNL     1      -8.997   5.195  71.523  1.00  0.00    -0.136 NA 
BRANCH  13  14
HETATM   14  C   UNL     1      -9.579   3.860  71.277  1.00  0.00    -0.170 C  
HETATM   15 CL   UNL     1      -8.057   3.485  69.007  1.00  0.00    -0.067 Cl 
HETATM   16  C   UNL     1      -9.659   3.488  69.795  1.00  0.00    -0.136 C  
ENDBRANCH  13  14
BRANCH  13  17
HETATM   17  C   UNL     1      -7.801   5.226  72.396  1.00  0.00    -0.102 C  
HETATM   18  C   UNL     1      -6.519   4.690  71.745  1.00  0.00    -0.023 C  
HETATM   19 CL   UNL     1      -6.001   5.656  70.337  1.00  0.00    -0.024 Cl 
ENDBRANCH  13  17
ENDBRANCH  10  13
ENDBRANCH   6   7
ENDBRANCH   5   6
ENDBRANCH   3   5
TORSDOF 6
ENDMDL
MODEL      193
REMARK 921   NORMALIZED FREE ENERGY PREDICTED BY IDOCK:   -3.15 KCAL/MOL
REMARK 922        TOTAL FREE ENERGY PREDICTED BY IDOCK:   -4.97 KCAL/MOL
REMARK 923 INTER-LIGAND FREE ENERGY PREDICTED BY IDOCK:   -4.04 KCAL/MOL
REMARK 924 INTRA-LIGAND FREE ENERGY PREDICTED BY IDOCK:   -0.94 KCAL/MOL
REMARK 927      BINDING AFFINITY PREDICTED BY RF-SCORE:    0.00 PKD
ROOT
HETATM    1  O   UNL     1     -13.350  10.545  71.804  1.00  0.00    -0.394 OA 
HETATM    2  C   UNL     1     -12.175  10.031  71.375  1.00  0.00    -0.416 C  
HETATM    3  C   UNL     1     -11.780  10.554  70.011  1.00  0.00    -0.394 C  
HETATM    4  O   UNL     1     -11.533   9.232  72.039  1.00  0.00    -0.355 OA 
ENDROOT
BRANCH   3   5
HETATM    5  C   UNL     1     -10.460   9.943  69.544  1.00  0.00    -0.261 C  
BRANCH   5   6
HETATM    6  C   UNL     1     -10.660   8.880  68.458  1.00  0.00    -0.183 C  
BRANCH   6   7
HETATM    7  C   UNL     1     -10.275   7.497  68.931  1.00  0.00    -0.214 A  
HETATM    8  C   UNL     1      -9.089   6.892  68.503  1.00  0.00    -0.127 A  
HETATM    9  C   UNL     1      -8.757   5.586  68.901  1.00  0.00    -0.102 A  
HETATM   10  C   UNL     1      -9.591   4.835  69.733  1.00  0.00    -0.179 A  
HETATM   11  C   UNL     1     -10.749   5.482  70.201  1.00  0.00    -0.348 A  
HETATM   12  C   UNL     1     -11.092   6.786  69.809  1.00  0.00    -0.368 A  
BRANCH  10  13
HETATM   13  N   UNL     1      -9.330   3.509  70.086  1.00  0.00    -0.159 NA 
BRANCH  13  14
HETATM   14  C   UNL     1      -9.757   2.947  71.383  1.00  0.00    -0.151 C  
HETATM   15 CL   UNL     1      -7.925   4.466  72.778  1.00  0.00    -0.089 Cl 
HETATM   16  C   UNL     1      -8.633   2.867  72.418  1.00  0.00    -0.074 C  
ENDBRANCH  13  14
BRANCH  13  17
HETATM   17  C   UNL     1      -8.156   2.862  69.457  1.00  0.00    -0.047 C  
HETATM   18  C   UNL     1      -8.499   1.804  68.400  1.00  0.00    -0.060 C  
HETATM   19 CL   UNL     1      -9.369   2.483  66.998  1.00  0.00    -0.119 Cl 
ENDBRANCH  13  17
ENDBRANCH  10  13
ENDBRANCH   6   7
ENDBRANCH   5   6
ENDBRANCH   3   5
TORSDOF 6
ENDMDL
MODEL      194
REMARK 921   NORMALIZED FREE ENERGY PREDICTED BY IDOCK:   -3.14 KCAL/MOL
REMARK 922        TOTAL FREE ENERGY PREDICTED BY IDOCK:   -4.97 KCAL/MOL
REMARK 923 INTER-LIGAND FREE ENERGY PREDICTED BY IDOCK:   -4.45 KCAL/MOL
REMARK 924 INTRA-LIGAND FREE ENERGY PREDICTED BY IDOCK:   -0.52 KCAL/MOL
REMARK 927      BINDING AFFINITY PREDICTED BY RF-SCORE:    0.00 PKD
ROOT
HETATM    1  O   UNL     1      -9.608   9.202  64.856  1.00  0.00    -0.032 OA 
HETATM    2  C   UNL     1      -9.140  10.423  65.207  1.00  0.00    -0.193 C  
HETATM    3  C   UNL     1     -10.244  11.356  65.656  1.00  0.00    -0.298 C  
HETATM    4  O   UNL     1      -7.954  10.705  65.151  1.00  0.00    -0.130 OA 
ENDROOT
BRANCH   3   5
HETATM    5  C   UNL     1      -9.690  12.731  66.028  1.00  0.00    -0.226 C  
BRANCH   5   6
HETATM    6  C   UNL     1     -10.071  13.148  67.453  1.00  0.00    -0.229 C  
BRANCH   6   7
HETATM    7  C   UNL     1     -10.162  11.966  68.391  1.00  0.00    -0.205 A  
HETATM    8  C   UNL     1      -9.045  11.170  68.659  1.00  0.00    -0.166 A  
HETATM    9  C   UNL     1      -9.141  10.041  69.489  1.00  0.00    -0.236 A  
HETATM   10  C   UNL     1     -10.350   9.661  70.078  1.00  0.00    -0.257 A  
HETATM   11  C   UNL     1     -11.449  10.508  69.845  1.00  0.00    -0.384 A  
HETATM   12  C   UNL     1     -11.364  11.638  69.016  1.00  0.00    -0.337 A  
BRANCH  10  13
HETATM   13  N   UNL     1     -10.498   8.504  70.845  1.00  0.00    -0.197 NA 
BRANCH  13  14
HETATM   14  C   UNL     1     -11.631   7.576  70.648  1.00  0.00    -0.248 C  
HETATM   15 CL   UNL     1     -13.211   8.938  72.454  1.00  0.00    -0.479 Cl 
HETATM   16  C   UNL     1     -12.502   7.398  71.893  1.00  0.00    -0.302 C  
ENDBRANCH  13  14
BRANCH  13  17
HETATM   17  C   UNL     1      -9.894   8.506  72.197  1.00  0.00    -0.318 C  
HETATM   18  C   UNL     1      -8.918   7.352  72.463  1.00  0.00    -0.132 C  
HETATM   19 CL   UNL     1      -7.489   7.393  71.395  1.00  0.00    -0.079 Cl 
ENDBRANCH  13  17
ENDBRANCH  10  13
ENDBRANCH   6   7
ENDBRANCH   5   6
ENDBRANCH   3   5
TORSDOF 6
ENDMDL
MODEL      195
REMARK 921   NORMALIZED FREE ENERGY PREDICTED BY IDOCK:   -3.14 KCAL/MOL
REMARK 922        TOTAL FREE ENERGY PREDICTED BY IDOCK:   -4.97 KCAL/MOL
REMARK 923 INTER-LIGAND FREE ENERGY PREDICTED BY IDOCK:   -4.24 KCAL/MOL
REMARK 924 INTRA-LIGAND FREE ENERGY PREDICTED BY IDOCK:   -0.73 KCAL/MOL
REMARK 927      BINDING AFFINITY PREDICTED BY RF-SCORE:    0.00 PKD
ROOT
HETATM    1  O   UNL     1      -9.609   3.847  67.970  1.00  0.00    -0.174 OA 
HETATM    2  C   UNL     1      -9.790   5.184  68.065  1.00  0.00    -0.151 C  
HETATM    3  C   UNL     1     -10.576   5.744  66.899  1.00  0.00    -0.377 C  
HETATM    4  O   UNL     1      -9.350   5.835  68.999  1.00  0.00    -0.121 OA 
ENDROOT
BRANCH   3   5
HETATM    5  C   UNL     1     -10.749   7.257  67.024  1.00  0.00    -0.406 C  
BRANCH   5   6
HETATM    6  C   UNL     1      -9.644   8.033  66.297  1.00  0.00    -0.223 C  
BRANCH   6   7
HETATM    7  C   UNL     1      -9.768   9.527  66.494  1.00  0.00    -0.284 A  
HETATM    8  C   UNL     1      -9.672  10.408  65.412  1.00  0.00    -0.325 A  
HETATM    9  C   UNL     1      -9.734  11.798  65.602  1.00  0.00    -0.256 A  
HETATM   10  C   UNL     1      -9.890  12.362  66.871  1.00  0.00    -0.215 A  
HETATM   11  C   UNL     1     -10.044  11.459  67.938  1.00  0.00    -0.198 A  
HETATM   12  C   UNL     1      -9.982  10.068  67.761  1.00  0.00    -0.203 A  
BRANCH  10  13
HETATM   13  N   UNL     1      -9.879  13.739  67.104  1.00  0.00    -0.237 NA 
BRANCH  13  14
HETATM   14  C   UNL     1     -11.111  14.487  67.426  1.00  0.00    -0.314 C  
HETATM   15 CL   UNL     1     -11.858  14.626  64.774  1.00  0.00    -0.424 Cl 
HETATM   16  C   UNL     1     -11.547  15.455  66.324  1.00  0.00     0.107 C  
ENDBRANCH  13  14
BRANCH  13  17
HETATM   17  C   UNL     1      -8.795  14.523  66.469  1.00  0.00    -0.122 C  
HETATM   18  C   UNL     1      -7.633  14.883  67.404  1.00  0.00    -0.204 C  
HETATM   19 CL   UNL     1      -6.769  13.448  68.019  1.00  0.00    -0.113 Cl 
ENDBRANCH  13  17
ENDBRANCH  10  13
ENDBRANCH   6   7
ENDBRANCH   5   6
ENDBRANCH   3   5
TORSDOF 6
ENDMDL
MODEL      196
REMARK 921   NORMALIZED FREE ENERGY PREDICTED BY IDOCK:   -3.13 KCAL/MOL
REMARK 922        TOTAL FREE ENERGY PREDICTED BY IDOCK:   -4.96 KCAL/MOL
REMARK 923 INTER-LIGAND FREE ENERGY PREDICTED BY IDOCK:   -4.22 KCAL/MOL
REMARK 924 INTRA-LIGAND FREE ENERGY PREDICTED BY IDOCK:   -0.74 KCAL/MOL
REMARK 927      BINDING AFFINITY PREDICTED BY RF-SCORE:    0.00 PKD
ROOT
HETATM    1  O   UNL     1      -7.538   4.750  70.078  1.00  0.00    -0.054 OA 
HETATM    2  C   UNL     1      -8.537   5.594  70.428  1.00  0.00    -0.132 C  
HETATM    3  C   UNL     1      -8.685   6.746  69.457  1.00  0.00    -0.133 C  
HETATM    4  O   UNL     1      -9.220   5.416  71.424  1.00  0.00    -0.143 OA 
ENDROOT
BRANCH   3   5
HETATM    5  C   UNL     1      -9.806   7.691  69.886  1.00  0.00    -0.184 C  
BRANCH   5   6
HETATM    6  C   UNL     1      -9.356   9.156  69.916  1.00  0.00    -0.198 C  
BRANCH   6   7
HETATM    7  C   UNL     1      -9.614   9.862  68.604  1.00  0.00    -0.159 A  
HETATM    8  C   UNL     1      -8.967  11.061  68.290  1.00  0.00    -0.155 A  
HETATM    9  C   UNL     1      -9.245  11.744  67.095  1.00  0.00    -0.179 A  
HETATM   10  C   UNL     1     -10.179  11.264  66.173  1.00  0.00    -0.245 A  
HETATM   11  C   UNL     1     -10.776  10.027  66.478  1.00  0.00    -0.094 A  
HETATM   12  C   UNL     1     -10.506   9.337  67.670  1.00  0.00    -0.325 A  
BRANCH  10  13
HETATM   13  N   UNL     1     -10.537  11.955  65.013  1.00  0.00    -0.277 NA 
BRANCH  13  14
HETATM   14  C   UNL     1     -10.725  11.267  63.720  1.00  0.00    -0.379 C  
HETATM   15 CL   UNL     1      -8.140  10.305  63.723  1.00  0.00    -0.157 Cl 
HETATM   16  C   UNL     1      -9.450  11.178  62.880  1.00  0.00    -0.359 C  
ENDBRANCH  13  14
BRANCH  13  17
HETATM   17  C   UNL     1     -10.158  13.384  64.935  1.00  0.00    -0.233 C  
HETATM   18  C   UNL     1     -11.319  14.338  64.623  1.00  0.00    -0.373 C  
HETATM   19 CL   UNL     1     -12.575  14.336  65.889  1.00  0.00    -0.440 Cl 
ENDBRANCH  13  17
ENDBRANCH  10  13
ENDBRANCH   6   7
ENDBRANCH   5   6
ENDBRANCH   3   5
TORSDOF 6
ENDMDL
MODEL      197
REMARK 921   NORMALIZED FREE ENERGY PREDICTED BY IDOCK:   -3.13 KCAL/MOL
REMARK 922        TOTAL FREE ENERGY PREDICTED BY IDOCK:   -4.96 KCAL/MOL
REMARK 923 INTER-LIGAND FREE ENERGY PREDICTED BY IDOCK:   -4.73 KCAL/MOL
REMARK 924 INTRA-LIGAND FREE ENERGY PREDICTED BY IDOCK:   -0.23 KCAL/MOL
REMARK 927      BINDING AFFINITY PREDICTED BY RF-SCORE:    0.00 PKD
ROOT
HETATM    1  O   UNL     1     -12.024   6.221  72.273  1.00  0.00    -0.312 OA 
HETATM    2  C   UNL     1     -10.925   6.887  71.849  1.00  0.00    -0.235 C  
HETATM    3  C   UNL     1     -10.284   6.236  70.643  1.00  0.00    -0.240 C  
HETATM    4  O   UNL     1     -10.522   7.897  72.405  1.00  0.00    -0.232 OA 
ENDROOT
BRANCH   3   5
HETATM    5  C   UNL     1      -9.036   6.998  70.199  1.00  0.00    -0.145 C  
BRANCH   5   6
HETATM    6  C   UNL     1      -8.921   7.092  68.674  1.00  0.00    -0.130 C  
BRANCH   6   7
HETATM    7  C   UNL     1      -9.376   8.434  68.146  1.00  0.00    -0.141 A  
HETATM    8  C   UNL     1      -9.014   9.622  68.789  1.00  0.00    -0.134 A  
HETATM    9  C   UNL     1      -9.479  10.865  68.330  1.00  0.00    -0.178 A  
HETATM   10  C   UNL     1     -10.322  10.972  67.220  1.00  0.00    -0.211 A  
HETATM   11  C   UNL     1     -10.626   9.772  66.552  1.00  0.00    -0.150 A  
HETATM   12  C   UNL     1     -10.168   8.524  67.003  1.00  0.00    -0.371 A  
BRANCH  10  13
HETATM   13  N   UNL     1     -10.865  12.182  66.784  1.00  0.00    -0.238 NA 
BRANCH  13  14
HETATM   14  C   UNL     1     -10.161  13.052  65.820  1.00  0.00    -0.287 C  
HETATM   15 CL   UNL     1     -12.248  12.941  64.019  1.00  0.00    -0.487 Cl 
HETATM   16  C   UNL     1     -10.505  12.754  64.359  1.00  0.00    -0.386 C  
ENDBRANCH  13  14
BRANCH  13  17
HETATM   17  C   UNL     1     -11.816  12.864  67.692  1.00  0.00    -0.346 C  
HETATM   18  C   UNL     1     -11.208  13.331  69.021  1.00  0.00    -0.270 C  
HETATM   19 CL   UNL     1      -9.928  14.556  68.805  1.00  0.00    -0.234 Cl 
ENDBRANCH  13  17
ENDBRANCH  10  13
ENDBRANCH   6   7
ENDBRANCH   5   6
ENDBRANCH   3   5
TORSDOF 6
ENDMDL
MODEL      198
REMARK 921   NORMALIZED FREE ENERGY PREDICTED BY IDOCK:   -3.12 KCAL/MOL
REMARK 922        TOTAL FREE ENERGY PREDICTED BY IDOCK:   -4.94 KCAL/MOL
REMARK 923 INTER-LIGAND FREE ENERGY PREDICTED BY IDOCK:   -4.59 KCAL/MOL
REMARK 924 INTRA-LIGAND FREE ENERGY PREDICTED BY IDOCK:   -0.34 KCAL/MOL
REMARK 927      BINDING AFFINITY PREDICTED BY RF-SCORE:    0.00 PKD
ROOT
HETATM    1  O   UNL     1     -11.810  12.744  63.127  1.00  0.00    -0.493 OA 
HETATM    2  C   UNL     1     -12.193  13.501  64.181  1.00  0.00    -0.394 C  
HETATM    3  C   UNL     1     -12.164  12.732  65.484  1.00  0.00    -0.519 C  
HETATM    4  O   UNL     1     -12.524  14.669  64.057  1.00  0.00    -0.796 OA 
ENDROOT
BRANCH   3   5
HETATM    5  C   UNL     1     -12.619  13.605  66.653  1.00  0.00    -0.156 C  
BRANCH   5   6
HETATM    6  C   UNL     1     -11.779  13.374  67.915  1.00  0.00    -0.396 C  
BRANCH   6   7
HETATM    7  C   UNL     1     -10.577  12.496  67.651  1.00  0.00    -0.234 A  
HETATM    8  C   UNL     1      -9.285  13.030  67.624  1.00  0.00    -0.200 A  
HETATM    9  C   UNL     1      -8.174  12.225  67.328  1.00  0.00    -0.182 A  
HETATM   10  C   UNL     1      -8.306  10.863  67.043  1.00  0.00    -0.132 A  
HETATM   11  C   UNL     1      -9.605  10.332  67.132  1.00  0.00    -0.199 A  
HETATM   12  C   UNL     1     -10.724  11.128  67.426  1.00  0.00    -0.294 A  
BRANCH  10  13
HETATM   13  N   UNL     1      -7.233  10.050  66.669  1.00  0.00    -0.097 NA 
BRANCH  13  14
HETATM   14  C   UNL     1      -6.093   9.796  67.572  1.00  0.00    -0.058 C  
HETATM   15 CL   UNL     1      -7.175   7.418  68.458  1.00  0.00    -0.084 Cl 
HETATM   16  C   UNL     1      -6.470   9.015  68.832  1.00  0.00    -0.048 C  
ENDBRANCH  13  14
BRANCH  13  17
HETATM   17  C   UNL     1      -6.948   9.932  65.220  1.00  0.00    -0.122 C  
HETATM   18  C   UNL     1      -6.648   8.506  64.742  1.00  0.00    -0.065 C  
HETATM   19 CL   UNL     1      -8.028   7.397  64.960  1.00  0.00    -0.125 Cl 
ENDBRANCH  13  17
ENDBRANCH  10  13
ENDBRANCH   6   7
ENDBRANCH   5   6
ENDBRANCH   3   5
TORSDOF 6
ENDMDL
MODEL      199
REMARK 921   NORMALIZED FREE ENERGY PREDICTED BY IDOCK:   -3.11 KCAL/MOL
REMARK 922        TOTAL FREE ENERGY PREDICTED BY IDOCK:   -4.93 KCAL/MOL
REMARK 923 INTER-LIGAND FREE ENERGY PREDICTED BY IDOCK:   -4.04 KCAL/MOL
REMARK 924 INTRA-LIGAND FREE ENERGY PREDICTED BY IDOCK:   -0.89 KCAL/MOL
REMARK 927      BINDING AFFINITY PREDICTED BY RF-SCORE:    0.00 PKD
ROOT
HETATM    1  O   UNL     1     -10.751   7.343  73.487  1.00  0.00    -0.385 OA 
HETATM    2  C   UNL     1     -10.115   6.952  72.358  1.00  0.00    -0.170 C  
HETATM    3  C   UNL     1     -10.972   6.052  71.494  1.00  0.00    -0.335 C  
HETATM    4  O   UNL     1      -8.975   7.303  72.100  1.00  0.00    -0.131 OA 
ENDROOT
BRANCH   3   5
HETATM    5  C   UNL     1     -10.222   5.613  70.237  1.00  0.00    -0.311 C  
BRANCH   5   6
HETATM    6  C   UNL     1     -10.954   6.012  68.951  1.00  0.00    -0.395 C  
BRANCH   6   7
HETATM    7  C   UNL     1     -10.416   7.297  68.362  1.00  0.00    -0.228 A  
HETATM    8  C   UNL     1      -9.745   7.302  67.135  1.00  0.00    -0.218 A  
HETATM    9  C   UNL     1      -9.200   8.486  66.612  1.00  0.00    -0.223 A  
HETATM   10  C   UNL     1      -9.297   9.704  67.290  1.00  0.00    -0.138 A  
HETATM   11  C   UNL     1     -10.026   9.690  68.493  1.00  0.00    -0.182 A  
HETATM   12  C   UNL     1     -10.574   8.512  69.025  1.00  0.00    -0.173 A  
BRANCH  10  13
HETATM   13  N   UNL     1      -8.701  10.883  66.837  1.00  0.00    -0.141 NA 
BRANCH  13  14
HETATM   14  C   UNL     1      -9.455  12.148  66.728  1.00  0.00    -0.212 C  
HETATM   15 CL   UNL     1     -10.873  11.249  64.539  1.00  0.00    -0.382 Cl 
HETATM   16  C   UNL     1      -9.852  12.504  65.294  1.00  0.00    -0.139 C  
ENDBRANCH  13  14
BRANCH  13  17
HETATM   17  C   UNL     1      -7.534  10.747  65.936  1.00  0.00    -0.099 C  
HETATM   18  C   UNL     1      -6.198  11.187  66.548  1.00  0.00    -0.139 C  
HETATM   19 CL   UNL     1      -5.721  10.199  67.955  1.00  0.00    -0.042 Cl 
ENDBRANCH  13  17
ENDBRANCH  10  13
ENDBRANCH   6   7
ENDBRANCH   5   6
ENDBRANCH   3   5
TORSDOF 6
ENDMDL
MODEL      200
REMARK 921   NORMALIZED FREE ENERGY PREDICTED BY IDOCK:   -3.10 KCAL/MOL
REMARK 922        TOTAL FREE ENERGY PREDICTED BY IDOCK:   -4.91 KCAL/MOL
REMARK 923 INTER-LIGAND FREE ENERGY PREDICTED BY IDOCK:   -4.13 KCAL/MOL
REMARK 924 INTRA-LIGAND FREE ENERGY PREDICTED BY IDOCK:   -0.79 KCAL/MOL
REMARK 927      BINDING AFFINITY PREDICTED BY RF-SCORE:    0.00 PKD
ROOT
HETATM    1  O   UNL     1      -8.578  11.211  67.424  1.00  0.00    -0.134 OA 
HETATM    2  C   UNL     1      -9.866  10.896  67.694  1.00  0.00    -0.171 C  
HETATM    3  C   UNL     1     -10.173  10.943  69.176  1.00  0.00    -0.215 C  
HETATM    4  O   UNL     1     -10.663  10.607  66.816  1.00  0.00    -0.250 OA 
ENDROOT
BRANCH   3   5
HETATM    5  C   UNL     1     -11.627  10.565  69.453  1.00  0.00    -0.318 C  
BRANCH   5   6
HETATM    6  C   UNL     1     -11.824   9.992  70.861  1.00  0.00    -0.459 C  
BRANCH   6   7
HETATM    7  C   UNL     1     -11.182   8.632  71.020  1.00  0.00    -0.321 A  
HETATM    8  C   UNL     1     -10.166   8.420  71.958  1.00  0.00    -0.364 A  
HETATM    9  C   UNL     1      -9.534   7.171  72.071  1.00  0.00    -0.151 A  
HETATM   10  C   UNL     1      -9.883   6.092  71.254  1.00  0.00    -0.178 A  
HETATM   11  C   UNL     1     -10.946   6.308  70.359  1.00  0.00    -0.385 A  
HETATM   12  C   UNL     1     -11.585   7.553  70.237  1.00  0.00    -0.114 A  
BRANCH  10  13
HETATM   13  N   UNL     1      -9.224   4.861  71.286  1.00  0.00    -0.141 NA 
BRANCH  13  14
HETATM   14  C   UNL     1      -8.008   4.605  70.487  1.00  0.00    -0.061 C  
HETATM   15 CL   UNL     1      -9.477   4.041  68.220  1.00  0.00    -0.220 Cl 
HETATM   16  C   UNL     1      -8.208   3.565  69.383  1.00  0.00    -0.052 C  
ENDBRANCH  13  14
BRANCH  13  17
HETATM   17  C   UNL     1     -10.033   3.669  71.630  1.00  0.00    -0.126 C  
HETATM   18  C   UNL     1     -10.062   3.327  73.125  1.00  0.00    -0.140 C  
HETATM   19 CL   UNL     1     -10.813   4.608  74.115  1.00  0.00    -0.329 Cl 
ENDBRANCH  13  17
ENDBRANCH  10  13
ENDBRANCH   6   7
ENDBRANCH   5   6
ENDBRANCH   3   5
TORSDOF 6
ENDMDL
MODEL      201
REMARK 921   NORMALIZED FREE ENERGY PREDICTED BY IDOCK:   -3.09 KCAL/MOL
REMARK 922        TOTAL FREE ENERGY PREDICTED BY IDOCK:   -4.89 KCAL/MOL
REMARK 923 INTER-LIGAND FREE ENERGY PREDICTED BY IDOCK:   -4.07 KCAL/MOL
REMARK 924 INTRA-LIGAND FREE ENERGY PREDICTED BY IDOCK:   -0.82 KCAL/MOL
REMARK 927      BINDING AFFINITY PREDICTED BY RF-SCORE:    0.00 PKD
ROOT
HETATM    1  O   UNL     1      -8.076  14.940  69.210  1.00  0.00    -0.172 OA 
HETATM    2  C   UNL     1      -8.977  14.984  68.201  1.00  0.00    -0.173 C  
HETATM    3  C   UNL     1     -10.288  14.323  68.570  1.00  0.00    -0.244 C  
HETATM    4  O   UNL     1      -8.724  15.503  67.126  1.00  0.00    -0.184 OA 
ENDROOT
BRANCH   3   5
HETATM    5  C   UNL     1     -11.278  14.370  67.407  1.00  0.00    -0.337 C  
BRANCH   5   6
HETATM    6  C   UNL     1     -12.026  13.045  67.223  1.00  0.00    -0.379 C  
BRANCH   6   7
HETATM    7  C   UNL     1     -11.111  11.928  66.776  1.00  0.00    -0.359 A  
HETATM    8  C   UNL     1     -10.532  11.936  65.503  1.00  0.00    -0.309 A  
HETATM    9  C   UNL     1      -9.724  10.873  65.068  1.00  0.00    -0.319 A  
HETATM   10  C   UNL     1      -9.466   9.764  65.878  1.00  0.00    -0.226 A  
HETATM   11  C   UNL     1     -10.008   9.802  67.176  1.00  0.00    -0.252 A  
HETATM   12  C   UNL     1     -10.819  10.859  67.620  1.00  0.00    -0.317 A  
BRANCH  10  13
HETATM   13  N   UNL     1      -8.732   8.655  65.450  1.00  0.00    -0.181 NA 
BRANCH  13  14
HETATM   14  C   UNL     1      -8.188   8.560  64.081  1.00  0.00    -0.139 C  
HETATM   15 CL   UNL     1      -5.589   8.821  64.970  1.00  0.00    -0.046 Cl 
HETATM   16  C   UNL     1      -6.896   9.354  63.877  1.00  0.00    -0.096 C  
ENDBRANCH  13  14
BRANCH  13  17
HETATM   17  C   UNL     1      -8.994   7.367  66.132  1.00  0.00    -0.149 C  
HETATM   18  C   UNL     1      -7.759   6.717  66.769  1.00  0.00    -0.106 C  
HETATM   19 CL   UNL     1      -7.047   7.710  68.069  1.00  0.00    -0.082 Cl 
ENDBRANCH  13  17
ENDBRANCH  10  13
ENDBRANCH   6   7
ENDBRANCH   5   6
ENDBRANCH   3   5
TORSDOF 6
ENDMDL
MODEL      202
REMARK 921   NORMALIZED FREE ENERGY PREDICTED BY IDOCK:   -3.06 KCAL/MOL
REMARK 922        TOTAL FREE ENERGY PREDICTED BY IDOCK:   -4.86 KCAL/MOL
REMARK 923 INTER-LIGAND FREE ENERGY PREDICTED BY IDOCK:   -4.16 KCAL/MOL
REMARK 924 INTRA-LIGAND FREE ENERGY PREDICTED BY IDOCK:   -0.70 KCAL/MOL
REMARK 927      BINDING AFFINITY PREDICTED BY RF-SCORE:    0.00 PKD
ROOT
HETATM    1  O   UNL     1     -10.570  12.159  64.712  1.00  0.00    -0.273 OA 
HETATM    2  C   UNL     1     -10.155  10.879  64.856  1.00  0.00    -0.312 C  
HETATM    3  C   UNL     1     -10.053  10.466  66.308  1.00  0.00    -0.292 C  
HETATM    4  O   UNL     1      -9.897  10.167  63.899  1.00  0.00    -0.274 OA 
ENDROOT
BRANCH   3   5
HETATM    5  C   UNL     1      -9.566   9.024  66.441  1.00  0.00    -0.309 C  
BRANCH   5   6
HETATM    6  C   UNL     1     -10.661   8.083  66.955  1.00  0.00    -0.364 C  
BRANCH   6   7
HETATM    7  C   UNL     1     -10.192   7.240  68.120  1.00  0.00    -0.222 A  
HETATM    8  C   UNL     1      -8.989   7.521  68.775  1.00  0.00    -0.129 A  
HETATM    9  C   UNL     1      -8.527   6.708  69.823  1.00  0.00    -0.132 A  
HETATM   10  C   UNL     1      -9.240   5.586  70.253  1.00  0.00    -0.149 A  
HETATM   11  C   UNL     1     -10.476   5.354  69.622  1.00  0.00    -0.361 A  
HETATM   12  C   UNL     1     -10.946   6.160  68.573  1.00  0.00    -0.404 A  
BRANCH  10  13
HETATM   13  N   UNL     1      -8.774   4.713  71.238  1.00  0.00    -0.115 NA 
BRANCH  13  14
HETATM   14  C   UNL     1      -8.974   3.252  71.147  1.00  0.00    -0.098 C  
HETATM   15 CL   UNL     1      -6.259   2.765  71.093  1.00  0.00    -0.018 Cl 
HETATM   16  C   UNL     1      -7.874   2.529  70.368  1.00  0.00    -0.042 C  
ENDBRANCH  13  14
BRANCH  13  17
HETATM   17  C   UNL     1      -8.617   5.258  72.606  1.00  0.00    -0.117 C  
HETATM   18  C   UNL     1      -9.806   6.091  73.103  1.00  0.00    -0.169 C  
HETATM   19 CL   UNL     1     -11.312   5.142  73.230  1.00  0.00    -0.384 Cl 
ENDBRANCH  13  17
ENDBRANCH  10  13
ENDBRANCH   6   7
ENDBRANCH   5   6
ENDBRANCH   3   5
TORSDOF 6
ENDMDL
MODEL      203
REMARK 921   NORMALIZED FREE ENERGY PREDICTED BY IDOCK:   -3.06 KCAL/MOL
REMARK 922        TOTAL FREE ENERGY PREDICTED BY IDOCK:   -4.85 KCAL/MOL
REMARK 923 INTER-LIGAND FREE ENERGY PREDICTED BY IDOCK:   -4.24 KCAL/MOL
REMARK 924 INTRA-LIGAND FREE ENERGY PREDICTED BY IDOCK:   -0.61 KCAL/MOL
REMARK 927      BINDING AFFINITY PREDICTED BY RF-SCORE:    0.00 PKD
ROOT
HETATM    1  O   UNL     1     -10.956  13.728  64.096  1.00  0.00    -0.317 OA 
HETATM    2  C   UNL     1     -10.289  12.553  64.159  1.00  0.00    -0.390 C  
HETATM    3  C   UNL     1      -9.936  12.164  65.578  1.00  0.00    -0.269 C  
HETATM    4  O   UNL     1     -10.015  11.906  63.160  1.00  0.00    -0.422 OA 
ENDROOT
BRANCH   3   5
HETATM    5  C   UNL     1      -9.167  10.844  65.617  1.00  0.00    -0.227 C  
BRANCH   5   6
HETATM    6  C   UNL     1     -10.098   9.626  65.596  1.00  0.00    -0.231 C  
BRANCH   6   7
HETATM    7  C   UNL     1      -9.948   8.769  66.833  1.00  0.00    -0.327 A  
HETATM    8  C   UNL     1     -10.631   7.555  66.956  1.00  0.00    -0.409 A  
HETATM    9  C   UNL     1     -10.533   6.784  68.126  1.00  0.00    -0.251 A  
HETATM   10  C   UNL     1      -9.758   7.193  69.215  1.00  0.00    -0.159 A  
HETATM   11  C   UNL     1      -9.032   8.386  69.049  1.00  0.00    -0.147 A  
HETATM   12  C   UNL     1      -9.124   9.165  67.884  1.00  0.00    -0.134 A  
BRANCH  10  13
HETATM   13  N   UNL     1      -9.699   6.491  70.421  1.00  0.00    -0.171 NA 
BRANCH  13  14
HETATM   14  C   UNL     1      -9.471   7.172  71.711  1.00  0.00    -0.151 C  
HETATM   15 CL   UNL     1     -11.799   6.158  72.790  1.00  0.00    -0.121 Cl 
HETATM   16  C   UNL     1     -10.761   7.566  72.434  1.00  0.00    -0.263 C  
ENDBRANCH  13  14
BRANCH  13  17
HETATM   17  C   UNL     1      -9.280   5.072  70.357  1.00  0.00    -0.148 C  
HETATM   18  C   UNL     1      -8.030   4.812  69.506  1.00  0.00    -0.066 C  
HETATM   19 CL   UNL     1      -6.575   5.620  70.147  1.00  0.00    -0.041 Cl 
ENDBRANCH  13  17
ENDBRANCH  10  13
ENDBRANCH   6   7
ENDBRANCH   5   6
ENDBRANCH   3   5
TORSDOF 6
ENDMDL
MODEL      204
REMARK 921   NORMALIZED FREE ENERGY PREDICTED BY IDOCK:   -3.04 KCAL/MOL
REMARK 922        TOTAL FREE ENERGY PREDICTED BY IDOCK:   -4.84 KCAL/MOL
REMARK 923 INTER-LIGAND FREE ENERGY PREDICTED BY IDOCK:   -4.22 KCAL/MOL
REMARK 924 INTRA-LIGAND FREE ENERGY PREDICTED BY IDOCK:   -0.61 KCAL/MOL
REMARK 927      BINDING AFFINITY PREDICTED BY RF-SCORE:    0.00 PKD
ROOT
HETATM    1  O   UNL     1      -8.663   2.495  68.004  1.00  0.00    -0.084 OA 
HETATM    2  C   UNL     1      -8.863   3.767  68.418  1.00  0.00    -0.112 C  
HETATM    3  C   UNL     1      -9.570   3.835  69.754  1.00  0.00    -0.253 C  
HETATM    4  O   UNL     1      -8.503   4.730  67.759  1.00  0.00    -0.103 OA 
ENDROOT
BRANCH   3   5
HETATM    5  C   UNL     1      -9.799   5.283  70.187  1.00  0.00    -0.290 C  
BRANCH   5   6
HETATM    6  C   UNL     1     -11.059   5.888  69.557  1.00  0.00    -0.403 C  
BRANCH   6   7
HETATM    7  C   UNL     1     -10.775   7.196  68.853  1.00  0.00    -0.199 A  
HETATM    8  C   UNL     1     -10.744   7.272  67.457  1.00  0.00    -0.326 A  
HETATM    9  C   UNL     1     -10.429   8.474  66.803  1.00  0.00    -0.308 A  
HETATM   10  C   UNL     1     -10.130   9.641  67.512  1.00  0.00    -0.197 A  
HETATM   11  C   UNL     1     -10.224   9.560  68.913  1.00  0.00    -0.213 A  
HETATM   12  C   UNL     1     -10.537   8.363  69.576  1.00  0.00    -0.217 A  
BRANCH  10  13
HETATM   13  N   UNL     1      -9.738  10.832  66.896  1.00  0.00    -0.175 NA 
BRANCH  13  14
HETATM   14  C   UNL     1     -10.693  11.680  66.155  1.00  0.00    -0.278 C  
HETATM   15 CL   UNL     1     -10.007  10.542  63.737  1.00  0.00    -0.371 Cl 
HETATM   16  C   UNL     1     -10.246  12.007  64.729  1.00  0.00    -0.279 C  
ENDBRANCH  13  14
BRANCH  13  17
HETATM   17  C   UNL     1      -8.320  10.944  66.483  1.00  0.00    -0.155 C  
HETATM   18  C   UNL     1      -7.519  12.018  67.231  1.00  0.00    -0.158 C  
HETATM   19 CL   UNL     1      -7.392  11.694  68.981  1.00  0.00    -0.101 Cl 
ENDBRANCH  13  17
ENDBRANCH  10  13
ENDBRANCH   6   7
ENDBRANCH   5   6
ENDBRANCH   3   5
TORSDOF 6
ENDMDL
MODEL      205
REMARK 921   NORMALIZED FREE ENERGY PREDICTED BY IDOCK:   -3.03 KCAL/MOL
REMARK 922        TOTAL FREE ENERGY PREDICTED BY IDOCK:   -4.82 KCAL/MOL
REMARK 923 INTER-LIGAND FREE ENERGY PREDICTED BY IDOCK:   -4.13 KCAL/MOL
REMARK 924 INTRA-LIGAND FREE ENERGY PREDICTED BY IDOCK:   -0.69 KCAL/MOL
REMARK 927      BINDING AFFINITY PREDICTED BY RF-SCORE:    0.00 PKD
ROOT
HETATM    1  O   UNL     1      -6.247   4.521  64.335  1.00  0.00    -0.028 OA 
HETATM    2  C   UNL     1      -6.504   5.838  64.511  1.00  0.00    -0.037 C  
HETATM    3  C   UNL     1      -6.031   6.679  63.346  1.00  0.00    -0.034 C  
HETATM    4  O   UNL     1      -7.055   6.264  65.514  1.00  0.00    -0.065 OA 
ENDROOT
BRANCH   3   5
HETATM    5  C   UNL     1      -6.318   8.162  63.580  1.00  0.00    -0.072 C  
BRANCH   5   6
HETATM    6  C   UNL     1      -7.588   8.632  62.863  1.00  0.00    -0.110 C  
BRANCH   6   7
HETATM    7  C   UNL     1      -8.430   9.543  63.728  1.00  0.00    -0.198 A  
HETATM    8  C   UNL     1      -8.468   9.388  65.117  1.00  0.00    -0.166 A  
HETATM    9  C   UNL     1      -9.290  10.200  65.915  1.00  0.00    -0.224 A  
HETATM   10  C   UNL     1     -10.105  11.191  65.362  1.00  0.00    -0.264 A  
HETATM   11  C   UNL     1     -10.009  11.372  63.971  1.00  0.00    -0.341 A  
HETATM   12  C   UNL     1      -9.192  10.564  63.163  1.00  0.00    -0.309 A  
BRANCH  10  13
HETATM   13  N   UNL     1     -10.991  11.964  66.117  1.00  0.00    -0.297 NA 
BRANCH  13  14
HETATM   14  C   UNL     1     -12.057  12.770  65.487  1.00  0.00    -0.465 C  
HETATM   15 CL   UNL     1     -10.362  14.910  65.088  1.00  0.00    -0.426 Cl 
HETATM   16  C   UNL     1     -11.906  14.275  65.720  1.00  0.00    -0.374 C  
ENDBRANCH  13  14
BRANCH  13  17
HETATM   17  C   UNL     1     -10.518  12.438  67.438  1.00  0.00    -0.215 C  
HETATM   18  C   UNL     1     -11.228  11.798  68.638  1.00  0.00    -0.257 C  
HETATM   19 CL   UNL     1     -10.967  10.036  68.739  1.00  0.00    -0.253 Cl 
ENDBRANCH  13  17
ENDBRANCH  10  13
ENDBRANCH   6   7
ENDBRANCH   5   6
ENDBRANCH   3   5
TORSDOF 6
ENDMDL
MODEL      206
REMARK 921   NORMALIZED FREE ENERGY PREDICTED BY IDOCK:   -3.00 KCAL/MOL
REMARK 922        TOTAL FREE ENERGY PREDICTED BY IDOCK:   -4.77 KCAL/MOL
REMARK 923 INTER-LIGAND FREE ENERGY PREDICTED BY IDOCK:   -4.03 KCAL/MOL
REMARK 924 INTRA-LIGAND FREE ENERGY PREDICTED BY IDOCK:   -0.74 KCAL/MOL
REMARK 927      BINDING AFFINITY PREDICTED BY RF-SCORE:    0.00 PKD
ROOT
HETATM    1  O   UNL     1     -12.035  14.994  69.142  1.00  0.00    -0.305 OA 
HETATM    2  C   UNL     1     -11.670  14.136  68.162  1.00  0.00    -0.355 C  
HETATM    3  C   UNL     1     -10.694  13.086  68.648  1.00  0.00    -0.273 C  
HETATM    4  O   UNL     1     -12.097  14.230  67.022  1.00  0.00    -0.425 OA 
ENDROOT
BRANCH   3   5
HETATM    5  C   UNL     1     -10.285  12.143  67.517  1.00  0.00    -0.209 C  
BRANCH   5   6
HETATM    6  C   UNL     1     -11.224  10.937  67.395  1.00  0.00    -0.345 C  
BRANCH   6   7
HETATM    7  C   UNL     1     -10.480   9.665  67.056  1.00  0.00    -0.302 A  
HETATM    8  C   UNL     1     -10.828   8.447  67.648  1.00  0.00    -0.078 A  
HETATM    9  C   UNL     1     -10.105   7.274  67.374  1.00  0.00    -0.266 A  
HETATM   10  C   UNL     1      -9.009   7.271  66.507  1.00  0.00    -0.152 A  
HETATM   11  C   UNL     1      -8.711   8.493  65.876  1.00  0.00    -0.203 A  
HETATM   12  C   UNL     1      -9.427   9.671  66.144  1.00  0.00    -0.274 A  
BRANCH  10  13
HETATM   13  N   UNL     1      -8.221   6.143  66.272  1.00  0.00    -0.112 NA 
BRANCH  13  14
HETATM   14  C   UNL     1      -7.029   5.837  67.090  1.00  0.00    -0.065 C  
HETATM   15 CL   UNL     1      -8.210   3.594  68.180  1.00  0.00    -0.086 Cl 
HETATM   16  C   UNL     1      -7.356   5.144  68.415  1.00  0.00    -0.071 C  
ENDBRANCH  13  14
BRANCH  13  17
HETATM   17  C   UNL     1      -8.216   5.597  64.895  1.00  0.00    -0.134 C  
HETATM   18  C   UNL     1      -8.942   4.255  64.737  1.00  0.00    -0.145 C  
HETATM   19 CL   UNL     1     -10.684   4.361  65.109  1.00  0.00    -0.230 Cl 
ENDBRANCH  13  17
ENDBRANCH  10  13
ENDBRANCH   6   7
ENDBRANCH   5   6
ENDBRANCH   3   5
TORSDOF 6
ENDMDL
MODEL      207
REMARK 921   NORMALIZED FREE ENERGY PREDICTED BY IDOCK:   -2.99 KCAL/MOL
REMARK 922        TOTAL FREE ENERGY PREDICTED BY IDOCK:   -4.77 KCAL/MOL
REMARK 923 INTER-LIGAND FREE ENERGY PREDICTED BY IDOCK:   -4.31 KCAL/MOL
REMARK 924 INTRA-LIGAND FREE ENERGY PREDICTED BY IDOCK:   -0.46 KCAL/MOL
REMARK 927      BINDING AFFINITY PREDICTED BY RF-SCORE:    0.00 PKD
ROOT
HETATM    1  O   UNL     1      -7.121   6.033  64.395  1.00  0.00    -0.050 OA 
HETATM    2  C   UNL     1      -7.300   7.374  64.362  1.00  0.00    -0.085 C  
HETATM    3  C   UNL     1      -7.493   7.896  62.955  1.00  0.00    -0.110 C  
HETATM    4  O   UNL     1      -7.297   8.056  65.375  1.00  0.00    -0.066 OA 
ENDROOT
BRANCH   3   5
HETATM    5  C   UNL     1      -7.675   9.413  62.946  1.00  0.00    -0.118 C  
BRANCH   5   6
HETATM    6  C   UNL     1      -9.143   9.824  62.784  1.00  0.00    -0.286 C  
BRANCH   6   7
HETATM    7  C   UNL     1      -9.514  10.986  63.679  1.00  0.00    -0.298 A  
HETATM    8  C   UNL     1      -9.019  11.079  64.983  1.00  0.00    -0.137 A  
HETATM    9  C   UNL     1      -9.405  12.129  65.832  1.00  0.00    -0.135 A  
HETATM   10  C   UNL     1     -10.298  13.120  65.417  1.00  0.00    -0.301 A  
HETATM   11  C   UNL     1     -10.739  13.043  64.084  1.00  0.00    -0.429 A  
HETATM   12  C   UNL     1     -10.361  11.996  63.228  1.00  0.00    -0.398 A  
BRANCH  10  13
HETATM   13  N   UNL     1     -10.763  14.134  66.259  1.00  0.00    -0.290 NA 
BRANCH  13  14
HETATM   14  C   UNL     1      -9.842  14.979  67.045  1.00  0.00    -0.238 C  
HETATM   15 CL   UNL     1     -10.517  17.243  65.619  1.00  0.00    -0.274 Cl 
HETATM   16  C   UNL     1      -9.256  16.150  66.254  1.00  0.00    -0.331 C  
ENDBRANCH  13  14
BRANCH  13  17
HETATM   17  C   UNL     1     -12.129  13.983  66.808  1.00  0.00    -0.447 C  
HETATM   18  C   UNL     1     -12.235  13.030  68.006  1.00  0.00    -0.010 C  
HETATM   19 CL   UNL     1     -11.304  13.590  69.421  1.00  0.00    -0.308 Cl 
ENDBRANCH  13  17
ENDBRANCH  10  13
ENDBRANCH   6   7
ENDBRANCH   5   6
ENDBRANCH   3   5
TORSDOF 6
ENDMDL
MODEL      208
REMARK 921   NORMALIZED FREE ENERGY PREDICTED BY IDOCK:   -2.95 KCAL/MOL
REMARK 922        TOTAL FREE ENERGY PREDICTED BY IDOCK:   -4.71 KCAL/MOL
REMARK 923 INTER-LIGAND FREE ENERGY PREDICTED BY IDOCK:   -3.99 KCAL/MOL
REMARK 924 INTRA-LIGAND FREE ENERGY PREDICTED BY IDOCK:   -0.71 KCAL/MOL
REMARK 927      BINDING AFFINITY PREDICTED BY RF-SCORE:    0.00 PKD
ROOT
HETATM    1  O   UNL     1     -10.774   8.672  72.290  1.00  0.00    -0.344 OA 
HETATM    2  C   UNL     1     -10.916   9.519  71.244  1.00  0.00    -0.370 C  
HETATM    3  C   UNL     1      -9.850   9.318  70.189  1.00  0.00    -0.250 C  
HETATM    4  O   UNL     1     -11.814  10.344  71.194  1.00  0.00    -0.356 OA 
ENDROOT
BRANCH   3   5
HETATM    5  C   UNL     1     -10.025  10.299  69.031  1.00  0.00    -0.223 C  
BRANCH   5   6
HETATM    6  C   UNL     1     -10.922   9.740  67.922  1.00  0.00    -0.246 C  
BRANCH   6   7
HETATM    7  C   UNL     1     -10.337   8.502  67.281  1.00  0.00    -0.372 A  
HETATM    8  C   UNL     1      -9.166   8.568  66.520  1.00  0.00    -0.239 A  
HETATM    9  C   UNL     1      -8.651   7.429  65.881  1.00  0.00    -0.165 A  
HETATM   10  C   UNL     1      -9.282   6.185  65.972  1.00  0.00    -0.095 A  
HETATM   11  C   UNL     1     -10.425   6.126  66.789  1.00  0.00    -0.316 A  
HETATM   12  C   UNL     1     -10.949   7.259  67.431  1.00  0.00    -0.257 A  
BRANCH  10  13
HETATM   13  N   UNL     1      -8.841   5.050  65.288  1.00  0.00    -0.151 NA 
BRANCH  13  14
HETATM   14  C   UNL     1      -8.037   5.145  64.053  1.00  0.00    -0.119 C  
HETATM   15 CL   UNL     1      -5.944   3.735  65.169  1.00  0.00    -0.022 Cl 
HETATM   16  C   UNL     1      -6.528   5.184  64.304  1.00  0.00    -0.037 C  
ENDBRANCH  13  14
BRANCH  13  17
HETATM   17  C   UNL     1      -9.642   3.814  65.443  1.00  0.00    -0.174 C  
HETATM   18  C   UNL     1      -8.968   2.716  66.276  1.00  0.00    -0.137 C  
HETATM   19 CL   UNL     1      -8.677   3.207  67.966  1.00  0.00    -0.121 Cl 
ENDBRANCH  13  17
ENDBRANCH  10  13
ENDBRANCH   6   7
ENDBRANCH   5   6
ENDBRANCH   3   5
TORSDOF 6
ENDMDL
MODEL      209
REMARK 921   NORMALIZED FREE ENERGY PREDICTED BY IDOCK:   -2.93 KCAL/MOL
REMARK 922        TOTAL FREE ENERGY PREDICTED BY IDOCK:   -4.69 KCAL/MOL
REMARK 923 INTER-LIGAND FREE ENERGY PREDICTED BY IDOCK:   -4.26 KCAL/MOL
REMARK 924 INTRA-LIGAND FREE ENERGY PREDICTED BY IDOCK:   -0.42 KCAL/MOL
REMARK 927      BINDING AFFINITY PREDICTED BY RF-SCORE:    0.00 PKD
ROOT
HETATM    1  O   UNL     1      -5.467  14.823  70.231  1.00  0.00    -0.106 OA 
HETATM    2  C   UNL     1      -5.603  13.828  69.325  1.00  0.00    -0.080 C  
HETATM    3  C   UNL     1      -6.148  12.557  69.942  1.00  0.00    -0.130 C  
HETATM    4  O   UNL     1      -5.305  13.972  68.150  1.00  0.00    -0.105 OA 
ENDROOT
BRANCH   3   5
HETATM    5  C   UNL     1      -6.273  11.446  68.901  1.00  0.00    -0.053 C  
BRANCH   5   6
HETATM    6  C   UNL     1      -7.687  11.349  68.317  1.00  0.00    -0.124 C  
BRANCH   6   7
HETATM    7  C   UNL     1      -8.581  10.440  69.129  1.00  0.00    -0.169 A  
HETATM    8  C   UNL     1      -8.085   9.737  70.232  1.00  0.00    -0.181 A  
HETATM    9  C   UNL     1      -8.901   8.853  70.955  1.00  0.00    -0.285 A  
HETATM   10  C   UNL     1     -10.237   8.632  70.607  1.00  0.00    -0.198 A  
HETATM   11  C   UNL     1     -10.734   9.392  69.533  1.00  0.00    -0.238 A  
HETATM   12  C   UNL     1      -9.926  10.277  68.802  1.00  0.00    -0.187 A  
BRANCH  10  13
HETATM   13  N   UNL     1     -11.054   7.703  71.255  1.00  0.00    -0.243 NA 
BRANCH  13  14
HETATM   14  C   UNL     1     -11.712   6.599  70.528  1.00  0.00    -0.394 C  
HETATM   15 CL   UNL     1      -9.536   4.934  70.856  1.00  0.00    -0.226 Cl 
HETATM   16  C   UNL     1     -10.735   5.694  69.773  1.00  0.00    -0.331 C  
ENDBRANCH  13  14
BRANCH  13  17
HETATM   17  C   UNL     1     -11.725   8.145  72.499  1.00  0.00    -0.394 C  
HETATM   18  C   UNL     1     -12.857   9.159  72.290  1.00  0.00    -0.401 C  
HETATM   19 CL   UNL     1     -14.209   8.500  71.331  1.00  0.00    -0.420 Cl 
ENDBRANCH  13  17
ENDBRANCH  10  13
ENDBRANCH   6   7
ENDBRANCH   5   6
ENDBRANCH   3   5
TORSDOF 6
ENDMDL
MODEL      210
REMARK 921   NORMALIZED FREE ENERGY PREDICTED BY IDOCK:   -2.92 KCAL/MOL
REMARK 922        TOTAL FREE ENERGY PREDICTED BY IDOCK:   -4.68 KCAL/MOL
REMARK 923 INTER-LIGAND FREE ENERGY PREDICTED BY IDOCK:   -3.90 KCAL/MOL
REMARK 924 INTRA-LIGAND FREE ENERGY PREDICTED BY IDOCK:   -0.78 KCAL/MOL
REMARK 927      BINDING AFFINITY PREDICTED BY RF-SCORE:    0.00 PKD
ROOT
HETATM    1  O   UNL     1      -8.200   3.310  65.174  1.00  0.00    -0.093 OA 
HETATM    2  C   UNL     1      -7.919   4.503  65.746  1.00  0.00    -0.095 C  
HETATM    3  C   UNL     1      -8.985   5.541  65.470  1.00  0.00    -0.133 C  
HETATM    4  O   UNL     1      -6.906   4.687  66.402  1.00  0.00    -0.055 OA 
ENDROOT
BRANCH   3   5
HETATM    5  C   UNL     1      -8.632   6.882  66.113  1.00  0.00    -0.147 C  
BRANCH   5   6
HETATM    6  C   UNL     1      -9.538   7.216  67.303  1.00  0.00    -0.179 C  
BRANCH   6   7
HETATM    7  C   UNL     1      -9.771   8.703  67.447  1.00  0.00    -0.227 A  
HETATM    8  C   UNL     1      -9.798   9.310  68.706  1.00  0.00    -0.174 A  
HETATM    9  C   UNL     1     -10.066  10.682  68.844  1.00  0.00    -0.215 A  
HETATM   10  C   UNL     1     -10.321  11.497  67.737  1.00  0.00    -0.182 A  
HETATM   11  C   UNL     1     -10.231  10.881  66.476  1.00  0.00    -0.282 A  
HETATM   12  C   UNL     1      -9.965   9.510  66.327  1.00  0.00    -0.344 A  
BRANCH  10  13
HETATM   13  N   UNL     1     -10.666  12.846  67.842  1.00  0.00    -0.215 NA 
BRANCH  13  14
HETATM   14  C   UNL     1      -9.827  13.813  68.579  1.00  0.00    -0.204 C  
HETATM   15 CL   UNL     1      -9.012  15.054  66.254  1.00  0.00    -0.288 Cl 
HETATM   16  C   UNL     1      -8.591  14.270  67.801  1.00  0.00    -0.177 C  
ENDBRANCH  13  14
BRANCH  13  17
HETATM   17  C   UNL     1     -12.104  13.185  67.742  1.00  0.00    -0.215 C  
HETATM   18  C   UNL     1     -12.466  14.096  66.562  1.00  0.00    -0.270 C  
HETATM   19 CL   UNL     1     -12.130  13.345  64.979  1.00  0.00    -0.407 Cl 
ENDBRANCH  13  17
ENDBRANCH  10  13
ENDBRANCH   6   7
ENDBRANCH   5   6
ENDBRANCH   3   5
TORSDOF 6
ENDMDL
MODEL      211
REMARK 921   NORMALIZED FREE ENERGY PREDICTED BY IDOCK:   -2.91 KCAL/MOL
REMARK 922        TOTAL FREE ENERGY PREDICTED BY IDOCK:   -4.66 KCAL/MOL
REMARK 923 INTER-LIGAND FREE ENERGY PREDICTED BY IDOCK:   -3.90 KCAL/MOL
REMARK 924 INTRA-LIGAND FREE ENERGY PREDICTED BY IDOCK:   -0.77 KCAL/MOL
REMARK 927      BINDING AFFINITY PREDICTED BY RF-SCORE:    0.00 PKD
ROOT
HETATM    1  O   UNL     1      -9.042   3.076  66.188  1.00  0.00    -0.144 OA 
HETATM    2  C   UNL     1      -9.168   4.134  65.353  1.00  0.00    -0.151 C  
HETATM    3  C   UNL     1      -8.181   5.238  65.668  1.00  0.00    -0.121 C  
HETATM    4  O   UNL     1      -9.998   4.162  64.459  1.00  0.00    -0.182 OA 
ENDROOT
BRANCH   3   5
HETATM    5  C   UNL     1      -8.359   6.426  64.723  1.00  0.00    -0.035 C  
BRANCH   5   6
HETATM    6  C   UNL     1      -7.925   7.750  65.362  1.00  0.00    -0.125 C  
BRANCH   6   7
HETATM    7  C   UNL     1      -8.562   7.969  66.716  1.00  0.00    -0.133 A  
HETATM    8  C   UNL     1      -7.793   7.968  67.883  1.00  0.00    -0.126 A  
HETATM    9  C   UNL     1      -8.390   8.119  69.145  1.00  0.00    -0.131 A  
HETATM   10  C   UNL     1      -9.771   8.271  69.293  1.00  0.00    -0.177 A  
HETATM   11  C   UNL     1     -10.522   8.328  68.104  1.00  0.00    -0.226 A  
HETATM   12  C   UNL     1      -9.935   8.177  66.838  1.00  0.00    -0.343 A  
BRANCH  10  13
HETATM   13  N   UNL     1     -10.406   8.346  70.535  1.00  0.00    -0.196 NA 
BRANCH  13  14
HETATM   14  C   UNL     1     -10.934   9.618  71.067  1.00  0.00    -0.361 C  
HETATM   15 CL   UNL     1     -13.407   8.510  71.584  1.00  0.00    -0.362 Cl 
HETATM   16  C   UNL     1     -12.434   9.806  70.834  1.00  0.00    -0.277 C  
ENDBRANCH  13  14
BRANCH  13  17
HETATM   17  C   UNL     1     -10.038   7.327  71.544  1.00  0.00    -0.186 C  
HETATM   18  C   UNL     1     -10.815   6.008  71.435  1.00  0.00    -0.270 C  
HETATM   19 CL   UNL     1     -10.521   5.156  69.896  1.00  0.00    -0.352 Cl 
ENDBRANCH  13  17
ENDBRANCH  10  13
ENDBRANCH   6   7
ENDBRANCH   5   6
ENDBRANCH   3   5
TORSDOF 6
ENDMDL
MODEL      212
REMARK 921   NORMALIZED FREE ENERGY PREDICTED BY IDOCK:   -2.91 KCAL/MOL
REMARK 922        TOTAL FREE ENERGY PREDICTED BY IDOCK:   -4.66 KCAL/MOL
REMARK 923 INTER-LIGAND FREE ENERGY PREDICTED BY IDOCK:   -3.94 KCAL/MOL
REMARK 924 INTRA-LIGAND FREE ENERGY PREDICTED BY IDOCK:   -0.72 KCAL/MOL
REMARK 927      BINDING AFFINITY PREDICTED BY RF-SCORE:    0.00 PKD
ROOT
HETATM    1  O   UNL     1     -10.664   7.528  73.573  1.00  0.00    -0.378 OA 
HETATM    2  C   UNL     1     -10.903   8.154  72.398  1.00  0.00    -0.339 C  
HETATM    3  C   UNL     1      -9.715   8.095  71.462  1.00  0.00    -0.230 C  
HETATM    4  O   UNL     1     -11.968   8.699  72.155  1.00  0.00    -0.343 OA 
ENDROOT
BRANCH   3   5
HETATM    5  C   UNL     1     -10.006   8.826  70.151  1.00  0.00    -0.201 C  
BRANCH   5   6
HETATM    6  C   UNL     1     -10.498   7.879  69.052  1.00  0.00    -0.210 C  
BRANCH   6   7
HETATM    7  C   UNL     1      -9.910   8.215  67.700  1.00  0.00    -0.216 A  
HETATM    8  C   UNL     1      -9.982   9.513  67.184  1.00  0.00    -0.261 A  
HETATM    9  C   UNL     1      -9.483   9.815  65.907  1.00  0.00    -0.285 A  
HETATM   10  C   UNL     1      -8.898   8.838  65.096  1.00  0.00    -0.133 A  
HETATM   11  C   UNL     1      -8.781   7.553  65.655  1.00  0.00    -0.105 A  
HETATM   12  C   UNL     1      -9.278   7.240  66.930  1.00  0.00    -0.180 A  
BRANCH  10  13
HETATM   13  N   UNL     1      -8.461   9.086  63.792  1.00  0.00    -0.180 NA 
BRANCH  13  14
HETATM   14  C   UNL     1      -7.981   8.003  62.910  1.00  0.00    -0.152 C  
HETATM   15 CL   UNL     1      -5.608   7.767  64.298  1.00  0.00    -0.037 Cl 
HETATM   16  C   UNL     1      -6.460   7.976  62.743  1.00  0.00    -0.085 C  
ENDBRANCH  13  14
BRANCH  13  17
HETATM   17  C   UNL     1      -7.930  10.437  63.502  1.00  0.00    -0.101 C  
HETATM   18  C   UNL     1      -8.705  11.212  62.428  1.00  0.00    -0.266 C  
HETATM   19 CL   UNL     1     -10.393  11.548  62.897  1.00  0.00    -0.236 Cl 
ENDBRANCH  13  17
ENDBRANCH  10  13
ENDBRANCH   6   7
ENDBRANCH   5   6
ENDBRANCH   3   5
TORSDOF 6
ENDMDL
MODEL      213
REMARK 921   NORMALIZED FREE ENERGY PREDICTED BY IDOCK:   -2.90 KCAL/MOL
REMARK 922        TOTAL FREE ENERGY PREDICTED BY IDOCK:   -4.65 KCAL/MOL
REMARK 923 INTER-LIGAND FREE ENERGY PREDICTED BY IDOCK:   -4.24 KCAL/MOL
REMARK 924 INTRA-LIGAND FREE ENERGY PREDICTED BY IDOCK:   -0.41 KCAL/MOL
REMARK 927      BINDING AFFINITY PREDICTED BY RF-SCORE:    0.00 PKD
ROOT
HETATM    1  O   UNL     1     -12.336  15.219  69.859  1.00  0.00    -0.327 OA 
HETATM    2  C   UNL     1     -12.474  14.258  70.801  1.00  0.00    -0.358 C  
HETATM    3  C   UNL     1     -12.231  12.870  70.249  1.00  0.00    -0.362 C  
HETATM    4  O   UNL     1     -12.766  14.517  71.957  1.00  0.00    -0.319 OA 
ENDROOT
BRANCH   3   5
HETATM    5  C   UNL     1     -12.412  11.804  71.329  1.00  0.00    -0.351 C  
BRANCH   5   6
HETATM    6  C   UNL     1     -12.786  10.438  70.744  1.00  0.00    -0.460 C  
BRANCH   6   7
HETATM    7  C   UNL     1     -11.602   9.499  70.679  1.00  0.00    -0.350 A  
HETATM    8  C   UNL     1     -11.340   8.596  71.715  1.00  0.00    -0.393 A  
HETATM    9  C   UNL     1     -10.212   7.761  71.680  1.00  0.00    -0.225 A  
HETATM   10  C   UNL     1      -9.303   7.795  70.619  1.00  0.00    -0.162 A  
HETATM   11  C   UNL     1      -9.615   8.666  69.560  1.00  0.00    -0.170 A  
HETATM   12  C   UNL     1     -10.740   9.506  69.585  1.00  0.00    -0.257 A  
BRANCH  10  13
HETATM   13  N   UNL     1      -8.132   7.035  70.589  1.00  0.00    -0.116 NA 
BRANCH  13  14
HETATM   14  C   UNL     1      -6.973   7.350  71.448  1.00  0.00    -0.055 C  
HETATM   15 CL   UNL     1      -5.763   8.843  69.469  1.00  0.00    -0.034 Cl 
HETATM   16  C   UNL     1      -5.665   7.530  70.675  1.00  0.00    -0.027 C  
ENDBRANCH  13  14
BRANCH  13  17
HETATM   17  C   UNL     1      -7.825   6.315  69.331  1.00  0.00    -0.104 C  
HETATM   18  C   UNL     1      -7.429   4.845  69.515  1.00  0.00    -0.056 C  
HETATM   19 CL   UNL     1      -8.736   3.858  70.221  1.00  0.00    -0.113 Cl 
ENDBRANCH  13  17
ENDBRANCH  10  13
ENDBRANCH   6   7
ENDBRANCH   5   6
ENDBRANCH   3   5
TORSDOF 6
ENDMDL
MODEL      214
REMARK 921   NORMALIZED FREE ENERGY PREDICTED BY IDOCK:   -2.90 KCAL/MOL
REMARK 922        TOTAL FREE ENERGY PREDICTED BY IDOCK:   -4.65 KCAL/MOL
REMARK 923 INTER-LIGAND FREE ENERGY PREDICTED BY IDOCK:   -3.82 KCAL/MOL
REMARK 924 INTRA-LIGAND FREE ENERGY PREDICTED BY IDOCK:   -0.83 KCAL/MOL
REMARK 927      BINDING AFFINITY PREDICTED BY RF-SCORE:    0.00 PKD
ROOT
HETATM    1  O   UNL     1      -8.782   9.118  64.166  1.00  0.00    -0.198 OA 
HETATM    2  C   UNL     1      -8.106   9.596  65.235  1.00  0.00    -0.125 C  
HETATM    3  C   UNL     1      -8.646  10.926  65.713  1.00  0.00    -0.176 C  
HETATM    4  O   UNL     1      -7.165   8.996  65.731  1.00  0.00    -0.086 OA 
ENDROOT
BRANCH   3   5
HETATM    5  C   UNL     1      -7.852  11.450  66.908  1.00  0.00    -0.158 C  
BRANCH   5   6
HETATM    6  C   UNL     1      -8.758  11.998  68.017  1.00  0.00    -0.175 C  
BRANCH   6   7
HETATM    7  C   UNL     1      -9.472  10.897  68.769  1.00  0.00    -0.196 A  
HETATM    8  C   UNL     1     -10.812  11.031  69.144  1.00  0.00    -0.283 A  
HETATM    9  C   UNL     1     -11.461  10.032  69.888  1.00  0.00    -0.274 A  
HETATM   10  C   UNL     1     -10.800   8.868  70.290  1.00  0.00    -0.239 A  
HETATM   11  C   UNL     1      -9.471   8.725  69.854  1.00  0.00    -0.174 A  
HETATM   12  C   UNL     1      -8.813   9.718  69.111  1.00  0.00    -0.160 A  
BRANCH  10  13
HETATM   13  N   UNL     1     -11.390   7.891  71.095  1.00  0.00    -0.262 NA 
BRANCH  13  14
HETATM   14  C   UNL     1     -10.606   7.097  72.062  1.00  0.00    -0.210 C  
HETATM   15 CL   UNL     1      -9.899   5.244  70.144  1.00  0.00    -0.266 Cl 
HETATM   16  C   UNL     1     -10.586   5.599  71.754  1.00  0.00    -0.238 C  
ENDBRANCH  13  14
BRANCH  13  17
HETATM   17  C   UNL     1     -12.625   7.252  70.586  1.00  0.00     0.000 C  
HETATM   18  C   UNL     1     -13.863   7.460  71.468  1.00  0.00    -0.374 C  
HETATM   19 CL   UNL     1     -14.338   9.175  71.602  1.00  0.00    -0.221 Cl 
ENDBRANCH  13  17
ENDBRANCH  10  13
ENDBRANCH   6   7
ENDBRANCH   5   6
ENDBRANCH   3   5
TORSDOF 6
ENDMDL
MODEL      215
REMARK 921   NORMALIZED FREE ENERGY PREDICTED BY IDOCK:   -2.89 KCAL/MOL
REMARK 922        TOTAL FREE ENERGY PREDICTED BY IDOCK:   -4.62 KCAL/MOL
REMARK 923 INTER-LIGAND FREE ENERGY PREDICTED BY IDOCK:   -3.85 KCAL/MOL
REMARK 924 INTRA-LIGAND FREE ENERGY PREDICTED BY IDOCK:   -0.78 KCAL/MOL
REMARK 927      BINDING AFFINITY PREDICTED BY RF-SCORE:    0.00 PKD
ROOT
HETATM    1  O   UNL     1     -12.698  15.890  71.392  1.00  0.00    -0.464 OA 
HETATM    2  C   UNL     1     -12.423  14.841  70.583  1.00  0.00    -0.345 C  
HETATM    3  C   UNL     1     -12.135  15.270  69.160  1.00  0.00    -0.266 C  
HETATM    4  O   UNL     1     -12.421  13.690  70.988  1.00  0.00    -0.354 OA 
ENDROOT
BRANCH   3   5
HETATM    5  C   UNL     1     -11.847  14.065  68.265  1.00  0.00    -0.406 C  
BRANCH   5   6
HETATM    6  C   UNL     1     -10.417  14.077  67.713  1.00  0.00    -0.236 C  
BRANCH   6   7
HETATM    7  C   UNL     1      -9.762  12.716  67.790  1.00  0.00    -0.206 A  
HETATM    8  C   UNL     1      -8.637  12.412  67.017  1.00  0.00    -0.191 A  
HETATM    9  C   UNL     1      -8.059  11.133  67.049  1.00  0.00    -0.148 A  
HETATM   10  C   UNL     1      -8.581  10.109  67.844  1.00  0.00    -0.118 A  
HETATM   11  C   UNL     1      -9.677  10.450  68.658  1.00  0.00    -0.178 A  
HETATM   12  C   UNL     1     -10.262  11.726  68.633  1.00  0.00    -0.211 A  
BRANCH  10  13
HETATM   13  N   UNL     1      -8.080   8.805  67.842  1.00  0.00    -0.107 NA 
BRANCH  13  14
HETATM   14  C   UNL     1      -8.967   7.627  67.932  1.00  0.00    -0.128 C  
HETATM   15 CL   UNL     1      -8.262   6.758  65.410  1.00  0.00    -0.133 Cl 
HETATM   16  C   UNL     1      -9.538   7.184  66.584  1.00  0.00    -0.170 C  
ENDBRANCH  13  14
BRANCH  13  17
HETATM   17  C   UNL     1      -6.697   8.612  68.335  1.00  0.00    -0.064 C  
HETATM   18  C   UNL     1      -6.370   9.361  69.633  1.00  0.00    -0.040 C  
HETATM   19 CL   UNL     1      -7.358   8.816  71.015  1.00  0.00    -0.082 Cl 
ENDBRANCH  13  17
ENDBRANCH  10  13
ENDBRANCH   6   7
ENDBRANCH   5   6
ENDBRANCH   3   5
TORSDOF 6
ENDMDL
MODEL      216
REMARK 921   NORMALIZED FREE ENERGY PREDICTED BY IDOCK:   -2.88 KCAL/MOL
REMARK 922        TOTAL FREE ENERGY PREDICTED BY IDOCK:   -4.61 KCAL/MOL
REMARK 923 INTER-LIGAND FREE ENERGY PREDICTED BY IDOCK:   -3.76 KCAL/MOL
REMARK 924 INTRA-LIGAND FREE ENERGY PREDICTED BY IDOCK:   -0.86 KCAL/MOL
REMARK 927      BINDING AFFINITY PREDICTED BY RF-SCORE:    0.00 PKD
ROOT
HETATM    1  O   UNL     1     -10.809   7.236  73.417  1.00  0.00    -0.374 OA 
HETATM    2  C   UNL     1     -10.215   6.919  72.244  1.00  0.00    -0.186 C  
HETATM    3  C   UNL     1     -11.177   6.287  71.261  1.00  0.00    -0.355 C  
HETATM    4  O   UNL     1      -9.030   7.130  72.037  1.00  0.00    -0.130 OA 
ENDROOT
BRANCH   3   5
HETATM    5  C   UNL     1     -10.475   5.923  69.954  1.00  0.00    -0.337 C  
BRANCH   5   6
HETATM    6  C   UNL     1     -11.219   6.453  68.724  1.00  0.00    -0.358 C  
BRANCH   6   7
HETATM    7  C   UNL     1     -10.581   7.704  68.163  1.00  0.00    -0.187 A  
HETATM    8  C   UNL     1     -11.092   8.971  68.463  1.00  0.00     0.160 A  
HETATM    9  C   UNL     1     -10.532  10.130  67.901  1.00  0.00    -0.265 A  
HETATM   10  C   UNL     1      -9.450  10.072  67.020  1.00  0.00    -0.164 A  
HETATM   11  C   UNL     1      -8.912   8.795  66.777  1.00  0.00    -0.161 A  
HETATM   12  C   UNL     1      -9.465   7.630  67.332  1.00  0.00    -0.175 A  
BRANCH  10  13
HETATM   13  N   UNL     1      -8.918  11.196  66.383  1.00  0.00    -0.177 NA 
BRANCH  13  14
HETATM   14  C   UNL     1      -7.462  11.414  66.270  1.00  0.00     0.047 C  
HETATM   15 CL   UNL     1      -7.123  11.359  69.008  1.00  0.00    -0.110 Cl 
HETATM   16  C   UNL     1      -6.863  12.187  67.447  1.00  0.00    -0.147 C  
ENDBRANCH  13  14
BRANCH  13  17
HETATM   17  C   UNL     1      -9.757  12.415  66.352  1.00  0.00    -0.240 C  
HETATM   18  C   UNL     1     -10.375  12.732  64.984  1.00  0.00    -0.303 C  
HETATM   19 CL   UNL     1     -11.502  11.468  64.423  1.00  0.00    -0.296 Cl 
ENDBRANCH  13  17
ENDBRANCH  10  13
ENDBRANCH   6   7
ENDBRANCH   5   6
ENDBRANCH   3   5
TORSDOF 6
ENDMDL
MODEL      217
REMARK 921   NORMALIZED FREE ENERGY PREDICTED BY IDOCK:   -2.80 KCAL/MOL
REMARK 922        TOTAL FREE ENERGY PREDICTED BY IDOCK:   -4.51 KCAL/MOL
REMARK 923 INTER-LIGAND FREE ENERGY PREDICTED BY IDOCK:   -3.88 KCAL/MOL
REMARK 924 INTRA-LIGAND FREE ENERGY PREDICTED BY IDOCK:   -0.62 KCAL/MOL
REMARK 927      BINDING AFFINITY PREDICTED BY RF-SCORE:    0.00 PKD
ROOT
HETATM    1  O   UNL     1      -6.298  17.071  67.526  1.00  0.00    -0.132 OA 
HETATM    2  C   UNL     1      -6.996  16.142  68.219  1.00  0.00    -0.124 C  
HETATM    3  C   UNL     1      -6.897  14.765  67.598  1.00  0.00    -0.205 C  
HETATM    4  O   UNL     1      -7.626  16.419  69.226  1.00  0.00    -0.234 OA 
ENDROOT
BRANCH   3   5
HETATM    5  C   UNL     1      -7.708  13.740  68.391  1.00  0.00    -0.134 C  
BRANCH   5   6
HETATM    6  C   UNL     1      -8.720  12.993  67.515  1.00  0.00    -0.197 C  
BRANCH   6   7
HETATM    7  C   UNL     1      -9.206  11.716  68.163  1.00  0.00    -0.184 A  
HETATM    8  C   UNL     1      -8.352  10.934  68.947  1.00  0.00    -0.139 A  
HETATM    9  C   UNL     1      -8.788   9.722  69.506  1.00  0.00    -0.202 A  
HETATM   10  C   UNL     1     -10.084   9.242  69.303  1.00  0.00    -0.200 A  
HETATM   11  C   UNL     1     -10.946  10.070  68.562  1.00  0.00    -0.255 A  
HETATM   12  C   UNL     1     -10.520  11.283  67.997  1.00  0.00    -0.215 A  
BRANCH  10  13
HETATM   13  N   UNL     1     -10.527   8.006  69.779  1.00  0.00    -0.224 NA 
BRANCH  13  14
HETATM   14  C   UNL     1     -10.377   7.614  71.195  1.00  0.00    -0.200 C  
HETATM   15 CL   UNL     1     -12.558   9.120  71.963  1.00  0.00    -0.444 Cl 
HETATM   16  C   UNL     1     -10.839   8.689  72.181  1.00  0.00    -0.354 C  
ENDBRANCH  13  14
BRANCH  13  17
HETATM   17  C   UNL     1     -10.595   6.892  68.805  1.00  0.00    -0.220 C  
HETATM   18  C   UNL     1      -9.317   6.681  67.983  1.00  0.00    -0.113 C  
HETATM   19 CL   UNL     1      -7.912   6.236  68.989  1.00  0.00    -0.108 Cl 
ENDBRANCH  13  17
ENDBRANCH  10  13
ENDBRANCH   6   7
ENDBRANCH   5   6
ENDBRANCH   3   5
TORSDOF 6
ENDMDL
MODEL      218
REMARK 921   NORMALIZED FREE ENERGY PREDICTED BY IDOCK:   -2.79 KCAL/MOL
REMARK 922        TOTAL FREE ENERGY PREDICTED BY IDOCK:   -4.50 KCAL/MOL
REMARK 923 INTER-LIGAND FREE ENERGY PREDICTED BY IDOCK:   -4.62 KCAL/MOL
REMARK 924 INTRA-LIGAND FREE ENERGY PREDICTED BY IDOCK:    0.12 KCAL/MOL
REMARK 927      BINDING AFFINITY PREDICTED BY RF-SCORE:    0.00 PKD
ROOT
HETATM    1  O   UNL     1     -11.346  15.017  65.952  1.00  0.00    -0.338 OA 
HETATM    2  C   UNL     1     -11.633  13.695  65.954  1.00  0.00    -0.328 C  
HETATM    3  C   UNL     1     -10.750  12.915  66.904  1.00  0.00    -0.272 C  
HETATM    4  O   UNL     1     -12.511  13.219  65.252  1.00  0.00    -0.447 OA 
ENDROOT
BRANCH   3   5
HETATM    5  C   UNL     1     -11.084  11.424  66.872  1.00  0.00    -0.356 C  
BRANCH   5   6
HETATM    6  C   UNL     1     -11.583  10.909  68.227  1.00  0.00    -0.335 C  
BRANCH   6   7
HETATM    7  C   UNL     1     -10.684   9.836  68.799  1.00  0.00    -0.243 A  
HETATM    8  C   UNL     1     -10.399   8.673  68.076  1.00  0.00    -0.277 A  
HETATM    9  C   UNL     1      -9.606   7.653  68.627  1.00  0.00    -0.152 A  
HETATM   10  C   UNL     1      -9.074   7.749  69.915  1.00  0.00    -0.147 A  
HETATM   11  C   UNL     1      -9.322   8.950  70.603  1.00  0.00    -0.256 A  
HETATM   12  C   UNL     1     -10.114   9.976  70.062  1.00  0.00    -0.289 A  
BRANCH  10  13
HETATM   13  N   UNL     1      -8.347   6.722  70.523  1.00  0.00    -0.128 NA 
BRANCH  13  14
HETATM   14  C   UNL     1      -7.507   5.792  69.743  1.00  0.00    -0.075 C  
HETATM   15 CL   UNL     1      -9.684   4.273  68.991  1.00  0.00    -0.236 Cl 
HETATM   16  C   UNL     1      -8.049   4.362  69.703  1.00  0.00    -0.060 C  
ENDBRANCH  13  14
BRANCH  13  17
HETATM   17  C   UNL     1      -8.860   6.203  71.812  1.00  0.00    -0.138 C  
HETATM   18  C   UNL     1     -10.264   6.694  72.186  1.00  0.00    -0.190 C  
HETATM   19 CL   UNL     1     -11.514   6.168  71.028  1.00  0.00    -0.357 Cl 
ENDBRANCH  13  17
ENDBRANCH  10  13
ENDBRANCH   6   7
ENDBRANCH   5   6
ENDBRANCH   3   5
TORSDOF 6
ENDMDL
MODEL      219
REMARK 921   NORMALIZED FREE ENERGY PREDICTED BY IDOCK:   -2.78 KCAL/MOL
REMARK 922        TOTAL FREE ENERGY PREDICTED BY IDOCK:   -4.48 KCAL/MOL
REMARK 923 INTER-LIGAND FREE ENERGY PREDICTED BY IDOCK:   -4.76 KCAL/MOL
REMARK 924 INTRA-LIGAND FREE ENERGY PREDICTED BY IDOCK:    0.28 KCAL/MOL
REMARK 927      BINDING AFFINITY PREDICTED BY RF-SCORE:    0.00 PKD
ROOT
HETATM    1  O   UNL     1     -14.132   6.876  71.520  1.00  0.00    -0.276 OA 
HETATM    2  C   UNL     1     -12.823   7.180  71.674  1.00  0.00    -0.379 C  
HETATM    3  C   UNL     1     -12.569   8.672  71.637  1.00  0.00    -0.381 C  
HETATM    4  O   UNL     1     -11.968   6.321  71.821  1.00  0.00    -0.321 OA 
ENDROOT
BRANCH   3   5
HETATM    5  C   UNL     1     -11.082   8.985  71.795  1.00  0.00    -0.444 C  
BRANCH   5   6
HETATM    6  C   UNL     1     -10.227   8.322  70.709  1.00  0.00    -0.219 C  
BRANCH   6   7
HETATM    7  C   UNL     1     -10.227   9.111  69.419  1.00  0.00    -0.212 A  
HETATM    8  C   UNL     1      -9.338   8.803  68.384  1.00  0.00    -0.141 A  
HETATM    9  C   UNL     1      -9.302   9.568  67.207  1.00  0.00    -0.161 A  
HETATM   10  C   UNL     1     -10.144  10.667  67.017  1.00  0.00    -0.211 A  
HETATM   11  C   UNL     1     -11.071  10.925  68.043  1.00  0.00    -0.351 A  
HETATM   12  C   UNL     1     -11.115  10.168  69.224  1.00  0.00    -0.270 A  
BRANCH  10  13
HETATM   13  N   UNL     1     -10.082  11.495  65.894  1.00  0.00    -0.222 NA 
BRANCH  13  14
HETATM   14  C   UNL     1      -9.541  12.868  65.964  1.00  0.00    -0.165 C  
HETATM   15 CL   UNL     1      -7.097  11.983  66.888  1.00  0.00    -0.087 Cl 
HETATM   16  C   UNL     1      -8.506  13.064  67.073  1.00  0.00    -0.136 C  
ENDBRANCH  13  14
BRANCH  13  17
HETATM   17  C   UNL     1     -11.061  11.241  64.812  1.00  0.00    -0.130 C  
HETATM   18  C   UNL     1     -10.467  11.251  63.398  1.00  0.00    -0.361 C  
HETATM   19 CL   UNL     1      -9.261   9.962  63.143  1.00  0.00    -0.297 Cl 
ENDBRANCH  13  17
ENDBRANCH  10  13
ENDBRANCH   6   7
ENDBRANCH   5   6
ENDBRANCH   3   5
TORSDOF 6
ENDMDL
MODEL      220
REMARK 921   NORMALIZED FREE ENERGY PREDICTED BY IDOCK:   -2.73 KCAL/MOL
REMARK 922        TOTAL FREE ENERGY PREDICTED BY IDOCK:   -4.42 KCAL/MOL
REMARK 923 INTER-LIGAND FREE ENERGY PREDICTED BY IDOCK:   -4.96 KCAL/MOL
REMARK 924 INTRA-LIGAND FREE ENERGY PREDICTED BY IDOCK:    0.54 KCAL/MOL
REMARK 927      BINDING AFFINITY PREDICTED BY RF-SCORE:    0.00 PKD
ROOT
HETATM    1  O   UNL     1      -9.738  11.565  67.816  1.00  0.00    -0.168 OA 
HETATM    2  C   UNL     1     -11.004  11.385  68.258  1.00  0.00    -0.216 C  
HETATM    3  C   UNL     1     -11.065  11.142  69.750  1.00  0.00    -0.271 C  
HETATM    4  O   UNL     1     -11.966  11.419  67.507  1.00  0.00    -0.626 OA 
ENDROOT
BRANCH   3   5
HETATM    5  C   UNL     1     -12.503  10.924  70.218  1.00  0.00    -0.383 C  
BRANCH   5   6
HETATM    6  C   UNL     1     -12.575  10.194  71.564  1.00  0.00    -0.537 C  
BRANCH   6   7
HETATM    7  C   UNL     1     -11.828   8.879  71.543  1.00  0.00    -0.402 A  
HETATM    8  C   UNL     1     -11.179   8.437  70.386  1.00  0.00    -0.220 A  
HETATM    9  C   UNL     1     -10.529   7.192  70.351  1.00  0.00    -0.234 A  
HETATM   10  C   UNL     1     -10.504   6.343  71.460  1.00  0.00    -0.219 A  
HETATM   11  C   UNL     1     -11.110   6.831  72.632  1.00  0.00    -0.301 A  
HETATM   12  C   UNL     1     -11.764   8.072  72.677  1.00  0.00    -0.418 A  
BRANCH  10  13
HETATM   13  N   UNL     1      -9.934   5.068  71.436  1.00  0.00    -0.185 NA 
BRANCH  13  14
HETATM   14  C   UNL     1      -8.958   4.629  72.454  1.00  0.00    -0.125 C  
HETATM   15 CL   UNL     1      -7.639   7.052  72.401  1.00  0.00    -0.089 Cl 
HETATM   16  C   UNL     1      -7.578   5.271  72.297  1.00  0.00    -0.096 C  
ENDBRANCH  13  14
BRANCH  13  17
HETATM   17  C   UNL     1      -9.844   4.392  70.122  1.00  0.00    -0.217 C  
HETATM   18  C   UNL     1      -9.156   3.021  70.153  1.00  0.00    -0.119 C  
HETATM   19 CL   UNL     1     -10.034   1.828  71.146  1.00  0.00    -0.136 Cl 
ENDBRANCH  13  17
ENDBRANCH  10  13
ENDBRANCH   6   7
ENDBRANCH   5   6
ENDBRANCH   3   5
TORSDOF 6
ENDMDL
MODEL      221
REMARK 921   NORMALIZED FREE ENERGY PREDICTED BY IDOCK:   -2.71 KCAL/MOL
REMARK 922        TOTAL FREE ENERGY PREDICTED BY IDOCK:   -4.39 KCAL/MOL
REMARK 923 INTER-LIGAND FREE ENERGY PREDICTED BY IDOCK:   -3.64 KCAL/MOL
REMARK 924 INTRA-LIGAND FREE ENERGY PREDICTED BY IDOCK:   -0.74 KCAL/MOL
REMARK 927      BINDING AFFINITY PREDICTED BY RF-SCORE:    0.00 PKD
ROOT
HETATM    1  O   UNL     1      -6.208   2.316  67.905  1.00  0.00    -0.024 OA 
HETATM    2  C   UNL     1      -7.530   2.512  67.695  1.00  0.00    -0.056 C  
HETATM    3  C   UNL     1      -7.994   3.875  68.162  1.00  0.00    -0.076 C  
HETATM    4  O   UNL     1      -8.241   1.660  67.185  1.00  0.00    -0.069 OA 
ENDROOT
BRANCH   3   5
HETATM    5  C   UNL     1      -9.493   4.060  67.930  1.00  0.00    -0.225 C  
BRANCH   5   6
HETATM    6  C   UNL     1      -9.802   4.634  66.542  1.00  0.00    -0.241 C  
BRANCH   6   7
HETATM    7  C   UNL     1      -9.707   6.143  66.513  1.00  0.00    -0.184 A  
HETATM    8  C   UNL     1      -8.565   6.785  66.024  1.00  0.00    -0.149 A  
HETATM    9  C   UNL     1      -8.456   8.185  66.045  1.00  0.00    -0.150 A  
HETATM   10  C   UNL     1      -9.474   8.995  66.554  1.00  0.00    -0.206 A  
HETATM   11  C   UNL     1     -10.638   8.335  66.985  1.00  0.00    -0.328 A  
HETATM   12  C   UNL     1     -10.757   6.936  66.971  1.00  0.00    -0.432 A  
BRANCH  10  13
HETATM   13  N   UNL     1      -9.367  10.384  66.661  1.00  0.00    -0.156 NA 
BRANCH  13  14
HETATM   14  C   UNL     1      -9.045  11.234  65.497  1.00  0.00    -0.170 C  
HETATM   15 CL   UNL     1     -11.704  11.800  65.027  1.00  0.00    -0.242 Cl 
HETATM   16  C   UNL     1     -10.126  11.230  64.415  1.00  0.00    -0.303 C  
ENDBRANCH  13  14
BRANCH  13  17
HETATM   17  C   UNL     1      -8.995  10.933  67.984  1.00  0.00    -0.145 C  
HETATM   18  C   UNL     1      -9.447  12.379  68.227  1.00  0.00    -0.203 C  
HETATM   19 CL   UNL     1     -11.221  12.562  68.213  1.00  0.00    -0.281 Cl 
ENDBRANCH  13  17
ENDBRANCH  10  13
ENDBRANCH   6   7
ENDBRANCH   5   6
ENDBRANCH   3   5
TORSDOF 6
ENDMDL
MODEL      222
REMARK 921   NORMALIZED FREE ENERGY PREDICTED BY IDOCK:   -2.71 KCAL/MOL
REMARK 922        TOTAL FREE ENERGY PREDICTED BY IDOCK:   -4.39 KCAL/MOL
REMARK 923 INTER-LIGAND FREE ENERGY PREDICTED BY IDOCK:   -3.85 KCAL/MOL
REMARK 924 INTRA-LIGAND FREE ENERGY PREDICTED BY IDOCK:   -0.54 KCAL/MOL
REMARK 927      BINDING AFFINITY PREDICTED BY RF-SCORE:    0.00 PKD
ROOT
HETATM    1  O   UNL     1      -9.014  16.519  65.470  1.00  0.00    -0.368 OA 
HETATM    2  C   UNL     1      -9.012  15.703  66.549  1.00  0.00    -0.308 C  
HETATM    3  C   UNL     1      -9.488  14.305  66.217  1.00  0.00    -0.277 C  
HETATM    4  O   UNL     1      -8.664  16.087  67.654  1.00  0.00    -0.171 OA 
ENDROOT
BRANCH   3   5
HETATM    5  C   UNL     1      -9.493  13.412  67.457  1.00  0.00    -0.219 C  
BRANCH   5   6
HETATM    6  C   UNL     1      -8.272  12.488  67.517  1.00  0.00    -0.175 C  
BRANCH   6   7
HETATM    7  C   UNL     1      -8.582  11.172  68.194  1.00  0.00    -0.140 A  
HETATM    8  C   UNL     1      -7.998  10.836  69.419  1.00  0.00    -0.075 A  
HETATM    9  C   UNL     1      -8.244   9.592  70.023  1.00  0.00    -0.197 A  
HETATM   10  C   UNL     1      -9.076   8.638  69.431  1.00  0.00    -0.149 A  
HETATM   11  C   UNL     1      -9.701   9.017  68.229  1.00  0.00    -0.169 A  
HETATM   12  C   UNL     1      -9.460  10.257  67.616  1.00  0.00    -0.169 A  
BRANCH  10  13
HETATM   13  N   UNL     1      -9.281   7.364  69.964  1.00  0.00    -0.148 NA 
BRANCH  13  14
HETATM   14  C   UNL     1      -8.763   6.148  69.306  1.00  0.00    -0.122 C  
HETATM   15 CL   UNL     1     -10.940   5.995  67.617  1.00  0.00    -0.382 Cl 
HETATM   16  C   UNL     1      -9.860   5.208  68.802  1.00  0.00    -0.168 C  
ENDBRANCH  13  14
BRANCH  13  17
HETATM   17  C   UNL     1     -10.473   7.175  70.823  1.00  0.00    -0.212 C  
HETATM   18  C   UNL     1     -10.188   6.515  72.178  1.00  0.00    -0.185 C  
HETATM   19 CL   UNL     1      -9.113   7.493  73.212  1.00  0.00    -0.216 Cl 
ENDBRANCH  13  17
ENDBRANCH  10  13
ENDBRANCH   6   7
ENDBRANCH   5   6
ENDBRANCH   3   5
TORSDOF 6
ENDMDL
MODEL      223
REMARK 921   NORMALIZED FREE ENERGY PREDICTED BY IDOCK:   -2.68 KCAL/MOL
REMARK 922        TOTAL FREE ENERGY PREDICTED BY IDOCK:   -4.35 KCAL/MOL
REMARK 923 INTER-LIGAND FREE ENERGY PREDICTED BY IDOCK:   -3.48 KCAL/MOL
REMARK 924 INTRA-LIGAND FREE ENERGY PREDICTED BY IDOCK:   -0.87 KCAL/MOL
REMARK 927      BINDING AFFINITY PREDICTED BY RF-SCORE:    0.00 PKD
ROOT
HETATM    1  O   UNL     1      -7.096   1.927  69.005  1.00  0.00    -0.039 OA 
HETATM    2  C   UNL     1      -8.051   2.490  69.782  1.00  0.00    -0.041 C  
HETATM    3  C   UNL     1      -7.999   4.002  69.755  1.00  0.00    -0.057 C  
HETATM    4  O   UNL     1      -8.846   1.821  70.422  1.00  0.00    -0.057 OA 
ENDROOT
BRANCH   3   5
HETATM    5  C   UNL     1      -9.075   4.610  70.654  1.00  0.00    -0.181 C  
BRANCH   5   6
HETATM    6  C   UNL     1     -10.342   4.985  69.877  1.00  0.00    -0.298 C  
BRANCH   6   7
HETATM    7  C   UNL     1     -10.213   6.322  69.182  1.00  0.00    -0.229 A  
HETATM    8  C   UNL     1     -10.370   6.432  67.797  1.00  0.00    -0.238 A  
HETATM    9  C   UNL     1     -10.199   7.664  67.144  1.00  0.00    -0.360 A  
HETATM   10  C   UNL     1      -9.862   8.827  67.842  1.00  0.00    -0.169 A  
HETATM   11  C   UNL     1      -9.767   8.708  69.240  1.00  0.00    -0.173 A  
HETATM   12  C   UNL     1      -9.935   7.481  69.903  1.00  0.00    -0.189 A  
BRANCH  10  13
HETATM   13  N   UNL     1      -9.609  10.050  67.217  1.00  0.00    -0.153 NA 
BRANCH  13  14
HETATM   14  C   UNL     1      -9.326  11.277  67.988  1.00  0.00    -0.166 C  
HETATM   15 CL   UNL     1     -12.003  11.710  68.502  1.00  0.00    -0.350 Cl 
HETATM   16  C   UNL     1     -10.438  12.326  67.902  1.00  0.00    -0.213 C  
ENDBRANCH  13  14
BRANCH  13  17
HETATM   17  C   UNL     1     -10.188  10.253  65.869  1.00  0.00    -0.223 C  
HETATM   18  C   UNL     1      -9.180  10.690  64.799  1.00  0.00    -0.220 C  
HETATM   19 CL   UNL     1      -7.914   9.468  64.500  1.00  0.00    -0.125 Cl 
ENDBRANCH  13  17
ENDBRANCH  10  13
ENDBRANCH   6   7
ENDBRANCH   5   6
ENDBRANCH   3   5
TORSDOF 6
ENDMDL
MODEL      224
REMARK 921   NORMALIZED FREE ENERGY PREDICTED BY IDOCK:   -2.68 KCAL/MOL
REMARK 922        TOTAL FREE ENERGY PREDICTED BY IDOCK:   -4.35 KCAL/MOL
REMARK 923 INTER-LIGAND FREE ENERGY PREDICTED BY IDOCK:   -3.80 KCAL/MOL
REMARK 924 INTRA-LIGAND FREE ENERGY PREDICTED BY IDOCK:   -0.54 KCAL/MOL
REMARK 927      BINDING AFFINITY PREDICTED BY RF-SCORE:    0.00 PKD
ROOT
HETATM    1  O   UNL     1      -9.926   8.365  72.373  1.00  0.00    -0.279 OA 
HETATM    2  C   UNL     1     -10.110   9.111  71.259  1.00  0.00    -0.318 C  
HETATM    3  C   UNL     1      -9.159   8.730  70.145  1.00  0.00    -0.176 C  
HETATM    4  O   UNL     1     -10.957   9.988  71.196  1.00  0.00    -0.302 OA 
ENDROOT
BRANCH   3   5
HETATM    5  C   UNL     1      -9.378   9.600  68.908  1.00  0.00    -0.151 C  
BRANCH   5   6
HETATM    6  C   UNL     1     -10.533   9.095  68.036  1.00  0.00    -0.276 C  
BRANCH   6   7
HETATM    7  C   UNL     1     -10.174   7.834  67.284  1.00  0.00    -0.343 A  
HETATM    8  C   UNL     1     -11.026   6.725  67.286  1.00  0.00    -0.433 A  
HETATM    9  C   UNL     1     -10.670   5.535  66.631  1.00  0.00    -0.332 A  
HETATM   10  C   UNL     1      -9.454   5.402  65.956  1.00  0.00    -0.146 A  
HETATM   11  C   UNL     1      -8.636   6.546  65.915  1.00  0.00    -0.153 A  
HETATM   12  C   UNL     1      -8.982   7.740  66.567  1.00  0.00    -0.191 A  
BRANCH  10  13
HETATM   13  N   UNL     1      -9.034   4.210  65.361  1.00  0.00    -0.126 NA 
BRANCH  13  14
HETATM   14  C   UNL     1      -7.717   3.611  65.656  1.00  0.00    -0.085 C  
HETATM   15 CL   UNL     1      -8.759   2.022  67.656  1.00  0.00    -0.116 Cl 
HETATM   16  C   UNL     1      -7.539   3.211  67.123  1.00  0.00    -0.074 C  
ENDBRANCH  13  14
BRANCH  13  17
HETATM   17  C   UNL     1      -9.615   3.872  64.042  1.00  0.00    -0.162 C  
HETATM   18  C   UNL     1      -9.088   4.716  62.875  1.00  0.00    -0.101 C  
HETATM   19 CL   UNL     1      -7.339   4.500  62.598  1.00  0.00    -0.039 Cl 
ENDBRANCH  13  17
ENDBRANCH  10  13
ENDBRANCH   6   7
ENDBRANCH   5   6
ENDBRANCH   3   5
TORSDOF 6
ENDMDL
MODEL      225
REMARK 921   NORMALIZED FREE ENERGY PREDICTED BY IDOCK:   -2.68 KCAL/MOL
REMARK 922        TOTAL FREE ENERGY PREDICTED BY IDOCK:   -4.35 KCAL/MOL
REMARK 923 INTER-LIGAND FREE ENERGY PREDICTED BY IDOCK:   -4.24 KCAL/MOL
REMARK 924 INTRA-LIGAND FREE ENERGY PREDICTED BY IDOCK:   -0.11 KCAL/MOL
REMARK 927      BINDING AFFINITY PREDICTED BY RF-SCORE:    0.00 PKD
ROOT
HETATM    1  O   UNL     1      -5.790  13.412  70.117  1.00  0.00    -0.127 OA 
HETATM    2  C   UNL     1      -5.804  12.216  69.485  1.00  0.00    -0.096 C  
HETATM    3  C   UNL     1      -6.209  11.083  70.404  1.00  0.00    -0.106 C  
HETATM    4  O   UNL     1      -5.512  12.100  68.306  1.00  0.00    -0.050 OA 
ENDROOT
BRANCH   3   5
HETATM    5  C   UNL     1      -6.198   9.743  69.669  1.00  0.00    -0.045 C  
BRANCH   5   6
HETATM    6  C   UNL     1      -7.609   9.189  69.444  1.00  0.00    -0.079 C  
BRANCH   6   7
HETATM    7  C   UNL     1      -8.423  10.058  68.511  1.00  0.00    -0.115 A  
HETATM    8  C   UNL     1      -9.488  10.828  68.989  1.00  0.00    -0.179 A  
HETATM    9  C   UNL     1     -10.278  11.594  68.117  1.00  0.00    -0.206 A  
HETATM   10  C   UNL     1     -10.041  11.619  66.740  1.00  0.00    -0.213 A  
HETATM   11  C   UNL     1      -8.930  10.885  66.286  1.00  0.00    -0.188 A  
HETATM   12  C   UNL     1      -8.135  10.115  67.149  1.00  0.00    -0.120 A  
BRANCH  10  13
HETATM   13  N   UNL     1     -10.852  12.307  65.835  1.00  0.00    -0.262 NA 
BRANCH  13  14
HETATM   14  C   UNL     1     -10.367  12.710  64.499  1.00  0.00    -0.344 C  
HETATM   15 CL   UNL     1     -12.710  11.914  63.279  1.00  0.00    -0.609 Cl 
HETATM   16  C   UNL     1     -10.927  11.857  63.359  1.00  0.00    -0.395 C  
ENDBRANCH  13  14
BRANCH  13  17
HETATM   17  C   UNL     1     -11.946  13.131  66.399  1.00  0.00    -0.402 C  
HETATM   18  C   UNL     1     -11.758  14.644  66.234  1.00  0.00    -0.320 C  
HETATM   19 CL   UNL     1     -11.724  15.157  64.525  1.00  0.00    -0.380 Cl 
ENDBRANCH  13  17
ENDBRANCH  10  13
ENDBRANCH   6   7
ENDBRANCH   5   6
ENDBRANCH   3   5
TORSDOF 6
ENDMDL
MODEL      226
REMARK 921   NORMALIZED FREE ENERGY PREDICTED BY IDOCK:   -2.67 KCAL/MOL
REMARK 922        TOTAL FREE ENERGY PREDICTED BY IDOCK:   -4.34 KCAL/MOL
REMARK 923 INTER-LIGAND FREE ENERGY PREDICTED BY IDOCK:   -3.76 KCAL/MOL
REMARK 924 INTRA-LIGAND FREE ENERGY PREDICTED BY IDOCK:   -0.58 KCAL/MOL
REMARK 927      BINDING AFFINITY PREDICTED BY RF-SCORE:    0.00 PKD
ROOT
HETATM    1  O   UNL     1      -8.076   3.159  70.938  1.00  0.00    -0.053 OA 
HETATM    2  C   UNL     1      -8.572   4.177  70.197  1.00  0.00    -0.069 C  
HETATM    3  C   UNL     1      -7.674   5.396  70.218  1.00  0.00    -0.077 C  
HETATM    4  O   UNL     1      -9.630   4.089  69.596  1.00  0.00    -0.182 OA 
ENDROOT
BRANCH   3   5
HETATM    5  C   UNL     1      -8.266   6.535  69.389  1.00  0.00    -0.119 C  
BRANCH   5   6
HETATM    6  C   UNL     1      -8.921   7.612  70.261  1.00  0.00    -0.146 C  
BRANCH   6   7
HETATM    7  C   UNL     1      -9.333   8.826  69.460  1.00  0.00    -0.157 A  
HETATM    8  C   UNL     1      -8.423   9.851  69.184  1.00  0.00    -0.148 A  
HETATM    9  C   UNL     1      -8.818  11.003  68.485  1.00  0.00    -0.159 A  
HETATM   10  C   UNL     1     -10.130  11.179  68.039  1.00  0.00    -0.174 A  
HETATM   11  C   UNL     1     -11.016  10.112  68.273  1.00  0.00    -0.299 A  
HETATM   12  C   UNL     1     -10.632   8.957  68.972  1.00  0.00    -0.203 A  
BRANCH  10  13
HETATM   13  N   UNL     1     -10.576  12.344  67.409  1.00  0.00    -0.214 NA 
BRANCH  13  14
HETATM   14  C   UNL     1     -10.736  13.616  68.142  1.00  0.00    -0.248 C  
HETATM   15 CL   UNL     1      -8.998  14.939  66.456  1.00  0.00    -0.302 Cl 
HETATM   16  C   UNL     1      -9.487  14.500  68.116  1.00  0.00    -0.208 C  
ENDBRANCH  13  14
BRANCH  13  17
HETATM   17  C   UNL     1     -11.427  12.180  66.208  1.00  0.00    -0.374 C  
HETATM   18  C   UNL     1     -10.655  11.922  64.908  1.00  0.00    -0.287 C  
HETATM   19 CL   UNL     1      -9.729  10.398  64.942  1.00  0.00    -0.343 Cl 
ENDBRANCH  13  17
ENDBRANCH  10  13
ENDBRANCH   6   7
ENDBRANCH   5   6
ENDBRANCH   3   5
TORSDOF 6
ENDMDL
MODEL      227
REMARK 921   NORMALIZED FREE ENERGY PREDICTED BY IDOCK:   -2.60 KCAL/MOL
REMARK 922        TOTAL FREE ENERGY PREDICTED BY IDOCK:   -4.24 KCAL/MOL
REMARK 923 INTER-LIGAND FREE ENERGY PREDICTED BY IDOCK:   -3.51 KCAL/MOL
REMARK 924 INTRA-LIGAND FREE ENERGY PREDICTED BY IDOCK:   -0.73 KCAL/MOL
REMARK 927      BINDING AFFINITY PREDICTED BY RF-SCORE:    0.00 PKD
ROOT
HETATM    1  O   UNL     1     -14.050   7.619  71.396  1.00  0.00    -0.399 OA 
HETATM    2  C   UNL     1     -12.737   7.315  71.514  1.00  0.00    -0.384 C  
HETATM    3  C   UNL     1     -11.846   8.335  70.839  1.00  0.00    -0.232 C  
HETATM    4  O   UNL     1     -12.351   6.318  72.103  1.00  0.00    -0.315 OA 
ENDROOT
BRANCH   3   5
HETATM    5  C   UNL     1     -10.371   7.957  70.972  1.00  0.00    -0.221 C  
BRANCH   5   6
HETATM    6  C   UNL     1      -9.966   6.838  70.006  1.00  0.00    -0.189 C  
BRANCH   6   7
HETATM    7  C   UNL     1      -9.320   7.374  68.748  1.00  0.00    -0.144 A  
HETATM    8  C   UNL     1     -10.065   7.567  67.580  1.00  0.00    -0.243 A  
HETATM    9  C   UNL     1      -9.455   8.015  66.397  1.00  0.00    -0.268 A  
HETATM   10  C   UNL     1      -8.085   8.281  66.330  1.00  0.00    -0.105 A  
HETATM   11  C   UNL     1      -7.364   8.138  67.529  1.00  0.00    -0.093 A  
HETATM   12  C   UNL     1      -7.963   7.690  68.717  1.00  0.00    -0.126 A  
BRANCH  10  13
HETATM   13  N   UNL     1      -7.433   8.653  65.152  1.00  0.00    -0.088 NA 
BRANCH  13  14
HETATM   14  C   UNL     1      -6.303   7.874  64.605  1.00  0.00    -0.048 C  
HETATM   15 CL   UNL     1      -7.955   6.439  62.924  1.00  0.00    -0.102 Cl 
HETATM   16  C   UNL     1      -6.685   6.455  64.179  1.00  0.00    -0.038 C  
ENDBRANCH  13  14
BRANCH  13  17
HETATM   17  C   UNL     1      -7.466  10.087  64.785  1.00  0.00    -0.143 C  
HETATM   18  C   UNL     1      -7.625  10.360  63.283  1.00  0.00    -0.077 C  
HETATM   19 CL   UNL     1      -9.169   9.753  62.628  1.00  0.00    -0.298 Cl 
ENDBRANCH  13  17
ENDBRANCH  10  13
ENDBRANCH   6   7
ENDBRANCH   5   6
ENDBRANCH   3   5
TORSDOF 6
ENDMDL
MODEL      228
REMARK 921   NORMALIZED FREE ENERGY PREDICTED BY IDOCK:   -2.55 KCAL/MOL
REMARK 922        TOTAL FREE ENERGY PREDICTED BY IDOCK:   -4.18 KCAL/MOL
REMARK 923 INTER-LIGAND FREE ENERGY PREDICTED BY IDOCK:   -3.92 KCAL/MOL
REMARK 924 INTRA-LIGAND FREE ENERGY PREDICTED BY IDOCK:   -0.25 KCAL/MOL
REMARK 927      BINDING AFFINITY PREDICTED BY RF-SCORE:    0.00 PKD
ROOT
HETATM    1  O   UNL     1      -9.792   7.836  74.041  1.00  0.00    -0.082 OA 
HETATM    2  C   UNL     1     -10.239   6.768  73.341  1.00  0.00    -0.268 C  
HETATM    3  C   UNL     1     -11.006   7.171  72.101  1.00  0.00    -0.274 C  
HETATM    4  O   UNL     1     -10.032   5.621  73.703  1.00  0.00    -0.164 OA 
ENDROOT
BRANCH   3   5
HETATM    5  C   UNL     1     -11.515   5.946  71.341  1.00  0.00    -0.191 C  
BRANCH   5   6
HETATM    6  C   UNL     1     -10.561   5.516  70.221  1.00  0.00    -0.357 C  
BRANCH   6   7
HETATM    7  C   UNL     1     -10.243   6.651  69.273  1.00  0.00    -0.206 A  
HETATM    8  C   UNL     1      -9.320   7.642  69.618  1.00  0.00    -0.156 A  
HETATM    9  C   UNL     1      -9.063   8.724  68.760  1.00  0.00    -0.138 A  
HETATM   10  C   UNL     1      -9.716   8.861  67.533  1.00  0.00    -0.170 A  
HETATM   11  C   UNL     1     -10.597   7.824  67.177  1.00  0.00    -0.401 A  
HETATM   12  C   UNL     1     -10.862   6.739  68.027  1.00  0.00    -0.306 A  
BRANCH  10  13
HETATM   13  N   UNL     1      -9.542   9.963  66.691  1.00  0.00    -0.175 NA 
BRANCH  13  14
HETATM   14  C   UNL     1      -9.610  11.349  67.195  1.00  0.00    -0.179 C  
HETATM   15 CL   UNL     1      -6.892  11.714  66.895  1.00  0.00    -0.144 Cl 
HETATM   16  C   UNL     1      -8.345  11.798  67.929  1.00  0.00    -0.149 C  
ENDBRANCH  13  14
BRANCH  13  17
HETATM   17  C   UNL     1      -9.876   9.779  65.260  1.00  0.00    -0.265 C  
HETATM   18  C   UNL     1      -8.667   9.794  64.315  1.00  0.00    -0.206 C  
HETATM   19 CL   UNL     1      -7.528   8.456  64.626  1.00  0.00    -0.093 Cl 
ENDBRANCH  13  17
ENDBRANCH  10  13
ENDBRANCH   6   7
ENDBRANCH   5   6
ENDBRANCH   3   5
TORSDOF 6
ENDMDL
MODEL      229
REMARK 921   NORMALIZED FREE ENERGY PREDICTED BY IDOCK:   -2.49 KCAL/MOL
REMARK 922        TOTAL FREE ENERGY PREDICTED BY IDOCK:   -4.09 KCAL/MOL
REMARK 923 INTER-LIGAND FREE ENERGY PREDICTED BY IDOCK:   -4.48 KCAL/MOL
REMARK 924 INTRA-LIGAND FREE ENERGY PREDICTED BY IDOCK:    0.39 KCAL/MOL
REMARK 927      BINDING AFFINITY PREDICTED BY RF-SCORE:    0.00 PKD
ROOT
HETATM    1  O   UNL     1     -12.281  15.556  69.869  1.00  0.00    -0.355 OA 
HETATM    2  C   UNL     1     -12.060  14.498  69.056  1.00  0.00    -0.251 C  
HETATM    3  C   UNL     1     -12.217  14.851  67.593  1.00  0.00     0.101 C  
HETATM    4  O   UNL     1     -11.772  13.394  69.490  1.00  0.00    -0.292 OA 
ENDROOT
BRANCH   3   5
HETATM    5  C   UNL     1     -11.980  13.633  66.700  1.00  0.00    -0.458 C  
BRANCH   5   6
HETATM    6  C   UNL     1     -10.500  13.246  66.621  1.00  0.00    -0.279 C  
BRANCH   6   7
HETATM    7  C   UNL     1     -10.301  11.748  66.571  1.00  0.00    -0.258 A  
HETATM    8  C   UNL     1      -9.801  11.125  65.423  1.00  0.00    -0.289 A  
HETATM    9  C   UNL     1      -9.665   9.729  65.356  1.00  0.00    -0.383 A  
HETATM   10  C   UNL     1     -10.025   8.903  66.424  1.00  0.00    -0.284 A  
HETATM   11  C   UNL     1     -10.470   9.551  67.590  1.00  0.00    -0.321 A  
HETATM   12  C   UNL     1     -10.611  10.946  67.667  1.00  0.00    -0.263 A  
BRANCH  10  13
HETATM   13  N   UNL     1      -9.977   7.508  66.364  1.00  0.00    -0.117 NA 
BRANCH  13  14
HETATM   14  C   UNL     1     -10.999   6.662  67.012  1.00  0.00    -0.393 C  
HETATM   15 CL   UNL     1      -9.334   6.073  69.132  1.00  0.00    -0.129 Cl 
HETATM   16  C   UNL     1     -10.413   5.507  67.827  1.00  0.00    -0.180 C  
ENDBRANCH  13  14
BRANCH  13  17
HETATM   17  C   UNL     1      -8.646   6.885  66.180  1.00  0.00    -0.143 C  
HETATM   18  C   UNL     1      -7.460   7.803  66.505  1.00  0.00    -0.088 C  
HETATM   19 CL   UNL     1      -7.422   8.306  68.216  1.00  0.00    -0.095 Cl 
ENDBRANCH  13  17
ENDBRANCH  10  13
ENDBRANCH   6   7
ENDBRANCH   5   6
ENDBRANCH   3   5
TORSDOF 6
ENDMDL
MODEL      230
REMARK 921   NORMALIZED FREE ENERGY PREDICTED BY IDOCK:   -2.48 KCAL/MOL
REMARK 922        TOTAL FREE ENERGY PREDICTED BY IDOCK:   -4.08 KCAL/MOL
REMARK 923 INTER-LIGAND FREE ENERGY PREDICTED BY IDOCK:   -3.33 KCAL/MOL
REMARK 924 INTRA-LIGAND FREE ENERGY PREDICTED BY IDOCK:   -0.75 KCAL/MOL
REMARK 927      BINDING AFFINITY PREDICTED BY RF-SCORE:    0.00 PKD
ROOT
HETATM    1  O   UNL     1      -9.568  16.101  65.331  1.00  0.00    -0.428 OA 
HETATM    2  C   UNL     1      -9.134  15.227  66.268  1.00  0.00    -0.302 C  
HETATM    3  C   UNL     1      -9.805  13.875  66.151  1.00  0.00    -0.316 C  
HETATM    4  O   UNL     1      -8.297  15.530  67.103  1.00  0.00    -0.179 OA 
ENDROOT
BRANCH   3   5
HETATM    5  C   UNL     1      -9.311  12.915  67.232  1.00  0.00    -0.212 C  
BRANCH   5   6
HETATM    6  C   UNL     1      -8.185  12.003  66.733  1.00  0.00    -0.110 C  
BRANCH   6   7
HETATM    7  C   UNL     1      -8.290  10.603  67.294  1.00  0.00    -0.120 A  
HETATM    8  C   UNL     1      -7.883   9.494  66.546  1.00  0.00    -0.101 A  
HETATM    9  C   UNL     1      -8.029   8.189  67.046  1.00  0.00    -0.104 A  
HETATM   10  C   UNL     1      -8.588   7.941  68.302  1.00  0.00    -0.124 A  
HETATM   11  C   UNL     1      -8.937   9.071  69.063  1.00  0.00    -0.140 A  
HETATM   12  C   UNL     1      -8.797  10.379  68.573  1.00  0.00    -0.142 A  
BRANCH  10  13
HETATM   13  N   UNL     1      -8.820   6.655  68.797  1.00  0.00    -0.127 NA 
BRANCH  13  14
HETATM   14  C   UNL     1     -10.176   6.073  68.858  1.00  0.00    -0.196 C  
HETATM   15 CL   UNL     1      -9.946   4.982  66.334  1.00  0.00    -0.217 Cl 
HETATM   16  C   UNL     1     -10.865   5.979  67.495  1.00  0.00    -0.302 C  
ENDBRANCH  13  14
BRANCH  13  17
HETATM   17  C   UNL     1      -7.845   6.122  69.776  1.00  0.00    -0.106 C  
HETATM   18  C   UNL     1      -7.728   4.593  69.796  1.00  0.00    -0.058 C  
HETATM   19 CL   UNL     1      -7.137   3.923  68.251  1.00  0.00    -0.051 Cl 
ENDBRANCH  13  17
ENDBRANCH  10  13
ENDBRANCH   6   7
ENDBRANCH   5   6
ENDBRANCH   3   5
TORSDOF 6
ENDMDL
MODEL      231
REMARK 921   NORMALIZED FREE ENERGY PREDICTED BY IDOCK:   -2.44 KCAL/MOL
REMARK 922        TOTAL FREE ENERGY PREDICTED BY IDOCK:   -4.02 KCAL/MOL
REMARK 923 INTER-LIGAND FREE ENERGY PREDICTED BY IDOCK:   -3.70 KCAL/MOL
REMARK 924 INTRA-LIGAND FREE ENERGY PREDICTED BY IDOCK:   -0.31 KCAL/MOL
REMARK 927      BINDING AFFINITY PREDICTED BY RF-SCORE:    0.00 PKD
ROOT
HETATM    1  O   UNL     1     -12.699   7.531  71.885  1.00  0.00    -0.316 OA 
HETATM    2  C   UNL     1     -11.494   7.178  72.387  1.00  0.00    -0.264 C  
HETATM    3  C   UNL     1     -10.506   8.325  72.375  1.00  0.00    -0.404 C  
HETATM    4  O   UNL     1     -11.263   6.050  72.792  1.00  0.00    -0.260 OA 
ENDROOT
BRANCH   3   5
HETATM    5  C   UNL     1      -9.149   7.893  72.929  1.00  0.00    -0.281 C  
BRANCH   5   6
HETATM    6  C   UNL     1      -8.191   7.423  71.829  1.00  0.00    -0.107 C  
BRANCH   6   7
HETATM    7  C   UNL     1      -8.352   8.216  70.552  1.00  0.00    -0.123 A  
HETATM    8  C   UNL     1      -7.955   9.554  70.479  1.00  0.00    -0.188 A  
HETATM    9  C   UNL     1      -8.152  10.306  69.309  1.00  0.00    -0.156 A  
HETATM   10  C   UNL     1      -8.755   9.758  68.174  1.00  0.00    -0.119 A  
HETATM   11  C   UNL     1      -9.093   8.394  68.246  1.00  0.00    -0.139 A  
HETATM   12  C   UNL     1      -8.902   7.634  69.411  1.00  0.00    -0.139 A  
BRANCH  10  13
HETATM   13  N   UNL     1      -9.036  10.497  67.023  1.00  0.00    -0.143 NA 
BRANCH  13  14
HETATM   14  C   UNL     1      -7.999  11.283  66.326  1.00  0.00    -0.086 C  
HETATM   15 CL   UNL     1      -7.920   9.519  64.206  1.00  0.00    -0.128 Cl 
HETATM   16  C   UNL     1      -7.055  10.435  65.472  1.00  0.00    -0.133 C  
ENDBRANCH  13  14
BRANCH  13  17
HETATM   17  C   UNL     1     -10.430  10.965  66.844  1.00  0.00    -0.249 C  
HETATM   18  C   UNL     1     -10.776  12.250  67.607  1.00  0.00    -0.220 C  
HETATM   19 CL   UNL     1      -9.819  13.655  67.068  1.00  0.00    -0.245 Cl 
ENDBRANCH  13  17
ENDBRANCH  10  13
ENDBRANCH   6   7
ENDBRANCH   5   6
ENDBRANCH   3   5
TORSDOF 6
ENDMDL
MODEL      232
REMARK 921   NORMALIZED FREE ENERGY PREDICTED BY IDOCK:   -2.41 KCAL/MOL
REMARK 922        TOTAL FREE ENERGY PREDICTED BY IDOCK:   -3.98 KCAL/MOL
REMARK 923 INTER-LIGAND FREE ENERGY PREDICTED BY IDOCK:   -3.26 KCAL/MOL
REMARK 924 INTRA-LIGAND FREE ENERGY PREDICTED BY IDOCK:   -0.73 KCAL/MOL
REMARK 927      BINDING AFFINITY PREDICTED BY RF-SCORE:    0.00 PKD
ROOT
HETATM    1  O   UNL     1     -10.591   6.019  74.260  1.00  0.00    -0.241 OA 
HETATM    2  C   UNL     1      -9.460   6.030  73.518  1.00  0.00    -0.139 C  
HETATM    3  C   UNL     1      -9.610   5.256  72.226  1.00  0.00    -0.180 C  
HETATM    4  O   UNL     1      -8.449   6.608  73.883  1.00  0.00    -0.119 OA 
ENDROOT
BRANCH   3   5
HETATM    5  C   UNL     1      -8.313   5.270  71.418  1.00  0.00    -0.121 C  
BRANCH   5   6
HETATM    6  C   UNL     1      -8.567   5.302  69.907  1.00  0.00    -0.106 C  
BRANCH   6   7
HETATM    7  C   UNL     1      -8.935   6.684  69.417  1.00  0.00    -0.133 A  
HETATM    8  C   UNL     1      -9.822   6.859  68.350  1.00  0.00    -0.143 A  
HETATM    9  C   UNL     1     -10.124   8.140  67.860  1.00  0.00    -0.246 A  
HETATM   10  C   UNL     1      -9.553   9.291  68.409  1.00  0.00    -0.147 A  
HETATM   11  C   UNL     1      -8.710   9.100  69.519  1.00  0.00    -0.140 A  
HETATM   12  C   UNL     1      -8.401   7.823  70.015  1.00  0.00    -0.130 A  
BRANCH  10  13
HETATM   13  N   UNL     1      -9.770  10.573  67.899  1.00  0.00    -0.152 NA 
BRANCH  13  14
HETATM   14  C   UNL     1     -11.093  11.002  67.400  1.00  0.00    -0.305 C  
HETATM   15 CL   UNL     1     -11.148  13.188  69.083  1.00  0.00    -0.274 Cl 
HETATM   16  C   UNL     1     -11.942  11.719  68.451  1.00  0.00    -0.183 C  
ENDBRANCH  13  14
BRANCH  13  17
HETATM   17  C   UNL     1      -8.603  11.277  67.319  1.00  0.00    -0.143 C  
HETATM   18  C   UNL     1      -7.927  10.542  66.155  1.00  0.00    -0.147 C  
HETATM   19 CL   UNL     1      -9.001  10.342  64.745  1.00  0.00    -0.209 Cl 
ENDBRANCH  13  17
ENDBRANCH  10  13
ENDBRANCH   6   7
ENDBRANCH   5   6
ENDBRANCH   3   5
TORSDOF 6
ENDMDL
MODEL      233
REMARK 921   NORMALIZED FREE ENERGY PREDICTED BY IDOCK:   -2.40 KCAL/MOL
REMARK 922        TOTAL FREE ENERGY PREDICTED BY IDOCK:   -3.97 KCAL/MOL
REMARK 923 INTER-LIGAND FREE ENERGY PREDICTED BY IDOCK:   -3.84 KCAL/MOL
REMARK 924 INTRA-LIGAND FREE ENERGY PREDICTED BY IDOCK:   -0.14 KCAL/MOL
REMARK 927      BINDING AFFINITY PREDICTED BY RF-SCORE:    0.00 PKD
ROOT
HETATM    1  O   UNL     1     -10.428   7.434  74.101  1.00  0.00    -0.201 OA 
HETATM    2  C   UNL     1     -10.859   6.576  73.148  1.00  0.00    -0.257 C  
HETATM    3  C   UNL     1     -11.015   7.243  71.798  1.00  0.00    -0.256 C  
HETATM    4  O   UNL     1     -11.089   5.401  73.387  1.00  0.00    -0.297 OA 
ENDROOT
BRANCH   3   5
HETATM    5  C   UNL     1     -11.520   6.255  70.747  1.00  0.00    -0.383 C  
BRANCH   5   6
HETATM    6  C   UNL     1     -10.378   5.629  69.939  1.00  0.00    -0.347 C  
BRANCH   6   7
HETATM    7  C   UNL     1      -9.875   6.550  68.850  1.00  0.00    -0.142 A  
HETATM    8  C   UNL     1      -8.685   7.269  69.006  1.00  0.00    -0.132 A  
HETATM    9  C   UNL     1      -8.244   8.164  68.018  1.00  0.00    -0.129 A  
HETATM   10  C   UNL     1      -8.970   8.380  66.843  1.00  0.00    -0.145 A  
HETATM   11  C   UNL     1     -10.132   7.604  66.678  1.00  0.00    -0.278 A  
HETATM   12  C   UNL     1     -10.582   6.708  67.660  1.00  0.00    -0.325 A  
BRANCH  10  13
HETATM   13  N   UNL     1      -8.602   9.318  65.876  1.00  0.00    -0.141 NA 
BRANCH  13  14
HETATM   14  C   UNL     1      -7.206   9.458  65.415  1.00  0.00    -0.092 C  
HETATM   15 CL   UNL     1      -7.011   6.773  64.815  1.00  0.00    -0.053 Cl 
HETATM   16  C   UNL     1      -6.354   8.209  65.648  1.00  0.00    -0.048 C  
ENDBRANCH  13  14
BRANCH  13  17
HETATM   17  C   UNL     1      -9.448  10.527  65.750  1.00  0.00    -0.201 C  
HETATM   18  C   UNL     1      -9.234  11.325  64.458  1.00  0.00    -0.056 C  
HETATM   19 CL   UNL     1      -9.657  10.399  62.993  1.00  0.00    -0.353 Cl 
ENDBRANCH  13  17
ENDBRANCH  10  13
ENDBRANCH   6   7
ENDBRANCH   5   6
ENDBRANCH   3   5
TORSDOF 6
ENDMDL
MODEL      234
REMARK 921   NORMALIZED FREE ENERGY PREDICTED BY IDOCK:   -2.38 KCAL/MOL
REMARK 922        TOTAL FREE ENERGY PREDICTED BY IDOCK:   -3.94 KCAL/MOL
REMARK 923 INTER-LIGAND FREE ENERGY PREDICTED BY IDOCK:   -3.15 KCAL/MOL
REMARK 924 INTRA-LIGAND FREE ENERGY PREDICTED BY IDOCK:   -0.80 KCAL/MOL
REMARK 927      BINDING AFFINITY PREDICTED BY RF-SCORE:    0.00 PKD
ROOT
HETATM    1  O   UNL     1     -10.398   7.244  74.000  1.00  0.00    -0.308 OA 
HETATM    2  C   UNL     1     -10.022   5.958  73.810  1.00  0.00    -0.203 C  
HETATM    3  C   UNL     1     -10.679   5.339  72.595  1.00  0.00    -0.290 C  
HETATM    4  O   UNL     1      -9.241   5.391  74.558  1.00  0.00    -0.119 OA 
ENDROOT
BRANCH   3   5
HETATM    5  C   UNL     1     -10.252   3.882  72.416  1.00  0.00    -0.227 C  
BRANCH   5   6
HETATM    6  C   UNL     1      -8.993   3.745  71.553  1.00  0.00    -0.158 C  
BRANCH   6   7
HETATM    7  C   UNL     1      -8.999   4.695  70.376  1.00  0.00    -0.147 A  
HETATM    8  C   UNL     1      -9.824   4.469  69.271  1.00  0.00    -0.241 A  
HETATM    9  C   UNL     1      -9.793   5.321  68.155  1.00  0.00    -0.198 A  
HETATM   10  C   UNL     1      -8.937   6.425  68.096  1.00  0.00    -0.116 A  
HETATM   11  C   UNL     1      -8.158   6.670  69.241  1.00  0.00    -0.116 A  
HETATM   12  C   UNL     1      -8.181   5.824  70.361  1.00  0.00    -0.107 A  
BRANCH  10  13
HETATM   13  N   UNL     1      -8.824   7.248  66.974  1.00  0.00    -0.125 NA 
BRANCH  13  14
HETATM   14  C   UNL     1      -8.639   6.697  65.616  1.00  0.00    -0.123 C  
HETATM   15 CL   UNL     1      -6.069   5.865  66.179  1.00  0.00    -0.031 Cl 
HETATM   16  C   UNL     1      -7.193   6.761  65.120  1.00  0.00    -0.074 C  
ENDBRANCH  13  14
BRANCH  13  17
HETATM   17  C   UNL     1      -8.307   8.619  67.189  1.00  0.00    -0.107 C  
HETATM   18  C   UNL     1      -9.295   9.738  66.838  1.00  0.00    -0.149 C  
HETATM   19 CL   UNL     1     -10.763   9.711  67.851  1.00  0.00    -0.309 Cl 
ENDBRANCH  13  17
ENDBRANCH  10  13
ENDBRANCH   6   7
ENDBRANCH   5   6
ENDBRANCH   3   5
TORSDOF 6
ENDMDL
MODEL      235
REMARK 921   NORMALIZED FREE ENERGY PREDICTED BY IDOCK:   -2.37 KCAL/MOL
REMARK 922        TOTAL FREE ENERGY PREDICTED BY IDOCK:   -3.93 KCAL/MOL
REMARK 923 INTER-LIGAND FREE ENERGY PREDICTED BY IDOCK:   -3.03 KCAL/MOL
REMARK 924 INTRA-LIGAND FREE ENERGY PREDICTED BY IDOCK:   -0.90 KCAL/MOL
REMARK 927      BINDING AFFINITY PREDICTED BY RF-SCORE:    0.00 PKD
ROOT
HETATM    1  O   UNL     1     -10.697   7.124  73.849  1.00  0.00    -0.314 OA 
HETATM    2  C   UNL     1      -9.521   6.459  73.772  1.00  0.00    -0.157 C  
HETATM    3  C   UNL     1      -9.703   4.957  73.825  1.00  0.00    -0.149 C  
HETATM    4  O   UNL     1      -8.451   7.038  73.675  1.00  0.00    -0.118 OA 
ENDROOT
BRANCH   3   5
HETATM    5  C   UNL     1      -8.360   4.233  73.755  1.00  0.00    -0.093 C  
BRANCH   5   6
HETATM    6  C   UNL     1      -8.342   3.139  72.681  1.00  0.00    -0.076 C  
BRANCH   6   7
HETATM    7  C   UNL     1      -8.440   3.706  71.283  1.00  0.00    -0.093 A  
HETATM    8  C   UNL     1      -7.600   4.742  70.864  1.00  0.00    -0.069 A  
HETATM    9  C   UNL     1      -7.725   5.305  69.584  1.00  0.00    -0.073 A  
HETATM   10  C   UNL     1      -8.692   4.862  68.677  1.00  0.00    -0.093 A  
HETATM   11  C   UNL     1      -9.488   3.780  69.094  1.00  0.00    -0.242 A  
HETATM   12  C   UNL     1      -9.371   3.211  70.372  1.00  0.00    -0.232 A  
BRANCH  10  13
HETATM   13  N   UNL     1      -8.895   5.449  67.426  1.00  0.00    -0.107 NA 
BRANCH  13  14
HETATM   14  C   UNL     1     -10.234   5.523  66.806  1.00  0.00    -0.233 C  
HETATM   15 CL   UNL     1     -10.062   8.258  66.486  1.00  0.00    -0.339 Cl 
HETATM   16  C   UNL     1     -10.966   6.838  67.081  1.00  0.00    -0.388 C  
ENDBRANCH  13  14
BRANCH  13  17
HETATM   17  C   UNL     1      -7.748   5.459  66.489  1.00  0.00    -0.099 C  
HETATM   18  C   UNL     1      -7.121   4.083  66.231  1.00  0.00    -0.064 C  
HETATM   19 CL   UNL     1      -8.251   2.941  65.455  1.00  0.00    -0.090 Cl 
ENDBRANCH  13  17
ENDBRANCH  10  13
ENDBRANCH   6   7
ENDBRANCH   5   6
ENDBRANCH   3   5
TORSDOF 6
ENDMDL
MODEL      236
REMARK 921   NORMALIZED FREE ENERGY PREDICTED BY IDOCK:   -2.37 KCAL/MOL
REMARK 922        TOTAL FREE ENERGY PREDICTED BY IDOCK:   -3.93 KCAL/MOL
REMARK 923 INTER-LIGAND FREE ENERGY PREDICTED BY IDOCK:   -4.43 KCAL/MOL
REMARK 924 INTRA-LIGAND FREE ENERGY PREDICTED BY IDOCK:    0.50 KCAL/MOL
REMARK 927      BINDING AFFINITY PREDICTED BY RF-SCORE:    0.00 PKD
ROOT
HETATM    1  O   UNL     1      -8.925   4.163  67.148  1.00  0.00    -0.114 OA 
HETATM    2  C   UNL     1      -9.029   5.415  67.648  1.00  0.00    -0.108 C  
HETATM    3  C   UNL     1      -9.600   6.393  66.644  1.00  0.00    -0.194 C  
HETATM    4  O   UNL     1      -8.685   5.691  68.787  1.00  0.00    -0.107 OA 
ENDROOT
BRANCH   3   5
HETATM    5  C   UNL     1      -9.688   7.801  67.230  1.00  0.00    -0.224 C  
BRANCH   5   6
HETATM    6  C   UNL     1      -8.682   8.764  66.589  1.00  0.00    -0.138 C  
BRANCH   6   7
HETATM    7  C   UNL     1      -9.186  10.190  66.571  1.00  0.00    -0.182 A  
HETATM    8  C   UNL     1     -10.397  10.520  65.956  1.00  0.00    -0.279 A  
HETATM    9  C   UNL     1     -10.840  11.851  65.894  1.00  0.00    -0.342 A  
HETATM   10  C   UNL     1     -10.093  12.901  66.436  1.00  0.00    -0.269 A  
HETATM   11  C   UNL     1      -8.907  12.543  67.102  1.00  0.00    -0.202 A  
HETATM   12  C   UNL     1      -8.455  11.216  67.168  1.00  0.00    -0.137 A  
BRANCH  10  13
HETATM   13  N   UNL     1     -10.465  14.243  66.324  1.00  0.00    -0.285 NA 
BRANCH  13  14
HETATM   14  C   UNL     1      -9.485  15.301  66.007  1.00  0.00    -0.337 C  
HETATM   15 CL   UNL     1     -10.672  17.083  67.747  1.00  0.00    -0.342 Cl 
HETATM   16  C   UNL     1     -10.055  16.718  66.112  1.00  0.00    -0.345 C  
ENDBRANCH  13  14
BRANCH  13  17
HETATM   17  C   UNL     1     -11.663  14.678  67.078  1.00  0.00    -0.362 C  
HETATM   18  C   UNL     1     -11.840  14.001  68.443  1.00  0.00    -0.362 C  
HETATM   19 CL   UNL     1     -10.511  14.367  69.576  1.00  0.00    -0.101 Cl 
ENDBRANCH  13  17
ENDBRANCH  10  13
ENDBRANCH   6   7
ENDBRANCH   5   6
ENDBRANCH   3   5
TORSDOF 6
ENDMDL
MODEL      237
REMARK 921   NORMALIZED FREE ENERGY PREDICTED BY IDOCK:   -2.32 KCAL/MOL
REMARK 922        TOTAL FREE ENERGY PREDICTED BY IDOCK:   -3.87 KCAL/MOL
REMARK 923 INTER-LIGAND FREE ENERGY PREDICTED BY IDOCK:   -3.13 KCAL/MOL
REMARK 924 INTRA-LIGAND FREE ENERGY PREDICTED BY IDOCK:   -0.73 KCAL/MOL
REMARK 927      BINDING AFFINITY PREDICTED BY RF-SCORE:    0.00 PKD
ROOT
HETATM    1  O   UNL     1     -10.780   7.410  73.874  1.00  0.00    -0.319 OA 
HETATM    2  C   UNL     1      -9.984   6.386  73.490  1.00  0.00    -0.204 C  
HETATM    3  C   UNL     1     -10.774   5.160  73.086  1.00  0.00    -0.318 C  
HETATM    4  O   UNL     1      -8.766   6.475  73.485  1.00  0.00    -0.123 OA 
ENDROOT
BRANCH   3   5
HETATM    5  C   UNL     1      -9.849   4.015  72.675  1.00  0.00    -0.208 C  
BRANCH   5   6
HETATM    6  C   UNL     1      -9.885   3.748  71.166  1.00  0.00    -0.213 C  
BRANCH   6   7
HETATM    7  C   UNL     1      -9.382   4.927  70.364  1.00  0.00    -0.213 A  
HETATM    8  C   UNL     1      -8.066   5.382  70.498  1.00  0.00    -0.106 A  
HETATM    9  C   UNL     1      -7.613   6.508  69.793  1.00  0.00    -0.097 A  
HETATM   10  C   UNL     1      -8.450   7.225  68.933  1.00  0.00    -0.126 A  
HETATM   11  C   UNL     1      -9.752   6.717  68.766  1.00  0.00    -0.132 A  
HETATM   12  C   UNL     1     -10.215   5.593  69.467  1.00  0.00    -0.320 A  
BRANCH  10  13
HETATM   13  N   UNL     1      -8.056   8.393  68.276  1.00  0.00    -0.118 NA 
BRANCH  13  14
HETATM   14  C   UNL     1      -8.993   9.509  68.037  1.00  0.00    -0.123 C  
HETATM   15 CL   UNL     1      -7.174  11.381  68.931  1.00  0.00    -0.107 Cl 
HETATM   16  C   UNL     1      -8.814  10.679  69.006  1.00  0.00    -0.148 C  
ENDBRANCH  13  14
BRANCH  13  17
HETATM   17  C   UNL     1      -6.925   8.285  67.327  1.00  0.00    -0.075 C  
HETATM   18  C   UNL     1      -7.143   7.287  66.182  1.00  0.00    -0.070 C  
HETATM   19 CL   UNL     1      -8.504   7.738  65.120  1.00  0.00    -0.114 Cl 
ENDBRANCH  13  17
ENDBRANCH  10  13
ENDBRANCH   6   7
ENDBRANCH   5   6
ENDBRANCH   3   5
TORSDOF 6
ENDMDL
MODEL      238
REMARK 921   NORMALIZED FREE ENERGY PREDICTED BY IDOCK:   -2.29 KCAL/MOL
REMARK 922        TOTAL FREE ENERGY PREDICTED BY IDOCK:   -3.82 KCAL/MOL
REMARK 923 INTER-LIGAND FREE ENERGY PREDICTED BY IDOCK:   -3.18 KCAL/MOL
REMARK 924 INTRA-LIGAND FREE ENERGY PREDICTED BY IDOCK:   -0.64 KCAL/MOL
REMARK 927      BINDING AFFINITY PREDICTED BY RF-SCORE:    0.00 PKD
ROOT
HETATM    1  O   UNL     1     -14.271   9.665  72.887  1.00  0.00    -0.177 OA 
HETATM    2  C   UNL     1     -13.695   8.801  72.020  1.00  0.00    -0.443 C  
HETATM    3  C   UNL     1     -12.255   8.500  72.377  1.00  0.00    -0.432 C  
HETATM    4  O   UNL     1     -14.297   8.339  71.064  1.00  0.00    -0.202 OA 
ENDROOT
BRANCH   3   5
HETATM    5  C   UNL     1     -11.624   7.538  71.372  1.00  0.00    -0.302 C  
BRANCH   5   6
HETATM    6  C   UNL     1     -10.152   7.865  71.096  1.00  0.00    -0.210 C  
BRANCH   6   7
HETATM    7  C   UNL     1      -9.610   7.107  69.905  1.00  0.00    -0.163 A  
HETATM    8  C   UNL     1      -9.832   5.733  69.762  1.00  0.00    -0.232 A  
HETATM    9  C   UNL     1      -9.286   5.019  68.684  1.00  0.00    -0.158 A  
HETATM   10  C   UNL     1      -8.497   5.641  67.713  1.00  0.00    -0.102 A  
HETATM   11  C   UNL     1      -8.334   7.032  67.841  1.00  0.00    -0.118 A  
HETATM   12  C   UNL     1      -8.875   7.756  68.915  1.00  0.00    -0.135 A  
BRANCH  10  13
HETATM   13  N   UNL     1      -7.874   4.948  66.672  1.00  0.00    -0.099 NA 
BRANCH  13  14
HETATM   14  C   UNL     1      -6.547   5.340  66.157  1.00  0.00    -0.048 C  
HETATM   15 CL   UNL     1      -5.407   2.954  66.947  1.00  0.00    -0.012 Cl 
HETATM   16  C   UNL     1      -5.381   4.740  66.945  1.00  0.00    -0.012 C  
ENDBRANCH  13  14
BRANCH  13  17
HETATM   17  C   UNL     1      -8.751   4.231  65.718  1.00  0.00    -0.119 C  
HETATM   18  C   UNL     1      -8.468   2.728  65.594  1.00  0.00    -0.101 C  
HETATM   19 CL   UNL     1      -8.743   1.843  67.118  1.00  0.00    -0.119 Cl 
ENDBRANCH  13  17
ENDBRANCH  10  13
ENDBRANCH   6   7
ENDBRANCH   5   6
ENDBRANCH   3   5
TORSDOF 6
ENDMDL
MODEL      239
REMARK 921   NORMALIZED FREE ENERGY PREDICTED BY IDOCK:   -2.26 KCAL/MOL
REMARK 922        TOTAL FREE ENERGY PREDICTED BY IDOCK:   -3.77 KCAL/MOL
REMARK 923 INTER-LIGAND FREE ENERGY PREDICTED BY IDOCK:   -3.28 KCAL/MOL
REMARK 924 INTRA-LIGAND FREE ENERGY PREDICTED BY IDOCK:   -0.50 KCAL/MOL
REMARK 927      BINDING AFFINITY PREDICTED BY RF-SCORE:    0.00 PKD
ROOT
HETATM    1  O   UNL     1     -14.271   9.665  72.887  1.00  0.00    -0.177 OA 
HETATM    2  C   UNL     1     -13.688   8.797  72.029  1.00  0.00    -0.443 C  
HETATM    3  C   UNL     1     -12.251   8.499  72.398  1.00  0.00    -0.432 C  
HETATM    4  O   UNL     1     -14.283   8.330  71.071  1.00  0.00    -0.166 OA 
ENDROOT
BRANCH   3   5
HETATM    5  C   UNL     1     -11.612   7.532  71.402  1.00  0.00    -0.302 C  
BRANCH   5   6
HETATM    6  C   UNL     1     -10.138   7.858  71.135  1.00  0.00    -0.210 C  
BRANCH   6   7
HETATM    7  C   UNL     1      -9.587   7.094  69.952  1.00  0.00    -0.163 A  
HETATM    8  C   UNL     1      -9.807   5.720  69.815  1.00  0.00    -0.232 A  
HETATM    9  C   UNL     1      -9.252   5.000  68.745  1.00  0.00    -0.160 A  
HETATM   10  C   UNL     1      -8.457   5.618  67.776  1.00  0.00    -0.102 A  
HETATM   11  C   UNL     1      -8.296   7.010  67.898  1.00  0.00    -0.118 A  
HETATM   12  C   UNL     1      -8.845   7.739  68.964  1.00  0.00    -0.138 A  
BRANCH  10  13
HETATM   13  N   UNL     1      -7.826   4.920  66.743  1.00  0.00    -0.099 NA 
BRANCH  13  14
HETATM   14  C   UNL     1      -8.152   3.512  66.439  1.00  0.00    -0.096 C  
HETATM   15 CL   UNL     1      -9.109   4.154  63.932  1.00  0.00    -0.136 Cl 
HETATM   16  C   UNL     1      -9.354   3.348  65.506  1.00  0.00    -0.150 C  
ENDBRANCH  13  14
BRANCH  13  17
HETATM   17  C   UNL     1      -6.468   5.366  66.356  1.00  0.00    -0.044 C  
HETATM   18  C   UNL     1      -6.272   5.586  64.851  1.00  0.00    -0.029 C  
HETATM   19 CL   UNL     1      -7.310   6.883  64.199  1.00  0.00    -0.079 Cl 
ENDBRANCH  13  17
ENDBRANCH  10  13
ENDBRANCH   6   7
ENDBRANCH   5   6
ENDBRANCH   3   5
TORSDOF 6
ENDMDL
MODEL      240
REMARK 921   NORMALIZED FREE ENERGY PREDICTED BY IDOCK:   -2.25 KCAL/MOL
REMARK 922        TOTAL FREE ENERGY PREDICTED BY IDOCK:   -3.77 KCAL/MOL
REMARK 923 INTER-LIGAND FREE ENERGY PREDICTED BY IDOCK:   -3.85 KCAL/MOL
REMARK 924 INTRA-LIGAND FREE ENERGY PREDICTED BY IDOCK:    0.08 KCAL/MOL
REMARK 927      BINDING AFFINITY PREDICTED BY RF-SCORE:    0.00 PKD
ROOT
HETATM    1  O   UNL     1     -11.180  14.850  65.965  1.00  0.00    -0.337 OA 
HETATM    2  C   UNL     1     -11.664  13.589  65.893  1.00  0.00    -0.352 C  
HETATM    3  C   UNL     1     -10.999  12.658  66.884  1.00  0.00    -0.297 C  
HETATM    4  O   UNL     1     -12.538  13.272  65.102  1.00  0.00    -0.504 OA 
ENDROOT
BRANCH   3   5
HETATM    5  C   UNL     1     -11.552  11.238  66.767  1.00  0.00     0.057 C  
BRANCH   5   6
HETATM    6  C   UNL     1     -11.310  10.412  68.035  1.00  0.00    -0.277 C  
BRANCH   6   7
HETATM    7  C   UNL     1     -10.303   9.305  67.814  1.00  0.00    -0.292 A  
HETATM    8  C   UNL     1     -10.626   8.178  67.053  1.00  0.00    -0.346 A  
HETATM    9  C   UNL     1      -9.710   7.126  66.891  1.00  0.00    -0.242 A  
HETATM   10  C   UNL     1      -8.444   7.155  67.482  1.00  0.00    -0.123 A  
HETATM   11  C   UNL     1      -8.115   8.322  68.194  1.00  0.00    -0.124 A  
HETATM   12  C   UNL     1      -9.024   9.379  68.364  1.00  0.00    -0.128 A  
BRANCH  10  13
HETATM   13  N   UNL     1      -7.538   6.094  67.406  1.00  0.00    -0.089 NA 
BRANCH  13  14
HETATM   14  C   UNL     1      -7.330   5.332  66.158  1.00  0.00    -0.081 C  
HETATM   15 CL   UNL     1      -9.354   3.559  66.767  1.00  0.00    -0.204 Cl 
HETATM   16  C   UNL     1      -7.658   3.843  66.286  1.00  0.00    -0.088 C  
ENDBRANCH  13  14
BRANCH  13  17
HETATM   17  C   UNL     1      -7.238   5.369  68.662  1.00  0.00    -0.066 C  
HETATM   18  C   UNL     1      -8.237   5.621  69.799  1.00  0.00    -0.106 C  
HETATM   19 CL   UNL     1      -9.886   5.063  69.409  1.00  0.00    -0.255 Cl 
ENDBRANCH  13  17
ENDBRANCH  10  13
ENDBRANCH   6   7
ENDBRANCH   5   6
ENDBRANCH   3   5
TORSDOF 6
ENDMDL
MODEL      241
REMARK 921   NORMALIZED FREE ENERGY PREDICTED BY IDOCK:   -2.24 KCAL/MOL
REMARK 922        TOTAL FREE ENERGY PREDICTED BY IDOCK:   -3.76 KCAL/MOL
REMARK 923 INTER-LIGAND FREE ENERGY PREDICTED BY IDOCK:   -4.19 KCAL/MOL
REMARK 924 INTRA-LIGAND FREE ENERGY PREDICTED BY IDOCK:    0.44 KCAL/MOL
REMARK 927      BINDING AFFINITY PREDICTED BY RF-SCORE:    0.00 PKD
ROOT
HETATM    1  O   UNL     1     -12.832  10.777  71.848  1.00  0.00    -0.436 OA 
HETATM    2  C   UNL     1     -12.251  10.647  70.633  1.00  0.00    -0.365 C  
HETATM    3  C   UNL     1     -12.250  11.943  69.852  1.00  0.00    -0.269 C  
HETATM    4  O   UNL     1     -11.793   9.585  70.241  1.00  0.00    -0.189 OA 
ENDROOT
BRANCH   3   5
HETATM    5  C   UNL     1     -11.606  11.762  68.478  1.00  0.00    -0.380 C  
BRANCH   5   6
HETATM    6  C   UNL     1     -10.075  11.746  68.549  1.00  0.00    -0.212 C  
BRANCH   6   7
HETATM    7  C   UNL     1      -9.475  13.110  68.292  1.00  0.00    -0.210 A  
HETATM    8  C   UNL     1      -8.530  13.304  67.279  1.00  0.00    -0.203 A  
HETATM    9  C   UNL     1      -7.934  14.558  67.074  1.00  0.00    -0.074 A  
HETATM   10  C   UNL     1      -8.251  15.663  67.869  1.00  0.00    -0.148 A  
HETATM   11  C   UNL     1      -9.246  15.464  68.843  1.00  0.00    -0.216 A  
HETATM   12  C   UNL     1      -9.847  14.213  69.057  1.00  0.00    -0.034 A  
BRANCH  10  13
HETATM   13  N   UNL     1      -7.622  16.904  67.744  1.00  0.00    -0.166 NA 
BRANCH  13  14
HETATM   14  C   UNL     1      -7.174  17.676  68.921  1.00  0.00    -0.256 C  
HETATM   15 CL   UNL     1      -9.338  19.381  68.770  1.00  0.00    -0.438 Cl 
HETATM   16  C   UNL     1      -7.570  19.153  68.873  1.00  0.00    -0.336 C  
ENDBRANCH  13  14
BRANCH  13  17
HETATM   17  C   UNL     1      -7.926  17.696  66.530  1.00  0.00    -0.267 C  
HETATM   18  C   UNL     1      -9.180  17.246  65.770  1.00  0.00     0.180 C  
HETATM   19 CL   UNL     1     -10.673  17.417  66.732  1.00  0.00    -0.176 Cl 
ENDBRANCH  13  17
ENDBRANCH  10  13
ENDBRANCH   6   7
ENDBRANCH   5   6
ENDBRANCH   3   5
TORSDOF 6
ENDMDL
MODEL      242
REMARK 921   NORMALIZED FREE ENERGY PREDICTED BY IDOCK:   -2.22 KCAL/MOL
REMARK 922        TOTAL FREE ENERGY PREDICTED BY IDOCK:   -3.72 KCAL/MOL
REMARK 923 INTER-LIGAND FREE ENERGY PREDICTED BY IDOCK:   -3.60 KCAL/MOL
REMARK 924 INTRA-LIGAND FREE ENERGY PREDICTED BY IDOCK:   -0.12 KCAL/MOL
REMARK 927      BINDING AFFINITY PREDICTED BY RF-SCORE:    0.00 PKD
ROOT
HETATM    1  O   UNL     1      -5.559  14.065  70.419  1.00  0.00    -0.111 OA 
HETATM    2  C   UNL     1      -5.450  12.868  69.796  1.00  0.00    -0.095 C  
HETATM    3  C   UNL     1      -5.767  11.709  70.716  1.00  0.00    -0.077 C  
HETATM    4  O   UNL     1      -5.126  12.772  68.623  1.00  0.00    -0.056 OA 
ENDROOT
BRANCH   3   5
HETATM    5  C   UNL     1      -5.618  10.371  69.992  1.00  0.00    -0.051 C  
BRANCH   5   6
HETATM    6  C   UNL     1      -6.957   9.642  69.831  1.00  0.00    -0.081 C  
BRANCH   6   7
HETATM    7  C   UNL     1      -7.837  10.285  68.782  1.00  0.00    -0.106 A  
HETATM    8  C   UNL     1      -7.635  10.036  67.421  1.00  0.00    -0.091 A  
HETATM    9  C   UNL     1      -8.417  10.673  66.444  1.00  0.00    -0.152 A  
HETATM   10  C   UNL     1      -9.424  11.581  66.784  1.00  0.00    -0.189 A  
HETATM   11  C   UNL     1      -9.651  11.773  68.158  1.00  0.00    -0.193 A  
HETATM   12  C   UNL     1      -8.874  11.143  69.143  1.00  0.00     0.058 A  
BRANCH  10  13
HETATM   13  N   UNL     1     -10.168  12.290  65.838  1.00  0.00    -0.244 NA 
BRANCH  13  14
HETATM   14  C   UNL     1     -11.474  12.895  66.165  1.00  0.00    -0.348 C  
HETATM   15 CL   UNL     1     -10.860  15.228  64.827  1.00  0.00    -0.419 Cl 
HETATM   16  C   UNL     1     -11.426  14.417  66.314  1.00  0.00    -0.359 C  
ENDBRANCH  13  14
BRANCH  13  17
HETATM   17  C   UNL     1      -9.956  11.943  64.414  1.00  0.00    -0.234 C  
HETATM   18  C   UNL     1     -11.139  11.228  63.747  1.00  0.00    -0.231 C  
HETATM   19 CL   UNL     1     -12.612  12.232  63.690  1.00  0.00    -0.620 Cl 
ENDBRANCH  13  17
ENDBRANCH  10  13
ENDBRANCH   6   7
ENDBRANCH   5   6
ENDBRANCH   3   5
TORSDOF 6
ENDMDL
MODEL      243
REMARK 921   NORMALIZED FREE ENERGY PREDICTED BY IDOCK:   -2.20 KCAL/MOL
REMARK 922        TOTAL FREE ENERGY PREDICTED BY IDOCK:   -3.70 KCAL/MOL
REMARK 923 INTER-LIGAND FREE ENERGY PREDICTED BY IDOCK:   -2.81 KCAL/MOL
REMARK 924 INTRA-LIGAND FREE ENERGY PREDICTED BY IDOCK:   -0.89 KCAL/MOL
REMARK 927      BINDING AFFINITY PREDICTED BY RF-SCORE:    0.00 PKD
ROOT
HETATM    1  O   UNL     1     -10.543   7.023  74.024  1.00  0.00    -0.341 OA 
HETATM    2  C   UNL     1      -9.622   6.034  74.092  1.00  0.00    -0.178 C  
HETATM    3  C   UNL     1     -10.237   4.696  74.443  1.00  0.00    -0.288 C  
HETATM    4  O   UNL     1      -8.435   6.235  73.890  1.00  0.00    -0.118 OA 
ENDROOT
BRANCH   3   5
HETATM    5  C   UNL     1      -9.173   3.603  74.532  1.00  0.00    -0.110 C  
BRANCH   5   6
HETATM    6  C   UNL     1      -9.245   2.621  73.357  1.00  0.00    -0.095 C  
BRANCH   6   7
HETATM    7  C   UNL     1      -8.958   3.290  72.032  1.00  0.00    -0.143 A  
HETATM    8  C   UNL     1      -7.729   3.912  71.790  1.00  0.00    -0.065 A  
HETATM    9  C   UNL     1      -7.480   4.579  70.579  1.00  0.00    -0.050 A  
HETATM   10  C   UNL     1      -8.443   4.656  69.569  1.00  0.00    -0.078 A  
HETATM   11  C   UNL     1      -9.650   3.974  69.807  1.00  0.00    -0.280 A  
HETATM   12  C   UNL     1      -9.910   3.306  71.015  1.00  0.00    -0.113 A  
BRANCH  10  13
HETATM   13  N   UNL     1      -8.258   5.375  68.387  1.00  0.00    -0.094 NA 
BRANCH  13  14
HETATM   14  C   UNL     1      -7.489   4.827  67.251  1.00  0.00    -0.082 C  
HETATM   15 CL   UNL     1      -9.783   4.081  65.910  1.00  0.00    -0.194 Cl 
HETATM   16  C   UNL     1      -8.176   3.648  66.557  1.00  0.00    -0.100 C  
ENDBRANCH  13  14
BRANCH  13  17
HETATM   17  C   UNL     1      -8.307   6.852  68.479  1.00  0.00    -0.121 C  
HETATM   18  C   UNL     1      -9.346   7.516  67.567  1.00  0.00    -0.138 C  
HETATM   19 CL   UNL     1     -11.020   7.043  67.964  1.00  0.00    -0.218 Cl 
ENDBRANCH  13  17
ENDBRANCH  10  13
ENDBRANCH   6   7
ENDBRANCH   5   6
ENDBRANCH   3   5
TORSDOF 6
ENDMDL
MODEL      244
REMARK 921   NORMALIZED FREE ENERGY PREDICTED BY IDOCK:   -2.19 KCAL/MOL
REMARK 922        TOTAL FREE ENERGY PREDICTED BY IDOCK:   -3.68 KCAL/MOL
REMARK 923 INTER-LIGAND FREE ENERGY PREDICTED BY IDOCK:   -3.06 KCAL/MOL
REMARK 924 INTRA-LIGAND FREE ENERGY PREDICTED BY IDOCK:   -0.62 KCAL/MOL
REMARK 927      BINDING AFFINITY PREDICTED BY RF-SCORE:    0.00 PKD
ROOT
HETATM    1  O   UNL     1      -5.478  14.767  70.416  1.00  0.00    -0.113 OA 
HETATM    2  C   UNL     1      -5.696  13.811  69.483  1.00  0.00    -0.095 C  
HETATM    3  C   UNL     1      -6.303  12.557  70.074  1.00  0.00     0.006 C  
HETATM    4  O   UNL     1      -5.419  13.975  68.306  1.00  0.00    -0.096 OA 
ENDROOT
BRANCH   3   5
HETATM    5  C   UNL     1      -6.521  11.489  69.003  1.00  0.00    -0.076 C  
BRANCH   5   6
HETATM    6  C   UNL     1      -7.935  11.535  68.412  1.00  0.00    -0.143 C  
BRANCH   6   7
HETATM    7  C   UNL     1      -8.789  10.377  68.877  1.00  0.00    -0.161 A  
HETATM    8  C   UNL     1      -8.343   9.510  69.879  1.00  0.00    -0.180 A  
HETATM    9  C   UNL     1      -9.113   8.404  70.275  1.00  0.00    -0.149 A  
HETATM   10  C   UNL     1     -10.348   8.117  69.687  1.00  0.00    -0.221 A  
HETATM   11  C   UNL     1     -10.805   9.033  68.723  1.00  0.00    -0.067 A  
HETATM   12  C   UNL     1     -10.043  10.142  68.319  1.00  0.00    -0.179 A  
BRANCH  10  13
HETATM   13  N   UNL     1     -11.102   6.985  70.001  1.00  0.00    -0.275 NA 
BRANCH  13  14
HETATM   14  C   UNL     1     -11.498   6.670  71.389  1.00  0.00    -0.301 C  
HETATM   15 CL   UNL     1     -13.889   8.022  71.137  1.00  0.00    -0.189 Cl 
HETATM   16  C   UNL     1     -12.372   7.745  72.037  1.00  0.00    -0.294 C  
ENDBRANCH  13  14
BRANCH  13  17
HETATM   17  C   UNL     1     -11.002   5.829  69.080  1.00  0.00    -0.238 C  
HETATM   18  C   UNL     1      -9.598   5.221  68.968  1.00  0.00    -0.144 C  
HETATM   19 CL   UNL     1      -9.010   4.544  70.510  1.00  0.00    -0.143 Cl 
ENDBRANCH  13  17
ENDBRANCH  10  13
ENDBRANCH   6   7
ENDBRANCH   5   6
ENDBRANCH   3   5
TORSDOF 6
ENDMDL
MODEL      245
REMARK 921   NORMALIZED FREE ENERGY PREDICTED BY IDOCK:   -2.15 KCAL/MOL
REMARK 922        TOTAL FREE ENERGY PREDICTED BY IDOCK:   -3.63 KCAL/MOL
REMARK 923 INTER-LIGAND FREE ENERGY PREDICTED BY IDOCK:   -2.88 KCAL/MOL
REMARK 924 INTRA-LIGAND FREE ENERGY PREDICTED BY IDOCK:   -0.75 KCAL/MOL
REMARK 927      BINDING AFFINITY PREDICTED BY RF-SCORE:    0.00 PKD
ROOT
HETATM    1  O   UNL     1     -10.263   6.955  73.747  1.00  0.00    -0.296 OA 
HETATM    2  C   UNL     1      -9.044   6.431  73.483  1.00  0.00    -0.124 C  
HETATM    3  C   UNL     1      -9.043   4.918  73.537  1.00  0.00    -0.120 C  
HETATM    4  O   UNL     1      -8.075   7.130  73.237  1.00  0.00    -0.098 OA 
ENDROOT
BRANCH   3   5
HETATM    5  C   UNL     1      -7.651   4.354  73.254  1.00  0.00    -0.082 C  
BRANCH   5   6
HETATM    6  C   UNL     1      -7.672   3.258  72.183  1.00  0.00    -0.058 C  
BRANCH   6   7
HETATM    7  C   UNL     1      -8.051   3.795  70.821  1.00  0.00    -0.066 A  
HETATM    8  C   UNL     1      -9.003   3.145  70.029  1.00  0.00    -0.170 A  
HETATM    9  C   UNL     1      -9.317   3.614  68.743  1.00  0.00    -0.231 A  
HETATM   10  C   UNL     1      -8.695   4.739  68.197  1.00  0.00    -0.102 A  
HETATM   11  C   UNL     1      -7.784   5.413  69.030  1.00  0.00    -0.089 A  
HETATM   12  C   UNL     1      -7.462   4.953  70.317  1.00  0.00    -0.058 A  
BRANCH  10  13
HETATM   13  N   UNL     1      -8.926   5.187  66.894  1.00  0.00    -0.109 NA 
BRANCH  13  14
HETATM   14  C   UNL     1      -7.956   6.039  66.177  1.00  0.00    -0.107 C  
HETATM   15 CL   UNL     1      -7.602   4.162  64.186  1.00  0.00    -0.070 Cl 
HETATM   16  C   UNL     1      -6.893   5.249  65.412  1.00  0.00    -0.060 C  
ENDBRANCH  13  14
BRANCH  13  17
HETATM   17  C   UNL     1     -10.337   5.311  66.462  1.00  0.00    -0.285 C  
HETATM   18  C   UNL     1     -11.128   6.418  67.170  1.00  0.00    -0.341 C  
HETATM   19 CL   UNL     1     -10.476   8.048  66.849  1.00  0.00    -0.411 Cl 
ENDBRANCH  13  17
ENDBRANCH  10  13
ENDBRANCH   6   7
ENDBRANCH   5   6
ENDBRANCH   3   5
TORSDOF 6
ENDMDL
MODEL      246
REMARK 921   NORMALIZED FREE ENERGY PREDICTED BY IDOCK:   -2.14 KCAL/MOL
REMARK 922        TOTAL FREE ENERGY PREDICTED BY IDOCK:   -3.61 KCAL/MOL
REMARK 923 INTER-LIGAND FREE ENERGY PREDICTED BY IDOCK:   -3.60 KCAL/MOL
REMARK 924 INTRA-LIGAND FREE ENERGY PREDICTED BY IDOCK:   -0.02 KCAL/MOL
REMARK 927      BINDING AFFINITY PREDICTED BY RF-SCORE:    0.00 PKD
ROOT
HETATM    1  O   UNL     1      -5.988  14.511  70.710  1.00  0.00    -0.176 OA 
HETATM    2  C   UNL     1      -5.961  13.610  69.701  1.00  0.00    -0.115 C  
HETATM    3  C   UNL     1      -6.151  12.190  70.189  1.00  0.00    -0.121 C  
HETATM    4  O   UNL     1      -5.796  13.942  68.538  1.00  0.00    -0.080 OA 
ENDROOT
BRANCH   3   5
HETATM    5  C   UNL     1      -6.098  11.194  69.031  1.00  0.00    -0.044 C  
BRANCH   5   6
HETATM    6  C   UNL     1      -7.426  10.455  68.835  1.00  0.00    -0.099 C  
BRANCH   6   7
HETATM    7  C   UNL     1      -8.557  11.393  68.476  1.00  0.00    -0.150 A  
HETATM    8  C   UNL     1      -8.419  12.327  67.445  1.00  0.00    -0.176 A  
HETATM    9  C   UNL     1      -9.449  13.233  67.145  1.00  0.00    -0.240 A  
HETATM   10  C   UNL     1     -10.649  13.247  67.862  1.00  0.00    -0.238 A  
HETATM   11  C   UNL     1     -10.792  12.262  68.855  1.00  0.00    -0.238 A  
HETATM   12  C   UNL     1      -9.768  11.352  69.164  1.00  0.00     0.065 A  
BRANCH  10  13
HETATM   13  N   UNL     1     -11.662  14.183  67.642  1.00  0.00    -0.366 NA 
BRANCH  13  14
HETATM   14  C   UNL     1     -11.803  14.895  66.356  1.00  0.00    -0.131 C  
HETATM   15 CL   UNL     1     -12.756  12.642  65.080  1.00  0.00    -0.531 Cl 
HETATM   16  C   UNL     1     -11.597  13.999  65.133  1.00  0.00    -0.342 C  
ENDBRANCH  13  14
BRANCH  13  17
HETATM   17  C   UNL     1     -12.205  14.882  68.829  1.00  0.00    -0.087 C  
HETATM   18  C   UNL     1     -11.186  15.126  69.950  1.00  0.00    -0.283 C  
HETATM   19 CL   UNL     1      -9.847  16.193  69.448  1.00  0.00    -0.247 Cl 
ENDBRANCH  13  17
ENDBRANCH  10  13
ENDBRANCH   6   7
ENDBRANCH   5   6
ENDBRANCH   3   5
TORSDOF 6
ENDMDL
MODEL      247
REMARK 921   NORMALIZED FREE ENERGY PREDICTED BY IDOCK:   -2.09 KCAL/MOL
REMARK 922        TOTAL FREE ENERGY PREDICTED BY IDOCK:   -3.55 KCAL/MOL
REMARK 923 INTER-LIGAND FREE ENERGY PREDICTED BY IDOCK:   -2.99 KCAL/MOL
REMARK 924 INTRA-LIGAND FREE ENERGY PREDICTED BY IDOCK:   -0.56 KCAL/MOL
REMARK 927      BINDING AFFINITY PREDICTED BY RF-SCORE:    0.00 PKD
ROOT
HETATM    1  O   UNL     1      -5.557  15.838  69.301  1.00  0.00    -0.105 OA 
HETATM    2  C   UNL     1      -6.097  14.651  69.662  1.00  0.00    -0.121 C  
HETATM    3  C   UNL     1      -5.130  13.792  70.447  1.00  0.00    -0.096 C  
HETATM    4  O   UNL     1      -7.240  14.341  69.367  1.00  0.00    -0.121 OA 
ENDROOT
BRANCH   3   5
HETATM    5  C   UNL     1      -5.760  12.452  70.825  1.00  0.00    -0.095 C  
BRANCH   5   6
HETATM    6  C   UNL     1      -5.683  11.429  69.686  1.00  0.00    -0.074 C  
BRANCH   6   7
HETATM    7  C   UNL     1      -6.595  10.245  69.917  1.00  0.00    -0.114 A  
HETATM    8  C   UNL     1      -7.956  10.310  69.600  1.00  0.00    -0.164 A  
HETATM    9  C   UNL     1      -8.814   9.230  69.863  1.00  0.00    -0.196 A  
HETATM   10  C   UNL     1      -8.353   8.050  70.454  1.00  0.00    -0.120 A  
HETATM   11  C   UNL     1      -6.971   7.981  70.711  1.00  0.00    -0.045 A  
HETATM   12  C   UNL     1      -6.105   9.056  70.453  1.00  0.00    -0.037 A  
BRANCH  10  13
HETATM   13  N   UNL     1      -9.191   6.987  70.799  1.00  0.00    -0.157 NA 
BRANCH  13  14
HETATM   14  C   UNL     1      -9.705   6.813  72.173  1.00  0.00    -0.149 C  
HETATM   15 CL   UNL     1     -11.669   8.716  71.803  1.00  0.00    -0.373 Cl 
HETATM   16  C   UNL     1     -10.305   8.087  72.770  1.00  0.00    -0.339 C  
ENDBRANCH  13  14
BRANCH  13  17
HETATM   17  C   UNL     1      -9.087   5.753  69.987  1.00  0.00    -0.142 C  
HETATM   18  C   UNL     1     -10.430   5.197  69.495  1.00  0.00    -0.163 C  
HETATM   19 CL   UNL     1     -11.283   6.317  68.398  1.00  0.00    -0.375 Cl 
ENDBRANCH  13  17
ENDBRANCH  10  13
ENDBRANCH   6   7
ENDBRANCH   5   6
ENDBRANCH   3   5
TORSDOF 6
ENDMDL
MODEL      248
REMARK 921   NORMALIZED FREE ENERGY PREDICTED BY IDOCK:   -2.09 KCAL/MOL
REMARK 922        TOTAL FREE ENERGY PREDICTED BY IDOCK:   -3.55 KCAL/MOL
REMARK 923 INTER-LIGAND FREE ENERGY PREDICTED BY IDOCK:   -3.45 KCAL/MOL
REMARK 924 INTRA-LIGAND FREE ENERGY PREDICTED BY IDOCK:   -0.09 KCAL/MOL
REMARK 927      BINDING AFFINITY PREDICTED BY RF-SCORE:    0.00 PKD
ROOT
HETATM    1  O   UNL     1     -10.551  11.705  64.654  1.00  0.00    -0.280 OA 
HETATM    2  C   UNL     1     -11.260  12.036  65.757  1.00  0.00    -0.334 C  
HETATM    3  C   UNL     1     -10.437  11.937  67.023  1.00  0.00    -0.253 C  
HETATM    4  O   UNL     1     -12.433  12.368  65.701  1.00  0.00    -0.640 OA 
ENDROOT
BRANCH   3   5
HETATM    5  C   UNL     1     -11.268  12.298  68.254  1.00  0.00    -0.315 C  
BRANCH   5   6
HETATM    6  C   UNL     1     -11.908  11.068  68.907  1.00  0.00    -0.378 C  
BRANCH   6   7
HETATM    7  C   UNL     1     -10.910   9.954  69.133  1.00  0.00    -0.248 A  
HETATM    8  C   UNL     1      -9.546  10.150  68.899  1.00  0.00    -0.186 A  
HETATM    9  C   UNL     1      -8.625   9.102  69.058  1.00  0.00    -0.133 A  
HETATM   10  C   UNL     1      -9.027   7.822  69.451  1.00  0.00    -0.142 A  
HETATM   11  C   UNL     1     -10.394   7.660  69.738  1.00  0.00    -0.223 A  
HETATM   12  C   UNL     1     -11.323   8.701  69.581  1.00  0.00     0.183 A  
BRANCH  10  13
HETATM   13  N   UNL     1      -8.151   6.739  69.544  1.00  0.00    -0.124 NA 
BRANCH  13  14
HETATM   14  C   UNL     1      -8.511   5.397  69.041  1.00  0.00    -0.100 C  
HETATM   15 CL   UNL     1      -6.877   5.659  66.833  1.00  0.00    -0.062 Cl 
HETATM   16  C   UNL     1      -8.485   5.286  67.515  1.00  0.00    -0.105 C  
ENDBRANCH  13  14
BRANCH  13  17
HETATM   17  C   UNL     1      -7.148   6.772  70.633  1.00  0.00    -0.068 C  
HETATM   18  C   UNL     1      -5.693   6.634  70.167  1.00  0.00    -0.019 C  
HETATM   19 CL   UNL     1      -5.172   7.977  69.115  1.00  0.00    -0.026 Cl 
ENDBRANCH  13  17
ENDBRANCH  10  13
ENDBRANCH   6   7
ENDBRANCH   5   6
ENDBRANCH   3   5
TORSDOF 6
ENDMDL
MODEL      249
REMARK 921   NORMALIZED FREE ENERGY PREDICTED BY IDOCK:   -2.08 KCAL/MOL
REMARK 922        TOTAL FREE ENERGY PREDICTED BY IDOCK:   -3.54 KCAL/MOL
REMARK 923 INTER-LIGAND FREE ENERGY PREDICTED BY IDOCK:   -2.85 KCAL/MOL
REMARK 924 INTRA-LIGAND FREE ENERGY PREDICTED BY IDOCK:   -0.69 KCAL/MOL
REMARK 927      BINDING AFFINITY PREDICTED BY RF-SCORE:    0.00 PKD
ROOT
HETATM    1  O   UNL     1      -5.880  16.351  68.912  1.00  0.00    -0.126 OA 
HETATM    2  C   UNL     1      -6.402  15.127  69.154  1.00  0.00    -0.109 C  
HETATM    3  C   UNL     1      -5.352  14.126  69.584  1.00  0.00    -0.092 C  
HETATM    4  O   UNL     1      -7.593  14.891  69.026  1.00  0.00    -0.131 OA 
ENDROOT
BRANCH   3   5
HETATM    5  C   UNL     1      -5.967  12.750  69.833  1.00  0.00    -0.138 C  
BRANCH   5   6
HETATM    6  C   UNL     1      -5.615  11.745  68.730  1.00  0.00    -0.049 C  
BRANCH   6   7
HETATM    7  C   UNL     1      -6.425  10.472  68.834  1.00  0.00    -0.048 A  
HETATM    8  C   UNL     1      -5.900   9.247  68.414  1.00  0.00    -0.041 A  
HETATM    9  C   UNL     1      -6.670   8.073  68.462  1.00  0.00    -0.066 A  
HETATM   10  C   UNL     1      -7.989   8.077  68.923  1.00  0.00    -0.118 A  
HETATM   11  C   UNL     1      -8.480   9.307  69.397  1.00  0.00    -0.137 A  
HETATM   12  C   UNL     1      -7.719  10.486  69.352  1.00  0.00    -0.157 A  
BRANCH  10  13
HETATM   13  N   UNL     1      -8.808   6.945  68.912  1.00  0.00    -0.130 NA 
BRANCH  13  14
HETATM   14  C   UNL     1      -8.869   6.013  70.056  1.00  0.00    -0.139 C  
HETATM   15 CL   UNL     1     -11.582   6.399  70.377  1.00  0.00    -0.463 Cl 
HETATM   16  C   UNL     1      -9.943   6.373  71.085  1.00  0.00    -0.180 C  
ENDBRANCH  13  14
BRANCH  13  17
HETATM   17  C   UNL     1      -9.146   6.368  67.591  1.00  0.00    -0.114 C  
HETATM   18  C   UNL     1     -10.494   6.824  67.019  1.00  0.00    -0.299 C  
HETATM   19 CL   UNL     1     -10.556   8.579  66.706  1.00  0.00    -0.312 Cl 
ENDBRANCH  13  17
ENDBRANCH  10  13
ENDBRANCH   6   7
ENDBRANCH   5   6
ENDBRANCH   3   5
TORSDOF 6
ENDMDL
MODEL      250
REMARK 921   NORMALIZED FREE ENERGY PREDICTED BY IDOCK:   -2.00 KCAL/MOL
REMARK 922        TOTAL FREE ENERGY PREDICTED BY IDOCK:   -3.42 KCAL/MOL
REMARK 923 INTER-LIGAND FREE ENERGY PREDICTED BY IDOCK:   -3.27 KCAL/MOL
REMARK 924 INTRA-LIGAND FREE ENERGY PREDICTED BY IDOCK:   -0.16 KCAL/MOL
REMARK 927      BINDING AFFINITY PREDICTED BY RF-SCORE:    0.00 PKD
ROOT
HETATM    1  O   UNL     1     -12.106  11.417  65.377  1.00  0.00     0.112 OA 
HETATM    2  C   UNL     1     -12.439  12.689  65.058  1.00  0.00    -0.487 C  
HETATM    3  C   UNL     1     -12.189  13.654  66.197  1.00  0.00    -0.490 C  
HETATM    4  O   UNL     1     -12.891  12.989  63.964  1.00  0.00    -0.657 OA 
ENDROOT
BRANCH   3   5
HETATM    5  C   UNL     1     -12.591  15.078  65.816  1.00  0.00     0.461 C  
BRANCH   5   6
HETATM    6  C   UNL     1     -11.388  15.933  65.402  1.00  0.00     0.020 C  
BRANCH   6   7
HETATM    7  C   UNL     1     -10.235  15.807  66.372  1.00  0.00    -0.304 A  
HETATM    8  C   UNL     1     -10.459  15.569  67.732  1.00  0.00    -0.273 A  
HETATM    9  C   UNL     1      -9.391  15.505  68.642  1.00  0.00    -0.201 A  
HETATM   10  C   UNL     1      -8.066  15.679  68.235  1.00  0.00    -0.134 A  
HETATM   11  C   UNL     1      -7.856  15.858  66.856  1.00  0.00    -0.282 A  
HETATM   12  C   UNL     1      -8.916  15.926  65.938  1.00  0.00    -0.251 A  
BRANCH  10  13
HETATM   13  N   UNL     1      -6.988  15.698  69.124  1.00  0.00    -0.152 NA 
BRANCH  13  14
HETATM   14  C   UNL     1      -6.559  14.490  69.858  1.00  0.00    -0.151 C  
HETATM   15 CL   UNL     1      -5.884  13.172  67.531  1.00  0.00    -0.118 Cl 
HETATM   16  C   UNL     1      -6.771  13.190  69.080  1.00  0.00    -0.103 C  
ENDBRANCH  13  14
BRANCH  13  17
HETATM   17  C   UNL     1      -6.663  16.993  69.765  1.00  0.00     0.070 C  
HETATM   18  C   UNL     1      -5.330  17.609  69.321  1.00  0.00    -0.182 C  
HETATM   19 CL   UNL     1      -5.298  18.014  67.584  1.00  0.00    -0.144 Cl 
ENDBRANCH  13  17
ENDBRANCH  10  13
ENDBRANCH   6   7
ENDBRANCH   5   6
ENDBRANCH   3   5
TORSDOF 6
ENDMDL
MODEL      251
REMARK 921   NORMALIZED FREE ENERGY PREDICTED BY IDOCK:   -1.93 KCAL/MOL
REMARK 922        TOTAL FREE ENERGY PREDICTED BY IDOCK:   -3.33 KCAL/MOL
REMARK 923 INTER-LIGAND FREE ENERGY PREDICTED BY IDOCK:   -3.67 KCAL/MOL
REMARK 924 INTRA-LIGAND FREE ENERGY PREDICTED BY IDOCK:    0.34 KCAL/MOL
REMARK 927      BINDING AFFINITY PREDICTED BY RF-SCORE:    0.00 PKD
ROOT
HETATM    1  O   UNL     1     -12.742  12.219  65.007  1.00  0.00    -0.581 OA 
HETATM    2  C   UNL     1     -12.901  13.472  65.493  1.00  0.00    -0.350 C  
HETATM    3  C   UNL     1     -11.722  13.920  66.330  1.00  0.00    -0.402 C  
HETATM    4  O   UNL     1     -13.900  14.136  65.266  1.00  0.00     0.028 OA 
ENDROOT
BRANCH   3   5
HETATM    5  C   UNL     1     -11.938  15.329  66.881  1.00  0.00     0.241 C  
BRANCH   5   6
HETATM    6  C   UNL     1     -11.211  16.396  66.055  1.00  0.00     0.320 C  
BRANCH   6   7
HETATM    7  C   UNL     1      -9.923  16.846  66.708  1.00  0.00    -0.291 A  
HETATM    8  C   UNL     1      -8.719  16.855  65.996  1.00  0.00    -0.193 A  
HETATM    9  C   UNL     1      -7.513  17.223  66.616  1.00  0.00    -0.287 A  
HETATM   10  C   UNL     1      -7.460  17.590  67.963  1.00  0.00    -0.214 A  
HETATM   11  C   UNL     1      -8.689  17.633  68.646  1.00  0.00    -0.266 A  
HETATM   12  C   UNL     1      -9.900  17.265  68.036  1.00  0.00    -0.284 A  
BRANCH  10  13
HETATM   13  N   UNL     1      -6.270  17.887  68.630  1.00  0.00    -0.195 NA 
BRANCH  13  14
HETATM   14  C   UNL     1      -5.804  19.276  68.818  1.00  0.00    -0.215 C  
HETATM   15 CL   UNL     1      -7.822  20.290  67.233  1.00  0.00    -0.350 Cl 
HETATM   16  C   UNL     1      -6.082  20.184  67.619  1.00  0.00    -0.213 C  
ENDBRANCH  13  14
BRANCH  13  17
HETATM   17  C   UNL     1      -5.214  16.848  68.624  1.00  0.00    -0.127 C  
HETATM   18  C   UNL     1      -5.261  15.881  69.814  1.00  0.00    -0.116 C  
HETATM   19 CL   UNL     1      -6.760  14.915  69.863  1.00  0.00    -0.177 Cl 
ENDBRANCH  13  17
ENDBRANCH  10  13
ENDBRANCH   6   7
ENDBRANCH   5   6
ENDBRANCH   3   5
TORSDOF 6
ENDMDL
MODEL      252
REMARK 921   NORMALIZED FREE ENERGY PREDICTED BY IDOCK:   -1.87 KCAL/MOL
REMARK 922        TOTAL FREE ENERGY PREDICTED BY IDOCK:   -3.25 KCAL/MOL
REMARK 923 INTER-LIGAND FREE ENERGY PREDICTED BY IDOCK:   -3.47 KCAL/MOL
REMARK 924 INTRA-LIGAND FREE ENERGY PREDICTED BY IDOCK:    0.22 KCAL/MOL
REMARK 927      BINDING AFFINITY PREDICTED BY RF-SCORE:    0.00 PKD
ROOT
HETATM    1  O   UNL     1     -10.232   5.031  66.174  1.00  0.00    -0.220 OA 
HETATM    2  C   UNL     1      -9.933   6.287  66.577  1.00  0.00    -0.115 C  
HETATM    3  C   UNL     1      -8.474   6.440  66.953  1.00  0.00    -0.110 C  
HETATM    4  O   UNL     1     -10.772   7.172  66.625  1.00  0.00    -0.245 OA 
ENDROOT
BRANCH   3   5
HETATM    5  C   UNL     1      -8.170   7.863  67.422  1.00  0.00    -0.123 C  
BRANCH   5   6
HETATM    6  C   UNL     1      -7.621   8.744  66.295  1.00  0.00    -0.091 C  
BRANCH   6   7
HETATM    7  C   UNL     1      -8.281  10.104  66.258  1.00  0.00    -0.127 A  
HETATM    8  C   UNL     1      -7.908  11.112  67.154  1.00  0.00    -0.139 A  
HETATM    9  C   UNL     1      -8.557  12.357  67.154  1.00  0.00    -0.189 A  
HETATM   10  C   UNL     1      -9.600  12.645  66.270  1.00  0.00    -0.244 A  
HETATM   11  C   UNL     1      -9.921  11.641  65.339  1.00  0.00    -0.287 A  
HETATM   12  C   UNL     1      -9.280  10.392  65.330  1.00  0.00    -0.233 A  
BRANCH  10  13
HETATM   13  N   UNL     1     -10.318  13.843  66.295  1.00  0.00    -0.287 NA 
BRANCH  13  14
HETATM   14  C   UNL     1     -10.631  14.540  67.559  1.00  0.00    -0.262 C  
HETATM   15 CL   UNL     1     -10.762  12.172  68.968  1.00  0.00    -0.204 Cl 
HETATM   16  C   UNL     1     -11.513  13.725  68.507  1.00  0.00    -0.307 C  
ENDBRANCH  13  14
BRANCH  13  17
HETATM   17  C   UNL     1     -11.246  14.098  65.170  1.00  0.00    -0.337 C  
HETATM   18  C   UNL     1     -11.809  15.524  65.116  1.00  0.00     0.144 C  
HETATM   19 CL   UNL     1     -10.546  16.759  64.868  1.00  0.00    -0.098 Cl 
ENDBRANCH  13  17
ENDBRANCH  10  13
ENDBRANCH   6   7
ENDBRANCH   5   6
ENDBRANCH   3   5
TORSDOF 6
ENDMDL
MODEL      253
REMARK 921   NORMALIZED FREE ENERGY PREDICTED BY IDOCK:   -1.52 KCAL/MOL
REMARK 922        TOTAL FREE ENERGY PREDICTED BY IDOCK:   -2.78 KCAL/MOL
REMARK 923 INTER-LIGAND FREE ENERGY PREDICTED BY IDOCK:   -2.26 KCAL/MOL
REMARK 924 INTRA-LIGAND FREE ENERGY PREDICTED BY IDOCK:   -0.51 KCAL/MOL
REMARK 927      BINDING AFFINITY PREDICTED BY RF-SCORE:    0.00 PKD
ROOT
HETATM    1  O   UNL     1     -13.155  11.324  71.889  1.00  0.00    -0.493 OA 
HETATM    2  C   UNL     1     -12.923  11.068  70.581  1.00  0.00    -0.131 C  
HETATM    3  C   UNL     1     -11.537  11.494  70.147  1.00  0.00    -0.336 C  
HETATM    4  O   UNL     1     -13.762  10.553  69.860  1.00  0.00     0.472 OA 
ENDROOT
BRANCH   3   5
HETATM    5  C   UNL     1     -11.310  11.211  68.662  1.00  0.00    -0.342 C  
BRANCH   5   6
HETATM    6  C   UNL     1     -11.326   9.711  68.345  1.00  0.00     0.109 C  
BRANCH   6   7
HETATM    7  C   UNL     1     -10.442   8.918  69.282  1.00  0.00    -0.234 A  
HETATM    8  C   UNL     1      -9.069   9.172  69.366  1.00  0.00    -0.148 A  
HETATM    9  C   UNL     1      -8.239   8.401  70.196  1.00  0.00    -0.117 A  
HETATM   10  C   UNL     1      -8.742   7.350  70.968  1.00  0.00    -0.139 A  
HETATM   11  C   UNL     1     -10.133   7.149  70.916  1.00  0.00    -0.200 A  
HETATM   12  C   UNL     1     -10.972   7.913  70.088  1.00  0.00    -0.235 A  
BRANCH  10  13
HETATM   13  N   UNL     1      -7.935   6.516  71.745  1.00  0.00    -0.103 NA 
BRANCH  13  14
HETATM   14  C   UNL     1      -7.655   5.118  71.357  1.00  0.00    -0.096 C  
HETATM   15 CL   UNL     1      -5.632   5.878  69.642  1.00  0.00    -0.011 Cl 
HETATM   16  C   UNL     1      -7.143   4.970  69.923  1.00  0.00    -0.054 C  
ENDBRANCH  13  14
BRANCH  13  17
HETATM   17  C   UNL     1      -7.852   6.812  73.193  1.00  0.00    -0.096 C  
HETATM   18  C   UNL     1      -6.438   6.729  73.783  1.00  0.00    -0.068 C  
HETATM   19 CL   UNL     1      -5.320   7.926  73.074  1.00  0.00    -0.040 Cl 
ENDBRANCH  13  17
ENDBRANCH  10  13
ENDBRANCH   6   7
ENDBRANCH   5   6
ENDBRANCH   3   5
TORSDOF 6
ENDMDL
MODEL      254
REMARK 921   NORMALIZED FREE ENERGY PREDICTED BY IDOCK:   -1.41 KCAL/MOL
REMARK 922        TOTAL FREE ENERGY PREDICTED BY IDOCK:   -2.64 KCAL/MOL
REMARK 923 INTER-LIGAND FREE ENERGY PREDICTED BY IDOCK:   -2.82 KCAL/MOL
REMARK 924 INTRA-LIGAND FREE ENERGY PREDICTED BY IDOCK:    0.18 KCAL/MOL
REMARK 927      BINDING AFFINITY PREDICTED BY RF-SCORE:    0.00 PKD
ROOT
HETATM    1  O   UNL     1      -6.927  15.115  70.817  1.00  0.00     0.326 OA 
HETATM    2  C   UNL     1      -6.705  15.602  69.574  1.00  0.00    -0.185 C  
HETATM    3  C   UNL     1      -7.889  16.378  69.038  1.00  0.00    -0.231 C  
HETATM    4  O   UNL     1      -5.656  15.414  68.979  1.00  0.00    -0.097 OA 
ENDROOT
BRANCH   3   5
HETATM    5  C   UNL     1      -7.618  16.900  67.628  1.00  0.00    -0.180 C  
BRANCH   5   6
HETATM    6  C   UNL     1      -8.435  16.160  66.564  1.00  0.00    -0.346 C  
BRANCH   6   7
HETATM    7  C   UNL     1      -8.703  14.721  66.945  1.00  0.00    -0.264 A  
HETATM    8  C   UNL     1      -7.671  13.778  66.970  1.00  0.00     0.163 A  
HETATM    9  C   UNL     1      -7.928  12.431  67.273  1.00  0.00    -0.178 A  
HETATM   10  C   UNL     1      -9.217  11.973  67.557  1.00  0.00    -0.180 A  
HETATM   11  C   UNL     1     -10.231  12.946  67.585  1.00  0.00    -0.220 A  
HETATM   12  C   UNL     1      -9.986  14.295  67.282  1.00  0.00    -0.252 A  
BRANCH  10  13
HETATM   13  N   UNL     1      -9.520  10.628  67.786  1.00  0.00    -0.152 NA 
BRANCH  13  14
HETATM   14  C   UNL     1     -10.245   9.810  66.793  1.00  0.00    -0.233 C  
HETATM   15 CL   UNL     1      -8.179   9.982  64.972  1.00  0.00    -0.142 Cl 
HETATM   16  C   UNL     1      -9.915  10.171  65.343  1.00  0.00    -0.307 C  
ENDBRANCH  13  14
BRANCH  13  17
HETATM   17  C   UNL     1      -9.649  10.195  69.196  1.00  0.00    -0.212 C  
HETATM   18  C   UNL     1     -10.794  10.863  69.968  1.00  0.00    -0.072 C  
HETATM   19 CL   UNL     1     -12.400  10.479  69.293  1.00  0.00    -0.055 Cl 
ENDBRANCH  13  17
ENDBRANCH  10  13
ENDBRANCH   6   7
ENDBRANCH   5   6
ENDBRANCH   3   5
TORSDOF 6
ENDMDL
MODEL      255
REMARK 921   NORMALIZED FREE ENERGY PREDICTED BY IDOCK:   -1.26 KCAL/MOL
REMARK 922        TOTAL FREE ENERGY PREDICTED BY IDOCK:   -2.43 KCAL/MOL
REMARK 923 INTER-LIGAND FREE ENERGY PREDICTED BY IDOCK:   -2.74 KCAL/MOL
REMARK 924 INTRA-LIGAND FREE ENERGY PREDICTED BY IDOCK:    0.30 KCAL/MOL
REMARK 927      BINDING AFFINITY PREDICTED BY RF-SCORE:    0.00 PKD
ROOT
HETATM    1  O   UNL     1     -13.139  11.303  71.897  1.00  0.00    -0.493 OA 
HETATM    2  C   UNL     1     -12.808  11.004  70.619  1.00  0.00    -0.220 C  
HETATM    3  C   UNL     1     -11.397  11.427  70.275  1.00  0.00    -0.116 C  
HETATM    4  O   UNL     1     -13.588  10.457  69.857  1.00  0.00     0.255 OA 
ENDROOT
BRANCH   3   5
HETATM    5  C   UNL     1     -11.057  11.094  68.823  1.00  0.00    -0.291 C  
BRANCH   5   6
HETATM    6  C   UNL     1     -11.057   9.585  68.554  1.00  0.00    -0.035 C  
BRANCH   6   7
HETATM    7  C   UNL     1     -10.298   8.815  69.612  1.00  0.00    -0.213 A  
HETATM    8  C   UNL     1      -8.938   9.051  69.838  1.00  0.00    -0.170 A  
HETATM    9  C   UNL     1      -8.220   8.300  70.783  1.00  0.00    -0.115 A  
HETATM   10  C   UNL     1      -8.826   7.287  71.533  1.00  0.00    -0.122 A  
HETATM   11  C   UNL     1     -10.206   7.106  71.333  1.00  0.00    -0.203 A  
HETATM   12  C   UNL     1     -10.933   7.850  70.390  1.00  0.00    -0.251 A  
BRANCH  10  13
HETATM   13  N   UNL     1      -8.126   6.471  72.424  1.00  0.00    -0.102 NA 
BRANCH  13  14
HETATM   14  C   UNL     1      -8.596   6.238  73.805  1.00  0.00    -0.123 C  
HETATM   15 CL   UNL     1     -10.253   4.177  73.018  1.00  0.00    -0.209 Cl 
HETATM   16  C   UNL     1     -10.034   5.723  73.885  1.00  0.00    -0.205 C  
ENDBRANCH  13  14
BRANCH  13  17
HETATM   17  C   UNL     1      -6.669   6.324  72.205  1.00  0.00    -0.068 C  
HETATM   18  C   UNL     1      -6.141   4.891  72.346  1.00  0.00    -0.025 C  
HETATM   19 CL   UNL     1      -6.832   3.777  71.135  1.00  0.00    -0.031 Cl 
ENDBRANCH  13  17
ENDBRANCH  10  13
ENDBRANCH   6   7
ENDBRANCH   5   6
ENDBRANCH   3   5
TORSDOF 6
ENDMDL
MODEL      256
REMARK 921   NORMALIZED FREE ENERGY PREDICTED BY IDOCK:   -1.14 KCAL/MOL
REMARK 922        TOTAL FREE ENERGY PREDICTED BY IDOCK:   -2.26 KCAL/MOL
REMARK 923 INTER-LIGAND FREE ENERGY PREDICTED BY IDOCK:   -2.66 KCAL/MOL
REMARK 924 INTRA-LIGAND FREE ENERGY PREDICTED BY IDOCK:    0.40 KCAL/MOL
REMARK 927      BINDING AFFINITY PREDICTED BY RF-SCORE:    0.00 PKD
ROOT
HETATM    1  O   UNL     1      -9.760  16.481  67.345  1.00  0.00    -0.240 OA 
HETATM    2  C   UNL     1      -9.460  15.236  66.907  1.00  0.00    -0.234 C  
HETATM    3  C   UNL     1     -10.320  14.173  67.555  1.00  0.00    -0.248 C  
HETATM    4  O   UNL     1      -8.583  15.031  66.083  1.00  0.00    -0.063 OA 
ENDROOT
BRANCH   3   5
HETATM    5  C   UNL     1      -9.946  12.778  67.057  1.00  0.00    -0.231 C  
BRANCH   5   6
HETATM    6  C   UNL     1      -9.404  11.883  68.177  1.00  0.00    -0.191 C  
BRANCH   6   7
HETATM    7  C   UNL     1      -9.204  10.455  67.723  1.00  0.00    -0.148 A  
HETATM    8  C   UNL     1      -9.827   9.393  68.386  1.00  0.00    -0.177 A  
HETATM    9  C   UNL     1      -9.600   8.063  67.998  1.00  0.00    -0.170 A  
HETATM   10  C   UNL     1      -8.743   7.740  66.943  1.00  0.00    -0.132 A  
HETATM   11  C   UNL     1      -8.172   8.823  66.251  1.00  0.00    -0.115 A  
HETATM   12  C   UNL     1      -8.391  10.157  66.631  1.00  0.00    -0.123 A  
BRANCH  10  13
HETATM   13  N   UNL     1      -8.434   6.427  66.580  1.00  0.00    -0.112 NA 
BRANCH  13  14
HETATM   14  C   UNL     1      -7.589   5.561  67.427  1.00  0.00    -0.089 C  
HETATM   15 CL   UNL     1      -8.623   3.260  66.308  1.00  0.00    -0.115 Cl 
HETATM   16  C   UNL     1      -8.234   4.215  67.766  1.00  0.00    -0.094 C  
ENDBRANCH  13  14
BRANCH  13  17
HETATM   17  C   UNL     1      -8.445   6.104  65.135  1.00  0.00    -0.100 C  
HETATM   18  C   UNL     1      -7.072   6.173  64.454  1.00  0.00    -0.053 C  
HETATM   19 CL   UNL     1      -5.912   4.987  65.111  1.00  0.00    -0.024 Cl 
ENDBRANCH  13  17
ENDBRANCH  10  13
ENDBRANCH   6   7
ENDBRANCH   5   6
ENDBRANCH   3   5
TORSDOF 6
ENDMDL
MODEL      257
REMARK 921   NORMALIZED FREE ENERGY PREDICTED BY IDOCK:   -0.94 KCAL/MOL
REMARK 922        TOTAL FREE ENERGY PREDICTED BY IDOCK:   -2.00 KCAL/MOL
REMARK 923 INTER-LIGAND FREE ENERGY PREDICTED BY IDOCK:   -1.92 KCAL/MOL
REMARK 924 INTRA-LIGAND FREE ENERGY PREDICTED BY IDOCK:   -0.07 KCAL/MOL
REMARK 927      BINDING AFFINITY PREDICTED BY RF-SCORE:    0.00 PKD
ROOT
HETATM    1  O   UNL     1     -12.204  11.431  65.299  1.00  0.00     0.223 OA 
HETATM    2  C   UNL     1     -12.445  12.443  64.433  1.00  0.00    -0.433 C  
HETATM    3  C   UNL     1     -12.395  13.799  65.103  1.00  0.00    -0.476 C  
HETATM    4  O   UNL     1     -12.678  12.246  63.251  1.00  0.00    -0.699 OA 
ENDROOT
BRANCH   3   5
HETATM    5  C   UNL     1     -12.689  14.920  64.106  1.00  0.00     0.305 C  
BRANCH   5   6
HETATM    6  C   UNL     1     -11.433  15.719  63.739  1.00  0.00     0.750 C  
BRANCH   6   7
HETATM    7  C   UNL     1     -10.724  16.264  64.958  1.00  0.00    -0.319 A  
HETATM    8  C   UNL     1     -10.898  17.592  65.360  1.00  0.00     0.058 A  
HETATM    9  C   UNL     1     -10.200  18.113  66.461  1.00  0.00    -0.398 A  
HETATM   10  C   UNL     1      -9.301  17.337  67.198  1.00  0.00    -0.243 A  
HETATM   11  C   UNL     1      -9.183  15.989  66.815  1.00  0.00    -0.264 A  
HETATM   12  C   UNL     1      -9.876  15.458  65.715  1.00  0.00    -0.399 A  
BRANCH  10  13
HETATM   13  N   UNL     1      -8.533  17.844  68.249  1.00  0.00    -0.271 NA 
BRANCH  13  14
HETATM   14  C   UNL     1      -9.146  18.332  69.500  1.00  0.00     0.617 C  
HETATM   15 CL   UNL     1     -10.355  15.902  69.993  1.00  0.00    -0.279 Cl 
HETATM   16  C   UNL     1     -10.489  17.674  69.824  1.00  0.00     0.486 C  
ENDBRANCH  13  14
BRANCH  13  17
HETATM   17  C   UNL     1      -7.217  18.430  67.903  1.00  0.00    -0.229 C  
HETATM   18  C   UNL     1      -6.009  17.600  68.355  1.00  0.00    -0.174 C  
HETATM   19 CL   UNL     1      -5.939  15.996  67.576  1.00  0.00    -0.180 Cl 
ENDBRANCH  13  17
ENDBRANCH  10  13
ENDBRANCH   6   7
ENDBRANCH   5   6
ENDBRANCH   3   5
TORSDOF 6
ENDMDL
MODEL      258
REMARK 921   NORMALIZED FREE ENERGY PREDICTED BY IDOCK:   -0.94 KCAL/MOL
REMARK 922        TOTAL FREE ENERGY PREDICTED BY IDOCK:   -1.99 KCAL/MOL
REMARK 923 INTER-LIGAND FREE ENERGY PREDICTED BY IDOCK:   -3.91 KCAL/MOL
REMARK 924 INTRA-LIGAND FREE ENERGY PREDICTED BY IDOCK:    1.92 KCAL/MOL
REMARK 927      BINDING AFFINITY PREDICTED BY RF-SCORE:    0.00 PKD
ROOT
HETATM    1  O   UNL     1      -7.018  15.080  70.439  1.00  0.00    -0.036 OA 
HETATM    2  C   UNL     1      -6.221  15.654  69.507  1.00  0.00    -0.152 C  
HETATM    3  C   UNL     1      -6.565  17.109  69.272  1.00  0.00    -0.234 C  
HETATM    4  O   UNL     1      -5.337  15.035  68.938  1.00  0.00    -0.093 OA 
ENDROOT
BRANCH   3   5
HETATM    5  C   UNL     1      -5.663  17.725  68.203  1.00  0.00    -0.157 C  
BRANCH   5   6
HETATM    6  C   UNL     1      -6.057  17.293  66.786  1.00  0.00    -0.236 C  
BRANCH   6   7
HETATM    7  C   UNL     1      -7.453  16.712  66.732  1.00  0.00    -0.289 A  
HETATM    8  C   UNL     1      -7.689  15.372  67.052  1.00  0.00    -0.220 A  
HETATM    9  C   UNL     1      -8.976  14.818  66.951  1.00  0.00    -0.276 A  
HETATM   10  C   UNL     1     -10.071  15.575  66.525  1.00  0.00    -0.279 A  
HETATM   11  C   UNL     1      -9.825  16.935  66.264  1.00  0.00    -0.320 A  
HETATM   12  C   UNL     1      -8.542  17.498  66.360  1.00  0.00    -0.273 A  
BRANCH  10  13
HETATM   13  N   UNL     1     -11.347  15.038  66.339  1.00  0.00    -0.317 NA 
BRANCH  13  14
HETATM   14  C   UNL     1     -11.716  13.704  66.854  1.00  0.00    -0.389 C  
HETATM   15 CL   UNL     1     -11.909  14.629  69.446  1.00  0.00    -0.346 Cl 
HETATM   16  C   UNL     1     -11.244  13.446  68.286  1.00  0.00    -0.279 C  
ENDBRANCH  13  14
BRANCH  13  17
HETATM   17  C   UNL     1     -12.115  15.512  65.165  1.00  0.00     0.365 C  
HETATM   18  C   UNL     1     -11.803  14.775  63.856  1.00  0.00     0.119 C  
HETATM   19 CL   UNL     1     -12.220  13.041  63.921  1.00  0.00    -0.501 Cl 
ENDBRANCH  13  17
ENDBRANCH  10  13
ENDBRANCH   6   7
ENDBRANCH   5   6
ENDBRANCH   3   5
TORSDOF 6
ENDMDL
MODEL      259
REMARK 921   NORMALIZED FREE ENERGY PREDICTED BY IDOCK:   -0.88 KCAL/MOL
REMARK 922        TOTAL FREE ENERGY PREDICTED BY IDOCK:   -1.91 KCAL/MOL
REMARK 923 INTER-LIGAND FREE ENERGY PREDICTED BY IDOCK:   -2.84 KCAL/MOL
REMARK 924 INTRA-LIGAND FREE ENERGY PREDICTED BY IDOCK:    0.93 KCAL/MOL
REMARK 927      BINDING AFFINITY PREDICTED BY RF-SCORE:    0.00 PKD
ROOT
HETATM    1  O   UNL     1      -7.174   2.280  70.786  1.00  0.00    -0.033 OA 
HETATM    2  C   UNL     1      -7.400   3.508  70.266  1.00  0.00    -0.041 C  
HETATM    3  C   UNL     1      -6.297   4.489  70.600  1.00  0.00    -0.026 C  
HETATM    4  O   UNL     1      -8.397   3.763  69.608  1.00  0.00    -0.053 OA 
ENDROOT
BRANCH   3   5
HETATM    5  C   UNL     1      -6.588   5.871  70.016  1.00  0.00    -0.047 C  
BRANCH   5   6
HETATM    6  C   UNL     1      -7.400   6.750  70.973  1.00  0.00    -0.078 C  
BRANCH   6   7
HETATM    7  C   UNL     1      -8.053   7.916  70.266  1.00  0.00    -0.115 A  
HETATM    8  C   UNL     1      -7.392   9.141  70.132  1.00  0.00    -0.077 A  
HETATM    9  C   UNL     1      -8.018  10.240  69.522  1.00  0.00    -0.171 A  
HETATM   10  C   UNL     1      -9.323  10.163  69.028  1.00  0.00    -0.188 A  
HETATM   11  C   UNL     1      -9.950   8.907  69.118  1.00  0.00    -0.192 A  
HETATM   12  C   UNL     1      -9.334   7.802  69.728  1.00  0.00    -0.153 A  
BRANCH  10  13
HETATM   13  N   UNL     1     -10.002  11.256  68.485  1.00  0.00    -0.197 NA 
BRANCH  13  14
HETATM   14  C   UNL     1     -11.225  11.803  69.108  1.00  0.00    -0.264 C  
HETATM   15 CL   UNL     1     -11.969  13.095  66.786  1.00  0.00    -0.444 Cl 
HETATM   16  C   UNL     1     -11.648  13.160  68.541  1.00  0.00    -0.326 C  
ENDBRANCH  13  14
BRANCH  13  17
HETATM   17  C   UNL     1      -9.863  11.484  67.029  1.00  0.00    -0.192 C  
HETATM   18  C   UNL     1      -8.752  12.469  66.639  1.00  0.00    -0.100 C  
HETATM   19 CL   UNL     1      -7.127  11.899  67.103  1.00  0.00    -0.145 Cl 
ENDBRANCH  13  17
ENDBRANCH  10  13
ENDBRANCH   6   7
ENDBRANCH   5   6
ENDBRANCH   3   5
TORSDOF 6
ENDMDL
MODEL      260
REMARK 921   NORMALIZED FREE ENERGY PREDICTED BY IDOCK:   -0.69 KCAL/MOL
REMARK 922        TOTAL FREE ENERGY PREDICTED BY IDOCK:   -1.66 KCAL/MOL
REMARK 923 INTER-LIGAND FREE ENERGY PREDICTED BY IDOCK:   -1.73 KCAL/MOL
REMARK 924 INTRA-LIGAND FREE ENERGY PREDICTED BY IDOCK:    0.07 KCAL/MOL
REMARK 927      BINDING AFFINITY PREDICTED BY RF-SCORE:    0.00 PKD
ROOT
HETATM    1  O   UNL     1      -8.857  11.622  64.889  1.00  0.00     0.163 OA 
HETATM    2  C   UNL     1      -9.657  11.533  65.977  1.00  0.00    -0.228 C  
HETATM    3  C   UNL     1      -9.448  10.245  66.743  1.00  0.00    -0.198 C  
HETATM    4  O   UNL     1     -10.449  12.412  66.275  1.00  0.00    -0.239 OA 
ENDROOT
BRANCH   3   5
HETATM    5  C   UNL     1     -10.376  10.164  67.954  1.00  0.00    -0.234 C  
BRANCH   5   6
HETATM    6  C   UNL     1     -11.109   8.820  68.039  1.00  0.00     0.244 C  
BRANCH   6   7
HETATM    7  C   UNL     1     -10.254   7.670  67.557  1.00  0.00    -0.294 A  
HETATM    8  C   UNL     1     -10.741   6.751  66.623  1.00  0.00    -0.187 A  
HETATM    9  C   UNL     1      -9.967   5.653  66.214  1.00  0.00    -0.154 A  
HETATM   10  C   UNL     1      -8.685   5.426  66.722  1.00  0.00    -0.113 A  
HETATM   11  C   UNL     1      -8.189   6.393  67.615  1.00  0.00    -0.118 A  
HETATM   12  C   UNL     1      -8.955   7.493  68.031  1.00  0.00    -0.129 A  
BRANCH  10  13
HETATM   13  N   UNL     1      -7.919   4.304  66.396  1.00  0.00    -0.098 NA 
BRANCH  13  14
HETATM   14  C   UNL     1      -6.452   4.378  66.242  1.00  0.00    -0.041 C  
HETATM   15 CL   UNL     1      -6.022   3.617  68.859  1.00  0.00    -0.023 Cl 
HETATM   16  C   UNL     1      -5.718   4.767  67.527  1.00  0.00    -0.021 C  
ENDBRANCH  13  14
BRANCH  13  17
HETATM   17  C   UNL     1      -8.594   3.220  65.647  1.00  0.00    -0.115 C  
HETATM   18  C   UNL     1      -8.798   1.924  66.442  1.00  0.00    -0.116 C  
HETATM   19 CL   UNL     1      -9.861   2.140  67.858  1.00  0.00     0.166 Cl 
ENDBRANCH  13  17
ENDBRANCH  10  13
ENDBRANCH   6   7
ENDBRANCH   5   6
ENDBRANCH   3   5
TORSDOF 6
ENDMDL
