MODEL        1
REMARK 921   NORMALIZED FREE ENERGY PREDICTED BY IDOCK:   -6.88 KCAL/MOL
REMARK 922        TOTAL FREE ENERGY PREDICTED BY IDOCK:  -11.57 KCAL/MOL
REMARK 923 INTER-LIGAND FREE ENERGY PREDICTED BY IDOCK:  -10.10 KCAL/MOL
REMARK 924 INTRA-LIGAND FREE ENERGY PREDICTED BY IDOCK:   -1.47 KCAL/MOL
REMARK 927      BINDING AFFINITY PREDICTED BY RF-SCORE:    0.00 PKD
ROOT
HETATM    1  O   UNL     1      -9.067  13.789  68.123  1.00  0.00    -0.183 OA 
HETATM    2  C   UNL     1      -9.781  15.032  68.110  1.00  0.00    -0.215 C  
HETATM    3  H   UNL     1      -8.709  13.631  68.988  1.00  0.00     0.000 HD 
ENDROOT
BRANCH   2   4
HETATM    4  C   UNL     1     -10.801  14.945  69.226  1.00  0.00    -0.272 A  
HETATM    5  C   UNL     1     -12.574  14.736  71.395  1.00  0.00    -0.326 A  
HETATM    6  C   UNL     1     -10.959  16.013  70.127  1.00  0.00    -0.369 A  
HETATM    7  O   UNL     1     -13.509  15.557  73.354  1.00  0.00    -0.452 OA 
HETATM    8  O   UNL     1     -14.108  13.559  72.678  1.00  0.00    -0.762 OA 
HETATM    9  C   UNL     1     -11.564  13.779  69.421  1.00  0.00    -0.365 A  
HETATM   10  C   UNL     1     -11.839  15.914  71.208  1.00  0.00    -0.502 A  
HETATM   11  N   UNL     1     -13.460  14.609  72.559  1.00  0.00    -0.431 N  
HETATM   12  C   UNL     1     -12.448  13.670  70.497  1.00  0.00    -0.394 A  
ENDBRANCH   2   4
BRANCH   2  13
HETATM   13  C   UNL     1     -10.369  15.290  66.695  1.00  0.00    -0.280 C  
BRANCH  13  14
HETATM   14  N   UNL     1     -10.629  13.989  66.033  1.00  0.00    -0.291 N  
HETATM   15  C   UNL     1     -12.028  12.228  64.953  1.00  0.00    -0.357 C  
HETATM   16  C   UNL     1     -11.906  13.536  65.748  1.00  0.00    -0.372 C  
HETATM   17  H   UNL     1      -9.834  13.402  65.777  1.00  0.00     0.000 HD 
HETATM   18  O   UNL     1     -12.905  14.170  66.090  1.00  0.00    -0.377 OA 
HETATM   19 CL   UNL     1     -10.582  11.211  65.130  1.00  0.00    -0.338 Cl 
HETATM   20 CL   UNL     1     -12.319  12.612  63.247  1.00  0.00    -0.559 Cl 
ENDBRANCH  13  14
BRANCH  13  21
HETATM   21  C   UNL     1      -9.416  16.178  65.863  1.00  0.00    -0.302 C  
BRANCH  21  22
HETATM   22  O   UNL     1      -8.165  16.420  66.536  1.00  0.00    -0.246 OA 
BRANCH  22  23
HETATM   23  C   UNL     1      -7.637  17.659  66.359  1.00  0.00    -0.287 C  
HETATM   24  O   UNL     1      -7.004  18.021  65.375  1.00  0.00    -0.481 OA 
BRANCH  23  25
HETATM   25  C   UNL     1      -7.941  18.551  67.533  1.00  0.00    -0.245 C  
BRANCH  25  26
HETATM   26  C   UNL     1      -8.649  19.821  67.102  1.00  0.00    -0.376 C  
HETATM   27  C   UNL     1     -10.116  19.607  66.823  1.00  0.00    -0.424 C  
HETATM   28  O   UNL     1     -10.842  19.264  67.907  1.00  0.00    -0.367 OA 
HETATM   29  O   UNL     1     -10.613  19.762  65.719  1.00  0.00    -0.523 OA 
ENDBRANCH  25  26
ENDBRANCH  23  25
ENDBRANCH  22  23
ENDBRANCH  21  22
ENDBRANCH  13  21
ENDBRANCH   2  13
TORSDOF 8
ENDMDL
MODEL        2
REMARK 921   NORMALIZED FREE ENERGY PREDICTED BY IDOCK:   -6.85 KCAL/MOL
REMARK 922        TOTAL FREE ENERGY PREDICTED BY IDOCK:  -11.53 KCAL/MOL
REMARK 923 INTER-LIGAND FREE ENERGY PREDICTED BY IDOCK:  -10.47 KCAL/MOL
REMARK 924 INTRA-LIGAND FREE ENERGY PREDICTED BY IDOCK:   -1.05 KCAL/MOL
REMARK 927      BINDING AFFINITY PREDICTED BY RF-SCORE:    0.00 PKD
ROOT
HETATM    1  O   UNL     1      -9.611  10.209  66.573  1.00  0.00    -0.172 OA 
HETATM    2  C   UNL     1     -10.885  10.690  67.023  1.00  0.00    -0.238 C  
HETATM    3  H   UNL     1      -9.557  10.275  65.628  1.00  0.00     0.000 HD 
ENDROOT
BRANCH   2   4
HETATM    4  C   UNL     1     -11.030  12.090  66.464  1.00  0.00    -0.337 A  
HETATM    5  C   UNL     1     -11.226  14.634  65.292  1.00  0.00    -0.358 A  
HETATM    6  C   UNL     1     -12.112  12.410  65.627  1.00  0.00    -0.396 A  
HETATM    7  O   UNL     1     -12.245  16.149  63.858  1.00  0.00    -0.935 OA 
HETATM    8  O   UNL     1     -10.420  16.775  64.900  1.00  0.00    -0.652 OA 
HETATM    9  C   UNL     1     -10.059  13.075  66.720  1.00  0.00    -0.247 A  
HETATM   10  C   UNL     1     -12.215  13.675  65.040  1.00  0.00    -0.450 A  
HETATM   11  N   UNL     1     -11.303  15.946  64.636  1.00  0.00    -0.393 N  
HETATM   12  C   UNL     1     -10.153  14.344  66.140  1.00  0.00    -0.323 A  
ENDBRANCH   2   4
BRANCH   2  13
HETATM   13  C   UNL     1     -10.973  10.582  68.571  1.00  0.00    -0.252 C  
BRANCH  13  14
HETATM   14  N   UNL     1     -11.094   9.154  68.952  1.00  0.00    -0.439 N  
HETATM   15  C   UNL     1     -10.788   7.159  70.419  1.00  0.00    -0.246 C  
HETATM   16  C   UNL     1     -10.483   8.625  70.076  1.00  0.00    -0.223 C  
HETATM   17  H   UNL     1     -11.650   8.535  68.361  1.00  0.00     0.000 HD 
HETATM   18  O   UNL     1      -9.747   9.307  70.791  1.00  0.00    -0.246 OA 
HETATM   19 CL   UNL     1     -11.304   6.241  68.989  1.00  0.00    -0.421 Cl 
HETATM   20 CL   UNL     1     -12.033   7.107  71.680  1.00  0.00    -0.332 Cl 
ENDBRANCH  13  14
BRANCH  13  21
HETATM   21  C   UNL     1     -12.153  11.422  69.110  1.00  0.00    -0.264 C  
BRANCH  21  22
HETATM   22  O   UNL     1     -11.975  11.793  70.491  1.00  0.00    -0.356 OA 
BRANCH  22  23
HETATM   23  C   UNL     1     -12.885  11.276  71.357  1.00  0.00    -0.410 C  
HETATM   24  O   UNL     1     -13.215  10.098  71.413  1.00  0.00    -0.376 OA 
BRANCH  23  25
HETATM   25  C   UNL     1     -13.437  12.343  72.264  1.00  0.00    -0.428 C  
BRANCH  25  26
HETATM   26  C   UNL     1     -13.166  13.733  71.724  1.00  0.00    -0.467 C  
HETATM   27  C   UNL     1     -13.449  14.820  72.731  1.00  0.00    -0.474 C  
HETATM   28  O   UNL     1     -12.637  14.800  73.808  1.00  0.00    -0.501 OA 
HETATM   29  O   UNL     1     -14.316  15.664  72.574  1.00  0.00    -0.537 OA 
ENDBRANCH  25  26
ENDBRANCH  23  25
ENDBRANCH  22  23
ENDBRANCH  21  22
ENDBRANCH  13  21
ENDBRANCH   2  13
TORSDOF 8
ENDMDL
MODEL        3
REMARK 921   NORMALIZED FREE ENERGY PREDICTED BY IDOCK:   -6.77 KCAL/MOL
REMARK 922        TOTAL FREE ENERGY PREDICTED BY IDOCK:  -11.40 KCAL/MOL
REMARK 923 INTER-LIGAND FREE ENERGY PREDICTED BY IDOCK:  -10.49 KCAL/MOL
REMARK 924 INTRA-LIGAND FREE ENERGY PREDICTED BY IDOCK:   -0.91 KCAL/MOL
REMARK 927      BINDING AFFINITY PREDICTED BY RF-SCORE:    0.00 PKD
ROOT
HETATM    1  O   UNL     1     -11.215  10.364  67.242  1.00  0.00    -0.284 OA 
HETATM    2  C   UNL     1     -11.753  11.458  67.998  1.00  0.00    -0.254 C  
HETATM    3  H   UNL     1     -11.612  10.342  66.380  1.00  0.00     0.000 HD 
ENDROOT
BRANCH   2   4
HETATM    4  C   UNL     1     -11.540  12.699  67.156  1.00  0.00    -0.434 A  
HETATM    5  C   UNL     1     -11.258  15.074  65.684  1.00  0.00    -0.327 A  
HETATM    6  C   UNL     1     -10.698  13.727  67.613  1.00  0.00    -0.256 A  
HETATM    7  O   UNL     1     -10.445  17.232  65.426  1.00  0.00    -0.635 OA 
HETATM    8  O   UNL     1     -11.773  16.433  63.875  1.00  0.00    -1.085 OA 
HETATM    9  C   UNL     1     -12.221  12.874  65.939  1.00  0.00    -0.469 A  
HETATM   10  C   UNL     1     -10.554  14.912  66.884  1.00  0.00    -0.300 A  
HETATM   11  N   UNL     1     -11.150  16.337  64.942  1.00  0.00    -0.368 N  
HETATM   12  C   UNL     1     -12.083  14.052  65.201  1.00  0.00    -0.418 A  
ENDBRANCH   2   4
BRANCH   2  13
HETATM   13  C   UNL     1     -11.104  11.495  69.409  1.00  0.00    -0.226 C  
BRANCH  13  14
HETATM   14  N   UNL     1     -10.415  10.206  69.660  1.00  0.00    -0.236 N  
HETATM   15  C   UNL     1      -8.457   8.667  69.811  1.00  0.00    -0.129 C  
HETATM   16  C   UNL     1      -9.071  10.010  69.392  1.00  0.00    -0.215 C  
HETATM   17  H   UNL     1     -10.954   9.430  70.047  1.00  0.00     0.000 HD 
HETATM   18  O   UNL     1      -8.385  10.888  68.866  1.00  0.00    -0.145 OA 
HETATM   19 CL   UNL     1      -9.686   7.390  69.936  1.00  0.00    -0.171 Cl 
HETATM   20 CL   UNL     1      -7.610   8.873  71.355  1.00  0.00    -0.139 Cl 
ENDBRANCH  13  14
BRANCH  13  21
HETATM   21  C   UNL     1     -12.166  11.799  70.490  1.00  0.00    -0.347 C  
BRANCH  21  22
HETATM   22  O   UNL     1     -12.271  13.208  70.772  1.00  0.00    -0.361 OA 
BRANCH  22  23
HETATM   23  C   UNL     1     -13.237  13.555  71.662  1.00  0.00    -0.366 C  
HETATM   24  O   UNL     1     -13.682  12.826  72.540  1.00  0.00    -0.523 OA 
BRANCH  23  25
HETATM   25  C   UNL     1     -13.691  14.974  71.444  1.00  0.00    -0.552 C  
BRANCH  25  26
HETATM   26  C   UNL     1     -13.856  15.717  72.754  1.00  0.00    -0.600 C  
HETATM   27  C   UNL     1     -12.547  15.944  73.469  1.00  0.00    -0.578 C  
HETATM   28  O   UNL     1     -11.694  16.760  72.816  1.00  0.00    -0.427 OA 
HETATM   29  O   UNL     1     -12.290  15.457  74.558  1.00  0.00    -0.646 OA 
ENDBRANCH  25  26
ENDBRANCH  23  25
ENDBRANCH  22  23
ENDBRANCH  21  22
ENDBRANCH  13  21
ENDBRANCH   2  13
TORSDOF 8
ENDMDL
MODEL        4
REMARK 921   NORMALIZED FREE ENERGY PREDICTED BY IDOCK:   -6.68 KCAL/MOL
REMARK 922        TOTAL FREE ENERGY PREDICTED BY IDOCK:  -11.27 KCAL/MOL
REMARK 923 INTER-LIGAND FREE ENERGY PREDICTED BY IDOCK:  -10.22 KCAL/MOL
REMARK 924 INTRA-LIGAND FREE ENERGY PREDICTED BY IDOCK:   -1.06 KCAL/MOL
REMARK 927      BINDING AFFINITY PREDICTED BY RF-SCORE:    0.00 PKD
ROOT
HETATM    1  O   UNL     1     -12.397  10.401  68.481  1.00  0.00    -0.595 OA 
HETATM    2  C   UNL     1     -11.053  10.878  68.636  1.00  0.00    -0.252 C  
HETATM    3  H   UNL     1     -12.396   9.456  68.391  1.00  0.00     0.000 HD 
ENDROOT
BRANCH   2   4
HETATM    4  C   UNL     1     -10.468  10.119  69.809  1.00  0.00    -0.301 A  
HETATM    5  C   UNL     1      -9.407   8.575  71.900  1.00  0.00    -0.267 A  
HETATM    6  C   UNL     1      -9.114   9.744  69.805  1.00  0.00    -0.246 A  
HETATM    7  O   UNL     1      -7.679   7.370  72.876  1.00  0.00    -0.084 OA 
HETATM    8  O   UNL     1      -9.622   7.406  73.894  1.00  0.00    -0.270 OA 
HETATM    9  C   UNL     1     -11.276   9.723  70.890  1.00  0.00    -0.429 A  
HETATM   10  C   UNL     1      -8.580   8.975  70.843  1.00  0.00    -0.263 A  
HETATM   11  N   UNL     1      -8.864   7.722  72.966  1.00  0.00    -0.170 N  
HETATM   12  C   UNL     1     -10.753   8.956  71.934  1.00  0.00    -0.426 A  
ENDBRANCH   2   4
BRANCH   2  13
HETATM   13  C   UNL     1     -11.056  12.425  68.783  1.00  0.00    -0.262 C  
BRANCH  13  14
HETATM   14  N   UNL     1     -11.892  12.801  69.948  1.00  0.00    -0.435 N  
HETATM   15  C   UNL     1     -12.748  14.314  71.738  1.00  0.00    -0.347 C  
HETATM   16  C   UNL     1     -11.738  13.998  70.626  1.00  0.00    -0.159 C  
HETATM   17  H   UNL     1     -12.612  12.150  70.264  1.00  0.00     0.000 HD 
HETATM   18  O   UNL     1     -10.844  14.794  70.332  1.00  0.00    -0.133 OA 
HETATM   19 CL   UNL     1     -13.489  12.839  72.394  1.00  0.00    -0.620 Cl 
HETATM   20 CL   UNL     1     -13.990  15.407  71.099  1.00  0.00    -0.509 Cl 
ENDBRANCH  13  14
BRANCH  13  21
HETATM   21  C   UNL     1     -11.549  13.096  67.481  1.00  0.00    -0.352 C  
BRANCH  21  22
HETATM   22  O   UNL     1     -11.811  12.138  66.437  1.00  0.00    -0.563 OA 
BRANCH  22  23
HETATM   23  C   UNL     1     -12.507  12.611  65.370  1.00  0.00    -0.355 C  
HETATM   24  O   UNL     1     -12.979  11.922  64.475  1.00  0.00    -0.426 OA 
BRANCH  23  25
HETATM   25  C   UNL     1     -12.641  14.110  65.433  1.00  0.00    -0.485 C  
BRANCH  25  26
HETATM   26  C   UNL     1     -12.023  14.778  64.221  1.00  0.00    -0.387 C  
HETATM   27  C   UNL     1     -11.133  15.941  64.583  1.00  0.00    -0.354 C  
HETATM   28  O   UNL     1     -10.030  15.598  65.279  1.00  0.00    -0.335 OA 
HETATM   29  O   UNL     1     -11.372  17.091  64.251  1.00  0.00    -1.191 OA 
ENDBRANCH  25  26
ENDBRANCH  23  25
ENDBRANCH  22  23
ENDBRANCH  21  22
ENDBRANCH  13  21
ENDBRANCH   2  13
TORSDOF 8
ENDMDL
MODEL        5
REMARK 921   NORMALIZED FREE ENERGY PREDICTED BY IDOCK:   -6.68 KCAL/MOL
REMARK 922        TOTAL FREE ENERGY PREDICTED BY IDOCK:  -11.27 KCAL/MOL
REMARK 923 INTER-LIGAND FREE ENERGY PREDICTED BY IDOCK:  -10.28 KCAL/MOL
REMARK 924 INTRA-LIGAND FREE ENERGY PREDICTED BY IDOCK:   -1.00 KCAL/MOL
REMARK 927      BINDING AFFINITY PREDICTED BY RF-SCORE:    0.00 PKD
ROOT
HETATM    1  O   UNL     1      -9.670  13.205  67.903  1.00  0.00    -0.208 OA 
HETATM    2  C   UNL     1      -9.856  14.586  68.243  1.00  0.00    -0.229 C  
HETATM    3  H   UNL     1      -9.367  12.723  68.663  1.00  0.00     0.000 HD 
ENDROOT
BRANCH   2   4
HETATM    4  C   UNL     1     -10.791  14.605  69.434  1.00  0.00    -0.261 A  
HETATM    5  C   UNL     1     -12.644  14.687  71.543  1.00  0.00    -0.343 A  
HETATM    6  C   UNL     1     -11.615  13.499  69.706  1.00  0.00    -0.313 A  
HETATM    7  O   UNL     1     -14.392  13.767  72.762  1.00  0.00    -0.596 OA 
HETATM    8  O   UNL     1     -13.698  15.777  73.300  1.00  0.00    -0.496 OA 
HETATM    9  C   UNL     1     -10.899  15.745  70.252  1.00  0.00    -0.363 A  
HETATM   10  C   UNL     1     -12.539  13.534  70.754  1.00  0.00    -0.382 A  
HETATM   11  N   UNL     1     -13.650  14.748  72.612  1.00  0.00    -0.452 N  
HETATM   12  C   UNL     1     -11.818  15.790  71.304  1.00  0.00    -0.491 A  
ENDBRANCH   2   4
BRANCH   2  13
HETATM   13  C   UNL     1     -10.351  15.374  66.999  1.00  0.00    -0.280 C  
BRANCH  13  14
HETATM   14  N   UNL     1     -10.301  16.827  67.294  1.00  0.00    -0.300 N  
HETATM   15  C   UNL     1      -9.649  19.204  66.905  1.00  0.00    -0.325 C  
HETATM   16  C   UNL     1      -9.515  17.710  66.573  1.00  0.00    -0.283 C  
HETATM   17  H   UNL     1     -10.869  17.190  68.060  1.00  0.00     0.000 HD 
HETATM   18  O   UNL     1      -8.760  17.321  65.681  1.00  0.00    -0.473 OA 
HETATM   19 CL   UNL     1     -10.254  19.461  68.556  1.00  0.00    -0.510 Cl 
HETATM   20 CL   UNL     1     -10.724  19.966  65.719  1.00  0.00    -0.530 Cl 
ENDBRANCH  13  14
BRANCH  13  21
HETATM   21  C   UNL     1     -11.771  14.918  66.594  1.00  0.00    -0.217 C  
BRANCH  21  22
HETATM   22  O   UNL     1     -11.758  13.685  65.850  1.00  0.00    -0.329 OA 
BRANCH  22  23
HETATM   23  C   UNL     1     -11.940  13.809  64.509  1.00  0.00    -0.427 C  
HETATM   24  O   UNL     1     -12.428  14.784  63.952  1.00  0.00    -0.811 OA 
BRANCH  23  25
HETATM   25  C   UNL     1     -11.447  12.588  63.779  1.00  0.00    -0.542 C  
BRANCH  25  26
HETATM   26  C   UNL     1     -10.212  12.004  64.437  1.00  0.00    -0.332 C  
HETATM   27  C   UNL     1      -9.996  10.552  64.091  1.00  0.00    -0.318 C  
HETATM   28  O   UNL     1      -9.724  10.328  62.789  1.00  0.00    -0.294 OA 
HETATM   29  O   UNL     1     -10.032   9.657  64.920  1.00  0.00    -0.173 OA 
ENDBRANCH  25  26
ENDBRANCH  23  25
ENDBRANCH  22  23
ENDBRANCH  21  22
ENDBRANCH  13  21
ENDBRANCH   2  13
TORSDOF 8
ENDMDL
MODEL        6
REMARK 921   NORMALIZED FREE ENERGY PREDICTED BY IDOCK:   -6.62 KCAL/MOL
REMARK 922        TOTAL FREE ENERGY PREDICTED BY IDOCK:  -11.19 KCAL/MOL
REMARK 923 INTER-LIGAND FREE ENERGY PREDICTED BY IDOCK:   -9.89 KCAL/MOL
REMARK 924 INTRA-LIGAND FREE ENERGY PREDICTED BY IDOCK:   -1.30 KCAL/MOL
REMARK 927      BINDING AFFINITY PREDICTED BY RF-SCORE:    0.00 PKD
ROOT
HETATM    1  O   UNL     1      -9.016  14.062  68.065  1.00  0.00    -0.167 OA 
HETATM    2  C   UNL     1     -10.129  14.922  67.785  1.00  0.00    -0.234 C  
HETATM    3  H   UNL     1      -8.592  14.334  68.869  1.00  0.00     0.000 HD 
ENDROOT
BRANCH   2   4
HETATM    4  C   UNL     1     -11.007  14.893  69.019  1.00  0.00    -0.251 A  
HETATM    5  C   UNL     1     -12.504  14.795  71.393  1.00  0.00    -0.336 A  
HETATM    6  C   UNL     1     -11.051  16.001  69.883  1.00  0.00    -0.352 A  
HETATM    7  O   UNL     1     -13.193  15.710  73.412  1.00  0.00    -0.520 OA 
HETATM    8  O   UNL     1     -13.874  13.688  72.904  1.00  0.00    -0.659 OA 
HETATM    9  C   UNL     1     -11.743  13.743  69.357  1.00  0.00    -0.379 A  
HETATM   10  C   UNL     1     -11.794  15.958  71.066  1.00  0.00    -0.468 A  
HETATM   11  N   UNL     1     -13.243  14.726  72.660  1.00  0.00    -0.418 N  
HETATM   12  C   UNL     1     -12.491  13.689  70.536  1.00  0.00    -0.394 A  
ENDBRANCH   2   4
BRANCH   2  13
HETATM   13  C   UNL     1     -10.823  14.477  66.468  1.00  0.00    -0.314 C  
BRANCH  13  14
HETATM   14  N   UNL     1     -10.229  13.196  66.015  1.00  0.00    -0.281 N  
HETATM   15  C   UNL     1     -10.239  10.926  64.981  1.00  0.00    -0.303 C  
HETATM   16  C   UNL     1     -10.990  12.148  65.528  1.00  0.00    -0.301 C  
HETATM   17  H   UNL     1      -9.215  13.083  66.065  1.00  0.00     0.000 HD 
HETATM   18  O   UNL     1     -12.221  12.202  65.505  1.00  0.00    -0.549 OA 
HETATM   19 CL   UNL     1      -8.609  10.789  65.675  1.00  0.00    -0.182 Cl 
HETATM   20 CL   UNL     1     -10.160  11.037  63.213  1.00  0.00    -0.400 Cl 
ENDBRANCH  13  14
BRANCH  13  21
HETATM   21  C   UNL     1     -10.705  15.578  65.390  1.00  0.00    -0.405 C  
BRANCH  21  22
HETATM   22  O   UNL     1      -9.878  16.678  65.819  1.00  0.00    -0.482 OA 
BRANCH  22  23
HETATM   23  C   UNL     1     -10.463  17.904  65.767  1.00  0.00    -0.196 C  
HETATM   24  O   UNL     1     -11.134  18.325  64.834  1.00  0.00    -0.615 OA 
BRANCH  23  25
HETATM   25  C   UNL     1     -10.192  18.687  67.024  1.00  0.00    -0.418 C  
BRANCH  25  26
HETATM   26  C   UNL     1      -8.760  19.183  67.077  1.00  0.00    -0.313 C  
HETATM   27  C   UNL     1      -8.044  18.771  68.339  1.00  0.00    -0.340 C  
HETATM   28  O   UNL     1      -7.859  17.441  68.462  1.00  0.00    -0.249 OA 
HETATM   29  O   UNL     1      -7.637  19.573  69.165  1.00  0.00    -0.361 OA 
ENDBRANCH  25  26
ENDBRANCH  23  25
ENDBRANCH  22  23
ENDBRANCH  21  22
ENDBRANCH  13  21
ENDBRANCH   2  13
TORSDOF 8
ENDMDL
MODEL        7
REMARK 921   NORMALIZED FREE ENERGY PREDICTED BY IDOCK:   -6.57 KCAL/MOL
REMARK 922        TOTAL FREE ENERGY PREDICTED BY IDOCK:  -11.11 KCAL/MOL
REMARK 923 INTER-LIGAND FREE ENERGY PREDICTED BY IDOCK:   -9.91 KCAL/MOL
REMARK 924 INTRA-LIGAND FREE ENERGY PREDICTED BY IDOCK:   -1.20 KCAL/MOL
REMARK 927      BINDING AFFINITY PREDICTED BY RF-SCORE:    0.00 PKD
ROOT
HETATM    1  O   UNL     1      -9.108  14.561  69.035  1.00  0.00    -0.327 OA 
HETATM    2  C   UNL     1     -10.532  14.391  69.050  1.00  0.00    -0.222 C  
HETATM    3  H   UNL     1      -8.685  13.724  68.885  1.00  0.00     0.000 HD 
ENDROOT
BRANCH   2   4
HETATM    4  C   UNL     1     -10.890  13.711  67.744  1.00  0.00    -0.266 A  
HETATM    5  C   UNL     1     -11.482  12.574  65.246  1.00  0.00    -0.333 A  
HETATM    6  C   UNL     1      -9.944  12.911  67.080  1.00  0.00    -0.244 A  
HETATM    7  O   UNL     1     -10.876  11.380  63.349  1.00  0.00    -0.385 OA 
HETATM    8  O   UNL     1     -12.895  12.232  63.436  1.00  0.00    -0.754 OA 
HETATM    9  C   UNL     1     -12.145  13.913  67.143  1.00  0.00    -0.422 A  
HETATM   10  C   UNL     1     -10.233  12.343  65.836  1.00  0.00    -0.273 A  
HETATM   11  N   UNL     1     -11.771  12.023  63.915  1.00  0.00    -0.426 N  
HETATM   12  C   UNL     1     -12.446  13.349  65.901  1.00  0.00    -0.468 A  
ENDBRANCH   2   4
BRANCH   2  13
HETATM   13  C   UNL     1     -11.225  15.759  69.295  1.00  0.00    -0.324 C  
BRANCH  13  14
HETATM   14  N   UNL     1     -10.258  16.849  69.019  1.00  0.00    -0.295 N  
HETATM   15  C   UNL     1      -9.166  18.625  67.648  1.00  0.00    -0.281 C  
HETATM   16  C   UNL     1     -10.117  17.425  67.768  1.00  0.00    -0.323 C  
HETATM   17  H   UNL     1      -9.673  17.189  69.783  1.00  0.00     0.000 HD 
HETATM   18  O   UNL     1     -10.749  17.014  66.794  1.00  0.00    -0.234 OA 
HETATM   19 CL   UNL     1      -7.942  18.627  68.936  1.00  0.00    -0.297 Cl 
HETATM   20 CL   UNL     1     -10.115  20.122  67.683  1.00  0.00    -0.550 Cl 
ENDBRANCH  13  14
BRANCH  13  21
HETATM   21  C   UNL     1     -11.783  15.838  70.734  1.00  0.00    -0.399 C  
BRANCH  21  22
HETATM   22  O   UNL     1     -11.858  14.543  71.363  1.00  0.00    -0.336 OA 
BRANCH  22  23
HETATM   23  C   UNL     1     -13.059  14.231  71.917  1.00  0.00    -0.365 C  
HETATM   24  O   UNL     1     -13.868  15.043  72.349  1.00  0.00    -0.428 OA 
BRANCH  23  25
HETATM   25  C   UNL     1     -13.283  12.742  71.922  1.00  0.00    -0.511 C  
BRANCH  25  26
HETATM   26  C   UNL     1     -12.424  12.044  70.887  1.00  0.00    -0.384 C  
HETATM   27  C   UNL     1     -12.382  10.547  71.073  1.00  0.00    -0.399 C  
HETATM   28  O   UNL     1     -13.567   9.933  70.880  1.00  0.00    -0.301 OA 
HETATM   29  O   UNL     1     -11.360   9.938  71.345  1.00  0.00    -0.364 OA 
ENDBRANCH  25  26
ENDBRANCH  23  25
ENDBRANCH  22  23
ENDBRANCH  21  22
ENDBRANCH  13  21
ENDBRANCH   2  13
TORSDOF 8
ENDMDL
MODEL        8
REMARK 921   NORMALIZED FREE ENERGY PREDICTED BY IDOCK:   -6.57 KCAL/MOL
REMARK 922        TOTAL FREE ENERGY PREDICTED BY IDOCK:  -11.11 KCAL/MOL
REMARK 923 INTER-LIGAND FREE ENERGY PREDICTED BY IDOCK:  -10.59 KCAL/MOL
REMARK 924 INTRA-LIGAND FREE ENERGY PREDICTED BY IDOCK:   -0.52 KCAL/MOL
REMARK 927      BINDING AFFINITY PREDICTED BY RF-SCORE:    0.00 PKD
ROOT
HETATM    1  O   UNL     1     -11.797  16.364  70.716  1.00  0.00    -0.521 OA 
HETATM    2  C   UNL     1     -11.985  15.587  69.525  1.00  0.00    -0.350 C  
HETATM    3  H   UNL     1     -12.530  16.234  71.305  1.00  0.00     0.000 HD 
ENDROOT
BRANCH   2   4
HETATM    4  C   UNL     1     -12.201  14.159  69.981  1.00  0.00    -0.418 A  
HETATM    5  C   UNL     1     -12.477  11.531  70.931  1.00  0.00    -0.366 A  
HETATM    6  C   UNL     1     -12.962  13.891  71.132  1.00  0.00    -0.388 A  
HETATM    7  O   UNL     1     -13.208   9.997  72.512  1.00  0.00    -0.265 OA 
HETATM    8  O   UNL     1     -12.027   9.256  70.819  1.00  0.00    -0.276 OA 
HETATM    9  C   UNL     1     -11.597  13.084  69.304  1.00  0.00    -0.367 A  
HETATM   10  C   UNL     1     -13.103  12.584  71.609  1.00  0.00    -0.414 A  
HETATM   11  N   UNL     1     -12.578  10.164  71.459  1.00  0.00    -0.400 N  
HETATM   12  C   UNL     1     -11.733  11.774  69.771  1.00  0.00    -0.408 A  
ENDBRANCH   2   4
BRANCH   2  13
HETATM   13  C   UNL     1     -10.786  15.801  68.560  1.00  0.00    -0.290 C  
BRANCH  13  14
HETATM   14  N   UNL     1     -10.411  17.235  68.563  1.00  0.00    -0.349 N  
HETATM   15  C   UNL     1      -8.840  19.174  68.540  1.00  0.00    -0.367 C  
HETATM   16  C   UNL     1      -9.099  17.666  68.672  1.00  0.00    -0.261 C  
HETATM   17  H   UNL     1     -11.150  17.935  68.480  1.00  0.00     0.000 HD 
HETATM   18  O   UNL     1      -8.172  16.872  68.838  1.00  0.00    -0.254 OA 
HETATM   19 CL   UNL     1     -10.282  20.129  68.942  1.00  0.00    -0.415 Cl 
HETATM   20 CL   UNL     1      -8.296  19.525  66.889  1.00  0.00    -0.297 Cl 
ENDBRANCH  13  14
BRANCH  13  21
HETATM   21  C   UNL     1     -11.133  15.300  67.140  1.00  0.00    -0.323 C  
BRANCH  21  22
HETATM   22  O   UNL     1     -10.745  16.239  66.118  1.00  0.00    -0.285 OA 
BRANCH  22  23
HETATM   23  C   UNL     1     -11.114  15.911  64.852  1.00  0.00    -0.389 C  
HETATM   24  O   UNL     1     -11.444  16.711  63.985  1.00  0.00    -1.192 OA 
BRANCH  23  25
HETATM   25  C   UNL     1     -11.053  14.423  64.638  1.00  0.00    -0.363 C  
BRANCH  25  26
HETATM   26  C   UNL     1     -12.042  13.968  63.583  1.00  0.00    -0.156 C  
HETATM   27  C   UNL     1     -12.516  12.552  63.795  1.00  0.00    -0.455 C  
HETATM   28  O   UNL     1     -13.240  12.374  64.919  1.00  0.00    -0.714 OA 
HETATM   29  O   UNL     1     -12.292  11.649  63.005  1.00  0.00    -0.310 OA 
ENDBRANCH  25  26
ENDBRANCH  23  25
ENDBRANCH  22  23
ENDBRANCH  21  22
ENDBRANCH  13  21
ENDBRANCH   2  13
TORSDOF 8
ENDMDL
MODEL        9
REMARK 921   NORMALIZED FREE ENERGY PREDICTED BY IDOCK:   -6.51 KCAL/MOL
REMARK 922        TOTAL FREE ENERGY PREDICTED BY IDOCK:  -11.02 KCAL/MOL
REMARK 923 INTER-LIGAND FREE ENERGY PREDICTED BY IDOCK:   -9.85 KCAL/MOL
REMARK 924 INTRA-LIGAND FREE ENERGY PREDICTED BY IDOCK:   -1.17 KCAL/MOL
REMARK 927      BINDING AFFINITY PREDICTED BY RF-SCORE:    0.00 PKD
ROOT
HETATM    1  O   UNL     1      -9.888  12.003  69.325  1.00  0.00    -0.375 OA 
HETATM    2  C   UNL     1     -11.245  11.967  68.859  1.00  0.00    -0.261 C  
HETATM    3  H   UNL     1      -9.293  11.914  68.590  1.00  0.00     0.000 HD 
ENDROOT
BRANCH   2   4
HETATM    4  C   UNL     1     -11.357  13.047  67.803  1.00  0.00    -0.333 A  
HETATM    5  C   UNL     1     -11.481  14.954  65.746  1.00  0.00    -0.281 A  
HETATM    6  C   UNL     1     -12.353  12.969  66.815  1.00  0.00    -0.097 A  
HETATM    7  O   UNL     1     -12.374  15.763  63.762  1.00  0.00    -0.698 OA 
HETATM    8  O   UNL     1     -10.679  16.836  64.649  1.00  0.00    -0.778 OA 
HETATM    9  C   UNL     1     -10.437  14.109  67.753  1.00  0.00    -0.246 A  
HETATM   10  C   UNL     1     -12.419  13.916  65.788  1.00  0.00    -0.530 A  
HETATM   11  N   UNL     1     -11.514  15.920  64.639  1.00  0.00    -0.340 N  
HETATM   12  C   UNL     1     -10.495  15.062  66.733  1.00  0.00    -0.283 A  
ENDBRANCH   2   4
BRANCH   2  13
HETATM   13  C   UNL     1     -12.219  12.112  70.061  1.00  0.00    -0.198 C  
BRANCH  13  14
HETATM   14  N   UNL     1     -12.012  13.435  70.697  1.00  0.00    -0.526 N  
HETATM   15  C   UNL     1     -12.547  15.327  72.233  1.00  0.00    -0.357 C  
HETATM   16  C   UNL     1     -12.940  14.010  71.549  1.00  0.00    -0.351 C  
HETATM   17  H   UNL     1     -11.149  13.943  70.500  1.00  0.00     0.000 HD 
HETATM   18  O   UNL     1     -14.027  13.474  71.774  1.00  0.00    -0.312 OA 
HETATM   19 CL   UNL     1     -11.299  16.199  71.318  1.00  0.00    -0.405 Cl 
HETATM   20 CL   UNL     1     -11.989  14.980  73.880  1.00  0.00    -0.544 Cl 
ENDBRANCH  13  14
BRANCH  13  21
HETATM   21  C   UNL     1     -12.022  10.954  71.065  1.00  0.00    -0.270 C  
BRANCH  21  22
HETATM   22  O   UNL     1     -11.384   9.810  70.463  1.00  0.00    -0.269 OA 
BRANCH  22  23
HETATM   23  C   UNL     1     -10.701   9.005  71.319  1.00  0.00    -0.309 C  
HETATM   24  O   UNL     1      -9.482   8.978  71.439  1.00  0.00    -0.263 OA 
BRANCH  23  25
HETATM   25  C   UNL     1     -11.641   8.147  72.123  1.00  0.00    -0.417 C  
BRANCH  25  26
HETATM   26  C   UNL     1     -12.380   7.154  71.248  1.00  0.00    -0.418 C  
HETATM   27  C   UNL     1     -11.452   6.267  70.455  1.00  0.00    -0.338 C  
HETATM   28  O   UNL     1     -10.702   5.437  71.209  1.00  0.00    -0.237 OA 
HETATM   29  O   UNL     1     -11.403   6.275  69.236  1.00  0.00    -0.410 OA 
ENDBRANCH  25  26
ENDBRANCH  23  25
ENDBRANCH  22  23
ENDBRANCH  21  22
ENDBRANCH  13  21
ENDBRANCH   2  13
TORSDOF 8
ENDMDL
MODEL       10
REMARK 921   NORMALIZED FREE ENERGY PREDICTED BY IDOCK:   -6.47 KCAL/MOL
REMARK 922        TOTAL FREE ENERGY PREDICTED BY IDOCK:  -10.96 KCAL/MOL
REMARK 923 INTER-LIGAND FREE ENERGY PREDICTED BY IDOCK:   -9.56 KCAL/MOL
REMARK 924 INTRA-LIGAND FREE ENERGY PREDICTED BY IDOCK:   -1.40 KCAL/MOL
REMARK 927      BINDING AFFINITY PREDICTED BY RF-SCORE:    0.00 PKD
ROOT
HETATM    1  O   UNL     1     -12.513  10.639  68.617  1.00  0.00    -0.788 OA 
HETATM    2  C   UNL     1     -11.156  10.360  68.245  1.00  0.00    -0.281 C  
HETATM    3  H   UNL     1     -12.927   9.849  68.941  1.00  0.00     0.000 HD 
ENDROOT
BRANCH   2   4
HETATM    4  C   UNL     1     -10.503   9.743  69.464  1.00  0.00    -0.250 A  
HETATM    5  C   UNL     1      -9.320   8.737  71.804  1.00  0.00    -0.280 A  
HETATM    6  C   UNL     1     -11.290   9.143  70.462  1.00  0.00    -0.300 A  
HETATM    7  O   UNL     1      -9.460   7.799  73.922  1.00  0.00    -0.264 OA 
HETATM    8  O   UNL     1      -7.477   8.343  73.159  1.00  0.00    -0.230 OA 
HETATM    9  C   UNL     1      -9.110   9.811  69.651  1.00  0.00    -0.235 A  
HETATM   10  C   UNL     1     -10.706   8.641  71.629  1.00  0.00    -0.374 A  
HETATM   11  N   UNL     1      -8.709   8.258  73.051  1.00  0.00    -0.227 N  
HETATM   12  C   UNL     1      -8.516   9.311  70.812  1.00  0.00    -0.244 A  
ENDBRANCH   2   4
BRANCH   2  13
HETATM   13  C   UNL     1     -10.478  11.654  67.713  1.00  0.00    -0.187 C  
BRANCH  13  14
HETATM   14  N   UNL     1     -10.874  12.797  68.570  1.00  0.00    -0.246 N  
HETATM   15  C   UNL     1     -10.681  15.092  69.530  1.00  0.00    -0.256 C  
HETATM   16  C   UNL     1     -10.097  13.934  68.707  1.00  0.00    -0.157 C  
HETATM   17  H   UNL     1     -11.756  12.743  69.081  1.00  0.00     0.000 HD 
HETATM   18  O   UNL     1      -8.994  14.030  68.168  1.00  0.00    -0.171 OA 
HETATM   19 CL   UNL     1     -11.906  14.527  70.686  1.00  0.00    -0.359 Cl 
HETATM   20 CL   UNL     1     -11.371  16.297  68.427  1.00  0.00    -0.357 Cl 
ENDBRANCH  13  14
BRANCH  13  21
HETATM   21  C   UNL     1     -10.846  11.892  66.231  1.00  0.00    -0.282 C  
BRANCH  21  22
HETATM   22  O   UNL     1     -12.270  11.896  66.014  1.00  0.00    -0.449 OA 
BRANCH  22  23
HETATM   23  C   UNL     1     -12.696  12.612  64.941  1.00  0.00    -0.370 C  
HETATM   24  O   UNL     1     -13.024  12.136  63.861  1.00  0.00    -0.726 OA 
BRANCH  23  25
HETATM   25  C   UNL     1     -12.732  14.085  65.251  1.00  0.00    -0.468 C  
BRANCH  25  26
HETATM   26  C   UNL     1     -12.136  14.908  64.127  1.00  0.00    -0.289 C  
HETATM   27  C   UNL     1     -11.108  15.902  64.609  1.00  0.00    -0.354 C  
HETATM   28  O   UNL     1      -9.999  15.341  65.132  1.00  0.00    -0.318 OA 
HETATM   29  O   UNL     1     -11.251  17.110  64.507  1.00  0.00    -1.104 OA 
ENDBRANCH  25  26
ENDBRANCH  23  25
ENDBRANCH  22  23
ENDBRANCH  21  22
ENDBRANCH  13  21
ENDBRANCH   2  13
TORSDOF 8
ENDMDL
MODEL       11
REMARK 921   NORMALIZED FREE ENERGY PREDICTED BY IDOCK:   -6.42 KCAL/MOL
REMARK 922        TOTAL FREE ENERGY PREDICTED BY IDOCK:  -10.88 KCAL/MOL
REMARK 923 INTER-LIGAND FREE ENERGY PREDICTED BY IDOCK:   -9.65 KCAL/MOL
REMARK 924 INTRA-LIGAND FREE ENERGY PREDICTED BY IDOCK:   -1.24 KCAL/MOL
REMARK 927      BINDING AFFINITY PREDICTED BY RF-SCORE:    0.00 PKD
ROOT
HETATM    1  O   UNL     1      -8.660  13.231  68.591  1.00  0.00    -0.330 OA 
HETATM    2  C   UNL     1      -9.743  13.893  67.923  1.00  0.00    -0.231 C  
HETATM    3  H   UNL     1      -8.459  13.681  69.403  1.00  0.00     0.000 HD 
ENDROOT
BRANCH   2   4
HETATM    4  C   UNL     1     -10.879  13.959  68.922  1.00  0.00    -0.278 A  
HETATM    5  C   UNL     1     -12.875  14.115  70.891  1.00  0.00    -0.334 A  
HETATM    6  C   UNL     1     -11.440  15.198  69.275  1.00  0.00    -0.327 A  
HETATM    7  O   UNL     1     -14.293  15.330  72.271  1.00  0.00    -0.537 OA 
HETATM    8  O   UNL     1     -14.261  13.147  72.482  1.00  0.00    -0.654 OA 
HETATM    9  C   UNL     1     -11.351  12.797  69.560  1.00  0.00    -0.223 A  
HETATM   10  C   UNL     1     -12.434  15.282  70.255  1.00  0.00    -0.405 A  
HETATM   11  N   UNL     1     -13.882  14.204  71.957  1.00  0.00    -0.444 N  
HETATM   12  C   UNL     1     -12.345  12.869  70.539  1.00  0.00    -0.362 A  
ENDBRANCH   2   4
BRANCH   2  13
HETATM   13  C   UNL     1     -10.072  13.157  66.594  1.00  0.00    -0.264 C  
BRANCH  13  14
HETATM   14  N   UNL     1      -8.998  12.177  66.303  1.00  0.00    -0.368 N  
HETATM   15  C   UNL     1      -8.051  10.018  65.485  1.00  0.00    -0.137 C  
HETATM   16  C   UNL     1      -9.257  10.890  65.863  1.00  0.00    -0.191 C  
HETATM   17  H   UNL     1      -8.026  12.463  66.433  1.00  0.00     0.000 HD 
HETATM   18  O   UNL     1     -10.409  10.468  65.750  1.00  0.00    -0.249 OA 
HETATM   19 CL   UNL     1      -6.567  10.557  66.299  1.00  0.00    -0.110 Cl 
HETATM   20 CL   UNL     1      -7.845  10.047  63.724  1.00  0.00    -0.149 Cl 
ENDBRANCH  13  14
BRANCH  13  21
HETATM   21  C   UNL     1     -10.254  14.169  65.441  1.00  0.00    -0.358 C  
BRANCH  21  22
HETATM   22  O   UNL     1     -11.165  15.232  65.784  1.00  0.00    -0.325 OA 
BRANCH  22  23
HETATM   23  C   UNL     1     -10.842  16.459  65.296  1.00  0.00    -0.258 C  
HETATM   24  O   UNL     1     -11.235  16.920  64.233  1.00  0.00    -1.204 OA 
BRANCH  23  25
HETATM   25  C   UNL     1      -9.939  17.199  66.247  1.00  0.00    -0.316 C  
BRANCH  25  26
HETATM   26  C   UNL     1     -10.706  18.211  67.074  1.00  0.00    -0.274 C  
HETATM   27  C   UNL     1     -10.416  19.636  66.673  1.00  0.00    -0.497 C  
HETATM   28  O   UNL     1     -10.828  19.955  65.429  1.00  0.00    -0.398 OA 
HETATM   29  O   UNL     1      -9.883  20.442  67.418  1.00  0.00    -0.425 OA 
ENDBRANCH  25  26
ENDBRANCH  23  25
ENDBRANCH  22  23
ENDBRANCH  21  22
ENDBRANCH  13  21
ENDBRANCH   2  13
TORSDOF 8
ENDMDL
MODEL       12
REMARK 921   NORMALIZED FREE ENERGY PREDICTED BY IDOCK:   -6.39 KCAL/MOL
REMARK 922        TOTAL FREE ENERGY PREDICTED BY IDOCK:  -10.84 KCAL/MOL
REMARK 923 INTER-LIGAND FREE ENERGY PREDICTED BY IDOCK:   -9.90 KCAL/MOL
REMARK 924 INTRA-LIGAND FREE ENERGY PREDICTED BY IDOCK:   -0.94 KCAL/MOL
REMARK 927      BINDING AFFINITY PREDICTED BY RF-SCORE:    0.00 PKD
ROOT
HETATM    1  O   UNL     1     -12.405  10.700  68.469  1.00  0.00    -0.814 OA 
HETATM    2  C   UNL     1     -11.049  11.130  68.653  1.00  0.00    -0.239 C  
HETATM    3  H   UNL     1     -12.423   9.774  68.260  1.00  0.00     0.000 HD 
ENDROOT
BRANCH   2   4
HETATM    4  C   UNL     1     -10.456  10.218  69.707  1.00  0.00    -0.300 A  
HETATM    5  C   UNL     1      -9.344   8.656  71.759  1.00  0.00    -0.273 A  
HETATM    6  C   UNL     1     -11.271   9.675  70.714  1.00  0.00    -0.403 A  
HETATM    7  O   UNL     1      -9.516   7.485  73.756  1.00  0.00    -0.261 OA 
HETATM    8  O   UNL     1      -7.535   7.675  72.833  1.00  0.00    -0.085 OA 
HETATM    9  C   UNL     1      -9.075   9.947  69.736  1.00  0.00    -0.249 A  
HETATM   10  C   UNL     1     -10.723   8.897  71.738  1.00  0.00    -0.432 A  
HETATM   11  N   UNL     1      -8.757   7.884  72.862  1.00  0.00    -0.165 N  
HETATM   12  C   UNL     1      -8.517   9.169  70.753  1.00  0.00    -0.256 A  
ENDBRANCH   2   4
BRANCH   2  13
HETATM   13  C   UNL     1     -11.018  12.646  68.995  1.00  0.00    -0.191 C  
BRANCH  13  14
HETATM   14  N   UNL     1     -11.971  12.914  70.099  1.00  0.00    -0.460 N  
HETATM   15  C   UNL     1     -13.080  14.289  71.861  1.00  0.00    -0.365 C  
HETATM   16  C   UNL     1     -11.962  14.091  70.826  1.00  0.00    -0.291 C  
HETATM   17  H   UNL     1     -12.663  12.201  70.332  1.00  0.00     0.000 HD 
HETATM   18  O   UNL     1     -11.111  14.961  70.635  1.00  0.00    -0.222 OA 
HETATM   19 CL   UNL     1     -13.758  12.739  72.403  1.00  0.00    -0.581 Cl 
HETATM   20 CL   UNL     1     -14.344  15.314  71.158  1.00  0.00    -0.483 Cl 
ENDBRANCH  13  14
BRANCH  13  21
HETATM   21  C   UNL     1     -11.335  13.494  67.743  1.00  0.00    -0.296 C  
BRANCH  21  22
HETATM   22  O   UNL     1     -12.104  12.763  66.767  1.00  0.00    -0.457 OA 
BRANCH  22  23
HETATM   23  C   UNL     1     -12.367  13.429  65.612  1.00  0.00    -0.470 C  
HETATM   24  O   UNL     1     -13.377  14.087  65.393  1.00  0.00    -0.721 OA 
BRANCH  23  25
HETATM   25  C   UNL     1     -11.242  13.269  64.625  1.00  0.00    -0.370 C  
BRANCH  25  26
HETATM   26  C   UNL     1     -11.508  12.140  63.651  1.00  0.00    -0.566 C  
HETATM   27  C   UNL     1     -10.369  11.154  63.571  1.00  0.00    -0.387 C  
HETATM   28  O   UNL     1     -10.153  10.465  64.710  1.00  0.00    -0.339 OA 
HETATM   29  O   UNL     1      -9.718  10.970  62.555  1.00  0.00    -0.226 OA 
ENDBRANCH  25  26
ENDBRANCH  23  25
ENDBRANCH  22  23
ENDBRANCH  21  22
ENDBRANCH  13  21
ENDBRANCH   2  13
TORSDOF 8
ENDMDL
MODEL       13
REMARK 921   NORMALIZED FREE ENERGY PREDICTED BY IDOCK:   -6.37 KCAL/MOL
REMARK 922        TOTAL FREE ENERGY PREDICTED BY IDOCK:  -10.82 KCAL/MOL
REMARK 923 INTER-LIGAND FREE ENERGY PREDICTED BY IDOCK:   -9.84 KCAL/MOL
REMARK 924 INTRA-LIGAND FREE ENERGY PREDICTED BY IDOCK:   -0.98 KCAL/MOL
REMARK 927      BINDING AFFINITY PREDICTED BY RF-SCORE:    0.00 PKD
ROOT
HETATM    1  O   UNL     1     -10.343  13.410  64.312  1.00  0.00    -0.530 OA 
HETATM    2  C   UNL     1     -10.011  13.962  65.594  1.00  0.00    -0.276 C  
HETATM    3  H   UNL     1      -9.711  12.743  64.074  1.00  0.00     0.000 HD 
ENDROOT
BRANCH   2   4
HETATM    4  C   UNL     1      -9.920  12.789  66.547  1.00  0.00    -0.256 A  
HETATM    5  C   UNL     1      -9.868  10.683  68.405  1.00  0.00    -0.161 A  
HETATM    6  C   UNL     1     -10.813  11.710  66.430  1.00  0.00    -0.333 A  
HETATM    7  O   UNL     1     -10.730   8.717  69.288  1.00  0.00    -0.221 OA 
HETATM    8  O   UNL     1      -9.031   9.655  70.310  1.00  0.00    -0.231 OA 
HETATM    9  C   UNL     1      -8.987  12.783  67.600  1.00  0.00    -0.191 A  
HETATM   10  C   UNL     1     -10.792  10.659  67.353  1.00  0.00    -0.353 A  
HETATM   11  N   UNL     1      -9.877   9.608  69.406  1.00  0.00    -0.182 N  
HETATM   12  C   UNL     1      -8.955  11.737  68.526  1.00  0.00    -0.132 A  
ENDBRANCH   2   4
BRANCH   2  13
HETATM   13  C   UNL     1     -11.045  15.054  65.983  1.00  0.00    -0.329 C  
BRANCH  13  14
HETATM   14  N   UNL     1     -10.322  16.282  66.395  1.00  0.00    -0.306 N  
HETATM   15  C   UNL     1      -9.746  18.708  66.332  1.00  0.00    -0.345 C  
HETATM   16  C   UNL     1     -10.457  17.488  65.729  1.00  0.00    -0.207 C  
HETATM   17  H   UNL     1      -9.701  16.236  67.203  1.00  0.00     0.000 HD 
HETATM   18  O   UNL     1     -11.141  17.589  64.710  1.00  0.00    -0.959 OA 
HETATM   19 CL   UNL     1      -8.371  18.233  67.352  1.00  0.00    -0.242 Cl 
HETATM   20 CL   UNL     1     -10.917  19.659  67.263  1.00  0.00    -0.525 Cl 
ENDBRANCH  13  14
BRANCH  13  21
HETATM   21  C   UNL     1     -11.987  14.541  67.095  1.00  0.00    -0.345 C  
BRANCH  21  22
HETATM   22  O   UNL     1     -11.848  15.290  68.319  1.00  0.00    -0.336 OA 
BRANCH  22  23
HETATM   23  C   UNL     1     -12.016  14.577  69.463  1.00  0.00    -0.319 C  
HETATM   24  O   UNL     1     -11.978  13.355  69.544  1.00  0.00    -0.308 OA 
BRANCH  23  25
HETATM   25  C   UNL     1     -12.244  15.486  70.640  1.00  0.00    -0.445 C  
BRANCH  25  26
HETATM   26  C   UNL     1     -13.601  15.253  71.274  1.00  0.00    -0.584 C  
HETATM   27  C   UNL     1     -13.537  14.358  72.486  1.00  0.00    -0.500 C  
HETATM   28  O   UNL     1     -12.855  14.882  73.525  1.00  0.00    -0.514 OA 
HETATM   29  O   UNL     1     -14.079  13.266  72.537  1.00  0.00    -0.709 OA 
ENDBRANCH  25  26
ENDBRANCH  23  25
ENDBRANCH  22  23
ENDBRANCH  21  22
ENDBRANCH  13  21
ENDBRANCH   2  13
TORSDOF 8
ENDMDL
MODEL       14
REMARK 921   NORMALIZED FREE ENERGY PREDICTED BY IDOCK:   -6.36 KCAL/MOL
REMARK 922        TOTAL FREE ENERGY PREDICTED BY IDOCK:  -10.81 KCAL/MOL
REMARK 923 INTER-LIGAND FREE ENERGY PREDICTED BY IDOCK:   -9.55 KCAL/MOL
REMARK 924 INTRA-LIGAND FREE ENERGY PREDICTED BY IDOCK:   -1.26 KCAL/MOL
REMARK 927      BINDING AFFINITY PREDICTED BY RF-SCORE:    0.00 PKD
ROOT
HETATM    1  O   UNL     1      -8.773  12.355  68.541  1.00  0.00    -0.298 OA 
HETATM    2  C   UNL     1     -10.094  12.420  67.986  1.00  0.00    -0.214 C  
HETATM    3  H   UNL     1      -8.520  13.208  68.872  1.00  0.00     0.000 HD 
ENDROOT
BRANCH   2   4
HETATM    4  C   UNL     1     -10.983  12.980  69.077  1.00  0.00    -0.242 A  
HETATM    5  C   UNL     1     -12.757  14.005  70.998  1.00  0.00    -0.361 A  
HETATM    6  C   UNL     1     -11.720  12.115  69.904  1.00  0.00    -0.361 A  
HETATM    7  O   UNL     1     -14.393  13.727  72.621  1.00  0.00    -0.678 OA 
HETATM    8  O   UNL     1     -13.816  15.770  72.071  1.00  0.00    -0.448 OA 
HETATM    9  C   UNL     1     -11.137  14.368  69.244  1.00  0.00    -0.300 A  
HETATM   10  C   UNL     1     -12.605  12.619  70.861  1.00  0.00    -0.338 A  
HETATM   11  N   UNL     1     -13.724  14.538  71.966  1.00  0.00    -0.394 N  
HETATM   12  C   UNL     1     -12.017  14.884  70.200  1.00  0.00    -0.368 A  
ENDBRANCH   2   4
BRANCH   2  13
HETATM   13  C   UNL     1     -10.509  11.024  67.444  1.00  0.00    -0.218 C  
BRANCH  13  14
HETATM   14  N   UNL     1      -9.381  10.079  67.623  1.00  0.00    -0.143 N  
HETATM   15  C   UNL     1      -8.298   7.931  68.284  1.00  0.00    -0.124 C  
HETATM   16  C   UNL     1      -9.516   8.866  68.275  1.00  0.00    -0.140 C  
HETATM   17  H   UNL     1      -8.466  10.334  67.249  1.00  0.00     0.000 HD 
HETATM   18  O   UNL     1     -10.579   8.533  68.803  1.00  0.00    -0.208 OA 
HETATM   19 CL   UNL     1      -6.779   8.824  68.060  1.00  0.00    -0.068 Cl 
HETATM   20 CL   UNL     1      -8.498   6.707  67.016  1.00  0.00    -0.113 Cl 
ENDBRANCH  13  14
BRANCH  13  21
HETATM   21  C   UNL     1     -10.949  11.122  65.966  1.00  0.00    -0.123 C  
BRANCH  21  22
HETATM   22  O   UNL     1     -12.095  11.978  65.791  1.00  0.00    -0.536 OA 
BRANCH  22  23
HETATM   23  C   UNL     1     -12.230  12.529  64.557  1.00  0.00    -0.453 C  
HETATM   24  O   UNL     1     -13.049  12.181  63.715  1.00  0.00    -0.774 OA 
BRANCH  23  25
HETATM   25  C   UNL     1     -11.244  13.648  64.352  1.00  0.00    -0.382 C  
BRANCH  25  26
HETATM   26  C   UNL     1     -11.469  14.780  65.334  1.00  0.00    -0.341 C  
HETATM   27  C   UNL     1     -11.061  16.124  64.784  1.00  0.00    -0.333 C  
HETATM   28  O   UNL     1     -11.801  16.541  63.737  1.00  0.00    -1.011 OA 
HETATM   29  O   UNL     1     -10.159  16.793  65.262  1.00  0.00    -0.577 OA 
ENDBRANCH  25  26
ENDBRANCH  23  25
ENDBRANCH  22  23
ENDBRANCH  21  22
ENDBRANCH  13  21
ENDBRANCH   2  13
TORSDOF 8
ENDMDL
MODEL       15
REMARK 921   NORMALIZED FREE ENERGY PREDICTED BY IDOCK:   -6.35 KCAL/MOL
REMARK 922        TOTAL FREE ENERGY PREDICTED BY IDOCK:  -10.79 KCAL/MOL
REMARK 923 INTER-LIGAND FREE ENERGY PREDICTED BY IDOCK:   -9.40 KCAL/MOL
REMARK 924 INTRA-LIGAND FREE ENERGY PREDICTED BY IDOCK:   -1.39 KCAL/MOL
REMARK 927      BINDING AFFINITY PREDICTED BY RF-SCORE:    0.00 PKD
ROOT
HETATM    1  O   UNL     1     -10.126  10.219  66.403  1.00  0.00    -0.217 OA 
HETATM    2  C   UNL     1     -11.258  10.867  67.000  1.00  0.00    -0.137 C  
HETATM    3  H   UNL     1     -10.185  10.273  65.457  1.00  0.00     0.000 HD 
ENDROOT
BRANCH   2   4
HETATM    4  C   UNL     1     -11.287  12.272  66.434  1.00  0.00    -0.405 A  
HETATM    5  C   UNL     1     -11.254  14.823  65.260  1.00  0.00    -0.366 A  
HETATM    6  C   UNL     1     -12.243  12.626  65.467  1.00  0.00    -0.501 A  
HETATM    7  O   UNL     1     -12.033  16.370  63.715  1.00  0.00    -0.964 OA 
HETATM    8  O   UNL     1     -10.338  16.938  64.986  1.00  0.00    -0.596 OA 
HETATM    9  C   UNL     1     -10.327  13.226  66.817  1.00  0.00    -0.257 A  
HETATM   10  C   UNL     1     -12.231  13.894  64.879  1.00  0.00    -0.445 A  
HETATM   11  N   UNL     1     -11.205  16.137  64.607  1.00  0.00    -0.405 N  
HETATM   12  C   UNL     1     -10.306  14.497  66.237  1.00  0.00    -0.300 A  
ENDBRANCH   2   4
BRANCH   2  13
HETATM   13  C   UNL     1     -11.162  10.778  68.548  1.00  0.00    -0.279 C  
BRANCH  13  14
HETATM   14  N   UNL     1     -11.185   9.352  68.955  1.00  0.00    -0.451 N  
HETATM   15  C   UNL     1     -10.663   7.395  70.412  1.00  0.00    -0.237 C  
HETATM   16  C   UNL     1     -10.455   8.867  70.026  1.00  0.00    -0.213 C  
HETATM   17  H   UNL     1     -11.764   8.701  68.423  1.00  0.00     0.000 HD 
HETATM   18  O   UNL     1      -9.689   9.590  70.664  1.00  0.00    -0.261 OA 
HETATM   19 CL   UNL     1     -11.264   6.433  69.044  1.00  0.00    -0.416 Cl 
HETATM   20 CL   UNL     1     -11.789   7.309  71.780  1.00  0.00    -0.310 Cl 
ENDBRANCH  13  14
BRANCH  13  21
HETATM   21  C   UNL     1     -12.301  11.584  69.213  1.00  0.00    -0.056 C  
BRANCH  21  22
HETATM   22  O   UNL     1     -11.871  12.247  70.417  1.00  0.00    -0.303 OA 
BRANCH  22  23
HETATM   23  C   UNL     1     -12.533  13.395  70.721  1.00  0.00    -0.341 C  
HETATM   24  O   UNL     1     -13.341  13.522  71.632  1.00  0.00    -0.363 OA 
BRANCH  23  25
HETATM   25  C   UNL     1     -12.134  14.512  69.794  1.00  0.00    -0.380 C  
BRANCH  25  26
HETATM   26  C   UNL     1     -11.106  15.427  70.430  1.00  0.00    -0.351 C  
HETATM   27  C   UNL     1     -10.227  16.115  69.415  1.00  0.00    -0.266 C  
HETATM   28  O   UNL     1     -10.880  16.981  68.614  1.00  0.00    -0.338 OA 
HETATM   29  O   UNL     1      -9.022  15.930  69.344  1.00  0.00    -0.248 OA 
ENDBRANCH  25  26
ENDBRANCH  23  25
ENDBRANCH  22  23
ENDBRANCH  21  22
ENDBRANCH  13  21
ENDBRANCH   2  13
TORSDOF 8
ENDMDL
MODEL       16
REMARK 921   NORMALIZED FREE ENERGY PREDICTED BY IDOCK:   -6.35 KCAL/MOL
REMARK 922        TOTAL FREE ENERGY PREDICTED BY IDOCK:  -10.79 KCAL/MOL
REMARK 923 INTER-LIGAND FREE ENERGY PREDICTED BY IDOCK:   -9.69 KCAL/MOL
REMARK 924 INTRA-LIGAND FREE ENERGY PREDICTED BY IDOCK:   -1.10 KCAL/MOL
REMARK 927      BINDING AFFINITY PREDICTED BY RF-SCORE:    0.00 PKD
ROOT
HETATM    1  O   UNL     1      -9.769  13.273  69.152  1.00  0.00    -0.381 OA 
HETATM    2  C   UNL     1     -11.175  13.539  69.240  1.00  0.00    -0.231 C  
HETATM    3  H   UNL     1      -9.427  13.055  70.011  1.00  0.00     0.000 HD 
ENDROOT
BRANCH   2   4
HETATM    4  C   UNL     1     -11.795  12.321  69.893  1.00  0.00    -0.383 A  
HETATM    5  C   UNL     1     -12.830  10.070  71.216  1.00  0.00    -0.402 A  
HETATM    6  C   UNL     1     -12.692  12.471  70.965  1.00  0.00    -0.316 A  
HETATM    7  O   UNL     1     -14.066   9.092  72.920  1.00  0.00    -0.478 OA 
HETATM    8  O   UNL     1     -12.988   7.776  71.535  1.00  0.00    -0.329 OA 
HETATM    9  C   UNL     1     -11.444  11.022  69.483  1.00  0.00    -0.370 A  
HETATM   10  C   UNL     1     -13.209  11.354  71.628  1.00  0.00    -0.413 A  
HETATM   11  N   UNL     1     -13.331   8.896  71.943  1.00  0.00    -0.377 N  
HETATM   12  C   UNL     1     -11.957   9.899  70.136  1.00  0.00    -0.146 A  
ENDBRANCH   2   4
BRANCH   2  13
HETATM   13  C   UNL     1     -11.735  13.895  67.835  1.00  0.00    -0.361 C  
BRANCH  13  14
HETATM   14  N   UNL     1     -11.309  12.857  66.866  1.00  0.00    -0.296 N  
HETATM   15  C   UNL     1     -11.363  11.600  64.711  1.00  0.00    -0.201 C  
HETATM   16  C   UNL     1     -11.980  12.621  65.678  1.00  0.00    -0.452 C  
HETATM   17  H   UNL     1     -10.487  12.292  67.083  1.00  0.00     0.000 HD 
HETATM   18  O   UNL     1     -13.015  13.225  65.392  1.00  0.00    -0.588 OA 
HETATM   19 CL   UNL     1     -10.310  10.445  65.555  1.00  0.00    -0.308 Cl 
HETATM   20 CL   UNL     1     -10.461  12.466  63.454  1.00  0.00    -0.424 Cl 
ENDBRANCH  13  14
BRANCH  13  21
HETATM   21  C   UNL     1     -11.274  15.306  67.406  1.00  0.00    -0.311 C  
BRANCH  21  22
HETATM   22  O   UNL     1     -11.416  16.274  68.464  1.00  0.00    -0.371 OA 
BRANCH  22  23
HETATM   23  C   UNL     1     -10.284  16.947  68.797  1.00  0.00    -0.311 C  
HETATM   24  O   UNL     1      -9.280  16.441  69.283  1.00  0.00    -0.239 OA 
BRANCH  23  25
HETATM   25  C   UNL     1     -10.410  18.412  68.475  1.00  0.00    -0.326 C  
BRANCH  25  26
HETATM   26  C   UNL     1      -9.319  18.874  67.530  1.00  0.00    -0.327 C  
HETATM   27  C   UNL     1      -9.339  18.143  66.211  1.00  0.00    -0.208 C  
HETATM   28  O   UNL     1     -10.439  18.374  65.466  1.00  0.00    -0.610 OA 
HETATM   29  O   UNL     1      -8.425  17.427  65.833  1.00  0.00    -0.530 OA 
ENDBRANCH  25  26
ENDBRANCH  23  25
ENDBRANCH  22  23
ENDBRANCH  21  22
ENDBRANCH  13  21
ENDBRANCH   2  13
TORSDOF 8
ENDMDL
MODEL       17
REMARK 921   NORMALIZED FREE ENERGY PREDICTED BY IDOCK:   -6.32 KCAL/MOL
REMARK 922        TOTAL FREE ENERGY PREDICTED BY IDOCK:  -10.74 KCAL/MOL
REMARK 923 INTER-LIGAND FREE ENERGY PREDICTED BY IDOCK:  -10.04 KCAL/MOL
REMARK 924 INTRA-LIGAND FREE ENERGY PREDICTED BY IDOCK:   -0.70 KCAL/MOL
REMARK 927      BINDING AFFINITY PREDICTED BY RF-SCORE:    0.00 PKD
ROOT
HETATM    1  O   UNL     1     -12.107  11.472  67.601  1.00  0.00    -0.623 OA 
HETATM    2  C   UNL     1     -10.950  11.883  68.343  1.00  0.00    -0.232 C  
HETATM    3  H   UNL     1     -12.013  10.566  67.334  1.00  0.00     0.000 HD 
ENDROOT
BRANCH   2   4
HETATM    4  C   UNL     1     -10.798  10.888  69.474  1.00  0.00    -0.286 A  
HETATM    5  C   UNL     1     -10.552   8.925  71.468  1.00  0.00    -0.329 A  
HETATM    6  C   UNL     1      -9.587  10.196  69.651  1.00  0.00    -0.237 A  
HETATM    7  O   UNL     1      -9.369   7.241  72.541  1.00  0.00    -0.139 OA 
HETATM    8  O   UNL     1     -11.421   7.646  73.199  1.00  0.00    -0.314 OA 
HETATM    9  C   UNL     1     -11.876  10.592  70.328  1.00  0.00    -0.430 A  
HETATM   10  C   UNL     1      -9.460   9.217  70.642  1.00  0.00    -0.333 A  
HETATM   11  N   UNL     1     -10.439   7.861  72.474  1.00  0.00    -0.273 N  
HETATM   12  C   UNL     1     -11.759   9.618  71.323  1.00  0.00    -0.458 A  
ENDBRANCH   2   4
BRANCH   2  13
HETATM   13  C   UNL     1     -11.102  13.366  68.781  1.00  0.00    -0.262 C  
BRANCH  13  14
HETATM   14  N   UNL     1     -11.967  13.430  69.983  1.00  0.00    -0.369 N  
HETATM   15  C   UNL     1     -12.917  14.461  72.048  1.00  0.00    -0.353 C  
HETATM   16  C   UNL     1     -11.881  14.452  70.914  1.00  0.00    -0.283 C  
HETATM   17  H   UNL     1     -12.655  12.691  70.131  1.00  0.00     0.000 HD 
HETATM   18  O   UNL     1     -11.028  15.336  70.823  1.00  0.00    -0.313 OA 
HETATM   19 CL   UNL     1     -13.586  12.842  72.343  1.00  0.00    -0.622 Cl 
HETATM   20 CL   UNL     1     -14.208  15.608  71.644  1.00  0.00    -0.465 Cl 
ENDBRANCH  13  14
BRANCH  13  21
HETATM   21  C   UNL     1     -11.663  14.222  67.623  1.00  0.00    -0.389 C  
BRANCH  21  22
HETATM   22  O   UNL     1     -10.619  14.820  66.830  1.00  0.00    -0.291 OA 
BRANCH  22  23
HETATM   23  C   UNL     1     -11.021  15.368  65.653  1.00  0.00    -0.326 C  
HETATM   24  O   UNL     1     -10.572  16.398  65.165  1.00  0.00    -0.610 OA 
BRANCH  23  25
HETATM   25  C   UNL     1     -12.092  14.533  65.004  1.00  0.00    -0.390 C  
BRANCH  25  26
HETATM   26  C   UNL     1     -11.510  13.561  63.996  1.00  0.00    -0.357 C  
HETATM   27  C   UNL     1     -11.993  12.146  64.200  1.00  0.00    -0.408 C  
HETATM   28  O   UNL     1     -13.314  11.977  63.987  1.00  0.00    -0.703 OA 
HETATM   29  O   UNL     1     -11.251  11.226  64.501  1.00  0.00    -0.244 OA 
ENDBRANCH  25  26
ENDBRANCH  23  25
ENDBRANCH  22  23
ENDBRANCH  21  22
ENDBRANCH  13  21
ENDBRANCH   2  13
TORSDOF 8
ENDMDL
MODEL       18
REMARK 921   NORMALIZED FREE ENERGY PREDICTED BY IDOCK:   -6.32 KCAL/MOL
REMARK 922        TOTAL FREE ENERGY PREDICTED BY IDOCK:  -10.74 KCAL/MOL
REMARK 923 INTER-LIGAND FREE ENERGY PREDICTED BY IDOCK:  -10.33 KCAL/MOL
REMARK 924 INTRA-LIGAND FREE ENERGY PREDICTED BY IDOCK:   -0.41 KCAL/MOL
REMARK 927      BINDING AFFINITY PREDICTED BY RF-SCORE:    0.00 PKD
ROOT
HETATM    1  O   UNL     1      -9.944  11.357  67.164  1.00  0.00    -0.189 OA 
HETATM    2  C   UNL     1     -10.558  12.201  68.148  1.00  0.00    -0.216 C  
HETATM    3  H   UNL     1      -9.252  10.846  67.564  1.00  0.00     0.000 HD 
ENDROOT
BRANCH   2   4
HETATM    4  C   UNL     1     -10.998  11.288  69.273  1.00  0.00    -0.297 A  
HETATM    5  C   UNL     1     -11.909   9.518  71.254  1.00  0.00    -0.373 A  
HETATM    6  C   UNL     1     -10.390  10.032  69.444  1.00  0.00    -0.245 A  
HETATM    7  O   UNL     1     -11.887   7.454  72.315  1.00  0.00    -0.291 OA 
HETATM    8  O   UNL     1     -13.352   8.944  72.979  1.00  0.00    -0.308 OA 
HETATM    9  C   UNL     1     -12.056  11.649  70.126  1.00  0.00    -0.414 A  
HETATM   10  C   UNL     1     -10.840   9.147  70.428  1.00  0.00    -0.285 A  
HETATM   11  N   UNL     1     -12.419   8.571  72.254  1.00  0.00    -0.379 N  
HETATM   12  C   UNL     1     -12.512  10.773  71.115  1.00  0.00    -0.519 A  
ENDBRANCH   2   4
BRANCH   2  13
HETATM   13  C   UNL     1     -11.691  13.038  67.492  1.00  0.00    -0.370 C  
BRANCH  13  14
HETATM   14  N   UNL     1     -11.811  12.658  66.064  1.00  0.00    -0.426 N  
HETATM   15  C   UNL     1     -11.113  12.564  63.671  1.00  0.00    -0.467 C  
HETATM   16  C   UNL     1     -10.951  13.131  65.088  1.00  0.00    -0.298 C  
HETATM   17  H   UNL     1     -12.560  12.021  65.789  1.00  0.00     0.000 HD 
HETATM   18  O   UNL     1     -10.070  13.952  65.349  1.00  0.00    -0.326 OA 
HETATM   19 CL   UNL     1     -12.753  11.941  63.394  1.00  0.00    -0.655 Cl 
HETATM   20 CL   UNL     1      -9.907  11.290  63.415  1.00  0.00    -0.370 Cl 
ENDBRANCH  13  14
BRANCH  13  21
HETATM   21  C   UNL     1     -11.422  14.550  67.664  1.00  0.00    -0.353 C  
BRANCH  21  22
HETATM   22  O   UNL     1     -10.653  14.838  68.849  1.00  0.00    -0.236 OA 
BRANCH  22  23
HETATM   23  C   UNL     1     -11.126  15.851  69.621  1.00  0.00    -0.320 C  
HETATM   24  O   UNL     1     -10.732  17.010  69.582  1.00  0.00    -0.283 OA 
BRANCH  23  25
HETATM   25  C   UNL     1     -12.221  15.369  70.535  1.00  0.00    -0.436 C  
BRANCH  25  26
HETATM   26  C   UNL     1     -11.845  15.533  71.994  1.00  0.00    -0.538 C  
HETATM   27  C   UNL     1     -12.993  15.251  72.931  1.00  0.00    -0.463 C  
HETATM   28  O   UNL     1     -13.417  13.971  72.917  1.00  0.00    -0.647 OA 
HETATM   29  O   UNL     1     -13.479  16.099  73.662  1.00  0.00    -0.628 OA 
ENDBRANCH  25  26
ENDBRANCH  23  25
ENDBRANCH  22  23
ENDBRANCH  21  22
ENDBRANCH  13  21
ENDBRANCH   2  13
TORSDOF 8
ENDMDL
MODEL       19
REMARK 921   NORMALIZED FREE ENERGY PREDICTED BY IDOCK:   -6.32 KCAL/MOL
REMARK 922        TOTAL FREE ENERGY PREDICTED BY IDOCK:  -10.74 KCAL/MOL
REMARK 923 INTER-LIGAND FREE ENERGY PREDICTED BY IDOCK:   -9.70 KCAL/MOL
REMARK 924 INTRA-LIGAND FREE ENERGY PREDICTED BY IDOCK:   -1.04 KCAL/MOL
REMARK 927      BINDING AFFINITY PREDICTED BY RF-SCORE:    0.00 PKD
ROOT
HETATM    1  O   UNL     1     -10.832  17.571  68.906  1.00  0.00    -0.300 OA 
HETATM    2  C   UNL     1     -10.749  16.374  68.121  1.00  0.00    -0.336 C  
HETATM    3  H   UNL     1     -11.717  17.682  69.232  1.00  0.00     0.000 HD 
ENDROOT
BRANCH   2   4
HETATM    4  C   UNL     1     -11.258  15.253  69.004  1.00  0.00    -0.287 A  
HETATM    5  C   UNL     1     -12.341  13.178  70.556  1.00  0.00    -0.304 A  
HETATM    6  C   UNL     1     -11.161  13.917  68.578  1.00  0.00    -0.298 A  
HETATM    7  O   UNL     1     -12.893  10.947  70.883  1.00  0.00    -0.346 OA 
HETATM    8  O   UNL     1     -13.494  12.399  72.414  1.00  0.00    -0.503 OA 
HETATM    9  C   UNL     1     -11.889  15.528  70.230  1.00  0.00    -0.381 A  
HETATM   10  C   UNL     1     -11.699  12.880  69.347  1.00  0.00    -0.382 A  
HETATM   11  N   UNL     1     -12.953  12.097  71.340  1.00  0.00    -0.330 N  
HETATM   12  C   UNL     1     -12.428  14.499  71.008  1.00  0.00    -0.412 A  
ENDBRANCH   2   4
BRANCH   2  13
HETATM   13  C   UNL     1      -9.301  16.191  67.588  1.00  0.00    -0.214 C  
BRANCH  13  14
HETATM   14  N   UNL     1      -8.445  17.274  68.127  1.00  0.00    -0.230 N  
HETATM   15  C   UNL     1      -6.381  18.254  69.132  1.00  0.00    -0.248 C  
HETATM   16  C   UNL     1      -7.219  17.033  68.725  1.00  0.00    -0.226 C  
HETATM   17  H   UNL     1      -8.772  18.238  68.055  1.00  0.00     0.000 HD 
HETATM   18  O   UNL     1      -6.801  15.887  68.898  1.00  0.00    -0.123 OA 
HETATM   19 CL   UNL     1      -7.392  19.694  69.380  1.00  0.00    -0.318 Cl 
HETATM   20 CL   UNL     1      -5.156  18.557  67.886  1.00  0.00    -0.165 Cl 
ENDBRANCH  13  14
BRANCH  13  21
HETATM   21  C   UNL     1      -9.288  16.163  66.043  1.00  0.00    -0.333 C  
BRANCH  21  22
HETATM   22  O   UNL     1     -10.133  15.126  65.507  1.00  0.00    -0.332 OA 
BRANCH  22  23
HETATM   23  C   UNL     1     -11.151  15.553  64.714  1.00  0.00    -0.407 C  
HETATM   24  O   UNL     1     -11.203  16.644  64.161  1.00  0.00    -1.103 OA 
BRANCH  23  25
HETATM   25  C   UNL     1     -12.216  14.497  64.585  1.00  0.00    -0.474 C  
BRANCH  25  26
HETATM   26  C   UNL     1     -12.013  13.645  63.348  1.00  0.00    -0.202 C  
HETATM   27  C   UNL     1     -12.173  12.170  63.620  1.00  0.00    -0.562 C  
HETATM   28  O   UNL     1     -13.420  11.806  63.981  1.00  0.00    -0.493 OA 
HETATM   29  O   UNL     1     -11.261  11.368  63.495  1.00  0.00    -0.391 OA 
ENDBRANCH  25  26
ENDBRANCH  23  25
ENDBRANCH  22  23
ENDBRANCH  21  22
ENDBRANCH  13  21
ENDBRANCH   2  13
TORSDOF 8
ENDMDL
MODEL       20
REMARK 921   NORMALIZED FREE ENERGY PREDICTED BY IDOCK:   -6.31 KCAL/MOL
REMARK 922        TOTAL FREE ENERGY PREDICTED BY IDOCK:  -10.73 KCAL/MOL
REMARK 923 INTER-LIGAND FREE ENERGY PREDICTED BY IDOCK:   -9.29 KCAL/MOL
REMARK 924 INTRA-LIGAND FREE ENERGY PREDICTED BY IDOCK:   -1.45 KCAL/MOL
REMARK 927      BINDING AFFINITY PREDICTED BY RF-SCORE:    0.00 PKD
ROOT
HETATM    1  O   UNL     1     -12.392  15.701  68.349  1.00  0.00    -0.434 OA 
HETATM    2  C   UNL     1     -12.004  14.684  67.415  1.00  0.00    -0.279 C  
HETATM    3  H   UNL     1     -13.156  15.416  68.836  1.00  0.00     0.000 HD 
ENDROOT
BRANCH   2   4
HETATM    4  C   UNL     1     -11.818  13.417  68.223  1.00  0.00    -0.393 A  
HETATM    5  C   UNL     1     -11.625  11.022  69.678  1.00  0.00    -0.318 A  
HETATM    6  C   UNL     1     -11.423  12.226  67.590  1.00  0.00    -0.401 A  
HETATM    7  O   UNL     1     -11.282   8.730  69.802  1.00  0.00    -0.144 OA 
HETATM    8  O   UNL     1     -11.827   9.797  71.639  1.00  0.00    -0.389 OA 
HETATM    9  C   UNL     1     -12.095  13.390  69.601  1.00  0.00    -0.349 A  
HETATM   10  C   UNL     1     -11.325  11.031  68.310  1.00  0.00    -0.366 A  
HETATM   11  N   UNL     1     -11.574   9.759  70.426  1.00  0.00    -0.264 N  
HETATM   12  C   UNL     1     -11.999  12.202  70.331  1.00  0.00    -0.360 A  
ENDBRANCH   2   4
BRANCH   2  13
HETATM   13  C   UNL     1     -10.754  15.150  66.617  1.00  0.00    -0.310 C  
BRANCH  13  14
HETATM   14  N   UNL     1     -10.364  16.506  67.074  1.00  0.00    -0.299 N  
HETATM   15  C   UNL     1      -8.831  18.232  68.019  1.00  0.00    -0.280 C  
HETATM   16  C   UNL     1      -9.161  16.766  67.707  1.00  0.00    -0.221 C  
HETATM   17  H   UNL     1     -11.010  17.280  66.915  1.00  0.00     0.000 HD 
HETATM   18  O   UNL     1      -8.370  15.862  67.984  1.00  0.00    -0.157 OA 
HETATM   19 CL   UNL     1     -10.298  19.229  68.130  1.00  0.00    -0.494 Cl 
HETATM   20 CL   UNL     1      -7.741  18.860  66.770  1.00  0.00    -0.238 Cl 
ENDBRANCH  13  14
BRANCH  13  21
HETATM   21  C   UNL     1     -11.032  15.114  65.098  1.00  0.00    -0.417 C  
BRANCH  21  22
HETATM   22  O   UNL     1     -10.665  13.853  64.504  1.00  0.00    -0.412 OA 
BRANCH  22  23
HETATM   23  C   UNL     1     -11.666  13.196  63.861  1.00  0.00    -0.456 C  
HETATM   24  O   UNL     1     -12.656  13.725  63.372  1.00  0.00    -0.842 OA 
BRANCH  23  25
HETATM   25  C   UNL     1     -11.396  11.715  63.810  1.00  0.00    -0.482 C  
BRANCH  25  26
HETATM   26  C   UNL     1      -9.914  11.420  63.695  1.00  0.00    -0.402 C  
HETATM   27  C   UNL     1      -9.350  10.765  64.931  1.00  0.00    -0.222 C  
HETATM   28  O   UNL     1      -9.839   9.532  65.177  1.00  0.00    -0.248 OA 
HETATM   29  O   UNL     1      -8.501  11.289  65.634  1.00  0.00    -0.109 OA 
ENDBRANCH  25  26
ENDBRANCH  23  25
ENDBRANCH  22  23
ENDBRANCH  21  22
ENDBRANCH  13  21
ENDBRANCH   2  13
TORSDOF 8
ENDMDL
MODEL       21
REMARK 921   NORMALIZED FREE ENERGY PREDICTED BY IDOCK:   -6.31 KCAL/MOL
REMARK 922        TOTAL FREE ENERGY PREDICTED BY IDOCK:  -10.72 KCAL/MOL
REMARK 923 INTER-LIGAND FREE ENERGY PREDICTED BY IDOCK:   -9.77 KCAL/MOL
REMARK 924 INTRA-LIGAND FREE ENERGY PREDICTED BY IDOCK:   -0.95 KCAL/MOL
REMARK 927      BINDING AFFINITY PREDICTED BY RF-SCORE:    0.00 PKD
ROOT
HETATM    1  O   UNL     1     -12.597  14.236  66.944  1.00  0.00    -0.565 OA 
HETATM    2  C   UNL     1     -11.687  14.535  68.012  1.00  0.00    -0.342 C  
HETATM    3  H   UNL     1     -13.022  15.032  66.651  1.00  0.00     0.000 HD 
ENDROOT
BRANCH   2   4
HETATM    4  C   UNL     1     -10.756  15.608  67.486  1.00  0.00    -0.303 A  
HETATM    5  C   UNL     1      -8.923  17.552  66.622  1.00  0.00    -0.263 A  
HETATM    6  C   UNL     1      -9.754  15.282  66.556  1.00  0.00    -0.287 A  
HETATM    7  O   UNL     1      -7.032  18.192  65.438  1.00  0.00    -0.510 OA 
HETATM    8  O   UNL     1      -8.051  19.703  66.658  1.00  0.00    -0.279 OA 
HETATM    9  C   UNL     1     -10.835  16.930  67.959  1.00  0.00    -0.338 A  
HETATM   10  C   UNL     1      -8.838  16.246  66.123  1.00  0.00    -0.362 A  
HETATM   11  N   UNL     1      -7.931  18.554  66.210  1.00  0.00    -0.267 N  
HETATM   12  C   UNL     1      -9.927  17.902  67.532  1.00  0.00    -0.322 A  
ENDBRANCH   2   4
BRANCH   2  13
HETATM   13  C   UNL     1     -10.990  13.232  68.493  1.00  0.00    -0.266 C  
BRANCH  13  14
HETATM   14  N   UNL     1     -10.801  12.326  67.334  1.00  0.00    -0.232 N  
HETATM   15  C   UNL     1      -9.683  10.530  66.011  1.00  0.00    -0.205 C  
HETATM   16  C   UNL     1      -9.695  11.505  67.198  1.00  0.00    -0.183 C  
HETATM   17  H   UNL     1     -11.517  12.307  66.606  1.00  0.00     0.000 HD 
HETATM   18  O   UNL     1      -8.769  11.532  68.010  1.00  0.00    -0.138 OA 
HETATM   19 CL   UNL     1     -10.731  11.088  64.690  1.00  0.00    -0.367 Cl 
HETATM   20 CL   UNL     1     -10.186   8.926  66.575  1.00  0.00    -0.348 Cl 
ENDBRANCH  13  14
BRANCH  13  21
HETATM   21  C   UNL     1     -11.807  12.561  69.620  1.00  0.00    -0.314 C  
BRANCH  21  22
HETATM   22  O   UNL     1     -11.825  13.348  70.827  1.00  0.00    -0.215 OA 
BRANCH  22  23
HETATM   23  C   UNL     1     -13.027  13.427  71.456  1.00  0.00    -0.341 C  
HETATM   24  O   UNL     1     -13.530  12.535  72.127  1.00  0.00    -0.532 OA 
BRANCH  23  25
HETATM   25  C   UNL     1     -13.667  14.771  71.235  1.00  0.00    -0.476 C  
BRANCH  25  26
HETATM   26  C   UNL     1     -13.868  15.516  72.539  1.00  0.00    -0.669 C  
HETATM   27  C   UNL     1     -12.576  15.765  73.277  1.00  0.00    -0.511 C  
HETATM   28  O   UNL     1     -11.724  16.592  72.638  1.00  0.00    -0.500 OA 
HETATM   29  O   UNL     1     -12.333  15.286  74.373  1.00  0.00    -0.633 OA 
ENDBRANCH  25  26
ENDBRANCH  23  25
ENDBRANCH  22  23
ENDBRANCH  21  22
ENDBRANCH  13  21
ENDBRANCH   2  13
TORSDOF 8
ENDMDL
MODEL       22
REMARK 921   NORMALIZED FREE ENERGY PREDICTED BY IDOCK:   -6.28 KCAL/MOL
REMARK 922        TOTAL FREE ENERGY PREDICTED BY IDOCK:  -10.69 KCAL/MOL
REMARK 923 INTER-LIGAND FREE ENERGY PREDICTED BY IDOCK:   -9.51 KCAL/MOL
REMARK 924 INTRA-LIGAND FREE ENERGY PREDICTED BY IDOCK:   -1.18 KCAL/MOL
REMARK 927      BINDING AFFINITY PREDICTED BY RF-SCORE:    0.00 PKD
ROOT
HETATM    1  O   UNL     1     -11.520  14.714  71.213  1.00  0.00    -0.502 OA 
HETATM    2  C   UNL     1     -10.969  14.029  70.080  1.00  0.00     0.188 C  
HETATM    3  H   UNL     1     -10.867  15.291  71.590  1.00  0.00     0.000 HD 
ENDROOT
BRANCH   2   4
HETATM    4  C   UNL     1     -10.445  15.104  69.151  1.00  0.00    -0.252 A  
HETATM    5  C   UNL     1      -9.559  17.030  67.309  1.00  0.00    -0.244 A  
HETATM    6  C   UNL     1     -11.209  16.256  68.898  1.00  0.00    -0.337 A  
HETATM    7  O   UNL     1      -9.869  18.974  66.080  1.00  0.00    -0.439 OA 
HETATM    8  O   UNL     1      -8.033  17.821  65.749  1.00  0.00    -0.544 OA 
HETATM    9  C   UNL     1      -9.219  14.945  68.480  1.00  0.00    -0.192 A  
HETATM   10  C   UNL     1     -10.773  17.218  67.982  1.00  0.00    -0.367 A  
HETATM   11  N   UNL     1      -9.123  18.012  66.308  1.00  0.00    -0.227 N  
HETATM   12  C   UNL     1      -8.772  15.901  67.564  1.00  0.00    -0.189 A  
ENDBRANCH   2   4
BRANCH   2  13
HETATM   13  C   UNL     1     -12.038  13.084  69.463  1.00  0.00    -0.230 C  
BRANCH  13  14
HETATM   14  N   UNL     1     -11.932  11.750  70.101  1.00  0.00    -0.342 N  
HETATM   15  C   UNL     1     -12.497   9.970  71.756  1.00  0.00    -0.383 C  
HETATM   16  C   UNL     1     -12.599  11.423  71.269  1.00  0.00    -0.374 C  
HETATM   17  H   UNL     1     -11.342  11.042  69.661  1.00  0.00     0.000 HD 
HETATM   18  O   UNL     1     -13.273  12.254  71.880  1.00  0.00    -0.473 OA 
HETATM   19 CL   UNL     1     -11.040   9.167  71.134  1.00  0.00    -0.362 Cl 
HETATM   20 CL   UNL     1     -13.956   9.090  71.263  1.00  0.00    -0.295 Cl 
ENDBRANCH  13  14
BRANCH  13  21
HETATM   21  C   UNL     1     -11.873  13.003  67.929  1.00  0.00    -0.343 C  
BRANCH  21  22
HETATM   22  O   UNL     1     -12.013  11.656  67.434  1.00  0.00    -0.621 OA 
BRANCH  22  23
HETATM   23  C   UNL     1     -11.031  11.238  66.594  1.00  0.00    -0.268 C  
HETATM   24  O   UNL     1     -10.608  10.090  66.520  1.00  0.00    -0.180 OA 
BRANCH  23  25
HETATM   25  C   UNL     1     -10.528  12.371  65.740  1.00  0.00    -0.288 C  
BRANCH  25  26
HETATM   26  C   UNL     1     -10.887  12.175  64.281  1.00  0.00    -0.388 C  
HETATM   27  C   UNL     1     -12.254  12.713  63.937  1.00  0.00    -0.481 C  
HETATM   28  O   UNL     1     -12.366  14.052  64.052  1.00  0.00    -0.646 OA 
HETATM   29  O   UNL     1     -13.172  12.005  63.557  1.00  0.00    -0.724 OA 
ENDBRANCH  25  26
ENDBRANCH  23  25
ENDBRANCH  22  23
ENDBRANCH  21  22
ENDBRANCH  13  21
ENDBRANCH   2  13
TORSDOF 8
ENDMDL
MODEL       23
REMARK 921   NORMALIZED FREE ENERGY PREDICTED BY IDOCK:   -6.28 KCAL/MOL
REMARK 922        TOTAL FREE ENERGY PREDICTED BY IDOCK:  -10.68 KCAL/MOL
REMARK 923 INTER-LIGAND FREE ENERGY PREDICTED BY IDOCK:   -9.49 KCAL/MOL
REMARK 924 INTRA-LIGAND FREE ENERGY PREDICTED BY IDOCK:   -1.19 KCAL/MOL
REMARK 927      BINDING AFFINITY PREDICTED BY RF-SCORE:    0.00 PKD
ROOT
HETATM    1  O   UNL     1     -12.247  14.656  69.217  1.00  0.00    -0.479 OA 
HETATM    2  C   UNL     1     -10.901  14.310  68.864  1.00  0.00    -0.257 C  
HETATM    3  H   UNL     1     -12.247  15.429  69.769  1.00  0.00     0.000 HD 
ENDROOT
BRANCH   2   4
HETATM    4  C   UNL     1     -10.296  15.549  68.238  1.00  0.00    -0.235 A  
HETATM    5  C   UNL     1      -9.260  17.816  66.944  1.00  0.00    -0.258 A  
HETATM    6  C   UNL     1     -10.999  16.766  68.255  1.00  0.00    -0.327 A  
HETATM    7  O   UNL     1      -9.440  20.014  66.218  1.00  0.00    -0.389 OA 
HETATM    8  O   UNL     1      -7.646  18.882  65.661  1.00  0.00    -0.485 OA 
HETATM    9  C   UNL     1      -9.055  15.495  67.578  1.00  0.00    -0.198 A  
HETATM   10  C   UNL     1     -10.488  17.898  67.612  1.00  0.00    -0.406 A  
HETATM   11  N   UNL     1      -8.745  18.988  66.223  1.00  0.00    -0.305 N  
HETATM   12  C   UNL     1      -8.534  16.620  66.934  1.00  0.00    -0.246 A  
ENDBRANCH   2   4
BRANCH   2  13
HETATM   13  C   UNL     1     -10.900  13.044  67.962  1.00  0.00    -0.242 C  
BRANCH  13  14
HETATM   14  N   UNL     1     -11.355  13.418  66.601  1.00  0.00    -0.313 N  
HETATM   15  C   UNL     1     -11.397  13.312  64.109  1.00  0.00    -0.386 C  
HETATM   16  C   UNL     1     -10.750  12.941  65.451  1.00  0.00    -0.285 C  
HETATM   17  H   UNL     1     -12.148  14.054  66.509  1.00  0.00     0.000 HD 
HETATM   18  O   UNL     1      -9.751  12.223  65.500  1.00  0.00    -0.234 OA 
HETATM   19 CL   UNL     1     -12.367  14.795  64.232  1.00  0.00    -0.472 Cl 
HETATM   20 CL   UNL     1     -12.394  11.955  63.552  1.00  0.00    -0.647 Cl 
ENDBRANCH  13  14
BRANCH  13  21
HETATM   21  C   UNL     1     -11.781  11.935  68.578  1.00  0.00    -0.330 C  
BRANCH  21  22
HETATM   22  O   UNL     1     -11.353  11.570  69.905  1.00  0.00    -0.258 OA 
BRANCH  22  23
HETATM   23  C   UNL     1     -12.324  11.579  70.856  1.00  0.00    -0.359 C  
HETATM   24  O   UNL     1     -12.929  12.574  71.235  1.00  0.00    -0.322 OA 
BRANCH  23  25
HETATM   25  C   UNL     1     -12.579  10.192  71.383  1.00  0.00    -0.526 C  
BRANCH  25  26
HETATM   26  C   UNL     1     -11.301   9.384  71.473  1.00  0.00    -0.464 C  
HETATM   27  C   UNL     1     -11.500   8.043  72.136  1.00  0.00    -0.335 C  
HETATM   28  O   UNL     1     -12.291   7.197  71.445  1.00  0.00    -0.337 OA 
HETATM   29  O   UNL     1     -10.969   7.736  73.191  1.00  0.00    -0.396 OA 
ENDBRANCH  25  26
ENDBRANCH  23  25
ENDBRANCH  22  23
ENDBRANCH  21  22
ENDBRANCH  13  21
ENDBRANCH   2  13
TORSDOF 8
ENDMDL
MODEL       24
REMARK 921   NORMALIZED FREE ENERGY PREDICTED BY IDOCK:   -6.27 KCAL/MOL
REMARK 922        TOTAL FREE ENERGY PREDICTED BY IDOCK:  -10.67 KCAL/MOL
REMARK 923 INTER-LIGAND FREE ENERGY PREDICTED BY IDOCK:   -8.91 KCAL/MOL
REMARK 924 INTRA-LIGAND FREE ENERGY PREDICTED BY IDOCK:   -1.76 KCAL/MOL
REMARK 927      BINDING AFFINITY PREDICTED BY RF-SCORE:    0.00 PKD
ROOT
HETATM    1  O   UNL     1     -12.170  11.441  68.048  1.00  0.00    -0.607 OA 
HETATM    2  C   UNL     1     -10.859  10.866  67.952  1.00  0.00    -0.247 C  
HETATM    3  H   UNL     1     -12.796  10.774  68.304  1.00  0.00     0.000 HD 
ENDROOT
BRANCH   2   4
HETATM    4  C   UNL     1     -10.589  10.204  69.287  1.00  0.00    -0.254 A  
HETATM    5  C   UNL     1     -10.094   8.834  71.688  1.00  0.00    -0.319 A  
HETATM    6  C   UNL     1      -9.281   9.828  69.639  1.00  0.00    -0.239 A  
HETATM    7  O   UNL     1      -8.677   7.709  73.143  1.00  0.00    -0.139 OA 
HETATM    8  O   UNL     1     -10.806   7.832  73.657  1.00  0.00    -0.259 OA 
HETATM    9  C   UNL     1     -11.641   9.899  70.170  1.00  0.00    -0.281 A  
HETATM   10  C   UNL     1      -9.029   9.145  70.833  1.00  0.00    -0.298 A  
HETATM   11  N   UNL     1      -9.840   8.070  72.917  1.00  0.00    -0.278 N  
HETATM   12  C   UNL     1     -11.400   9.219  71.367  1.00  0.00    -0.434 A  
ENDBRANCH   2   4
BRANCH   2  13
HETATM   13  C   UNL     1      -9.834  11.957  67.534  1.00  0.00    -0.188 C  
BRANCH  13  14
HETATM   14  N   UNL     1     -10.372  13.291  67.893  1.00  0.00    -0.233 N  
HETATM   15  C   UNL     1     -10.265  15.751  68.295  1.00  0.00    -0.225 C  
HETATM   16  C   UNL     1      -9.567  14.408  68.040  1.00  0.00    -0.216 C  
HETATM   17  H   UNL     1     -11.377  13.391  68.039  1.00  0.00     0.000 HD 
HETATM   18  O   UNL     1      -8.341  14.336  67.940  1.00  0.00    -0.141 OA 
HETATM   19 CL   UNL     1     -11.875  15.531  69.013  1.00  0.00    -0.383 Cl 
HETATM   20 CL   UNL     1     -10.378  16.645  66.768  1.00  0.00    -0.299 Cl 
ENDBRANCH  13  14
BRANCH  13  21
HETATM   21  C   UNL     1      -9.513  11.854  66.026  1.00  0.00    -0.229 C  
BRANCH  21  22
HETATM   22  O   UNL     1     -10.465  11.035  65.318  1.00  0.00    -0.273 OA 
BRANCH  22  23
HETATM   23  C   UNL     1     -10.415  11.119  63.963  1.00  0.00    -0.383 C  
HETATM   24  O   UNL     1      -9.808  10.346  63.231  1.00  0.00    -0.302 OA 
BRANCH  23  25
HETATM   25  C   UNL     1     -11.220  12.288  63.462  1.00  0.00    -0.535 C  
BRANCH  25  26
HETATM   26  C   UNL     1     -12.508  12.457  64.244  1.00  0.00    -0.529 C  
HETATM   27  C   UNL     1     -12.583  13.776  64.971  1.00  0.00    -0.389 C  
HETATM   28  O   UNL     1     -12.632  14.852  64.160  1.00  0.00    -0.785 OA 
HETATM   29  O   UNL     1     -12.627  13.865  66.187  1.00  0.00    -0.452 OA 
ENDBRANCH  25  26
ENDBRANCH  23  25
ENDBRANCH  22  23
ENDBRANCH  21  22
ENDBRANCH  13  21
ENDBRANCH   2  13
TORSDOF 8
ENDMDL
MODEL       25
REMARK 921   NORMALIZED FREE ENERGY PREDICTED BY IDOCK:   -6.26 KCAL/MOL
REMARK 922        TOTAL FREE ENERGY PREDICTED BY IDOCK:  -10.66 KCAL/MOL
REMARK 923 INTER-LIGAND FREE ENERGY PREDICTED BY IDOCK:   -9.16 KCAL/MOL
REMARK 924 INTRA-LIGAND FREE ENERGY PREDICTED BY IDOCK:   -1.50 KCAL/MOL
REMARK 927      BINDING AFFINITY PREDICTED BY RF-SCORE:    0.00 PKD
ROOT
HETATM    1  O   UNL     1     -12.139  10.664  68.216  1.00  0.00    -0.817 OA 
HETATM    2  C   UNL     1     -10.812  11.175  68.027  1.00  0.00    -0.225 C  
HETATM    3  H   UNL     1     -12.717  11.364  68.496  1.00  0.00     0.000 HD 
ENDROOT
BRANCH   2   4
HETATM    4  C   UNL     1     -10.940  12.333  67.059  1.00  0.00    -0.314 A  
HETATM    5  C   UNL     1     -11.260  14.560  65.378  1.00  0.00    -0.342 A  
HETATM    6  C   UNL     1     -10.045  13.415  67.127  1.00  0.00    -0.240 A  
HETATM    7  O   UNL     1     -10.676  16.697  64.686  1.00  0.00    -0.742 OA 
HETATM    8  O   UNL     1     -12.395  15.731  63.726  1.00  0.00    -0.698 OA 
HETATM    9  C   UNL     1     -11.986  12.379  66.119  1.00  0.00    -0.397 A  
HETATM   10  C   UNL     1     -10.200  14.526  66.292  1.00  0.00    -0.306 A  
HETATM   11  N   UNL     1     -11.458  15.748  64.537  1.00  0.00    -0.370 N  
HETATM   12  C   UNL     1     -12.149  13.484  65.279  1.00  0.00    -0.439 A  
ENDBRANCH   2   4
BRANCH   2  13
HETATM   13  C   UNL     1      -9.866  10.031  67.569  1.00  0.00    -0.175 C  
BRANCH  13  14
HETATM   14  N   UNL     1      -9.673  10.118  66.101  1.00  0.00    -0.204 N  
HETATM   15  C   UNL     1      -8.358  10.194  63.982  1.00  0.00    -0.172 C  
HETATM   16  C   UNL     1      -8.423  10.234  65.516  1.00  0.00    -0.162 C  
HETATM   17  H   UNL     1     -10.495  10.092  65.497  1.00  0.00     0.000 HD 
HETATM   18  O   UNL     1      -7.401  10.335  66.195  1.00  0.00    -0.109 OA 
HETATM   19 CL   UNL     1      -9.898  10.678  63.243  1.00  0.00    -0.373 Cl 
HETATM   20 CL   UNL     1      -7.901   8.560  63.465  1.00  0.00    -0.143 Cl 
ENDBRANCH  13  14
BRANCH  13  21
HETATM   21  C   UNL     1     -10.428   8.655  67.994  1.00  0.00    -0.197 C  
BRANCH  21  22
HETATM   22  O   UNL     1     -10.440   8.487  69.425  1.00  0.00    -0.217 OA 
BRANCH  22  23
HETATM   23  C   UNL     1     -11.075   7.374  69.878  1.00  0.00    -0.190 C  
HETATM   24  O   UNL     1     -11.303   6.373  69.210  1.00  0.00    -0.379 OA 
BRANCH  23  25
HETATM   25  C   UNL     1     -11.456   7.519  71.327  1.00  0.00    -0.298 C  
BRANCH  25  26
HETATM   26  C   UNL     1     -11.572   8.975  71.732  1.00  0.00    -0.444 C  
HETATM   27  C   UNL     1     -12.967   9.522  71.561  1.00  0.00    -0.386 C  
HETATM   28  O   UNL     1     -13.886   8.956  72.370  1.00  0.00    -0.447 OA 
HETATM   29  O   UNL     1     -13.240  10.420  70.781  1.00  0.00    -0.375 OA 
ENDBRANCH  25  26
ENDBRANCH  23  25
ENDBRANCH  22  23
ENDBRANCH  21  22
ENDBRANCH  13  21
ENDBRANCH   2  13
TORSDOF 8
ENDMDL
MODEL       26
REMARK 921   NORMALIZED FREE ENERGY PREDICTED BY IDOCK:   -6.25 KCAL/MOL
REMARK 922        TOTAL FREE ENERGY PREDICTED BY IDOCK:  -10.65 KCAL/MOL
REMARK 923 INTER-LIGAND FREE ENERGY PREDICTED BY IDOCK:  -10.25 KCAL/MOL
REMARK 924 INTRA-LIGAND FREE ENERGY PREDICTED BY IDOCK:   -0.40 KCAL/MOL
REMARK 927      BINDING AFFINITY PREDICTED BY RF-SCORE:    0.00 PKD
ROOT
HETATM    1  O   UNL     1     -10.282  13.465  69.813  1.00  0.00     0.088 OA 
HETATM    2  C   UNL     1     -11.209  12.415  69.504  1.00  0.00    -0.100 C  
HETATM    3  H   UNL     1      -9.539  13.424  69.223  1.00  0.00     0.000 HD 
ENDROOT
BRANCH   2   4
HETATM    4  C   UNL     1     -11.542  12.565  68.034  1.00  0.00    -0.395 A  
HETATM    5  C   UNL     1     -12.006  12.882  65.283  1.00  0.00    -0.419 A  
HETATM    6  C   UNL     1     -11.307  11.504  67.143  1.00  0.00    -0.354 A  
HETATM    7  O   UNL     1     -11.912  12.114  63.094  1.00  0.00    -0.390 OA 
HETATM    8  O   UNL     1     -12.633  14.155  63.446  1.00  0.00    -0.818 OA 
HETATM    9  C   UNL     1     -12.033  13.781  67.524  1.00  0.00    -0.411 A  
HETATM   10  C   UNL     1     -11.536  11.657  65.772  1.00  0.00    -0.175 A  
HETATM   11  N   UNL     1     -12.197  13.063  63.838  1.00  0.00    -0.434 N  
HETATM   12  C   UNL     1     -12.267  13.943  66.156  1.00  0.00    -0.498 A  
ENDBRANCH   2   4
BRANCH   2  13
HETATM   13  C   UNL     1     -12.424  12.482  70.470  1.00  0.00    -0.185 C  
BRANCH  13  14
HETATM   14  N   UNL     1     -12.400  13.778  71.191  1.00  0.00    -0.363 N  
HETATM   15  C   UNL     1     -13.107  15.429  72.923  1.00  0.00    -0.492 C  
HETATM   16  C   UNL     1     -13.319  14.105  72.173  1.00  0.00    -0.436 C  
HETATM   17  H   UNL     1     -11.676  14.457  70.953  1.00  0.00     0.000 HD 
HETATM   18  O   UNL     1     -14.254  13.355  72.457  1.00  0.00    -0.721 OA 
HETATM   19 CL   UNL     1     -12.155  16.583  71.966  1.00  0.00    -0.336 Cl 
HETATM   20 CL   UNL     1     -12.314  15.095  74.473  1.00  0.00    -0.664 Cl 
ENDBRANCH  13  14
BRANCH  13  21
HETATM   21  C   UNL     1     -12.415  11.282  71.443  1.00  0.00    -0.287 C  
BRANCH  21  22
HETATM   22  O   UNL     1     -13.168  10.162  70.939  1.00  0.00    -0.395 OA 
BRANCH  22  23
HETATM   23  C   UNL     1     -13.361   9.144  71.818  1.00  0.00    -0.406 C  
HETATM   24  O   UNL     1     -14.372   8.974  72.488  1.00  0.00    -0.570 OA 
BRANCH  23  25
HETATM   25  C   UNL     1     -12.167   8.229  71.858  1.00  0.00    -0.383 C  
BRANCH  25  26
HETATM   26  C   UNL     1     -12.345   7.036  70.939  1.00  0.00    -0.361 C  
HETATM   27  C   UNL     1     -11.115   6.168  70.860  1.00  0.00    -0.307 C  
HETATM   28  O   UNL     1     -10.795   5.555  72.017  1.00  0.00    -0.230 OA 
HETATM   29  O   UNL     1     -10.478   6.007  69.831  1.00  0.00    -0.203 OA 
ENDBRANCH  25  26
ENDBRANCH  23  25
ENDBRANCH  22  23
ENDBRANCH  21  22
ENDBRANCH  13  21
ENDBRANCH   2  13
TORSDOF 8
ENDMDL
MODEL       27
REMARK 921   NORMALIZED FREE ENERGY PREDICTED BY IDOCK:   -6.22 KCAL/MOL
REMARK 922        TOTAL FREE ENERGY PREDICTED BY IDOCK:  -10.59 KCAL/MOL
REMARK 923 INTER-LIGAND FREE ENERGY PREDICTED BY IDOCK:   -9.18 KCAL/MOL
REMARK 924 INTRA-LIGAND FREE ENERGY PREDICTED BY IDOCK:   -1.41 KCAL/MOL
REMARK 927      BINDING AFFINITY PREDICTED BY RF-SCORE:    0.00 PKD
ROOT
HETATM    1  O   UNL     1      -9.091  10.860  67.266  1.00  0.00    -0.141 OA 
HETATM    2  C   UNL     1      -9.512  11.782  68.281  1.00  0.00    -0.193 C  
HETATM    3  H   UNL     1      -8.635  10.129  67.663  1.00  0.00     0.000 HD 
ENDROOT
BRANCH   2   4
HETATM    4  C   UNL     1     -10.325  10.975  69.273  1.00  0.00    -0.181 A  
HETATM    5  C   UNL     1     -11.803   9.595  71.221  1.00  0.00    -0.381 A  
HETATM    6  C   UNL     1     -11.679  11.279  69.491  1.00  0.00    -0.415 A  
HETATM    7  O   UNL     1     -13.734   9.266  72.467  1.00  0.00    -0.467 OA 
HETATM    8  O   UNL     1     -11.987   8.017  72.914  1.00  0.00    -0.297 OA 
HETATM    9  C   UNL     1      -9.730   9.953  70.034  1.00  0.00    -0.274 A  
HETATM   10  C   UNL     1     -12.420  10.596  70.460  1.00  0.00    -0.445 A  
HETATM   11  N   UNL     1     -12.562   8.910  72.276  1.00  0.00    -0.389 N  
HETATM   12  C   UNL     1     -10.461   9.261  71.004  1.00  0.00    -0.384 A  
ENDBRANCH   2   4
BRANCH   2  13
HETATM   13  C   UNL     1     -10.259  12.979  67.631  1.00  0.00    -0.216 C  
BRANCH  13  14
HETATM   14  N   UNL     1     -10.344  12.761  66.167  1.00  0.00    -0.264 N  
HETATM   15  C   UNL     1     -11.488  12.269  64.005  1.00  0.00    -0.409 C  
HETATM   16  C   UNL     1     -11.503  12.339  65.539  1.00  0.00    -0.361 C  
HETATM   17  H   UNL     1      -9.513  12.930  65.598  1.00  0.00     0.000 HD 
HETATM   18  O   UNL     1     -12.517  12.058  66.180  1.00  0.00    -0.213 OA 
HETATM   19 CL   UNL     1      -9.839  12.089  63.370  1.00  0.00    -0.374 Cl 
HETATM   20 CL   UNL     1     -12.256  13.727  63.351  1.00  0.00    -0.323 Cl 
ENDBRANCH  13  14
BRANCH  13  21
HETATM   21  C   UNL     1      -9.555  14.312  67.974  1.00  0.00    -0.223 C  
BRANCH  21  22
HETATM   22  O   UNL     1      -9.829  14.744  69.321  1.00  0.00    -0.197 OA 
BRANCH  22  23
HETATM   23  C   UNL     1     -11.059  15.286  69.523  1.00  0.00    -0.281 C  
HETATM   24  O   UNL     1     -11.688  15.932  68.694  1.00  0.00    -0.387 OA 
BRANCH  23  25
HETATM   25  C   UNL     1     -11.567  14.978  70.906  1.00  0.00    -0.364 C  
BRANCH  25  26
HETATM   26  C   UNL     1     -12.982  14.437  70.875  1.00  0.00    -0.413 C  
HETATM   27  C   UNL     1     -13.441  13.918  72.214  1.00  0.00    -0.526 C  
HETATM   28  O   UNL     1     -13.550  14.866  73.167  1.00  0.00    -0.520 OA 
HETATM   29  O   UNL     1     -13.721  12.747  72.415  1.00  0.00    -0.546 OA 
ENDBRANCH  25  26
ENDBRANCH  23  25
ENDBRANCH  22  23
ENDBRANCH  21  22
ENDBRANCH  13  21
ENDBRANCH   2  13
TORSDOF 8
ENDMDL
MODEL       28
REMARK 921   NORMALIZED FREE ENERGY PREDICTED BY IDOCK:   -6.20 KCAL/MOL
REMARK 922        TOTAL FREE ENERGY PREDICTED BY IDOCK:  -10.57 KCAL/MOL
REMARK 923 INTER-LIGAND FREE ENERGY PREDICTED BY IDOCK:  -10.44 KCAL/MOL
REMARK 924 INTRA-LIGAND FREE ENERGY PREDICTED BY IDOCK:   -0.13 KCAL/MOL
REMARK 927      BINDING AFFINITY PREDICTED BY RF-SCORE:    0.00 PKD
ROOT
HETATM    1  O   UNL     1      -9.845  14.285  69.374  1.00  0.00    -0.416 OA 
HETATM    2  C   UNL     1     -10.444  14.411  68.076  1.00  0.00    -0.237 C  
HETATM    3  H   UNL     1      -8.954  14.610  69.350  1.00  0.00     0.000 HD 
ENDROOT
BRANCH   2   4
HETATM    4  C   UNL     1     -10.298  15.866  67.683  1.00  0.00    -0.281 A  
HETATM    5  C   UNL     1     -10.180  18.588  67.000  1.00  0.00    -0.380 A  
HETATM    6  C   UNL     1      -9.991  16.835  68.654  1.00  0.00    -0.276 A  
HETATM    7  O   UNL     1      -9.958  20.828  67.566  1.00  0.00    -0.408 OA 
HETATM    8  O   UNL     1     -10.375  20.325  65.473  1.00  0.00    -0.327 OA 
HETATM    9  C   UNL     1     -10.524  16.284  66.359  1.00  0.00    -0.297 A  
HETATM   10  C   UNL     1      -9.932  18.191  68.320  1.00  0.00    -0.380 A  
HETATM   11  N   UNL     1     -10.170  20.015  66.655  1.00  0.00    -0.462 N  
HETATM   12  C   UNL     1     -10.465  17.637  66.013  1.00  0.00    -0.278 A  
ENDBRANCH   2   4
BRANCH   2  13
HETATM   13  C   UNL     1     -11.903  13.878  68.114  1.00  0.00    -0.372 C  
BRANCH  13  14
HETATM   14  N   UNL     1     -12.548  14.320  69.374  1.00  0.00    -0.495 N  
HETATM   15  C   UNL     1     -13.095  14.214  71.806  1.00  0.00    -0.357 C  
HETATM   16  C   UNL     1     -12.486  13.584  70.545  1.00  0.00    -0.302 C  
HETATM   17  H   UNL     1     -13.060  15.203  69.378  1.00  0.00     0.000 HD 
HETATM   18  O   UNL     1     -11.939  12.481  70.584  1.00  0.00    -0.305 OA 
HETATM   19 CL   UNL     1     -14.330  15.427  71.407  1.00  0.00    -0.576 Cl 
HETATM   20 CL   UNL     1     -11.798  14.937  72.776  1.00  0.00    -0.351 Cl 
ENDBRANCH  13  14
BRANCH  13  21
HETATM   21  C   UNL     1     -11.926  12.340  67.964  1.00  0.00    -0.187 C  
BRANCH  21  22
HETATM   22  O   UNL     1     -12.038  11.926  66.589  1.00  0.00    -0.587 OA 
BRANCH  22  23
HETATM   23  C   UNL     1     -10.903  11.421  66.037  1.00  0.00    -0.249 C  
HETATM   24  O   UNL     1     -10.386  10.353  66.342  1.00  0.00    -0.236 OA 
BRANCH  23  25
HETATM   25  C   UNL     1     -10.359  12.341  64.978  1.00  0.00    -0.321 C  
BRANCH  25  26
HETATM   26  C   UNL     1     -10.953  12.041  63.616  1.00  0.00    -0.517 C  
HETATM   27  C   UNL     1     -12.374  12.527  63.476  1.00  0.00    -0.525 C  
HETATM   28  O   UNL     1     -12.507  13.868  63.524  1.00  0.00    -0.810 OA 
HETATM   29  O   UNL     1     -13.321  11.777  63.303  1.00  0.00    -0.510 OA 
ENDBRANCH  25  26
ENDBRANCH  23  25
ENDBRANCH  22  23
ENDBRANCH  21  22
ENDBRANCH  13  21
ENDBRANCH   2  13
TORSDOF 8
ENDMDL
MODEL       29
REMARK 921   NORMALIZED FREE ENERGY PREDICTED BY IDOCK:   -6.20 KCAL/MOL
REMARK 922        TOTAL FREE ENERGY PREDICTED BY IDOCK:  -10.57 KCAL/MOL
REMARK 923 INTER-LIGAND FREE ENERGY PREDICTED BY IDOCK:   -9.46 KCAL/MOL
REMARK 924 INTRA-LIGAND FREE ENERGY PREDICTED BY IDOCK:   -1.11 KCAL/MOL
REMARK 927      BINDING AFFINITY PREDICTED BY RF-SCORE:    0.00 PKD
ROOT
HETATM    1  O   UNL     1      -8.929  14.454  68.375  1.00  0.00    -0.178 OA 
HETATM    2  C   UNL     1     -10.117  13.842  67.854  1.00  0.00    -0.242 C  
HETATM    3  H   UNL     1      -9.115  15.348  68.635  1.00  0.00     0.000 HD 
ENDROOT
BRANCH   2   4
HETATM    4  C   UNL     1     -11.177  13.996  68.925  1.00  0.00    -0.303 A  
HETATM    5  C   UNL     1     -13.024  14.327  71.015  1.00  0.00    -0.342 A  
HETATM    6  C   UNL     1     -11.736  15.257  69.193  1.00  0.00    -0.355 A  
HETATM    7  O   UNL     1     -14.359  15.658  72.368  1.00  0.00    -0.546 OA 
HETATM    8  O   UNL     1     -14.266  13.509  72.797  1.00  0.00    -0.692 OA 
HETATM    9  C   UNL     1     -11.576  12.899  69.711  1.00  0.00    -0.288 A  
HETATM   10  C   UNL     1     -12.655  15.428  70.232  1.00  0.00    -0.377 A  
HETATM   11  N   UNL     1     -13.949  14.511  72.140  1.00  0.00    -0.458 N  
HETATM   12  C   UNL     1     -12.496  13.058  70.751  1.00  0.00    -0.384 A  
ENDBRANCH   2   4
BRANCH   2  13
HETATM   13  C   UNL     1      -9.814  12.379  67.427  1.00  0.00    -0.199 C  
BRANCH  13  14
HETATM   14  N   UNL     1      -8.350  12.215  67.263  1.00  0.00    -0.172 N  
HETATM   15  C   UNL     1      -6.219  10.941  67.015  1.00  0.00    -0.076 C  
HETATM   16  C   UNL     1      -7.723  10.982  67.322  1.00  0.00    -0.118 C  
HETATM   17  H   UNL     1      -7.780  13.046  67.100  1.00  0.00     0.000 HD 
HETATM   18  O   UNL     1      -8.349   9.953  67.580  1.00  0.00    -0.114 OA 
HETATM   19 CL   UNL     1      -5.444  12.514  67.303  1.00  0.00    -0.096 Cl 
HETATM   20 CL   UNL     1      -5.984  10.425  65.335  1.00  0.00    -0.119 Cl 
ENDBRANCH  13  14
BRANCH  13  21
HETATM   21  C   UNL     1     -10.581  12.017  66.136  1.00  0.00    -0.263 C  
BRANCH  21  22
HETATM   22  O   UNL     1     -12.003  12.215  66.270  1.00  0.00    -0.605 OA 
BRANCH  22  23
HETATM   23  C   UNL     1     -12.632  12.700  65.168  1.00  0.00    -0.386 C  
HETATM   24  O   UNL     1     -13.040  12.022  64.233  1.00  0.00    -0.671 OA 
BRANCH  23  25
HETATM   25  C   UNL     1     -12.783  14.196  65.244  1.00  0.00    -0.425 C  
BRANCH  25  26
HETATM   26  C   UNL     1     -12.102  14.888  64.080  1.00  0.00    -0.289 C  
HETATM   27  C   UNL     1     -11.206  16.021  64.514  1.00  0.00    -0.297 C  
HETATM   28  O   UNL     1     -10.139  15.635  65.244  1.00  0.00    -0.343 OA 
HETATM   29  O   UNL     1     -11.409  17.185  64.208  1.00  0.00    -1.126 OA 
ENDBRANCH  25  26
ENDBRANCH  23  25
ENDBRANCH  22  23
ENDBRANCH  21  22
ENDBRANCH  13  21
ENDBRANCH   2  13
TORSDOF 8
ENDMDL
MODEL       30
REMARK 921   NORMALIZED FREE ENERGY PREDICTED BY IDOCK:   -6.19 KCAL/MOL
REMARK 922        TOTAL FREE ENERGY PREDICTED BY IDOCK:  -10.56 KCAL/MOL
REMARK 923 INTER-LIGAND FREE ENERGY PREDICTED BY IDOCK:   -9.50 KCAL/MOL
REMARK 924 INTRA-LIGAND FREE ENERGY PREDICTED BY IDOCK:   -1.06 KCAL/MOL
REMARK 927      BINDING AFFINITY PREDICTED BY RF-SCORE:    0.00 PKD
ROOT
HETATM    1  O   UNL     1     -12.394  12.509  66.010  1.00  0.00    -0.615 OA 
HETATM    2  C   UNL     1     -11.227  12.380  66.834  1.00  0.00    -0.305 C  
HETATM    3  H   UNL     1     -13.136  12.098  66.437  1.00  0.00     0.000 HD 
ENDROOT
BRANCH   2   4
HETATM    4  C   UNL     1     -11.597  12.958  68.184  1.00  0.00    -0.378 A  
HETATM    5  C   UNL     1     -12.438  13.999  70.653  1.00  0.00    -0.365 A  
HETATM    6  C   UNL     1     -11.798  12.110  69.287  1.00  0.00    -0.370 A  
HETATM    7  O   UNL     1     -13.150  13.731  72.846  1.00  0.00    -0.450 OA 
HETATM    8  O   UNL     1     -13.094  15.760  72.016  1.00  0.00    -0.445 OA 
HETATM    9  C   UNL     1     -11.806  14.340  68.347  1.00  0.00    -0.373 A  
HETATM   10  C   UNL     1     -12.217  12.623  70.518  1.00  0.00    -0.383 A  
HETATM   11  N   UNL     1     -12.929  14.535  71.930  1.00  0.00    -0.324 N  
HETATM   12  C   UNL     1     -12.223  14.863  69.574  1.00  0.00    -0.268 A  
ENDBRANCH   2   4
BRANCH   2  13
HETATM   13  C   UNL     1     -10.012  13.052  66.136  1.00  0.00    -0.278 C  
BRANCH  13  14
HETATM   14  N   UNL     1      -9.154  13.689  67.164  1.00  0.00    -0.230 N  
HETATM   15  C   UNL     1      -7.162  13.895  68.653  1.00  0.00    -0.108 C  
HETATM   16  C   UNL     1      -8.027  13.075  67.685  1.00  0.00    -0.169 C  
HETATM   17  H   UNL     1      -9.403  14.620  67.502  1.00  0.00     0.000 HD 
HETATM   18  O   UNL     1      -7.713  11.928  67.364  1.00  0.00    -0.139 OA 
HETATM   19 CL   UNL     1      -8.094  15.189  69.436  1.00  0.00    -0.214 Cl 
HETATM   20 CL   UNL     1      -5.780  14.566  67.769  1.00  0.00    -0.115 Cl 
ENDBRANCH  13  14
BRANCH  13  21
HETATM   21  C   UNL     1     -10.486  14.068  65.073  1.00  0.00    -0.420 C  
BRANCH  21  22
HETATM   22  O   UNL     1      -9.808  15.334  65.185  1.00  0.00    -0.278 OA 
BRANCH  22  23
HETATM   23  C   UNL     1     -10.613  16.429  65.210  1.00  0.00    -0.299 C  
HETATM   24  O   UNL     1     -11.339  16.790  64.293  1.00  0.00    -1.170 OA 
BRANCH  23  25
HETATM   25  C   UNL     1     -10.513  17.145  66.531  1.00  0.00    -0.255 C  
BRANCH  25  26
HETATM   26  C   UNL     1     -10.578  18.649  66.358  1.00  0.00    -0.399 C  
HETATM   27  C   UNL     1      -9.280  19.336  66.705  1.00  0.00    -0.338 C  
HETATM   28  O   UNL     1      -8.255  19.027  65.886  1.00  0.00    -0.465 OA 
HETATM   29  O   UNL     1      -9.172  20.127  67.628  1.00  0.00    -0.341 OA 
ENDBRANCH  25  26
ENDBRANCH  23  25
ENDBRANCH  22  23
ENDBRANCH  21  22
ENDBRANCH  13  21
ENDBRANCH   2  13
TORSDOF 8
ENDMDL
MODEL       31
REMARK 921   NORMALIZED FREE ENERGY PREDICTED BY IDOCK:   -6.19 KCAL/MOL
REMARK 922        TOTAL FREE ENERGY PREDICTED BY IDOCK:  -10.55 KCAL/MOL
REMARK 923 INTER-LIGAND FREE ENERGY PREDICTED BY IDOCK:   -9.62 KCAL/MOL
REMARK 924 INTRA-LIGAND FREE ENERGY PREDICTED BY IDOCK:   -0.93 KCAL/MOL
REMARK 927      BINDING AFFINITY PREDICTED BY RF-SCORE:    0.00 PKD
ROOT
HETATM    1  O   UNL     1     -10.297  13.717  69.561  1.00  0.00    -0.417 OA 
HETATM    2  C   UNL     1     -11.199  12.623  69.345  1.00  0.00    -0.139 C  
HETATM    3  H   UNL     1      -9.567  13.657  68.957  1.00  0.00     0.000 HD 
ENDROOT
BRANCH   2   4
HETATM    4  C   UNL     1     -11.571  12.665  67.878  1.00  0.00    -0.401 A  
HETATM    5  C   UNL     1     -12.106  12.779  65.123  1.00  0.00    -0.450 A  
HETATM    6  C   UNL     1     -11.359  11.541  67.061  1.00  0.00    -0.340 A  
HETATM    7  O   UNL     1     -12.068  11.852  62.996  1.00  0.00    -0.303 OA 
HETATM    8  O   UNL     1     -12.781  13.914  63.215  1.00  0.00    -0.775 OA 
HETATM    9  C   UNL     1     -12.075  13.841  67.292  1.00  0.00    -0.393 A  
HETATM   10  C   UNL     1     -11.623  11.592  65.689  1.00  0.00    -0.087 A  
HETATM   11  N   UNL     1     -12.335  12.853  63.674  1.00  0.00    -0.450 N  
HETATM   12  C   UNL     1     -12.345  13.902  65.922  1.00  0.00    -0.517 A  
ENDBRANCH   2   4
BRANCH   2  13
HETATM   13  C   UNL     1     -12.394  12.721  70.335  1.00  0.00    -0.247 C  
BRANCH  13  14
HETATM   14  N   UNL     1     -12.257  13.958  71.140  1.00  0.00    -0.391 N  
HETATM   15  C   UNL     1     -12.936  15.645  72.849  1.00  0.00    -0.497 C  
HETATM   16  C   UNL     1     -13.254  14.418  71.983  1.00  0.00    -0.369 C  
HETATM   17  H   UNL     1     -11.391  14.494  71.070  1.00  0.00     0.000 HD 
HETATM   18  O   UNL     1     -14.345  13.850  72.059  1.00  0.00    -0.483 OA 
HETATM   19 CL   UNL     1     -11.639  16.632  72.142  1.00  0.00    -0.309 Cl 
HETATM   20 CL   UNL     1     -12.494  15.105  74.479  1.00  0.00    -0.600 Cl 
ENDBRANCH  13  14
BRANCH  13  21
HETATM   21  C   UNL     1     -12.469  11.461  71.225  1.00  0.00    -0.318 C  
BRANCH  21  22
HETATM   22  O   UNL     1     -12.374  10.243  70.460  1.00  0.00    -0.289 OA 
BRANCH  22  23
HETATM   23  C   UNL     1     -12.187   9.110  71.186  1.00  0.00    -0.285 C  
HETATM   24  O   UNL     1     -13.071   8.324  71.506  1.00  0.00    -0.325 OA 
BRANCH  23  25
HETATM   25  C   UNL     1     -10.736   8.927  71.541  1.00  0.00    -0.398 C  
BRANCH  25  26
HETATM   26  C   UNL     1      -9.920   8.471  70.348  1.00  0.00    -0.203 C  
HETATM   27  C   UNL     1      -8.927   9.508  69.886  1.00  0.00    -0.212 C  
HETATM   28  O   UNL     1      -7.951   9.775  70.778  1.00  0.00    -0.288 OA 
HETATM   29  O   UNL     1      -8.981  10.040  68.789  1.00  0.00    -0.132 OA 
ENDBRANCH  25  26
ENDBRANCH  23  25
ENDBRANCH  22  23
ENDBRANCH  21  22
ENDBRANCH  13  21
ENDBRANCH   2  13
TORSDOF 8
ENDMDL
MODEL       32
REMARK 921   NORMALIZED FREE ENERGY PREDICTED BY IDOCK:   -6.19 KCAL/MOL
REMARK 922        TOTAL FREE ENERGY PREDICTED BY IDOCK:  -10.55 KCAL/MOL
REMARK 923 INTER-LIGAND FREE ENERGY PREDICTED BY IDOCK:   -9.21 KCAL/MOL
REMARK 924 INTRA-LIGAND FREE ENERGY PREDICTED BY IDOCK:   -1.34 KCAL/MOL
REMARK 927      BINDING AFFINITY PREDICTED BY RF-SCORE:    0.00 PKD
ROOT
HETATM    1  O   UNL     1     -11.080  12.573  63.135  1.00  0.00    -0.687 OA 
HETATM    2  C   UNL     1     -10.432  13.188  64.258  1.00  0.00    -0.389 C  
HETATM    3  H   UNL     1     -10.500  11.935  62.738  1.00  0.00     0.000 HD 
ENDROOT
BRANCH   2   4
HETATM    4  C   UNL     1      -9.998  12.056  65.166  1.00  0.00    -0.265 A  
HETATM    5  C   UNL     1      -9.062   9.941  66.760  1.00  0.00    -0.143 A  
HETATM    6  C   UNL     1      -9.088  12.296  66.211  1.00  0.00    -0.125 A  
HETATM    7  O   UNL     1      -7.683   9.092  68.422  1.00  0.00    -0.092 OA 
HETATM    8  O   UNL     1      -8.964   7.692  67.323  1.00  0.00    -0.125 OA 
HETATM    9  C   UNL     1     -10.446  10.741  64.949  1.00  0.00    -0.324 A  
HETATM   10  C   UNL     1      -8.619  11.246  67.006  1.00  0.00    -0.148 A  
HETATM   11  N   UNL     1      -8.531   8.829  67.559  1.00  0.00    -0.120 N  
HETATM   12  C   UNL     1      -9.985   9.685  65.739  1.00  0.00    -0.342 A  
ENDBRANCH   2   4
BRANCH   2  13
HETATM   13  C   UNL     1     -11.380  14.233  64.908  1.00  0.00    -0.372 C  
BRANCH  13  14
HETATM   14  N   UNL     1     -10.568  15.250  65.618  1.00  0.00    -0.337 N  
HETATM   15  C   UNL     1      -9.816  17.557  66.200  1.00  0.00    -0.242 C  
HETATM   16  C   UNL     1     -10.618  16.598  65.308  1.00  0.00    -0.205 C  
HETATM   17  H   UNL     1      -9.945  14.943  66.366  1.00  0.00     0.000 HD 
HETATM   18  O   UNL     1     -11.301  17.019  64.373  1.00  0.00    -1.140 OA 
HETATM   19 CL   UNL     1      -8.473  16.729  67.017  1.00  0.00    -0.211 Cl 
HETATM   20 CL   UNL     1     -10.909  18.296  67.385  1.00  0.00    -0.363 Cl 
ENDBRANCH  13  14
BRANCH  13  21
HETATM   21  C   UNL     1     -12.389  13.542  65.852  1.00  0.00    -0.456 C  
BRANCH  21  22
HETATM   22  O   UNL     1     -12.244  13.974  67.219  1.00  0.00    -0.405 OA 
BRANCH  22  23
HETATM   23  C   UNL     1     -12.084  12.981  68.133  1.00  0.00    -0.157 C  
HETATM   24  O   UNL     1     -12.211  11.785  67.902  1.00  0.00    -0.538 OA 
BRANCH  23  25
HETATM   25  C   UNL     1     -11.711  13.539  69.480  1.00  0.00    -0.382 C  
BRANCH  25  26
HETATM   26  C   UNL     1     -12.038  15.015  69.585  1.00  0.00    -0.337 C  
HETATM   27  C   UNL     1     -12.435  15.430  70.980  1.00  0.00    -0.411 C  
HETATM   28  O   UNL     1     -11.447  15.320  71.891  1.00  0.00    -0.410 OA 
HETATM   29  O   UNL     1     -13.544  15.857  71.257  1.00  0.00    -0.484 OA 
ENDBRANCH  25  26
ENDBRANCH  23  25
ENDBRANCH  22  23
ENDBRANCH  21  22
ENDBRANCH  13  21
ENDBRANCH   2  13
TORSDOF 8
ENDMDL
MODEL       33
REMARK 921   NORMALIZED FREE ENERGY PREDICTED BY IDOCK:   -6.18 KCAL/MOL
REMARK 922        TOTAL FREE ENERGY PREDICTED BY IDOCK:  -10.54 KCAL/MOL
REMARK 923 INTER-LIGAND FREE ENERGY PREDICTED BY IDOCK:   -8.99 KCAL/MOL
REMARK 924 INTRA-LIGAND FREE ENERGY PREDICTED BY IDOCK:   -1.56 KCAL/MOL
REMARK 927      BINDING AFFINITY PREDICTED BY RF-SCORE:    0.00 PKD
ROOT
HETATM    1  O   UNL     1     -12.371  10.965  68.272  1.00  0.00    -0.730 OA 
HETATM    2  C   UNL     1     -11.331  11.847  68.717  1.00  0.00    -0.274 C  
HETATM    3  H   UNL     1     -13.171  11.456  68.128  1.00  0.00     0.000 HD 
ENDROOT
BRANCH   2   4
HETATM    4  C   UNL     1     -11.236  12.945  67.678  1.00  0.00    -0.317 A  
HETATM    5  C   UNL     1     -11.160  15.071  65.844  1.00  0.00    -0.334 A  
HETATM    6  C   UNL     1     -10.335  14.010  67.854  1.00  0.00    -0.239 A  
HETATM    7  O   UNL     1     -10.386  17.148  65.156  1.00  0.00    -0.603 OA 
HETATM    8  O   UNL     1     -11.924  16.161  63.942  1.00  0.00    -0.947 OA 
HETATM    9  C   UNL     1     -12.084  12.956  66.556  1.00  0.00    -0.375 A  
HETATM   10  C   UNL     1     -10.293  15.070  66.944  1.00  0.00    -0.266 A  
HETATM   11  N   UNL     1     -11.156  16.208  64.914  1.00  0.00    -0.390 N  
HETATM   12  C   UNL     1     -12.049  14.010  65.639  1.00  0.00    -0.432 A  
ENDBRANCH   2   4
BRANCH   2  13
HETATM   13  C   UNL     1     -10.022  11.044  68.953  1.00  0.00    -0.188 C  
BRANCH  13  14
HETATM   14  N   UNL     1      -9.577  10.452  67.668  1.00  0.00    -0.148 N  
HETATM   15  C   UNL     1      -7.960   9.956  65.833  1.00  0.00    -0.115 C  
HETATM   16  C   UNL     1      -8.343  10.728  67.104  1.00  0.00    -0.126 C  
HETATM   17  H   UNL     1     -10.206   9.815  67.179  1.00  0.00     0.000 HD 
HETATM   18  O   UNL     1      -7.568  11.538  67.615  1.00  0.00    -0.103 OA 
HETATM   19 CL   UNL     1      -9.393   9.373  64.960  1.00  0.00    -0.299 Cl 
HETATM   20 CL   UNL     1      -6.902   8.603  66.274  1.00  0.00    -0.069 Cl 
ENDBRANCH  13  14
BRANCH  13  21
HETATM   21  C   UNL     1     -10.232   9.966  70.040  1.00  0.00    -0.271 C  
BRANCH  21  22
HETATM   22  O   UNL     1     -11.133  10.402  71.077  1.00  0.00    -0.204 OA 
BRANCH  22  23
HETATM   23  C   UNL     1     -12.173   9.567  71.337  1.00  0.00    -0.371 C  
HETATM   24  O   UNL     1     -13.327   9.743  70.966  1.00  0.00    -0.355 OA 
BRANCH  23  25
HETATM   25  C   UNL     1     -11.724   8.374  72.137  1.00  0.00    -0.442 C  
BRANCH  25  26
HETATM   26  C   UNL     1     -12.278   7.081  71.573  1.00  0.00    -0.407 C  
HETATM   27  C   UNL     1     -11.307   6.377  70.659  1.00  0.00    -0.357 C  
HETATM   28  O   UNL     1     -10.192   5.932  71.273  1.00  0.00    -0.196 OA 
HETATM   29  O   UNL     1     -11.522   6.196  69.471  1.00  0.00    -0.429 OA 
ENDBRANCH  25  26
ENDBRANCH  23  25
ENDBRANCH  22  23
ENDBRANCH  21  22
ENDBRANCH  13  21
ENDBRANCH   2  13
TORSDOF 8
ENDMDL
MODEL       34
REMARK 921   NORMALIZED FREE ENERGY PREDICTED BY IDOCK:   -6.17 KCAL/MOL
REMARK 922        TOTAL FREE ENERGY PREDICTED BY IDOCK:  -10.53 KCAL/MOL
REMARK 923 INTER-LIGAND FREE ENERGY PREDICTED BY IDOCK:   -9.09 KCAL/MOL
REMARK 924 INTRA-LIGAND FREE ENERGY PREDICTED BY IDOCK:   -1.44 KCAL/MOL
REMARK 927      BINDING AFFINITY PREDICTED BY RF-SCORE:    0.00 PKD
ROOT
HETATM    1  O   UNL     1     -12.038  13.664  68.899  1.00  0.00    -0.347 OA 
HETATM    2  C   UNL     1     -11.333  12.610  68.230  1.00  0.00    -0.295 C  
HETATM    3  H   UNL     1     -12.915  13.376  69.121  1.00  0.00     0.000 HD 
ENDROOT
BRANCH   2   4
HETATM    4  C   UNL     1     -11.403  11.407  69.148  1.00  0.00    -0.353 A  
HETATM    5  C   UNL     1     -11.418   9.243  70.938  1.00  0.00    -0.303 A  
HETATM    6  C   UNL     1     -12.167  11.459  70.326  1.00  0.00    -0.433 A  
HETATM    7  O   UNL     1     -12.026   8.263  72.953  1.00  0.00    -0.316 OA 
HETATM    8  O   UNL     1     -10.715   7.133  71.604  1.00  0.00    -0.213 OA 
HETATM    9  C   UNL     1     -10.663  10.242  68.873  1.00  0.00    -0.256 A  
HETATM   10  C   UNL     1     -12.178  10.384  71.221  1.00  0.00    -0.491 A  
HETATM   11  N   UNL     1     -11.384   8.134  71.901  1.00  0.00    -0.277 N  
HETATM   12  C   UNL     1     -10.668   9.162  69.759  1.00  0.00    -0.239 A  
ENDBRANCH   2   4
BRANCH   2  13
HETATM   13  C   UNL     1      -9.898  13.082  67.866  1.00  0.00    -0.224 C  
BRANCH  13  14
HETATM   14  N   UNL     1      -9.808  14.550  68.053  1.00  0.00    -0.218 N  
HETATM   15  C   UNL     1      -8.714  16.695  68.707  1.00  0.00    -0.260 C  
HETATM   16  C   UNL     1      -8.739  15.160  68.688  1.00  0.00    -0.174 C  
HETATM   17  H   UNL     1     -10.565  15.135  67.699  1.00  0.00     0.000 HD 
HETATM   18  O   UNL     1      -7.828  14.502  69.192  1.00  0.00    -0.134 OA 
HETATM   19 CL   UNL     1     -10.342  17.383  68.522  1.00  0.00    -0.360 Cl 
HETATM   20 CL   UNL     1      -7.640  17.273  67.421  1.00  0.00    -0.194 Cl 
ENDBRANCH  13  14
BRANCH  13  21
HETATM   21  C   UNL     1      -9.535  12.663  66.424  1.00  0.00    -0.231 C  
BRANCH  21  22
HETATM   22  O   UNL     1     -10.677  12.173  65.693  1.00  0.00    -0.258 OA 
BRANCH  22  23
HETATM   23  C   UNL     1     -10.824  12.671  64.437  1.00  0.00    -0.356 C  
HETATM   24  O   UNL     1     -10.085  12.428  63.492  1.00  0.00    -0.393 OA 
BRANCH  23  25
HETATM   25  C   UNL     1     -12.036  13.560  64.346  1.00  0.00    -0.466 C  
BRANCH  25  26
HETATM   26  C   UNL     1     -11.960  14.712  65.329  1.00  0.00    -0.302 C  
HETATM   27  C   UNL     1     -11.083  15.839  64.844  1.00  0.00    -0.399 C  
HETATM   28  O   UNL     1     -11.547  16.469  63.746  1.00  0.00    -1.109 OA 
HETATM   29  O   UNL     1     -10.056  16.176  65.413  1.00  0.00    -0.485 OA 
ENDBRANCH  25  26
ENDBRANCH  23  25
ENDBRANCH  22  23
ENDBRANCH  21  22
ENDBRANCH  13  21
ENDBRANCH   2  13
TORSDOF 8
ENDMDL
MODEL       35
REMARK 921   NORMALIZED FREE ENERGY PREDICTED BY IDOCK:   -6.17 KCAL/MOL
REMARK 922        TOTAL FREE ENERGY PREDICTED BY IDOCK:  -10.53 KCAL/MOL
REMARK 923 INTER-LIGAND FREE ENERGY PREDICTED BY IDOCK:   -9.14 KCAL/MOL
REMARK 924 INTRA-LIGAND FREE ENERGY PREDICTED BY IDOCK:   -1.39 KCAL/MOL
REMARK 927      BINDING AFFINITY PREDICTED BY RF-SCORE:    0.00 PKD
ROOT
HETATM    1  O   UNL     1      -9.026  13.167  69.057  1.00  0.00    -0.347 OA 
HETATM    2  C   UNL     1      -9.034  13.279  67.627  1.00  0.00    -0.199 C  
HETATM    3  H   UNL     1      -8.469  13.839  69.430  1.00  0.00     0.000 HD 
ENDROOT
BRANCH   2   4
HETATM    4  C   UNL     1      -9.445  14.704  67.317  1.00  0.00    -0.221 A  
HETATM    5  C   UNL     1     -10.084  17.396  66.835  1.00  0.00    -0.314 A  
HETATM    6  C   UNL     1      -8.810  15.415  66.285  1.00  0.00    -0.302 A  
HETATM    7  O   UNL     1      -9.741  19.410  65.734  1.00  0.00    -0.404 OA 
HETATM    8  O   UNL     1     -11.248  19.343  67.327  1.00  0.00    -0.362 OA 
HETATM    9  C   UNL     1     -10.420  15.360  68.090  1.00  0.00    -0.247 A  
HETATM   10  C   UNL     1      -9.124  16.756  66.041  1.00  0.00    -0.226 A  
HETATM   11  N   UNL     1     -10.378  18.818  66.616  1.00  0.00    -0.397 N  
HETATM   12  C   UNL     1     -10.743  16.699  67.854  1.00  0.00    -0.344 A  
ENDBRANCH   2   4
BRANCH   2  13
HETATM   13  C   UNL     1      -9.945  12.179  67.016  1.00  0.00    -0.202 C  
BRANCH  13  14
HETATM   14  N   UNL     1     -10.806  12.786  65.972  1.00  0.00    -0.272 N  
HETATM   15  C   UNL     1     -11.720  13.083  63.669  1.00  0.00    -0.490 C  
HETATM   16  C   UNL     1     -10.688  12.473  64.628  1.00  0.00    -0.311 C  
HETATM   17  H   UNL     1     -11.515  13.464  66.255  1.00  0.00     0.000 HD 
HETATM   18  O   UNL     1      -9.809  11.712  64.219  1.00  0.00    -0.248 OA 
HETATM   19 CL   UNL     1     -12.435  14.569  64.329  1.00  0.00    -0.408 Cl 
HETATM   20 CL   UNL     1     -12.977  11.879  63.330  1.00  0.00    -0.484 Cl 
ENDBRANCH  13  14
BRANCH  13  21
HETATM   21  C   UNL     1     -10.780  11.488  68.117  1.00  0.00    -0.205 C  
BRANCH  21  22
HETATM   22  O   UNL     1     -11.857  12.319  68.591  1.00  0.00    -0.310 OA 
BRANCH  22  23
HETATM   23  C   UNL     1     -12.102  12.255  69.926  1.00  0.00    -0.249 C  
HETATM   24  O   UNL     1     -12.137  11.225  70.587  1.00  0.00    -0.355 OA 
BRANCH  23  25
HETATM   25  C   UNL     1     -12.313  13.628  70.505  1.00  0.00    -0.425 C  
BRANCH  25  26
HETATM   26  C   UNL     1     -13.336  13.613  71.623  1.00  0.00    -0.424 C  
HETATM   27  C   UNL     1     -13.107  14.701  72.642  1.00  0.00    -0.458 C  
HETATM   28  O   UNL     1     -13.269  15.951  72.163  1.00  0.00    -0.451 OA 
HETATM   29  O   UNL     1     -12.828  14.474  73.808  1.00  0.00    -0.481 OA 
ENDBRANCH  25  26
ENDBRANCH  23  25
ENDBRANCH  22  23
ENDBRANCH  21  22
ENDBRANCH  13  21
ENDBRANCH   2  13
TORSDOF 8
ENDMDL
MODEL       36
REMARK 921   NORMALIZED FREE ENERGY PREDICTED BY IDOCK:   -6.17 KCAL/MOL
REMARK 922        TOTAL FREE ENERGY PREDICTED BY IDOCK:  -10.53 KCAL/MOL
REMARK 923 INTER-LIGAND FREE ENERGY PREDICTED BY IDOCK:   -9.48 KCAL/MOL
REMARK 924 INTRA-LIGAND FREE ENERGY PREDICTED BY IDOCK:   -1.05 KCAL/MOL
REMARK 927      BINDING AFFINITY PREDICTED BY RF-SCORE:    0.00 PKD
ROOT
HETATM    1  O   UNL     1      -9.893  13.276  68.756  1.00  0.00    -0.398 OA 
HETATM    2  C   UNL     1     -11.323  13.301  68.866  1.00  0.00    -0.288 C  
HETATM    3  H   UNL     1      -9.504  13.213  69.620  1.00  0.00     0.000 HD 
ENDROOT
BRANCH   2   4
HETATM    4  C   UNL     1     -11.707  12.069  69.659  1.00  0.00    -0.405 A  
HETATM    5  C   UNL     1     -12.300   9.821  71.235  1.00  0.00    -0.371 A  
HETATM    6  C   UNL     1     -12.553  12.181  70.776  1.00  0.00    -0.305 A  
HETATM    7  O   UNL     1     -13.269   8.830  73.097  1.00  0.00    -0.213 OA 
HETATM    8  O   UNL     1     -12.079   7.569  71.754  1.00  0.00    -0.286 OA 
HETATM    9  C   UNL     1     -11.180  10.806  69.335  1.00  0.00    -0.337 A  
HETATM   10  C   UNL     1     -12.851  11.066  71.564  1.00  0.00    -0.555 A  
HETATM   11  N   UNL     1     -12.569   8.657  72.090  1.00  0.00    -0.368 N  
HETATM   12  C   UNL     1     -11.474   9.683  70.114  1.00  0.00    -0.238 A  
ENDBRANCH   2   4
BRANCH   2  13
HETATM   13  C   UNL     1     -11.959  13.403  67.452  1.00  0.00    -0.346 C  
BRANCH  13  14
HETATM   14  N   UNL     1     -11.264  12.466  66.538  1.00  0.00    -0.301 N  
HETATM   15  C   UNL     1     -10.893  11.228  64.403  1.00  0.00    -0.303 C  
HETATM   16  C   UNL     1     -11.772  12.113  65.299  1.00  0.00    -0.308 C  
HETATM   17  H   UNL     1     -10.374  12.063  66.834  1.00  0.00     0.000 HD 
HETATM   18  O   UNL     1     -12.871  12.515  64.915  1.00  0.00    -0.758 OA 
HETATM   19 CL   UNL     1      -9.723  10.286  65.352  1.00  0.00    -0.315 Cl 
HETATM   20 CL   UNL     1     -10.059  12.250  63.219  1.00  0.00    -0.336 Cl 
ENDBRANCH  13  14
BRANCH  13  21
HETATM   21  C   UNL     1     -11.905  14.858  66.934  1.00  0.00    -0.187 C  
BRANCH  21  22
HETATM   22  O   UNL     1     -10.703  15.129  66.188  1.00  0.00    -0.310 OA 
BRANCH  22  23
HETATM   23  C   UNL     1     -10.655  16.341  65.576  1.00  0.00    -0.353 C  
HETATM   24  O   UNL     1     -11.061  16.577  64.445  1.00  0.00    -0.894 OA 
BRANCH  23  25
HETATM   25  C   UNL     1     -10.045  17.380  66.480  1.00  0.00    -0.320 C  
BRANCH  25  26
HETATM   26  C   UNL     1      -8.572  17.117  66.721  1.00  0.00    -0.270 C  
HETATM   27  C   UNL     1      -8.208  17.120  68.184  1.00  0.00    -0.224 C  
HETATM   28  O   UNL     1      -8.767  16.119  68.895  1.00  0.00    -0.223 OA 
HETATM   29  O   UNL     1      -7.449  17.937  68.680  1.00  0.00    -0.264 OA 
ENDBRANCH  25  26
ENDBRANCH  23  25
ENDBRANCH  22  23
ENDBRANCH  21  22
ENDBRANCH  13  21
ENDBRANCH   2  13
TORSDOF 8
ENDMDL
MODEL       37
REMARK 921   NORMALIZED FREE ENERGY PREDICTED BY IDOCK:   -6.15 KCAL/MOL
REMARK 922        TOTAL FREE ENERGY PREDICTED BY IDOCK:  -10.50 KCAL/MOL
REMARK 923 INTER-LIGAND FREE ENERGY PREDICTED BY IDOCK:   -9.74 KCAL/MOL
REMARK 924 INTRA-LIGAND FREE ENERGY PREDICTED BY IDOCK:   -0.76 KCAL/MOL
REMARK 927      BINDING AFFINITY PREDICTED BY RF-SCORE:    0.00 PKD
ROOT
HETATM    1  O   UNL     1      -8.681  14.486  69.578  1.00  0.00    -0.381 OA 
HETATM    2  C   UNL     1      -9.117  14.373  68.217  1.00  0.00    -0.193 C  
HETATM    3  H   UNL     1      -7.941  15.079  69.632  1.00  0.00     0.000 HD 
ENDROOT
BRANCH   2   4
HETATM    4  C   UNL     1      -9.386  15.785  67.740  1.00  0.00    -0.206 A  
HETATM    5  C   UNL     1     -10.030  18.394  66.926  1.00  0.00    -0.353 A  
HETATM    6  C   UNL     1      -9.189  16.874  68.607  1.00  0.00    -0.265 A  
HETATM    7  O   UNL     1     -10.281  20.663  67.349  1.00  0.00    -0.320 OA 
HETATM    8  O   UNL     1     -10.856  19.908  65.371  1.00  0.00    -0.398 OA 
HETATM    9  C   UNL     1      -9.892  16.030  66.451  1.00  0.00    -0.308 A  
HETATM   10  C   UNL     1      -9.509  18.175  68.207  1.00  0.00    -0.315 A  
HETATM   11  N   UNL     1     -10.417  19.752  66.520  1.00  0.00    -0.480 N  
HETATM   12  C   UNL     1     -10.213  17.327  66.040  1.00  0.00    -0.314 A  
ENDBRANCH   2   4
BRANCH   2  13
HETATM   13  C   UNL     1     -10.328  13.402  68.129  1.00  0.00    -0.247 C  
BRANCH  13  14
HETATM   14  N   UNL     1     -10.538  13.017  66.712  1.00  0.00    -0.261 N  
HETATM   15  C   UNL     1     -11.565  11.734  64.835  1.00  0.00    -0.158 C  
HETATM   16  C   UNL     1     -11.337  11.950  66.338  1.00  0.00    -0.339 C  
HETATM   17  H   UNL     1     -10.076  13.561  65.983  1.00  0.00     0.000 HD 
HETATM   18  O   UNL     1     -11.868  11.218  67.174  1.00  0.00    -0.524 OA 
HETATM   19 CL   UNL     1     -10.261  12.446  63.861  1.00  0.00    -0.421 Cl 
HETATM   20 CL   UNL     1     -13.134  12.425  64.382  1.00  0.00    -0.261 Cl 
ENDBRANCH  13  14
BRANCH  13  21
HETATM   21  C   UNL     1     -11.590  14.048  68.742  1.00  0.00    -0.331 C  
BRANCH  21  22
HETATM   22  O   UNL     1     -11.422  14.359  70.139  1.00  0.00    -0.263 OA 
BRANCH  22  23
HETATM   23  C   UNL     1     -12.492  14.088  70.932  1.00  0.00    -0.369 C  
HETATM   24  O   UNL     1     -12.714  13.011  71.471  1.00  0.00    -0.330 OA 
BRANCH  23  25
HETATM   25  C   UNL     1     -13.377  15.297  71.080  1.00  0.00    -0.568 C  
BRANCH  25  26
HETATM   26  C   UNL     1     -13.730  15.557  72.531  1.00  0.00    -0.668 C  
HETATM   27  C   UNL     1     -12.516  15.666  73.420  1.00  0.00    -0.523 C  
HETATM   28  O   UNL     1     -11.728  16.728  73.152  1.00  0.00    -0.373 OA 
HETATM   29  O   UNL     1     -12.279  14.881  74.323  1.00  0.00    -0.568 OA 
ENDBRANCH  25  26
ENDBRANCH  23  25
ENDBRANCH  22  23
ENDBRANCH  21  22
ENDBRANCH  13  21
ENDBRANCH   2  13
TORSDOF 8
ENDMDL
MODEL       38
REMARK 921   NORMALIZED FREE ENERGY PREDICTED BY IDOCK:   -6.14 KCAL/MOL
REMARK 922        TOTAL FREE ENERGY PREDICTED BY IDOCK:  -10.47 KCAL/MOL
REMARK 923 INTER-LIGAND FREE ENERGY PREDICTED BY IDOCK:   -8.79 KCAL/MOL
REMARK 924 INTRA-LIGAND FREE ENERGY PREDICTED BY IDOCK:   -1.68 KCAL/MOL
REMARK 927      BINDING AFFINITY PREDICTED BY RF-SCORE:    0.00 PKD
ROOT
HETATM    1  O   UNL     1     -11.511  15.085  66.201  1.00  0.00    -0.321 OA 
HETATM    2  C   UNL     1     -11.400  13.829  66.884  1.00  0.00    -0.328 C  
HETATM    3  H   UNL     1     -12.363  15.469  66.367  1.00  0.00     0.000 HD 
ENDROOT
BRANCH   2   4
HETATM    4  C   UNL     1     -11.708  14.112  68.340  1.00  0.00    -0.380 A  
HETATM    5  C   UNL     1     -12.436  14.628  71.002  1.00  0.00    -0.329 A  
HETATM    6  C   UNL     1     -11.986  13.054  69.223  1.00  0.00    -0.331 A  
HETATM    7  O   UNL     1     -13.164  13.929  73.093  1.00  0.00    -0.545 OA 
HETATM    8  O   UNL     1     -12.913  16.081  72.749  1.00  0.00    -0.450 OA 
HETATM    9  C   UNL     1     -11.781  15.431  68.821  1.00  0.00    -0.369 A  
HETATM   10  C   UNL     1     -12.350  13.306  70.549  1.00  0.00    -0.389 A  
HETATM   11  N   UNL     1     -12.869  14.898  72.380  1.00  0.00    -0.325 N  
HETATM   12  C   UNL     1     -12.142  15.694  70.145  1.00  0.00    -0.400 A  
ENDBRANCH   2   4
BRANCH   2  13
HETATM   13  C   UNL     1     -10.005  13.201  66.612  1.00  0.00    -0.270 C  
BRANCH  13  14
HETATM   14  N   UNL     1     -10.051  11.756  66.942  1.00  0.00    -0.205 N  
HETATM   15  C   UNL     1     -10.033   9.310  66.450  1.00  0.00    -0.286 C  
HETATM   16  C   UNL     1     -10.112  10.768  65.974  1.00  0.00    -0.249 C  
HETATM   17  H   UNL     1     -10.037  11.478  67.924  1.00  0.00     0.000 HD 
HETATM   18  O   UNL     1     -10.196  11.044  64.776  1.00  0.00    -0.276 OA 
HETATM   19 CL   UNL     1     -10.549   9.139  68.141  1.00  0.00    -0.258 Cl 
HETATM   20 CL   UNL     1      -8.373   8.721  66.239  1.00  0.00    -0.114 Cl 
ENDBRANCH  13  14
BRANCH  13  21
HETATM   21  C   UNL     1      -8.909  13.939  67.412  1.00  0.00    -0.207 C  
BRANCH  21  22
HETATM   22  O   UNL     1      -8.696  15.283  66.937  1.00  0.00    -0.220 OA 
BRANCH  22  23
HETATM   23  C   UNL     1      -8.521  16.223  67.903  1.00  0.00    -0.164 C  
HETATM   24  O   UNL     1      -8.348  15.988  69.092  1.00  0.00    -0.231 OA 
BRANCH  23  25
HETATM   25  C   UNL     1      -8.554  17.611  67.320  1.00  0.00    -0.238 C  
BRANCH  25  26
HETATM   26  C   UNL     1      -9.946  18.207  67.371  1.00  0.00    -0.329 C  
HETATM   27  C   UNL     1     -10.473  18.582  66.008  1.00  0.00    -0.400 C  
HETATM   28  O   UNL     1     -10.673  17.533  65.184  1.00  0.00    -0.673 OA 
HETATM   29  O   UNL     1     -10.728  19.732  65.686  1.00  0.00    -0.505 OA 
ENDBRANCH  25  26
ENDBRANCH  23  25
ENDBRANCH  22  23
ENDBRANCH  21  22
ENDBRANCH  13  21
ENDBRANCH   2  13
TORSDOF 8
ENDMDL
MODEL       39
REMARK 921   NORMALIZED FREE ENERGY PREDICTED BY IDOCK:   -6.12 KCAL/MOL
REMARK 922        TOTAL FREE ENERGY PREDICTED BY IDOCK:  -10.45 KCAL/MOL
REMARK 923 INTER-LIGAND FREE ENERGY PREDICTED BY IDOCK:   -9.34 KCAL/MOL
REMARK 924 INTRA-LIGAND FREE ENERGY PREDICTED BY IDOCK:   -1.11 KCAL/MOL
REMARK 927      BINDING AFFINITY PREDICTED BY RF-SCORE:    0.00 PKD
ROOT
HETATM    1  O   UNL     1     -12.530  14.636  69.292  1.00  0.00    -0.556 OA 
HETATM    2  C   UNL     1     -11.378  13.786  69.203  1.00  0.00    -0.281 C  
HETATM    3  H   UNL     1     -12.285  15.473  69.665  1.00  0.00     0.000 HD 
ENDROOT
BRANCH   2   4
HETATM    4  C   UNL     1     -10.340  14.562  68.420  1.00  0.00    -0.241 A  
HETATM    5  C   UNL     1      -8.390  16.092  67.099  1.00  0.00    -0.199 A  
HETATM    6  C   UNL     1      -8.977  14.240  68.538  1.00  0.00    -0.185 A  
HETATM    7  O   UNL     1      -6.178  16.630  66.645  1.00  0.00    -0.269 OA 
HETATM    8  O   UNL     1      -7.751  17.869  65.750  1.00  0.00    -0.538 OA 
HETATM    9  C   UNL     1     -10.709  15.652  67.611  1.00  0.00    -0.302 A  
HETATM   10  C   UNL     1      -8.002  14.998  67.883  1.00  0.00    -0.146 A  
HETATM   11  N   UNL     1      -7.366  16.923  66.452  1.00  0.00    -0.278 N  
HETATM   12  C   UNL     1      -9.743  16.416  66.950  1.00  0.00    -0.260 A  
ENDBRANCH   2   4
BRANCH   2  13
HETATM   13  C   UNL     1     -11.779  12.414  68.593  1.00  0.00    -0.326 C  
BRANCH  13  14
HETATM   14  N   UNL     1     -11.314  11.329  69.491  1.00  0.00    -0.273 N  
HETATM   15  C   UNL     1     -11.468   9.747  71.413  1.00  0.00    -0.365 C  
HETATM   16  C   UNL     1     -11.993  10.965  70.640  1.00  0.00    -0.368 C  
HETATM   17  H   UNL     1     -10.456  10.830  69.251  1.00  0.00     0.000 HD 
HETATM   18  O   UNL     1     -12.997  11.573  71.015  1.00  0.00    -0.290 OA 
HETATM   19 CL   UNL     1      -9.747   9.452  71.088  1.00  0.00    -0.314 Cl 
HETATM   20 CL   UNL     1     -12.439   8.326  70.985  1.00  0.00    -0.171 Cl 
ENDBRANCH  13  14
BRANCH  13  21
HETATM   21  C   UNL     1     -11.208  12.264  67.165  1.00  0.00    -0.307 C  
BRANCH  21  22
HETATM   22  O   UNL     1     -12.244  12.201  66.165  1.00  0.00    -0.611 OA 
BRANCH  22  23
HETATM   23  C   UNL     1     -12.265  13.233  65.281  1.00  0.00    -0.448 C  
HETATM   24  O   UNL     1     -13.152  14.074  65.201  1.00  0.00    -0.776 OA 
BRANCH  23  25
HETATM   25  C   UNL     1     -11.040  13.223  64.407  1.00  0.00    -0.407 C  
BRANCH  25  26
HETATM   26  C   UNL     1     -11.155  12.202  63.293  1.00  0.00    -0.408 C  
HETATM   27  C   UNL     1     -10.054  11.171  63.327  1.00  0.00    -0.380 C  
HETATM   28  O   UNL     1     -10.079  10.371  64.412  1.00  0.00    -0.343 OA 
HETATM   29  O   UNL     1      -9.229  11.048  62.436  1.00  0.00    -0.302 OA 
ENDBRANCH  25  26
ENDBRANCH  23  25
ENDBRANCH  22  23
ENDBRANCH  21  22
ENDBRANCH  13  21
ENDBRANCH   2  13
TORSDOF 8
ENDMDL
MODEL       40
REMARK 921   NORMALIZED FREE ENERGY PREDICTED BY IDOCK:   -6.11 KCAL/MOL
REMARK 922        TOTAL FREE ENERGY PREDICTED BY IDOCK:  -10.44 KCAL/MOL
REMARK 923 INTER-LIGAND FREE ENERGY PREDICTED BY IDOCK:   -9.49 KCAL/MOL
REMARK 924 INTRA-LIGAND FREE ENERGY PREDICTED BY IDOCK:   -0.95 KCAL/MOL
REMARK 927      BINDING AFFINITY PREDICTED BY RF-SCORE:    0.00 PKD
ROOT
HETATM    1  O   UNL     1     -10.819  17.719  67.909  1.00  0.00    -0.365 OA 
HETATM    2  C   UNL     1     -10.449  16.334  67.887  1.00  0.00    -0.295 C  
HETATM    3  H   UNL     1     -11.764  17.801  67.874  1.00  0.00     0.000 HD 
ENDROOT
BRANCH   2   4
HETATM    4  C   UNL     1     -11.196  15.679  69.031  1.00  0.00    -0.306 A  
HETATM    5  C   UNL     1     -12.438  14.420  71.212  1.00  0.00    -0.352 A  
HETATM    6  C   UNL     1     -11.362  16.359  70.249  1.00  0.00    -0.207 A  
HETATM    7  O   UNL     1     -13.100  14.371  73.436  1.00  0.00    -0.587 OA 
HETATM    8  O   UNL     1     -13.451  12.586  72.211  1.00  0.00    -0.556 OA 
HETATM    9  C   UNL     1     -11.682  14.364  68.919  1.00  0.00    -0.357 A  
HETATM   10  C   UNL     1     -11.979  15.737  71.339  1.00  0.00    -0.499 A  
HETATM   11  N   UNL     1     -13.039  13.744  72.370  1.00  0.00    -0.424 N  
HETATM   12  C   UNL     1     -12.302  13.733  70.001  1.00  0.00    -0.364 A  
ENDBRANCH   2   4
BRANCH   2  13
HETATM   13  C   UNL     1      -8.902  16.200  67.944  1.00  0.00    -0.182 C  
BRANCH  13  14
HETATM   14  N   UNL     1      -8.292  17.540  67.772  1.00  0.00    -0.217 N  
HETATM   15  C   UNL     1      -6.618  19.345  68.180  1.00  0.00    -0.246 C  
HETATM   16  C   UNL     1      -7.230  17.984  68.542  1.00  0.00    -0.263 C  
HETATM   17  H   UNL     1      -8.670  18.162  67.057  1.00  0.00     0.000 HD 
HETATM   18  O   UNL     1      -6.774  17.305  69.463  1.00  0.00    -0.227 OA 
HETATM   19 CL   UNL     1      -7.773  20.378  67.311  1.00  0.00    -0.356 Cl 
HETATM   20 CL   UNL     1      -5.158  19.082  67.207  1.00  0.00    -0.156 Cl 
ENDBRANCH  13  14
BRANCH  13  21
HETATM   21  C   UNL     1      -8.402  15.200  66.877  1.00  0.00    -0.232 C  
BRANCH  21  22
HETATM   22  O   UNL     1      -9.226  14.021  66.802  1.00  0.00    -0.258 OA 
BRANCH  22  23
HETATM   23  C   UNL     1      -9.857  13.822  65.615  1.00  0.00    -0.192 C  
HETATM   24  O   UNL     1     -10.062  14.688  64.773  1.00  0.00    -0.325 OA 
BRANCH  23  25
HETATM   25  C   UNL     1     -10.267  12.383  65.453  1.00  0.00    -0.302 C  
BRANCH  25  26
HETATM   26  C   UNL     1     -11.731  12.177  65.783  1.00  0.00    -0.391 C  
HETATM   27  C   UNL     1     -12.654  12.901  64.835  1.00  0.00    -0.458 C  
HETATM   28  O   UNL     1     -12.611  12.448  63.566  1.00  0.00    -0.681 OA 
HETATM   29  O   UNL     1     -13.399  13.801  65.189  1.00  0.00    -0.688 OA 
ENDBRANCH  25  26
ENDBRANCH  23  25
ENDBRANCH  22  23
ENDBRANCH  21  22
ENDBRANCH  13  21
ENDBRANCH   2  13
TORSDOF 8
ENDMDL
MODEL       41
REMARK 921   NORMALIZED FREE ENERGY PREDICTED BY IDOCK:   -6.10 KCAL/MOL
REMARK 922        TOTAL FREE ENERGY PREDICTED BY IDOCK:  -10.42 KCAL/MOL
REMARK 923 INTER-LIGAND FREE ENERGY PREDICTED BY IDOCK:   -9.05 KCAL/MOL
REMARK 924 INTRA-LIGAND FREE ENERGY PREDICTED BY IDOCK:   -1.37 KCAL/MOL
REMARK 927      BINDING AFFINITY PREDICTED BY RF-SCORE:    0.00 PKD
ROOT
HETATM    1  O   UNL     1     -11.933  12.152  66.566  1.00  0.00    -0.618 OA 
HETATM    2  C   UNL     1     -11.526  11.401  67.718  1.00  0.00    -0.281 C  
HETATM    3  H   UNL     1     -12.847  12.397  66.648  1.00  0.00     0.000 HD 
ENDROOT
BRANCH   2   4
HETATM    4  C   UNL     1     -11.859  12.259  68.921  1.00  0.00    -0.355 A  
HETATM    5  C   UNL     1     -12.633  13.832  71.114  1.00  0.00    -0.373 A  
HETATM    6  C   UNL     1     -12.205  11.659  70.144  1.00  0.00    -0.367 A  
HETATM    7  O   UNL     1     -13.444  14.063  73.277  1.00  0.00    -0.467 OA 
HETATM    8  O   UNL     1     -13.092  15.882  72.102  1.00  0.00    -0.452 OA 
HETATM    9  C   UNL     1     -11.888  13.662  68.823  1.00  0.00    -0.395 A  
HETATM   10  C   UNL     1     -12.592  12.438  71.239  1.00  0.00    -0.332 A  
HETATM   11  N   UNL     1     -13.089  14.651  72.246  1.00  0.00    -0.338 N  
HETATM   12  C   UNL     1     -12.270  14.450  69.912  1.00  0.00    -0.394 A  
ENDBRANCH   2   4
BRANCH   2  13
HETATM   13  C   UNL     1     -10.030  10.999  67.585  1.00  0.00    -0.173 C  
BRANCH  13  14
HETATM   14  N   UNL     1      -9.714   9.964  68.598  1.00  0.00    -0.153 N  
HETATM   15  C   UNL     1      -9.523   7.642  69.493  1.00  0.00    -0.152 C  
HETATM   16  C   UNL     1     -10.013   8.624  68.419  1.00  0.00    -0.184 C  
HETATM   17  H   UNL     1      -9.256  10.250  69.464  1.00  0.00     0.000 HD 
HETATM   18  O   UNL     1     -10.623   8.228  67.424  1.00  0.00    -0.284 OA 
HETATM   19 CL   UNL     1      -9.268   8.448  71.055  1.00  0.00    -0.188 Cl 
HETATM   20 CL   UNL     1      -8.027   6.872  68.934  1.00  0.00    -0.115 Cl 
ENDBRANCH  13  14
BRANCH  13  21
HETATM   21  C   UNL     1      -9.118  12.238  67.724  1.00  0.00    -0.191 C  
BRANCH  21  22
HETATM   22  O   UNL     1      -9.083  13.030  66.521  1.00  0.00    -0.214 OA 
BRANCH  22  23
HETATM   23  C   UNL     1      -8.932  14.368  66.707  1.00  0.00    -0.233 C  
HETATM   24  O   UNL     1      -8.001  14.897  67.302  1.00  0.00    -0.185 OA 
BRANCH  23  25
HETATM   25  C   UNL     1     -10.059  15.134  66.067  1.00  0.00    -0.323 C  
BRANCH  25  26
HETATM   26  C   UNL     1     -10.488  14.509  64.755  1.00  0.00    -0.365 C  
HETATM   27  C   UNL     1     -11.882  14.910  64.342  1.00  0.00    -0.360 C  
HETATM   28  O   UNL     1     -12.020  16.221  64.059  1.00  0.00    -0.955 OA 
HETATM   29  O   UNL     1     -12.802  14.113  64.243  1.00  0.00    -0.607 OA 
ENDBRANCH  25  26
ENDBRANCH  23  25
ENDBRANCH  22  23
ENDBRANCH  21  22
ENDBRANCH  13  21
ENDBRANCH   2  13
TORSDOF 8
ENDMDL
MODEL       42
REMARK 921   NORMALIZED FREE ENERGY PREDICTED BY IDOCK:   -6.10 KCAL/MOL
REMARK 922        TOTAL FREE ENERGY PREDICTED BY IDOCK:  -10.42 KCAL/MOL
REMARK 923 INTER-LIGAND FREE ENERGY PREDICTED BY IDOCK:   -9.01 KCAL/MOL
REMARK 924 INTRA-LIGAND FREE ENERGY PREDICTED BY IDOCK:   -1.41 KCAL/MOL
REMARK 927      BINDING AFFINITY PREDICTED BY RF-SCORE:    0.00 PKD
ROOT
HETATM    1  O   UNL     1     -11.749  15.238  68.844  1.00  0.00    -0.322 OA 
HETATM    2  C   UNL     1     -10.534  14.507  68.626  1.00  0.00    -0.247 C  
HETATM    3  H   UNL     1     -11.555  16.070  69.258  1.00  0.00     0.000 HD 
ENDROOT
BRANCH   2   4
HETATM    4  C   UNL     1      -9.625  15.425  67.836  1.00  0.00    -0.206 A  
HETATM    5  C   UNL     1      -7.893  17.194  66.510  1.00  0.00    -0.290 A  
HETATM    6  C   UNL     1      -8.263  15.113  67.684  1.00  0.00    -0.178 A  
HETATM    7  O   UNL     1      -5.775  17.843  65.817  1.00  0.00    -0.190 OA 
HETATM    8  O   UNL     1      -7.458  19.188  65.403  1.00  0.00    -0.436 OA 
HETATM    9  C   UNL     1     -10.107  16.630  67.293  1.00  0.00    -0.279 A  
HETATM   10  C   UNL     1      -7.396  15.991  67.026  1.00  0.00    -0.258 A  
HETATM   11  N   UNL     1      -6.976  18.143  65.864  1.00  0.00    -0.286 N  
HETATM   12  C   UNL     1      -9.250  17.513  66.631  1.00  0.00    -0.277 A  
ENDBRANCH   2   4
BRANCH   2  13
HETATM   13  C   UNL     1     -10.852  13.145  67.949  1.00  0.00    -0.242 C  
BRANCH  13  14
HETATM   14  N   UNL     1     -11.336  13.391  66.569  1.00  0.00    -0.311 N  
HETATM   15  C   UNL     1     -11.460  13.022  64.104  1.00  0.00    -0.402 C  
HETATM   16  C   UNL     1     -10.786  12.770  65.461  1.00  0.00    -0.278 C  
HETATM   17  H   UNL     1     -12.107  14.045  66.430  1.00  0.00     0.000 HD 
HETATM   18  O   UNL     1      -9.812  12.021  65.559  1.00  0.00    -0.237 OA 
HETATM   19 CL   UNL     1     -12.370  14.548  64.094  1.00  0.00    -0.441 Cl 
HETATM   20 CL   UNL     1     -12.525  11.656  63.724  1.00  0.00    -0.389 Cl 
ENDBRANCH  13  14
BRANCH  13  21
HETATM   21  C   UNL     1     -11.877  12.347  68.784  1.00  0.00    -0.311 C  
BRANCH  21  22
HETATM   22  O   UNL     1     -11.956  12.813  70.145  1.00  0.00    -0.342 OA 
BRANCH  22  23
HETATM   23  C   UNL     1     -12.651  12.015  70.998  1.00  0.00    -0.273 C  
HETATM   24  O   UNL     1     -12.745  10.797  70.904  1.00  0.00    -0.347 OA 
BRANCH  23  25
HETATM   25  C   UNL     1     -13.289  12.821  72.097  1.00  0.00    -0.593 C  
BRANCH  25  26
HETATM   26  C   UNL     1     -13.624  14.226  71.639  1.00  0.00    -0.461 C  
HETATM   27  C   UNL     1     -13.034  15.290  72.531  1.00  0.00    -0.393 C  
HETATM   28  O   UNL     1     -11.686  15.332  72.525  1.00  0.00    -0.426 OA 
HETATM   29  O   UNL     1     -13.714  16.068  73.180  1.00  0.00    -0.597 OA 
ENDBRANCH  25  26
ENDBRANCH  23  25
ENDBRANCH  22  23
ENDBRANCH  21  22
ENDBRANCH  13  21
ENDBRANCH   2  13
TORSDOF 8
ENDMDL
MODEL       43
REMARK 921   NORMALIZED FREE ENERGY PREDICTED BY IDOCK:   -6.09 KCAL/MOL
REMARK 922        TOTAL FREE ENERGY PREDICTED BY IDOCK:  -10.41 KCAL/MOL
REMARK 923 INTER-LIGAND FREE ENERGY PREDICTED BY IDOCK:   -9.05 KCAL/MOL
REMARK 924 INTRA-LIGAND FREE ENERGY PREDICTED BY IDOCK:   -1.35 KCAL/MOL
REMARK 927      BINDING AFFINITY PREDICTED BY RF-SCORE:    0.00 PKD
ROOT
HETATM    1  O   UNL     1     -12.077  12.077  66.364  1.00  0.00    -0.610 OA 
HETATM    2  C   UNL     1     -10.749  11.949  66.891  1.00  0.00    -0.246 C  
HETATM    3  H   UNL     1     -12.500  11.227  66.345  1.00  0.00     0.000 HD 
ENDROOT
BRANCH   2   4
HETATM    4  C   UNL     1     -10.892  11.268  68.236  1.00  0.00    -0.249 A  
HETATM    5  C   UNL     1     -11.190   9.868  70.653  1.00  0.00    -0.344 A  
HETATM    6  C   UNL     1      -9.813  10.557  68.789  1.00  0.00    -0.191 A  
HETATM    7  O   UNL     1     -10.392   8.433  72.293  1.00  0.00    -0.287 OA 
HETATM    8  O   UNL     1     -12.461   9.143  72.455  1.00  0.00    -0.352 OA 
HETATM    9  C   UNL     1     -12.118  11.282  68.928  1.00  0.00    -0.292 A  
HETATM   10  C   UNL     1      -9.956   9.859  69.991  1.00  0.00    -0.302 A  
HETATM   11  N   UNL     1     -11.360   9.093  71.888  1.00  0.00    -0.375 N  
HETATM   12  C   UNL     1     -12.271  10.588  70.131  1.00  0.00    -0.358 A  
ENDBRANCH   2   4
BRANCH   2  13
HETATM   13  C   UNL     1     -10.057  13.340  66.922  1.00  0.00    -0.250 C  
BRANCH  13  14
HETATM   14  N   UNL     1     -10.639  14.146  68.022  1.00  0.00    -0.236 N  
HETATM   15  C   UNL     1     -10.587  15.695  69.978  1.00  0.00    -0.332 C  
HETATM   16  C   UNL     1      -9.862  14.796  68.966  1.00  0.00    -0.206 C  
HETATM   17  H   UNL     1     -11.654  14.227  68.086  1.00  0.00     0.000 HD 
HETATM   18  O   UNL     1      -8.635  14.683  68.979  1.00  0.00    -0.164 OA 
HETATM   19 CL   UNL     1     -12.287  15.220  70.182  1.00  0.00    -0.388 Cl 
HETATM   20 CL   UNL     1     -10.468  17.381  69.445  1.00  0.00    -0.216 Cl 
ENDBRANCH  13  14
BRANCH  13  21
HETATM   21  C   UNL     1     -10.193  14.048  65.556  1.00  0.00    -0.343 C  
BRANCH  21  22
HETATM   22  O   UNL     1     -11.363  14.887  65.488  1.00  0.00    -0.347 OA 
BRANCH  22  23
HETATM   23  C   UNL     1     -11.167  16.121  64.954  1.00  0.00    -0.285 C  
HETATM   24  O   UNL     1     -11.603  16.498  63.874  1.00  0.00    -1.175 OA 
BRANCH  23  25
HETATM   25  C   UNL     1     -10.349  16.986  65.875  1.00  0.00    -0.310 C  
BRANCH  25  26
HETATM   26  C   UNL     1     -10.576  18.461  65.606  1.00  0.00    -0.128 C  
HETATM   27  C   UNL     1      -9.922  19.351  66.633  1.00  0.00    -0.390 C  
HETATM   28  O   UNL     1      -8.574  19.295  66.637  1.00  0.00    -0.293 OA 
HETATM   29  O   UNL     1     -10.553  20.084  67.378  1.00  0.00    -0.386 OA 
ENDBRANCH  25  26
ENDBRANCH  23  25
ENDBRANCH  22  23
ENDBRANCH  21  22
ENDBRANCH  13  21
ENDBRANCH   2  13
TORSDOF 8
ENDMDL
MODEL       44
REMARK 921   NORMALIZED FREE ENERGY PREDICTED BY IDOCK:   -6.06 KCAL/MOL
REMARK 922        TOTAL FREE ENERGY PREDICTED BY IDOCK:  -10.37 KCAL/MOL
REMARK 923 INTER-LIGAND FREE ENERGY PREDICTED BY IDOCK:   -8.99 KCAL/MOL
REMARK 924 INTRA-LIGAND FREE ENERGY PREDICTED BY IDOCK:   -1.38 KCAL/MOL
REMARK 927      BINDING AFFINITY PREDICTED BY RF-SCORE:    0.00 PKD
ROOT
HETATM    1  O   UNL     1      -8.765  12.934  66.869  1.00  0.00    -0.262 OA 
HETATM    2  C   UNL     1     -10.020  12.307  66.571  1.00  0.00    -0.220 C  
HETATM    3  H   UNL     1      -8.912  13.727  67.370  1.00  0.00     0.000 HD 
ENDROOT
BRANCH   2   4
HETATM    4  C   UNL     1     -10.720  12.111  67.899  1.00  0.00    -0.237 A  
HETATM    5  C   UNL     1     -12.156  11.717  70.281  1.00  0.00    -0.342 A  
HETATM    6  C   UNL     1     -10.881  10.821  68.432  1.00  0.00    -0.276 A  
HETATM    7  O   UNL     1     -13.114  10.338  71.884  1.00  0.00    -0.434 OA 
HETATM    8  O   UNL     1     -13.414  12.503  72.066  1.00  0.00    -0.493 OA 
HETATM    9  C   UNL     1     -11.275  13.203  68.593  1.00  0.00    -0.314 A  
HETATM   10  C   UNL     1     -11.595  10.619  69.617  1.00  0.00    -0.368 A  
HETATM   11  N   UNL     1     -12.952  11.504  71.497  1.00  0.00    -0.430 N  
HETATM   12  C   UNL     1     -11.989  13.012  69.779  1.00  0.00    -0.377 A  
ENDBRANCH   2   4
BRANCH   2  13
HETATM   13  C   UNL     1      -9.779  11.009  65.751  1.00  0.00    -0.224 C  
BRANCH  13  14
HETATM   14  N   UNL     1      -8.322  10.748  65.672  1.00  0.00    -0.205 N  
HETATM   15  C   UNL     1      -6.275   9.349  65.388  1.00  0.00    -0.065 C  
HETATM   16  C   UNL     1      -7.793   9.471  65.586  1.00  0.00    -0.101 C  
HETATM   17  H   UNL     1      -7.681  11.542  65.680  1.00  0.00     0.000 HD 
HETATM   18  O   UNL     1      -8.512   8.471  65.637  1.00  0.00    -0.137 OA 
HETATM   19 CL   UNL     1      -5.416  10.791  65.970  1.00  0.00    -0.110 Cl 
HETATM   20 CL   UNL     1      -5.936   9.068  63.671  1.00  0.00    -0.079 Cl 
ENDBRANCH  13  14
BRANCH  13  21
HETATM   21  C   UNL     1     -10.421  11.122  64.350  1.00  0.00    -0.353 C  
BRANCH  21  22
HETATM   22  O   UNL     1     -10.761  12.481  64.012  1.00  0.00    -0.352 OA 
BRANCH  22  23
HETATM   23  C   UNL     1     -12.084  12.719  63.811  1.00  0.00    -0.517 C  
HETATM   24  O   UNL     1     -12.936  11.857  63.632  1.00  0.00    -0.692 OA 
BRANCH  23  25
HETATM   25  C   UNL     1     -12.381  14.194  63.850  1.00  0.00    -0.229 C  
BRANCH  25  26
HETATM   26  C   UNL     1     -12.017  14.803  65.189  1.00  0.00    -0.278 C  
HETATM   27  C   UNL     1     -10.844  15.748  65.104  1.00  0.00    -0.428 C  
HETATM   28  O   UNL     1     -11.078  16.856  64.372  1.00  0.00    -1.128 OA 
HETATM   29  O   UNL     1      -9.782  15.545  65.671  1.00  0.00    -0.336 OA 
ENDBRANCH  25  26
ENDBRANCH  23  25
ENDBRANCH  22  23
ENDBRANCH  21  22
ENDBRANCH  13  21
ENDBRANCH   2  13
TORSDOF 8
ENDMDL
MODEL       45
REMARK 921   NORMALIZED FREE ENERGY PREDICTED BY IDOCK:   -6.05 KCAL/MOL
REMARK 922        TOTAL FREE ENERGY PREDICTED BY IDOCK:  -10.35 KCAL/MOL
REMARK 923 INTER-LIGAND FREE ENERGY PREDICTED BY IDOCK:   -9.52 KCAL/MOL
REMARK 924 INTRA-LIGAND FREE ENERGY PREDICTED BY IDOCK:   -0.84 KCAL/MOL
REMARK 927      BINDING AFFINITY PREDICTED BY RF-SCORE:    0.00 PKD
ROOT
HETATM    1  O   UNL     1      -8.644  12.220  68.913  1.00  0.00    -0.365 OA 
HETATM    2  C   UNL     1      -9.524  11.277  68.285  1.00  0.00    -0.190 C  
HETATM    3  H   UNL     1      -8.041  12.575  68.271  1.00  0.00     0.000 HD 
ENDROOT
BRANCH   2   4
HETATM    4  C   UNL     1     -10.171  12.008  67.127  1.00  0.00    -0.221 A  
HETATM    5  C   UNL     1     -11.513  13.341  65.051  1.00  0.00    -0.305 A  
HETATM    6  C   UNL     1     -10.481  13.375  67.238  1.00  0.00    -0.248 A  
HETATM    7  O   UNL     1     -12.565  15.213  64.170  1.00  0.00    -0.737 OA 
HETATM    8  O   UNL     1     -12.548  13.375  62.974  1.00  0.00    -0.669 OA 
HETATM    9  C   UNL     1     -10.527  11.327  65.950  1.00  0.00    -0.314 A  
HETATM   10  C   UNL     1     -11.150  14.043  66.207  1.00  0.00    -0.307 A  
HETATM   11  N   UNL     1     -12.262  14.026  63.990  1.00  0.00    -0.428 N  
HETATM   12  C   UNL     1     -11.194  11.985  64.913  1.00  0.00    -0.374 A  
ENDBRANCH   2   4
BRANCH   2  13
HETATM   13  C   UNL     1     -10.510  10.696  69.336  1.00  0.00    -0.225 C  
BRANCH  13  14
HETATM   14  N   UNL     1     -10.790   9.278  69.006  1.00  0.00    -0.386 N  
HETATM   15  C   UNL     1     -10.853   6.817  69.418  1.00  0.00    -0.271 C  
HETATM   16  C   UNL     1     -10.394   8.228  69.816  1.00  0.00    -0.216 C  
HETATM   17  H   UNL     1     -11.297   9.066  68.145  1.00  0.00     0.000 HD 
HETATM   18  O   UNL     1      -9.724   8.416  70.833  1.00  0.00    -0.164 OA 
HETATM   19 CL   UNL     1     -11.217   6.708  67.683  1.00  0.00    -0.344 Cl 
HETATM   20 CL   UNL     1     -12.272   6.376  70.385  1.00  0.00    -0.118 Cl 
ENDBRANCH  13  14
BRANCH  13  21
HETATM   21  C   UNL     1     -11.804  11.539  69.394  1.00  0.00    -0.350 C  
BRANCH  21  22
HETATM   22  O   UNL     1     -12.463  11.442  70.672  1.00  0.00    -0.338 OA 
BRANCH  22  23
HETATM   23  C   UNL     1     -12.852  12.624  71.220  1.00  0.00    -0.250 C  
HETATM   24  O   UNL     1     -13.407  12.749  72.304  1.00  0.00    -0.532 OA 
BRANCH  23  25
HETATM   25  C   UNL     1     -12.497  13.780  70.323  1.00  0.00    -0.357 C  
BRANCH  25  26
HETATM   26  C   UNL     1     -12.998  15.096  70.882  1.00  0.00    -0.488 C  
HETATM   27  C   UNL     1     -11.880  16.013  71.314  1.00  0.00    -0.449 C  
HETATM   28  O   UNL     1     -11.097  16.444  70.304  1.00  0.00    -0.359 OA 
HETATM   29  O   UNL     1     -11.714  16.361  72.472  1.00  0.00    -0.513 OA 
ENDBRANCH  25  26
ENDBRANCH  23  25
ENDBRANCH  22  23
ENDBRANCH  21  22
ENDBRANCH  13  21
ENDBRANCH   2  13
TORSDOF 8
ENDMDL
MODEL       46
REMARK 921   NORMALIZED FREE ENERGY PREDICTED BY IDOCK:   -6.05 KCAL/MOL
REMARK 922        TOTAL FREE ENERGY PREDICTED BY IDOCK:  -10.35 KCAL/MOL
REMARK 923 INTER-LIGAND FREE ENERGY PREDICTED BY IDOCK:   -9.47 KCAL/MOL
REMARK 924 INTRA-LIGAND FREE ENERGY PREDICTED BY IDOCK:   -0.88 KCAL/MOL
REMARK 927      BINDING AFFINITY PREDICTED BY RF-SCORE:    0.00 PKD
ROOT
HETATM    1  O   UNL     1     -12.116  11.739  67.462  1.00  0.00    -0.599 OA 
HETATM    2  C   UNL     1     -10.923  12.061  68.190  1.00  0.00    -0.230 C  
HETATM    3  H   UNL     1     -12.049  10.861  67.106  1.00  0.00     0.000 HD 
ENDROOT
BRANCH   2   4
HETATM    4  C   UNL     1     -10.741  10.960  69.214  1.00  0.00    -0.271 A  
HETATM    5  C   UNL     1     -10.378   9.032  71.223  1.00  0.00    -0.313 A  
HETATM    6  C   UNL     1     -11.810  10.584  70.046  1.00  0.00    -0.388 A  
HETATM    7  O   UNL     1     -11.136   7.819  73.051  1.00  0.00    -0.398 OA 
HETATM    8  O   UNL     1      -9.054   7.546  72.418  1.00  0.00    -0.128 OA 
HETATM    9  C   UNL     1      -9.493  10.337  69.394  1.00  0.00    -0.225 A  
HETATM   10  C   UNL     1     -11.634   9.625  71.048  1.00  0.00    -0.436 A  
HETATM   11  N   UNL     1     -10.175   8.063  72.309  1.00  0.00    -0.236 N  
HETATM   12  C   UNL     1      -9.307   9.376  70.391  1.00  0.00    -0.317 A  
ENDBRANCH   2   4
BRANCH   2  13
HETATM   13  C   UNL     1     -11.032  13.497  68.774  1.00  0.00    -0.261 C  
BRANCH  13  14
HETATM   14  N   UNL     1     -11.906  13.469  69.971  1.00  0.00    -0.412 N  
HETATM   15  C   UNL     1     -12.881  14.343  72.095  1.00  0.00    -0.342 C  
HETATM   16  C   UNL     1     -11.837  14.423  70.972  1.00  0.00    -0.270 C  
HETATM   17  H   UNL     1     -12.588  12.715  70.061  1.00  0.00     0.000 HD 
HETATM   18  O   UNL     1     -10.991  15.318  70.950  1.00  0.00    -0.312 OA 
HETATM   19 CL   UNL     1     -13.537  12.702  72.270  1.00  0.00    -0.611 Cl 
HETATM   20 CL   UNL     1     -14.179  15.504  71.762  1.00  0.00    -0.588 Cl 
ENDBRANCH  13  14
BRANCH  13  21
HETATM   21  C   UNL     1     -11.553  14.482  67.704  1.00  0.00    -0.378 C  
BRANCH  21  22
HETATM   22  O   UNL     1     -10.934  14.274  66.420  1.00  0.00    -0.303 OA 
BRANCH  22  23
HETATM   23  C   UNL     1     -10.395  15.381  65.844  1.00  0.00    -0.341 C  
HETATM   24  O   UNL     1     -10.834  15.941  64.847  1.00  0.00    -0.474 OA 
BRANCH  23  25
HETATM   25  C   UNL     1      -9.182  15.851  66.602  1.00  0.00    -0.280 C  
BRANCH  25  26
HETATM   26  C   UNL     1      -9.035  17.358  66.543  1.00  0.00    -0.285 C  
HETATM   27  C   UNL     1      -9.999  18.078  67.453  1.00  0.00    -0.326 C  
HETATM   28  O   UNL     1      -9.794  17.851  68.767  1.00  0.00    -0.344 OA 
HETATM   29  O   UNL     1     -10.871  18.826  67.042  1.00  0.00    -0.405 OA 
ENDBRANCH  25  26
ENDBRANCH  23  25
ENDBRANCH  22  23
ENDBRANCH  21  22
ENDBRANCH  13  21
ENDBRANCH   2  13
TORSDOF 8
ENDMDL
MODEL       47
REMARK 921   NORMALIZED FREE ENERGY PREDICTED BY IDOCK:   -6.05 KCAL/MOL
REMARK 922        TOTAL FREE ENERGY PREDICTED BY IDOCK:  -10.34 KCAL/MOL
REMARK 923 INTER-LIGAND FREE ENERGY PREDICTED BY IDOCK:   -9.30 KCAL/MOL
REMARK 924 INTRA-LIGAND FREE ENERGY PREDICTED BY IDOCK:   -1.05 KCAL/MOL
REMARK 927      BINDING AFFINITY PREDICTED BY RF-SCORE:    0.00 PKD
ROOT
HETATM    1  O   UNL     1      -8.742  11.065  67.185  1.00  0.00    -0.132 OA 
HETATM    2  C   UNL     1      -9.279  12.025  68.106  1.00  0.00    -0.195 C  
HETATM    3  H   UNL     1      -8.294  10.377  67.661  1.00  0.00     0.000 HD 
ENDROOT
BRANCH   2   4
HETATM    4  C   UNL     1     -10.141  11.244  69.075  1.00  0.00    -0.147 A  
HETATM    5  C   UNL     1     -11.689   9.893  70.990  1.00  0.00    -0.382 A  
HETATM    6  C   UNL     1     -11.422  11.711  69.418  1.00  0.00    -0.372 A  
HETATM    7  O   UNL     1     -13.571   9.713  72.337  1.00  0.00    -0.433 OA 
HETATM    8  O   UNL     1     -12.003   8.193  72.539  1.00  0.00    -0.376 OA 
HETATM    9  C   UNL     1      -9.659  10.076  69.694  1.00  0.00    -0.251 A  
HETATM   10  C   UNL     1     -12.196  11.042  70.371  1.00  0.00    -0.461 A  
HETATM   11  N   UNL     1     -12.478   9.218  72.029  1.00  0.00    -0.378 N  
HETATM   12  C   UNL     1     -10.426   9.399  70.646  1.00  0.00    -0.354 A  
ENDBRANCH   2   4
BRANCH   2  13
HETATM   13  C   UNL     1     -10.011  13.152  67.327  1.00  0.00    -0.230 C  
BRANCH  13  14
HETATM   14  N   UNL     1     -10.206  12.723  65.921  1.00  0.00    -0.283 N  
HETATM   15  C   UNL     1     -11.514  11.962  63.937  1.00  0.00    -0.426 C  
HETATM   16  C   UNL     1     -11.419  12.260  65.440  1.00  0.00    -0.354 C  
HETATM   17  H   UNL     1      -9.413  12.771  65.280  1.00  0.00     0.000 HD 
HETATM   18  O   UNL     1     -12.394  12.119  66.181  1.00  0.00    -0.536 OA 
HETATM   19 CL   UNL     1      -9.921  11.623  63.230  1.00  0.00    -0.426 Cl 
HETATM   20 CL   UNL     1     -12.281  13.338  63.122  1.00  0.00    -0.453 Cl 
ENDBRANCH  13  14
BRANCH  13  21
HETATM   21  C   UNL     1      -9.225  14.479  67.419  1.00  0.00    -0.200 C  
BRANCH  21  22
HETATM   22  O   UNL     1      -9.488  15.187  68.646  1.00  0.00    -0.191 OA 
BRANCH  22  23
HETATM   23  C   UNL     1     -10.384  16.205  68.553  1.00  0.00    -0.254 C  
HETATM   24  O   UNL     1     -11.597  16.069  68.456  1.00  0.00    -0.381 OA 
BRANCH  23  25
HETATM   25  C   UNL     1      -9.692  17.541  68.599  1.00  0.00    -0.319 C  
BRANCH  25  26
HETATM   26  C   UNL     1      -9.235  17.983  67.223  1.00  0.00    -0.255 C  
HETATM   27  C   UNL     1     -10.362  18.517  66.374  1.00  0.00    -0.423 C  
HETATM   28  O   UNL     1     -10.912  19.657  66.840  1.00  0.00    -0.452 OA 
HETATM   29  O   UNL     1     -10.726  17.984  65.338  1.00  0.00    -0.632 OA 
ENDBRANCH  25  26
ENDBRANCH  23  25
ENDBRANCH  22  23
ENDBRANCH  21  22
ENDBRANCH  13  21
ENDBRANCH   2  13
TORSDOF 8
ENDMDL
MODEL       48
REMARK 921   NORMALIZED FREE ENERGY PREDICTED BY IDOCK:   -6.03 KCAL/MOL
REMARK 922        TOTAL FREE ENERGY PREDICTED BY IDOCK:  -10.32 KCAL/MOL
REMARK 923 INTER-LIGAND FREE ENERGY PREDICTED BY IDOCK:   -9.29 KCAL/MOL
REMARK 924 INTRA-LIGAND FREE ENERGY PREDICTED BY IDOCK:   -1.03 KCAL/MOL
REMARK 927      BINDING AFFINITY PREDICTED BY RF-SCORE:    0.00 PKD
ROOT
HETATM    1  O   UNL     1      -8.637  14.067  69.194  1.00  0.00    -0.364 OA 
HETATM    2  C   UNL     1      -8.865  13.969  67.782  1.00  0.00    -0.187 C  
HETATM    3  H   UNL     1      -7.992  14.741  69.371  1.00  0.00     0.000 HD 
ENDROOT
BRANCH   2   4
HETATM    4  C   UNL     1      -9.242  15.361  67.318  1.00  0.00    -0.217 A  
HETATM    5  C   UNL     1     -10.075  17.929  66.545  1.00  0.00    -0.370 A  
HETATM    6  C   UNL     1      -8.962  16.476  68.125  1.00  0.00    -0.207 A  
HETATM    7  O   UNL     1     -10.337  20.199  66.952  1.00  0.00    -0.439 OA 
HETATM    8  O   UNL     1     -11.155  19.379  65.089  1.00  0.00    -0.365 OA 
HETATM    9  C   UNL     1      -9.929  15.559  66.106  1.00  0.00    -0.332 A  
HETATM   10  C   UNL     1      -9.375  17.757  67.746  1.00  0.00    -0.257 A  
HETATM   11  N   UNL     1     -10.557  19.265  66.169  1.00  0.00    -0.466 N  
HETATM   12  C   UNL     1     -10.344  16.835  65.716  1.00  0.00    -0.322 A  
ENDBRANCH   2   4
BRANCH   2  13
HETATM   13  C   UNL     1      -9.921  12.866  67.492  1.00  0.00    -0.215 C  
BRANCH  13  14
HETATM   14  N   UNL     1     -10.748  12.656  68.704  1.00  0.00    -0.245 N  
HETATM   15  C   UNL     1     -12.388  11.463  70.159  1.00  0.00    -0.266 C  
HETATM   16  C   UNL     1     -11.686  11.643  68.805  1.00  0.00    -0.330 C  
HETATM   17  H   UNL     1     -10.621  13.285  69.498  1.00  0.00     0.000 HD 
HETATM   18  O   UNL     1     -11.929  10.894  67.857  1.00  0.00    -0.585 OA 
HETATM   19 CL   UNL     1     -12.373  12.962  71.112  1.00  0.00    -0.357 Cl 
HETATM   20 CL   UNL     1     -11.600  10.147  71.049  1.00  0.00    -0.454 Cl 
ENDBRANCH  13  14
BRANCH  13  21
HETATM   21  C   UNL     1      -9.233  11.561  67.032  1.00  0.00    -0.176 C  
BRANCH  21  22
HETATM   22  O   UNL     1      -8.974  11.549  65.614  1.00  0.00    -0.176 OA 
BRANCH  22  23
HETATM   23  C   UNL     1      -9.854  10.833  64.865  1.00  0.00    -0.292 C  
HETATM   24  O   UNL     1     -10.019   9.622  64.938  1.00  0.00    -0.173 OA 
BRANCH  23  25
HETATM   25  C   UNL     1     -10.623  11.728  63.930  1.00  0.00    -0.445 C  
BRANCH  25  26
HETATM   26  C   UNL     1     -12.078  11.845  64.339  1.00  0.00    -0.305 C  
HETATM   27  C   UNL     1     -12.529  13.276  64.498  1.00  0.00    -0.319 C  
HETATM   28  O   UNL     1     -12.525  13.988  63.353  1.00  0.00    -0.826 OA 
HETATM   29  O   UNL     1     -12.895  13.743  65.564  1.00  0.00    -0.596 OA 
ENDBRANCH  25  26
ENDBRANCH  23  25
ENDBRANCH  22  23
ENDBRANCH  21  22
ENDBRANCH  13  21
ENDBRANCH   2  13
TORSDOF 8
ENDMDL
MODEL       49
REMARK 921   NORMALIZED FREE ENERGY PREDICTED BY IDOCK:   -6.02 KCAL/MOL
REMARK 922        TOTAL FREE ENERGY PREDICTED BY IDOCK:  -10.30 KCAL/MOL
REMARK 923 INTER-LIGAND FREE ENERGY PREDICTED BY IDOCK:   -8.82 KCAL/MOL
REMARK 924 INTRA-LIGAND FREE ENERGY PREDICTED BY IDOCK:   -1.48 KCAL/MOL
REMARK 927      BINDING AFFINITY PREDICTED BY RF-SCORE:    0.00 PKD
ROOT
HETATM    1  O   UNL     1     -12.903  15.790  69.181  1.00  0.00    -0.228 OA 
HETATM    2  C   UNL     1     -11.558  15.973  68.717  1.00  0.00    -0.351 C  
HETATM    3  H   UNL     1     -13.511  15.903  68.461  1.00  0.00     0.000 HD 
ENDROOT
BRANCH   2   4
HETATM    4  C   UNL     1     -11.376  15.011  67.561  1.00  0.00    -0.340 A  
HETATM    5  C   UNL     1     -10.907  13.168  65.495  1.00  0.00    -0.283 A  
HETATM    6  C   UNL     1     -11.880  13.702  67.643  1.00  0.00    -0.404 A  
HETATM    7  O   UNL     1     -11.032  11.031  64.597  1.00  0.00    -0.243 OA 
HETATM    8  O   UNL     1      -9.975  12.576  63.453  1.00  0.00    -0.380 OA 
HETATM    9  C   UNL     1     -10.650  15.386  66.416  1.00  0.00    -0.307 A  
HETATM   10  C   UNL     1     -11.649  12.780  66.618  1.00  0.00    -0.430 A  
HETATM   11  N   UNL     1     -10.618  12.188  64.440  1.00  0.00    -0.301 N  
HETATM   12  C   UNL     1     -10.415  14.473  65.384  1.00  0.00    -0.399 A  
ENDBRANCH   2   4
BRANCH   2  13
HETATM   13  C   UNL     1     -10.563  15.789  69.896  1.00  0.00    -0.328 C  
BRANCH  13  14
HETATM   14  N   UNL     1      -9.491  14.851  69.484  1.00  0.00    -0.425 N  
HETATM   15  C   UNL     1      -7.160  14.177  68.902  1.00  0.00    -0.110 C  
HETATM   16  C   UNL     1      -8.201  15.266  69.200  1.00  0.00    -0.234 C  
HETATM   17  H   UNL     1      -9.713  13.857  69.407  1.00  0.00     0.000 HD 
HETATM   18  O   UNL     1      -7.890  16.458  69.213  1.00  0.00    -0.238 OA 
HETATM   19 CL   UNL     1      -7.920  12.679  68.323  1.00  0.00    -0.148 Cl 
HETATM   20 CL   UNL     1      -6.209  13.870  70.367  1.00  0.00    -0.141 Cl 
ENDBRANCH  13  14
BRANCH  13  21
HETATM   21  C   UNL     1     -11.301  15.298  71.162  1.00  0.00    -0.356 C  
BRANCH  21  22
HETATM   22  O   UNL     1     -11.801  13.954  71.017  1.00  0.00    -0.258 OA 
BRANCH  22  23
HETATM   23  C   UNL     1     -13.039  13.733  71.533  1.00  0.00    -0.357 C  
HETATM   24  O   UNL     1     -13.927  14.571  71.619  1.00  0.00    -0.397 OA 
BRANCH  23  25
HETATM   25  C   UNL     1     -13.191  12.303  71.980  1.00  0.00    -0.508 C  
BRANCH  25  26
HETATM   26  C   UNL     1     -12.534  11.340  71.011  1.00  0.00    -0.503 C  
HETATM   27  C   UNL     1     -12.544   9.915  71.504  1.00  0.00    -0.416 C  
HETATM   28  O   UNL     1     -13.775   9.374  71.608  1.00  0.00    -0.371 OA 
HETATM   29  O   UNL     1     -11.526   9.291  71.758  1.00  0.00    -0.366 OA 
ENDBRANCH  25  26
ENDBRANCH  23  25
ENDBRANCH  22  23
ENDBRANCH  21  22
ENDBRANCH  13  21
ENDBRANCH   2  13
TORSDOF 8
ENDMDL
MODEL       50
REMARK 921   NORMALIZED FREE ENERGY PREDICTED BY IDOCK:   -5.99 KCAL/MOL
REMARK 922        TOTAL FREE ENERGY PREDICTED BY IDOCK:  -10.26 KCAL/MOL
REMARK 923 INTER-LIGAND FREE ENERGY PREDICTED BY IDOCK:   -8.95 KCAL/MOL
REMARK 924 INTRA-LIGAND FREE ENERGY PREDICTED BY IDOCK:   -1.30 KCAL/MOL
REMARK 927      BINDING AFFINITY PREDICTED BY RF-SCORE:    0.00 PKD
ROOT
HETATM    1  O   UNL     1     -12.299  11.076  68.396  1.00  0.00    -0.762 OA 
HETATM    2  C   UNL     1     -11.147  11.853  68.753  1.00  0.00    -0.245 C  
HETATM    3  H   UNL     1     -13.077  11.619  68.430  1.00  0.00     0.000 HD 
ENDROOT
BRANCH   2   4
HETATM    4  C   UNL     1     -11.141  13.051  67.826  1.00  0.00    -0.291 A  
HETATM    5  C   UNL     1     -11.028  15.190  66.010  1.00  0.00    -0.332 A  
HETATM    6  C   UNL     1     -11.986  13.081  66.703  1.00  0.00    -0.453 A  
HETATM    7  O   UNL     1     -11.657  16.221  64.028  1.00  0.00    -0.953 OA 
HETATM    8  O   UNL     1     -10.134  17.199  65.267  1.00  0.00    -0.507 OA 
HETATM    9  C   UNL     1     -10.254  14.122  68.033  1.00  0.00    -0.232 A  
HETATM   10  C   UNL     1     -11.934  14.143  65.796  1.00  0.00    -0.410 A  
HETATM   11  N   UNL     1     -10.933  16.281  65.031  1.00  0.00    -0.368 N  
HETATM   12  C   UNL     1     -10.194  15.190  67.133  1.00  0.00    -0.247 A  
ENDBRANCH   2   4
BRANCH   2  13
HETATM   13  C   UNL     1      -9.873  10.966  68.698  1.00  0.00    -0.190 C  
BRANCH  13  14
HETATM   14  N   UNL     1      -9.537  10.688  67.280  1.00  0.00    -0.162 N  
HETATM   15  C   UNL     1      -8.110  10.721  65.234  1.00  0.00    -0.021 C  
HETATM   16  C   UNL     1      -8.398  11.185  66.670  1.00  0.00    -0.160 C  
HETATM   17  H   UNL     1     -10.171  10.106  66.732  1.00  0.00     0.000 HD 
HETATM   18  O   UNL     1      -7.630  11.945  67.260  1.00  0.00    -0.137 OA 
HETATM   19 CL   UNL     1      -9.588  10.194  64.402  1.00  0.00    -0.366 Cl 
HETATM   20 CL   UNL     1      -6.914   9.413  65.277  1.00  0.00    -0.088 Cl 
ENDBRANCH  13  14
BRANCH  13  21
HETATM   21  C   UNL     1     -10.079   9.665  69.506  1.00  0.00    -0.209 C  
BRANCH  21  22
HETATM   22  O   UNL     1     -10.927   9.862  70.654  1.00  0.00    -0.296 OA 
BRANCH  22  23
HETATM   23  C   UNL     1     -10.680   9.044  71.710  1.00  0.00    -0.367 C  
HETATM   24  O   UNL     1      -9.567   8.727  72.111  1.00  0.00    -0.305 OA 
BRANCH  23  25
HETATM   25  C   UNL     1     -11.962   8.580  72.348  1.00  0.00    -0.434 C  
BRANCH  25  26
HETATM   26  C   UNL     1     -12.684   7.568  71.481  1.00  0.00    -0.391 C  
HETATM   27  C   UNL     1     -11.774   6.481  70.966  1.00  0.00    -0.343 C  
HETATM   28  O   UNL     1     -11.268   5.681  71.927  1.00  0.00    -0.249 OA 
HETATM   29  O   UNL     1     -11.537   6.317  69.780  1.00  0.00    -0.436 OA 
ENDBRANCH  25  26
ENDBRANCH  23  25
ENDBRANCH  22  23
ENDBRANCH  21  22
ENDBRANCH  13  21
ENDBRANCH   2  13
TORSDOF 8
ENDMDL
MODEL       51
REMARK 921   NORMALIZED FREE ENERGY PREDICTED BY IDOCK:   -5.97 KCAL/MOL
REMARK 922        TOTAL FREE ENERGY PREDICTED BY IDOCK:  -10.23 KCAL/MOL
REMARK 923 INTER-LIGAND FREE ENERGY PREDICTED BY IDOCK:   -9.08 KCAL/MOL
REMARK 924 INTRA-LIGAND FREE ENERGY PREDICTED BY IDOCK:   -1.15 KCAL/MOL
REMARK 927      BINDING AFFINITY PREDICTED BY RF-SCORE:    0.00 PKD
ROOT
HETATM    1  O   UNL     1      -9.145  11.522  67.483  1.00  0.00    -0.161 OA 
HETATM    2  C   UNL     1      -9.954  11.678  68.658  1.00  0.00    -0.184 C  
HETATM    3  H   UNL     1      -8.420  10.937  67.666  1.00  0.00     0.000 HD 
ENDROOT
BRANCH   2   4
HETATM    4  C   UNL     1     -10.345  10.281  69.090  1.00  0.00    -0.241 A  
HETATM    5  C   UNL     1     -10.930   7.679  69.970  1.00  0.00    -0.228 A  
HETATM    6  C   UNL     1     -10.921  10.066  70.354  1.00  0.00    -0.384 A  
HETATM    7  O   UNL     1     -11.634   6.184  71.601  1.00  0.00    -0.295 OA 
HETATM    8  O   UNL     1     -10.941   5.375  69.684  1.00  0.00    -0.232 OA 
HETATM    9  C   UNL     1     -10.087   9.169  68.267  1.00  0.00    -0.221 A  
HETATM   10  C   UNL     1     -11.213   8.772  70.797  1.00  0.00    -0.309 A  
HETATM   11  N   UNL     1     -11.187   6.315  70.453  1.00  0.00    -0.352 N  
HETATM   12  C   UNL     1     -10.377   7.873  68.699  1.00  0.00    -0.224 A  
ENDBRANCH   2   4
BRANCH   2  13
HETATM   13  C   UNL     1     -11.141  12.636  68.358  1.00  0.00    -0.265 C  
BRANCH  13  14
HETATM   14  N   UNL     1     -11.943  12.815  69.593  1.00  0.00    -0.310 N  
HETATM   15  C   UNL     1     -12.803  14.044  71.586  1.00  0.00    -0.352 C  
HETATM   16  C   UNL     1     -11.828  13.929  70.406  1.00  0.00    -0.265 C  
HETATM   17  H   UNL     1     -12.608  12.086  69.854  1.00  0.00     0.000 HD 
HETATM   18  O   UNL     1     -10.997  14.810  70.177  1.00  0.00    -0.213 OA 
HETATM   19 CL   UNL     1     -13.424  12.456  72.084  1.00  0.00    -0.591 Cl 
HETATM   20 CL   UNL     1     -14.134  15.125  71.135  1.00  0.00    -0.501 Cl 
ENDBRANCH  13  14
BRANCH  13  21
HETATM   21  C   UNL     1     -11.996  12.096  67.190  1.00  0.00    -0.078 C  
BRANCH  21  22
HETATM   22  O   UNL     1     -11.454  12.455  65.904  1.00  0.00    -0.337 OA 
BRANCH  22  23
HETATM   23  C   UNL     1     -12.363  12.864  64.980  1.00  0.00    -0.485 C  
HETATM   24  O   UNL     1     -13.273  12.177  64.534  1.00  0.00    -0.724 OA 
BRANCH  23  25
HETATM   25  C   UNL     1     -12.120  14.294  64.577  1.00  0.00    -0.499 C  
BRANCH  25  26
HETATM   26  C   UNL     1     -10.684  14.710  64.827  1.00  0.00    -0.399 C  
HETATM   27  C   UNL     1     -10.573  15.963  65.660  1.00  0.00    -0.378 C  
HETATM   28  O   UNL     1     -11.026  15.829  66.923  1.00  0.00    -0.300 OA 
HETATM   29  O   UNL     1     -10.088  17.001  65.240  1.00  0.00    -0.558 OA 
ENDBRANCH  25  26
ENDBRANCH  23  25
ENDBRANCH  22  23
ENDBRANCH  21  22
ENDBRANCH  13  21
ENDBRANCH   2  13
TORSDOF 8
ENDMDL
MODEL       52
REMARK 921   NORMALIZED FREE ENERGY PREDICTED BY IDOCK:   -5.95 KCAL/MOL
REMARK 922        TOTAL FREE ENERGY PREDICTED BY IDOCK:  -10.20 KCAL/MOL
REMARK 923 INTER-LIGAND FREE ENERGY PREDICTED BY IDOCK:   -8.98 KCAL/MOL
REMARK 924 INTRA-LIGAND FREE ENERGY PREDICTED BY IDOCK:   -1.23 KCAL/MOL
REMARK 927      BINDING AFFINITY PREDICTED BY RF-SCORE:    0.00 PKD
ROOT
HETATM    1  O   UNL     1     -11.139  13.495  69.457  1.00  0.00    -0.417 OA 
HETATM    2  C   UNL     1     -10.128  13.321  68.455  1.00  0.00    -0.237 C  
HETATM    3  H   UNL     1     -10.885  14.187  70.054  1.00  0.00     0.000 HD 
ENDROOT
BRANCH   2   4
HETATM    4  C   UNL     1      -9.925  14.680  67.819  1.00  0.00    -0.224 A  
HETATM    5  C   UNL     1      -9.456  17.242  66.767  1.00  0.00    -0.265 A  
HETATM    6  C   UNL     1      -8.771  14.941  67.059  1.00  0.00    -0.263 A  
HETATM    7  O   UNL     1      -8.120  18.780  65.655  1.00  0.00    -0.426 OA 
HETATM    8  O   UNL     1     -10.034  19.470  66.472  1.00  0.00    -0.353 OA 
HETATM    9  C   UNL     1     -10.848  15.721  68.025  1.00  0.00    -0.309 A  
HETATM   10  C   UNL     1      -8.533  16.215  66.534  1.00  0.00    -0.346 A  
HETATM   11  N   UNL     1      -9.184  18.594  66.262  1.00  0.00    -0.280 N  
HETATM   12  C   UNL     1     -10.621  16.997  67.502  1.00  0.00    -0.310 A  
ENDBRANCH   2   4
BRANCH   2  13
HETATM   13  C   UNL     1     -10.543  12.187  67.476  1.00  0.00    -0.214 C  
BRANCH  13  14
HETATM   14  N   UNL     1     -11.186  12.788  66.283  1.00  0.00    -0.288 N  
HETATM   15  C   UNL     1     -11.639  13.071  63.845  1.00  0.00    -0.449 C  
HETATM   16  C   UNL     1     -10.811  12.468  64.989  1.00  0.00    -0.290 C  
HETATM   17  H   UNL     1     -11.937  13.466  66.420  1.00  0.00     0.000 HD 
HETATM   18  O   UNL     1      -9.869  11.706  64.761  1.00  0.00    -0.241 OA 
HETATM   19 CL   UNL     1     -12.469  14.559  64.347  1.00  0.00    -0.424 Cl 
HETATM   20 CL   UNL     1     -12.806  11.864  63.276  1.00  0.00    -0.542 Cl 
ENDBRANCH  13  14
BRANCH  13  21
HETATM   21  C   UNL     1     -11.472  11.172  68.180  1.00  0.00    -0.303 C  
BRANCH  21  22
HETATM   22  O   UNL     1     -10.850  10.567  69.330  1.00  0.00    -0.216 OA 
BRANCH  22  23
HETATM   23  C   UNL     1     -11.650  10.423  70.419  1.00  0.00    -0.337 C  
HETATM   24  O   UNL     1     -12.643  11.099  70.658  1.00  0.00    -0.332 OA 
BRANCH  23  25
HETATM   25  C   UNL     1     -11.167   9.304  71.302  1.00  0.00    -0.425 C  
BRANCH  25  26
HETATM   26  C   UNL     1     -12.270   8.786  72.204  1.00  0.00    -0.448 C  
HETATM   27  C   UNL     1     -12.791   7.437  71.777  1.00  0.00    -0.329 C  
HETATM   28  O   UNL     1     -11.889   6.439  71.876  1.00  0.00    -0.315 OA 
HETATM   29  O   UNL     1     -13.938   7.254  71.403  1.00  0.00    -0.398 OA 
ENDBRANCH  25  26
ENDBRANCH  23  25
ENDBRANCH  22  23
ENDBRANCH  21  22
ENDBRANCH  13  21
ENDBRANCH   2  13
TORSDOF 8
ENDMDL
MODEL       53
REMARK 921   NORMALIZED FREE ENERGY PREDICTED BY IDOCK:   -5.95 KCAL/MOL
REMARK 922        TOTAL FREE ENERGY PREDICTED BY IDOCK:  -10.20 KCAL/MOL
REMARK 923 INTER-LIGAND FREE ENERGY PREDICTED BY IDOCK:   -9.16 KCAL/MOL
REMARK 924 INTRA-LIGAND FREE ENERGY PREDICTED BY IDOCK:   -1.04 KCAL/MOL
REMARK 927      BINDING AFFINITY PREDICTED BY RF-SCORE:    0.00 PKD
ROOT
HETATM    1  O   UNL     1     -11.028  15.131  70.346  1.00  0.00    -0.320 OA 
HETATM    2  C   UNL     1     -11.795  14.362  69.409  1.00  0.00    -0.325 C  
HETATM    3  H   UNL     1     -11.493  15.189  71.172  1.00  0.00     0.000 HD 
ENDROOT
BRANCH   2   4
HETATM    4  C   UNL     1     -12.080  13.037  70.083  1.00  0.00    -0.377 A  
HETATM    5  C   UNL     1     -12.739  10.563  71.238  1.00  0.00    -0.428 A  
HETATM    6  C   UNL     1     -11.660  11.835  69.488  1.00  0.00    -0.398 A  
HETATM    7  O   UNL     1     -12.785   8.243  71.209  1.00  0.00    -0.286 OA 
HETATM    8  O   UNL     1     -13.779   9.278  72.868  1.00  0.00    -0.327 OA 
HETATM    9  C   UNL     1     -12.819  12.977  71.278  1.00  0.00    -0.370 A  
HETATM   10  C   UNL     1     -11.986  10.601  70.059  1.00  0.00    -0.408 A  
HETATM   11  N   UNL     1     -13.129   9.268  71.812  1.00  0.00    -0.371 N  
HETATM   12  C   UNL     1     -13.148  11.749  71.859  1.00  0.00    -0.482 A  
ENDBRANCH   2   4
BRANCH   2  13
HETATM   13  C   UNL     1     -11.034  14.268  68.057  1.00  0.00    -0.249 C  
BRANCH  13  14
HETATM   14  N   UNL     1      -9.923  15.249  68.055  1.00  0.00    -0.223 N  
HETATM   15  C   UNL     1      -7.676  16.137  67.433  1.00  0.00    -0.160 C  
HETATM   16  C   UNL     1      -8.696  14.991  67.467  1.00  0.00    -0.184 C  
HETATM   17  H   UNL     1     -10.067  16.153  68.507  1.00  0.00     0.000 HD 
HETATM   18  O   UNL     1      -8.441  13.895  66.964  1.00  0.00    -0.199 OA 
HETATM   19 CL   UNL     1      -7.982  17.331  68.712  1.00  0.00    -0.267 Cl 
HETATM   20 CL   UNL     1      -7.722  16.906  65.835  1.00  0.00    -0.089 Cl 
ENDBRANCH  13  14
BRANCH  13  21
HETATM   21  C   UNL     1     -12.000  14.492  66.871  1.00  0.00    -0.346 C  
BRANCH  21  22
HETATM   22  O   UNL     1     -11.972  13.401  65.929  1.00  0.00    -0.366 OA 
BRANCH  22  23
HETATM   23  C   UNL     1     -12.023  13.759  64.619  1.00  0.00    -0.416 C  
HETATM   24  O   UNL     1     -12.558  14.773  64.186  1.00  0.00    -0.784 OA 
BRANCH  23  25
HETATM   25  C   UNL     1     -11.319  12.749  63.754  1.00  0.00    -0.520 C  
BRANCH  25  26
HETATM   26  C   UNL     1     -10.073  12.208  64.426  1.00  0.00    -0.300 C  
HETATM   27  C   UNL     1      -9.891  10.725  64.217  1.00  0.00    -0.326 C  
HETATM   28  O   UNL     1      -9.666  10.371  62.935  1.00  0.00    -0.316 OA 
HETATM   29  O   UNL     1      -9.914   9.916  65.130  1.00  0.00    -0.318 OA 
ENDBRANCH  25  26
ENDBRANCH  23  25
ENDBRANCH  22  23
ENDBRANCH  21  22
ENDBRANCH  13  21
ENDBRANCH   2  13
TORSDOF 8
ENDMDL
MODEL       54
REMARK 921   NORMALIZED FREE ENERGY PREDICTED BY IDOCK:   -5.93 KCAL/MOL
REMARK 922        TOTAL FREE ENERGY PREDICTED BY IDOCK:  -10.17 KCAL/MOL
REMARK 923 INTER-LIGAND FREE ENERGY PREDICTED BY IDOCK:   -9.27 KCAL/MOL
REMARK 924 INTRA-LIGAND FREE ENERGY PREDICTED BY IDOCK:   -0.89 KCAL/MOL
REMARK 927      BINDING AFFINITY PREDICTED BY RF-SCORE:    0.00 PKD
ROOT
HETATM    1  O   UNL     1     -11.559  10.018  67.124  1.00  0.00    -0.159 OA 
HETATM    2  C   UNL     1     -10.940  10.966  68.004  1.00  0.00    -0.265 C  
HETATM    3  H   UNL     1     -11.043   9.221  67.095  1.00  0.00     0.000 HD 
ENDROOT
BRANCH   2   4
HETATM    4  C   UNL     1     -10.768  10.259  69.333  1.00  0.00    -0.272 A  
HETATM    5  C   UNL     1     -10.436   8.809  71.715  1.00  0.00    -0.346 A  
HETATM    6  C   UNL     1      -9.482   9.953  69.810  1.00  0.00    -0.254 A  
HETATM    7  O   UNL     1      -9.107   7.711  73.269  1.00  0.00    -0.168 OA 
HETATM    8  O   UNL     1     -11.282   7.669  73.551  1.00  0.00    -0.283 OA 
HETATM    9  C   UNL     1     -11.884   9.844  70.081  1.00  0.00    -0.191 A  
HETATM   10  C   UNL     1      -9.311   9.231  70.995  1.00  0.00    -0.298 A  
HETATM   11  N   UNL     1     -10.262   8.006  72.932  1.00  0.00    -0.314 N  
HETATM   12  C   UNL     1     -11.724   9.123  71.268  1.00  0.00    -0.396 A  
ENDBRANCH   2   4
BRANCH   2  13
HETATM   13  C   UNL     1     -11.783  12.270  68.052  1.00  0.00    -0.356 C  
BRANCH  13  14
HETATM   14  N   UNL     1     -11.290  13.205  67.012  1.00  0.00    -0.298 N  
HETATM   15  C   UNL     1     -11.143  14.184  64.722  1.00  0.00    -0.387 C  
HETATM   16  C   UNL     1     -11.623  13.080  65.674  1.00  0.00    -0.354 C  
HETATM   17  H   UNL     1     -10.680  13.973  67.294  1.00  0.00     0.000 HD 
HETATM   18  O   UNL     1     -12.302  12.137  65.265  1.00  0.00    -0.513 OA 
HETATM   19 CL   UNL     1      -9.720  15.034  65.361  1.00  0.00    -0.306 Cl 
HETATM   20 CL   UNL     1     -12.474  15.321  64.435  1.00  0.00    -0.229 Cl 
ENDBRANCH  13  14
BRANCH  13  21
HETATM   21  C   UNL     1     -11.732  12.901  69.462  1.00  0.00    -0.323 C  
BRANCH  21  22
HETATM   22  O   UNL     1     -12.595  14.049  69.579  1.00  0.00    -0.222 OA 
BRANCH  22  23
HETATM   23  C   UNL     1     -11.962  15.245  69.711  1.00  0.00    -0.347 C  
HETATM   24  O   UNL     1     -11.273  15.776  68.849  1.00  0.00    -0.287 OA 
BRANCH  23  25
HETATM   25  C   UNL     1     -12.228  15.853  71.062  1.00  0.00    -0.421 C  
BRANCH  25  26
HETATM   26  C   UNL     1     -13.550  15.384  71.637  1.00  0.00    -0.603 C  
HETATM   27  C   UNL     1     -13.382  14.386  72.755  1.00  0.00    -0.513 C  
HETATM   28  O   UNL     1     -12.785  14.884  73.857  1.00  0.00    -0.496 OA 
HETATM   29  O   UNL     1     -13.778  13.233  72.684  1.00  0.00    -0.674 OA 
ENDBRANCH  25  26
ENDBRANCH  23  25
ENDBRANCH  22  23
ENDBRANCH  21  22
ENDBRANCH  13  21
ENDBRANCH   2  13
TORSDOF 8
ENDMDL
MODEL       55
REMARK 921   NORMALIZED FREE ENERGY PREDICTED BY IDOCK:   -5.91 KCAL/MOL
REMARK 922        TOTAL FREE ENERGY PREDICTED BY IDOCK:  -10.15 KCAL/MOL
REMARK 923 INTER-LIGAND FREE ENERGY PREDICTED BY IDOCK:   -8.52 KCAL/MOL
REMARK 924 INTRA-LIGAND FREE ENERGY PREDICTED BY IDOCK:   -1.62 KCAL/MOL
REMARK 927      BINDING AFFINITY PREDICTED BY RF-SCORE:    0.00 PKD
ROOT
HETATM    1  O   UNL     1      -9.080  12.499  68.480  1.00  0.00    -0.329 OA 
HETATM    2  C   UNL     1     -10.311  11.926  68.016  1.00  0.00    -0.196 C  
HETATM    3  H   UNL     1      -9.234  12.988  69.280  1.00  0.00     0.000 HD 
ENDROOT
BRANCH   2   4
HETATM    4  C   UNL     1     -10.862  11.117  69.171  1.00  0.00    -0.284 A  
HETATM    5  C   UNL     1     -11.948   9.514  71.206  1.00  0.00    -0.365 A  
HETATM    6  C   UNL     1     -10.164   9.993  69.646  1.00  0.00    -0.267 A  
HETATM    7  O   UNL     1     -11.906   7.632  72.564  1.00  0.00    -0.311 OA 
HETATM    8  O   UNL     1     -13.635   8.974  72.706  1.00  0.00    -0.433 OA 
HETATM    9  C   UNL     1     -12.105  11.434  69.749  1.00  0.00    -0.388 A  
HETATM   10  C   UNL     1     -10.700   9.192  70.658  1.00  0.00    -0.313 A  
HETATM   11  N   UNL     1     -12.538   8.644  72.232  1.00  0.00    -0.387 N  
HETATM   12  C   UNL     1     -12.649  10.641  70.763  1.00  0.00    -0.479 A  
ENDBRANCH   2   4
BRANCH   2  13
HETATM   13  C   UNL     1     -10.060  11.127  66.707  1.00  0.00    -0.218 C  
BRANCH  13  14
HETATM   14  N   UNL     1      -8.601  11.051  66.457  1.00  0.00    -0.159 N  
HETATM   15  C   UNL     1      -6.482   9.996  65.669  1.00  0.00    -0.099 C  
HETATM   16  C   UNL     1      -7.978   9.902  66.001  1.00  0.00    -0.114 C  
HETATM   17  H   UNL     1      -8.031  11.881  66.627  1.00  0.00     0.000 HD 
HETATM   18  O   UNL     1      -8.602   8.852  65.839  1.00  0.00    -0.140 OA 
HETATM   19 CL   UNL     1      -5.694  11.325  66.544  1.00  0.00    -0.134 Cl 
HETATM   20 CL   UNL     1      -6.289  10.199  63.918  1.00  0.00    -0.133 Cl 
ENDBRANCH  13  14
BRANCH  13  21
HETATM   21  C   UNL     1     -10.814  11.772  65.522  1.00  0.00    -0.297 C  
BRANCH  21  22
HETATM   22  O   UNL     1     -12.096  12.303  65.913  1.00  0.00    -0.609 OA 
BRANCH  22  23
HETATM   23  C   UNL     1     -12.442  13.481  65.332  1.00  0.00    -0.497 C  
HETATM   24  O   UNL     1     -13.525  14.038  65.459  1.00  0.00    -0.677 OA 
BRANCH  23  25
HETATM   25  C   UNL     1     -11.307  14.035  64.511  1.00  0.00    -0.365 C  
BRANCH  25  26
HETATM   26  C   UNL     1     -10.892  15.412  64.987  1.00  0.00    -0.462 C  
HETATM   27  C   UNL     1     -10.271  15.395  66.362  1.00  0.00    -0.286 C  
HETATM   28  O   UNL     1      -9.097  14.735  66.430  1.00  0.00    -0.271 OA 
HETATM   29  O   UNL     1     -10.770  15.955  67.325  1.00  0.00    -0.313 OA 
ENDBRANCH  25  26
ENDBRANCH  23  25
ENDBRANCH  22  23
ENDBRANCH  21  22
ENDBRANCH  13  21
ENDBRANCH   2  13
TORSDOF 8
ENDMDL
MODEL       56
REMARK 921   NORMALIZED FREE ENERGY PREDICTED BY IDOCK:   -5.91 KCAL/MOL
REMARK 922        TOTAL FREE ENERGY PREDICTED BY IDOCK:  -10.14 KCAL/MOL
REMARK 923 INTER-LIGAND FREE ENERGY PREDICTED BY IDOCK:   -8.98 KCAL/MOL
REMARK 924 INTRA-LIGAND FREE ENERGY PREDICTED BY IDOCK:   -1.15 KCAL/MOL
REMARK 927      BINDING AFFINITY PREDICTED BY RF-SCORE:    0.00 PKD
ROOT
HETATM    1  O   UNL     1      -8.238  13.289  68.813  1.00  0.00    -0.327 OA 
HETATM    2  C   UNL     1      -8.721  12.322  67.869  1.00  0.00    -0.177 C  
HETATM    3  H   UNL     1      -7.743  13.961  68.361  1.00  0.00     0.000 HD 
ENDROOT
BRANCH   2   4
HETATM    4  C   UNL     1      -9.494  13.101  66.826  1.00  0.00    -0.252 A  
HETATM    5  C   UNL     1     -11.022  14.602  65.009  1.00  0.00    -0.405 A  
HETATM    6  C   UNL     1      -9.191  14.452  66.582  1.00  0.00    -0.283 A  
HETATM    7  O   UNL     1     -11.578  16.604  63.974  1.00  0.00    -1.197 OA 
HETATM    8  O   UNL     1     -12.780  14.829  63.511  1.00  0.00    -0.593 OA 
HETATM    9  C   UNL     1     -10.564  12.511  66.128  1.00  0.00    -0.279 A  
HETATM   10  C   UNL     1      -9.949  15.204  65.679  1.00  0.00    -0.387 A  
HETATM   11  N   UNL     1     -11.853  15.403  64.100  1.00  0.00    -0.241 N  
HETATM   12  C   UNL     1     -11.326  13.253  65.221  1.00  0.00    -0.317 A  
ENDBRANCH   2   4
BRANCH   2  13
HETATM   13  C   UNL     1      -9.531  11.221  68.609  1.00  0.00    -0.175 C  
BRANCH  13  14
HETATM   14  N   UNL     1     -10.532  11.866  69.492  1.00  0.00    -0.385 N  
HETATM   15  C   UNL     1     -12.783  12.192  70.517  1.00  0.00     0.009 C  
HETATM   16  C   UNL     1     -11.876  11.535  69.467  1.00  0.00    -0.351 C  
HETATM   17  H   UNL     1     -10.218  12.584  70.146  1.00  0.00     0.000 HD 
HETATM   18  O   UNL     1     -12.325  10.723  68.656  1.00  0.00    -0.430 OA 
HETATM   19 CL   UNL     1     -12.102  13.721  71.112  1.00  0.00    -0.360 Cl 
HETATM   20 CL   UNL     1     -13.037  11.057  71.856  1.00  0.00    -0.589 Cl 
ENDBRANCH  13  14
BRANCH  13  21
HETATM   21  C   UNL     1      -8.586  10.287  69.397  1.00  0.00    -0.156 C  
BRANCH  21  22
HETATM   22  O   UNL     1      -9.194   9.785  70.604  1.00  0.00    -0.165 OA 
BRANCH  22  23
HETATM   23  C   UNL     1      -9.619   8.496  70.552  1.00  0.00    -0.170 C  
HETATM   24  O   UNL     1      -9.894   7.885  69.527  1.00  0.00    -0.172 OA 
BRANCH  23  25
HETATM   25  C   UNL     1      -9.698   7.895  71.931  1.00  0.00    -0.231 C  
BRANCH  25  26
HETATM   26  C   UNL     1     -11.094   8.007  72.511  1.00  0.00    -0.440 C  
HETATM   27  C   UNL     1     -12.042   6.970  71.961  1.00  0.00    -0.294 C  
HETATM   28  O   UNL     1     -11.727   5.701  72.292  1.00  0.00    -0.247 OA 
HETATM   29  O   UNL     1     -13.027   7.254  71.299  1.00  0.00    -0.369 OA 
ENDBRANCH  25  26
ENDBRANCH  23  25
ENDBRANCH  22  23
ENDBRANCH  21  22
ENDBRANCH  13  21
ENDBRANCH   2  13
TORSDOF 8
ENDMDL
MODEL       57
REMARK 921   NORMALIZED FREE ENERGY PREDICTED BY IDOCK:   -5.87 KCAL/MOL
REMARK 922        TOTAL FREE ENERGY PREDICTED BY IDOCK:  -10.08 KCAL/MOL
REMARK 923 INTER-LIGAND FREE ENERGY PREDICTED BY IDOCK:   -9.57 KCAL/MOL
REMARK 924 INTRA-LIGAND FREE ENERGY PREDICTED BY IDOCK:   -0.51 KCAL/MOL
REMARK 927      BINDING AFFINITY PREDICTED BY RF-SCORE:    0.00 PKD
ROOT
HETATM    1  O   UNL     1     -12.487  12.437  66.064  1.00  0.00    -0.551 OA 
HETATM    2  C   UNL     1     -11.262  12.915  66.637  1.00  0.00    -0.304 C  
HETATM    3  H   UNL     1     -12.409  11.512  65.863  1.00  0.00     0.000 HD 
ENDROOT
BRANCH   2   4
HETATM    4  C   UNL     1     -10.972  12.020  67.823  1.00  0.00    -0.279 A  
HETATM    5  C   UNL     1     -10.441  10.232  69.923  1.00  0.00    -0.256 A  
HETATM    6  C   UNL     1      -9.658  11.599  68.089  1.00  0.00    -0.190 A  
HETATM    7  O   UNL     1      -9.000   8.872  71.133  1.00  0.00    -0.203 OA 
HETATM    8  O   UNL     1     -11.125   8.874  71.677  1.00  0.00    -0.298 OA 
HETATM    9  C   UNL     1     -12.013  11.544  68.642  1.00  0.00    -0.312 A  
HETATM   10  C   UNL     1      -9.388  10.709  69.133  1.00  0.00    -0.174 A  
HETATM   11  N   UNL     1     -10.169   9.256  70.987  1.00  0.00    -0.297 N  
HETATM   12  C   UNL     1     -11.754  10.656  69.689  1.00  0.00    -0.368 A  
ENDBRANCH   2   4
BRANCH   2  13
HETATM   13  C   UNL     1     -11.388  14.429  66.964  1.00  0.00    -0.346 C  
BRANCH  13  14
HETATM   14  N   UNL     1     -10.034  15.033  66.995  1.00  0.00    -0.240 N  
HETATM   15  C   UNL     1      -8.252  16.653  66.342  1.00  0.00    -0.318 C  
HETATM   16  C   UNL     1      -9.640  16.034  66.123  1.00  0.00    -0.334 C  
HETATM   17  H   UNL     1      -9.364  14.697  67.688  1.00  0.00     0.000 HD 
HETATM   18  O   UNL     1     -10.382  16.434  65.225  1.00  0.00    -0.581 OA 
HETATM   19 CL   UNL     1      -7.167  15.548  67.211  1.00  0.00    -0.244 Cl 
HETATM   20 CL   UNL     1      -8.433  18.179  67.228  1.00  0.00    -0.239 Cl 
ENDBRANCH  13  14
BRANCH  13  21
HETATM   21  C   UNL     1     -12.141  14.638  68.297  1.00  0.00    -0.179 C  
BRANCH  21  22
HETATM   22  O   UNL     1     -11.792  15.883  68.934  1.00  0.00    -0.397 OA 
BRANCH  22  23
HETATM   23  C   UNL     1     -10.893  15.789  69.949  1.00  0.00    -0.327 C  
HETATM   24  O   UNL     1      -9.696  15.572  69.811  1.00  0.00    -0.287 OA 
BRANCH  23  25
HETATM   25  C   UNL     1     -11.558  16.001  71.282  1.00  0.00    -0.506 C  
BRANCH  25  26
HETATM   26  C   UNL     1     -13.019  15.599  71.250  1.00  0.00    -0.556 C  
HETATM   27  C   UNL     1     -13.537  15.164  72.598  1.00  0.00    -0.491 C  
HETATM   28  O   UNL     1     -13.560  16.144  73.525  1.00  0.00    -0.623 OA 
HETATM   29  O   UNL     1     -13.931  14.032  72.826  1.00  0.00    -0.669 OA 
ENDBRANCH  25  26
ENDBRANCH  23  25
ENDBRANCH  22  23
ENDBRANCH  21  22
ENDBRANCH  13  21
ENDBRANCH   2  13
TORSDOF 8
ENDMDL
MODEL       58
REMARK 921   NORMALIZED FREE ENERGY PREDICTED BY IDOCK:   -5.82 KCAL/MOL
REMARK 922        TOTAL FREE ENERGY PREDICTED BY IDOCK:  -10.01 KCAL/MOL
REMARK 923 INTER-LIGAND FREE ENERGY PREDICTED BY IDOCK:   -9.03 KCAL/MOL
REMARK 924 INTRA-LIGAND FREE ENERGY PREDICTED BY IDOCK:   -0.98 KCAL/MOL
REMARK 927      BINDING AFFINITY PREDICTED BY RF-SCORE:    0.00 PKD
ROOT
HETATM    1  O   UNL     1     -11.348  12.071  70.251  1.00  0.00    -0.488 OA 
HETATM    2  C   UNL     1     -11.319  11.034  69.260  1.00  0.00    -0.282 C  
HETATM    3  H   UNL     1     -12.019  11.881  70.896  1.00  0.00     0.000 HD 
ENDROOT
BRANCH   2   4
HETATM    4  C   UNL     1     -11.142   9.733  70.014  1.00  0.00    -0.311 A  
HETATM    5  C   UNL     1     -10.947   7.266  71.341  1.00  0.00    -0.232 A  
HETATM    6  C   UNL     1     -10.518   8.636  69.395  1.00  0.00    -0.224 A  
HETATM    7  O   UNL     1     -10.389   5.013  71.392  1.00  0.00    -0.209 OA 
HETATM    8  O   UNL     1     -11.352   5.883  73.161  1.00  0.00    -0.223 OA 
HETATM    9  C   UNL     1     -11.647   9.577  71.317  1.00  0.00    -0.445 A  
HETATM   10  C   UNL     1     -10.419   7.405  70.051  1.00  0.00    -0.233 A  
HETATM   11  N   UNL     1     -10.892   5.960  72.012  1.00  0.00    -0.242 N  
HETATM   12  C   UNL     1     -11.552   8.352  71.983  1.00  0.00    -0.418 A  
ENDBRANCH   2   4
BRANCH   2  13
HETATM   13  C   UNL     1     -10.221  11.344  68.204  1.00  0.00    -0.187 C  
BRANCH  13  14
HETATM   14  N   UNL     1      -9.645  12.681  68.482  1.00  0.00    -0.374 N  
HETATM   15  C   UNL     1      -7.872  14.437  68.481  1.00  0.00    -0.138 C  
HETATM   16  C   UNL     1      -8.311  12.981  68.266  1.00  0.00    -0.158 C  
HETATM   17  H   UNL     1     -10.257  13.412  68.848  1.00  0.00     0.000 HD 
HETATM   18  O   UNL     1      -7.511  12.124  67.888  1.00  0.00    -0.099 OA 
HETATM   19 CL   UNL     1      -8.962  15.298  69.588  1.00  0.00    -0.193 Cl 
HETATM   20 CL   UNL     1      -7.797  15.258  66.911  1.00  0.00    -0.217 Cl 
ENDBRANCH  13  14
BRANCH  13  21
HETATM   21  C   UNL     1     -10.799  11.252  66.774  1.00  0.00    -0.282 C  
BRANCH  21  22
HETATM   22  O   UNL     1     -12.107  11.847  66.673  1.00  0.00    -0.587 OA 
BRANCH  22  23
HETATM   23  C   UNL     1     -12.240  12.809  65.721  1.00  0.00    -0.408 C  
HETATM   24  O   UNL     1     -13.088  12.813  64.838  1.00  0.00    -0.833 OA 
BRANCH  23  25
HETATM   25  C   UNL     1     -11.211  13.893  65.899  1.00  0.00    -0.297 C  
BRANCH  25  26
HETATM   26  C   UNL     1     -10.780  14.478  64.569  1.00  0.00    -0.198 C  
HETATM   27  C   UNL     1     -11.052  15.959  64.464  1.00  0.00    -0.269 C  
HETATM   28  O   UNL     1     -10.335  16.714  65.322  1.00  0.00    -0.609 OA 
HETATM   29  O   UNL     1     -11.829  16.438  63.654  1.00  0.00    -0.871 OA 
ENDBRANCH  25  26
ENDBRANCH  23  25
ENDBRANCH  22  23
ENDBRANCH  21  22
ENDBRANCH  13  21
ENDBRANCH   2  13
TORSDOF 8
ENDMDL
MODEL       59
REMARK 921   NORMALIZED FREE ENERGY PREDICTED BY IDOCK:   -5.82 KCAL/MOL
REMARK 922        TOTAL FREE ENERGY PREDICTED BY IDOCK:  -10.01 KCAL/MOL
REMARK 923 INTER-LIGAND FREE ENERGY PREDICTED BY IDOCK:   -9.13 KCAL/MOL
REMARK 924 INTRA-LIGAND FREE ENERGY PREDICTED BY IDOCK:   -0.88 KCAL/MOL
REMARK 927      BINDING AFFINITY PREDICTED BY RF-SCORE:    0.00 PKD
ROOT
HETATM    1  O   UNL     1     -12.519  14.328  66.718  1.00  0.00    -0.575 OA 
HETATM    2  C   UNL     1     -11.924  13.340  67.571  1.00  0.00    -0.324 C  
HETATM    3  H   UNL     1     -13.407  14.505  67.002  1.00  0.00     0.000 HD 
ENDROOT
BRANCH   2   4
HETATM    4  C   UNL     1     -12.058  13.866  68.985  1.00  0.00    -0.365 A  
HETATM    5  C   UNL     1     -12.145  14.825  71.623  1.00  0.00    -0.350 A  
HETATM    6  C   UNL     1     -11.814  15.223  69.261  1.00  0.00    -0.353 A  
HETATM    7  O   UNL     1     -11.853  16.508  73.195  1.00  0.00    -0.480 OA 
HETATM    8  O   UNL     1     -12.419  14.512  73.907  1.00  0.00    -0.415 OA 
HETATM    9  C   UNL     1     -12.366  13.004  70.053  1.00  0.00    -0.222 A  
HETATM   10  C   UNL     1     -11.856  15.705  70.573  1.00  0.00    -0.402 A  
HETATM   11  N   UNL     1     -12.139  15.317  73.007  1.00  0.00    -0.402 N  
HETATM   12  C   UNL     1     -12.413  13.476  71.367  1.00  0.00    -0.347 A  
ENDBRANCH   2   4
BRANCH   2  13
HETATM   13  C   UNL     1     -10.470  13.048  67.108  1.00  0.00    -0.243 C  
BRANCH  13  14
HETATM   14  N   UNL     1      -9.931  11.908  67.888  1.00  0.00    -0.186 N  
HETATM   15  C   UNL     1      -9.763   9.526  68.611  1.00  0.00    -0.155 C  
HETATM   16  C   UNL     1     -10.492  10.643  67.849  1.00  0.00    -0.208 C  
HETATM   17  H   UNL     1      -9.113  12.062  68.478  1.00  0.00     0.000 HD 
HETATM   18  O   UNL     1     -11.517  10.411  67.207  1.00  0.00    -0.315 OA 
HETATM   19 CL   UNL     1      -8.750  10.173  69.920  1.00  0.00    -0.158 Cl 
HETATM   20 CL   UNL     1      -8.786   8.587  67.468  1.00  0.00    -0.135 Cl 
ENDBRANCH  13  14
BRANCH  13  21
HETATM   21  C   UNL     1      -9.589  14.309  67.250  1.00  0.00    -0.232 C  
BRANCH  21  22
HETATM   22  O   UNL     1      -9.350  14.955  65.984  1.00  0.00    -0.294 OA 
BRANCH  22  23
HETATM   23  C   UNL     1      -9.947  16.165  65.823  1.00  0.00    -0.340 C  
HETATM   24  O   UNL     1     -10.779  16.432  64.965  1.00  0.00    -0.638 OA 
BRANCH  23  25
HETATM   25  C   UNL     1      -9.465  17.149  66.856  1.00  0.00    -0.267 C  
BRANCH  25  26
HETATM   26  C   UNL     1     -10.603  17.983  67.409  1.00  0.00    -0.378 C  
HETATM   27  C   UNL     1     -10.464  19.451  67.089  1.00  0.00    -0.466 C  
HETATM   28  O   UNL     1     -10.547  19.741  65.775  1.00  0.00    -0.523 OA 
HETATM   29  O   UNL     1     -10.318  20.308  67.946  1.00  0.00    -0.356 OA 
ENDBRANCH  25  26
ENDBRANCH  23  25
ENDBRANCH  22  23
ENDBRANCH  21  22
ENDBRANCH  13  21
ENDBRANCH   2  13
TORSDOF 8
ENDMDL
MODEL       60
REMARK 921   NORMALIZED FREE ENERGY PREDICTED BY IDOCK:   -5.81 KCAL/MOL
REMARK 922        TOTAL FREE ENERGY PREDICTED BY IDOCK:  -10.00 KCAL/MOL
REMARK 923 INTER-LIGAND FREE ENERGY PREDICTED BY IDOCK:   -9.89 KCAL/MOL
REMARK 924 INTRA-LIGAND FREE ENERGY PREDICTED BY IDOCK:   -0.11 KCAL/MOL
REMARK 927      BINDING AFFINITY PREDICTED BY RF-SCORE:    0.00 PKD
ROOT
HETATM    1  O   UNL     1     -10.078  11.429  67.156  1.00  0.00    -0.193 OA 
HETATM    2  C   UNL     1     -10.753  12.263  68.108  1.00  0.00    -0.216 C  
HETATM    3  H   UNL     1      -9.380  10.950  67.585  1.00  0.00     0.000 HD 
ENDROOT
BRANCH   2   4
HETATM    4  C   UNL     1     -11.192  11.350  69.234  1.00  0.00    -0.342 A  
HETATM    5  C   UNL     1     -12.100   9.579  71.215  1.00  0.00    -0.360 A  
HETATM    6  C   UNL     1     -10.573  10.101  69.415  1.00  0.00    -0.261 A  
HETATM    7  O   UNL     1     -12.064   7.519  72.285  1.00  0.00    -0.287 OA 
HETATM    8  O   UNL     1     -13.551   8.996  72.931  1.00  0.00    -0.356 OA 
HETATM    9  C   UNL     1     -12.261  11.703  70.078  1.00  0.00    -0.338 A  
HETATM   10  C   UNL     1     -11.021   9.215  70.399  1.00  0.00    -0.290 A  
HETATM   11  N   UNL     1     -12.607   8.630  72.215  1.00  0.00    -0.387 N  
HETATM   12  C   UNL     1     -12.715  10.826  71.066  1.00  0.00    -0.513 A  
ENDBRANCH   2   4
BRANCH   2  13
HETATM   13  C   UNL     1     -11.897  13.047  67.407  1.00  0.00    -0.357 C  
BRANCH  13  14
HETATM   14  N   UNL     1     -11.999  12.599  65.997  1.00  0.00    -0.431 N  
HETATM   15  C   UNL     1     -11.288  12.417  63.613  1.00  0.00    -0.482 C  
HETATM   16  C   UNL     1     -11.149  13.053  65.003  1.00  0.00    -0.294 C  
HETATM   17  H   UNL     1     -12.726  11.926  65.749  1.00  0.00     0.000 HD 
HETATM   18  O   UNL     1     -10.295  13.912  65.229  1.00  0.00    -0.341 OA 
HETATM   19 CL   UNL     1     -12.907  11.730  63.360  1.00  0.00    -0.539 Cl 
HETATM   20 CL   UNL     1     -10.042  11.171  63.419  1.00  0.00    -0.402 Cl 
ENDBRANCH  13  14
BRANCH  13  21
HETATM   21  C   UNL     1     -11.657  14.570  67.510  1.00  0.00    -0.381 C  
BRANCH  21  22
HETATM   22  O   UNL     1     -10.570  14.894  68.399  1.00  0.00    -0.235 OA 
BRANCH  22  23
HETATM   23  C   UNL     1     -10.529  16.184  68.826  1.00  0.00    -0.264 C  
HETATM   24  O   UNL     1     -10.959  16.584  69.901  1.00  0.00    -0.349 OA 
BRANCH  23  25
HETATM   25  C   UNL     1      -9.867  17.072  67.807  1.00  0.00    -0.271 C  
BRANCH  25  26
HETATM   26  C   UNL     1     -10.744  18.252  67.438  1.00  0.00    -0.377 C  
HETATM   27  C   UNL     1     -10.524  18.727  66.024  1.00  0.00    -0.432 C  
HETATM   28  O   UNL     1     -10.883  17.836  65.078  1.00  0.00    -0.774 OA 
HETATM   29  O   UNL     1     -10.087  19.835  65.754  1.00  0.00    -0.416 OA 
ENDBRANCH  25  26
ENDBRANCH  23  25
ENDBRANCH  22  23
ENDBRANCH  21  22
ENDBRANCH  13  21
ENDBRANCH   2  13
TORSDOF 8
ENDMDL
MODEL       61
REMARK 921   NORMALIZED FREE ENERGY PREDICTED BY IDOCK:   -5.79 KCAL/MOL
REMARK 922        TOTAL FREE ENERGY PREDICTED BY IDOCK:   -9.97 KCAL/MOL
REMARK 923 INTER-LIGAND FREE ENERGY PREDICTED BY IDOCK:  -10.04 KCAL/MOL
REMARK 924 INTRA-LIGAND FREE ENERGY PREDICTED BY IDOCK:    0.06 KCAL/MOL
REMARK 927      BINDING AFFINITY PREDICTED BY RF-SCORE:    0.00 PKD
ROOT
HETATM    1  O   UNL     1     -10.435  14.820  70.400  1.00  0.00    -0.477 OA 
HETATM    2  C   UNL     1     -10.378  14.566  68.990  1.00  0.00    -0.223 C  
HETATM    3  H   UNL     1      -9.665  15.305  70.672  1.00  0.00     0.000 HD 
ENDROOT
BRANCH   2   4
HETATM    4  C   UNL     1     -10.197  15.914  68.324  1.00  0.00    -0.227 A  
HETATM    5  C   UNL     1      -9.718  18.428  67.167  1.00  0.00    -0.300 A  
HETATM    6  C   UNL     1      -9.433  16.027  67.150  1.00  0.00    -0.225 A  
HETATM    7  O   UNL     1      -8.691  19.789  65.593  1.00  0.00    -0.338 OA 
HETATM    8  O   UNL     1      -9.924  20.740  67.138  1.00  0.00    -0.422 OA 
HETATM    9  C   UNL     1     -10.733  17.082  68.897  1.00  0.00    -0.300 A  
HETATM   10  C   UNL     1      -9.192  17.276  66.570  1.00  0.00    -0.282 A  
HETATM   11  N   UNL     1      -9.423  19.746  66.591  1.00  0.00    -0.363 N  
HETATM   12  C   UNL     1     -10.499  18.335  68.325  1.00  0.00    -0.324 A  
ENDBRANCH   2   4
BRANCH   2  13
HETATM   13  C   UNL     1     -11.638  13.772  68.545  1.00  0.00    -0.338 C  
BRANCH  13  14
HETATM   14  N   UNL     1     -11.982  12.781  69.593  1.00  0.00    -0.310 N  
HETATM   15  C   UNL     1     -12.386  10.500  70.520  1.00  0.00    -0.343 C  
HETATM   16  C   UNL     1     -12.150  11.434  69.324  1.00  0.00    -0.289 C  
HETATM   17  H   UNL     1     -12.099  13.106  70.554  1.00  0.00     0.000 HD 
HETATM   18  O   UNL     1     -12.085  10.993  68.175  1.00  0.00    -0.610 OA 
HETATM   19 CL   UNL     1     -13.059  11.372  71.914  1.00  0.00    -0.578 Cl 
HETATM   20 CL   UNL     1     -10.857   9.715  70.952  1.00  0.00    -0.389 Cl 
ENDBRANCH  13  14
BRANCH  13  21
HETATM   21  C   UNL     1     -11.403  13.099  67.174  1.00  0.00    -0.316 C  
BRANCH  21  22
HETATM   22  O   UNL     1     -12.244  13.651  66.142  1.00  0.00    -0.417 OA 
BRANCH  22  23
HETATM   23  C   UNL     1     -12.267  12.958  64.973  1.00  0.00    -0.464 C  
HETATM   24  O   UNL     1     -13.258  12.431  64.486  1.00  0.00    -0.834 OA 
BRANCH  23  25
HETATM   25  C   UNL     1     -10.904  12.931  64.334  1.00  0.00    -0.404 C  
BRANCH  25  26
HETATM   26  C   UNL     1     -10.722  11.709  63.455  1.00  0.00    -0.495 C  
HETATM   27  C   UNL     1      -9.856  10.652  64.093  1.00  0.00    -0.335 C  
HETATM   28  O   UNL     1     -10.387  10.096  65.201  1.00  0.00    -0.257 OA 
HETATM   29  O   UNL     1      -8.780  10.306  63.632  1.00  0.00    -0.176 OA 
ENDBRANCH  25  26
ENDBRANCH  23  25
ENDBRANCH  22  23
ENDBRANCH  21  22
ENDBRANCH  13  21
ENDBRANCH   2  13
TORSDOF 8
ENDMDL
MODEL       62
REMARK 921   NORMALIZED FREE ENERGY PREDICTED BY IDOCK:   -5.79 KCAL/MOL
REMARK 922        TOTAL FREE ENERGY PREDICTED BY IDOCK:   -9.96 KCAL/MOL
REMARK 923 INTER-LIGAND FREE ENERGY PREDICTED BY IDOCK:   -8.85 KCAL/MOL
REMARK 924 INTRA-LIGAND FREE ENERGY PREDICTED BY IDOCK:   -1.11 KCAL/MOL
REMARK 927      BINDING AFFINITY PREDICTED BY RF-SCORE:    0.00 PKD
ROOT
HETATM    1  O   UNL     1      -8.716  11.169  67.298  1.00  0.00    -0.136 OA 
HETATM    2  C   UNL     1      -9.272  12.182  68.147  1.00  0.00    -0.197 C  
HETATM    3  H   UNL     1      -8.236  10.538  67.820  1.00  0.00     0.000 HD 
ENDROOT
BRANCH   2   4
HETATM    4  C   UNL     1     -10.090  11.454  69.193  1.00  0.00    -0.044 A  
HETATM    5  C   UNL     1     -11.676  10.018  71.012  1.00  0.00    -0.392 A  
HETATM    6  C   UNL     1      -9.667  10.205  69.680  1.00  0.00    -0.250 A  
HETATM    7  O   UNL     1     -12.135   8.120  72.268  1.00  0.00    -0.337 OA 
HETATM    8  O   UNL     1     -13.595   9.756  72.293  1.00  0.00    -0.425 OA 
HETATM    9  C   UNL     1     -11.313  11.978  69.650  1.00  0.00    -0.249 A  
HETATM   10  C   UNL     1     -10.453   9.486  70.586  1.00  0.00    -0.374 A  
HETATM   11  N   UNL     1     -12.529   9.242  71.923  1.00  0.00    -0.366 N  
HETATM   12  C   UNL     1     -12.105  11.269  70.556  1.00  0.00    -0.481 A  
ENDBRANCH   2   4
BRANCH   2  13
HETATM   13  C   UNL     1     -10.057  13.215  67.293  1.00  0.00    -0.233 C  
BRANCH  13  14
HETATM   14  N   UNL     1     -10.284  12.653  65.939  1.00  0.00    -0.269 N  
HETATM   15  C   UNL     1     -11.649  11.836  64.017  1.00  0.00    -0.339 C  
HETATM   16  C   UNL     1     -11.539  12.293  65.479  1.00  0.00    -0.371 C  
HETATM   17  H   UNL     1      -9.482  12.526  65.321  1.00  0.00     0.000 HD 
HETATM   18  O   UNL     1     -12.534  12.361  66.201  1.00  0.00    -0.507 OA 
HETATM   19 CL   UNL     1     -10.101  11.220  63.400  1.00  0.00    -0.404 Cl 
HETATM   20 CL   UNL     1     -12.221  13.193  63.029  1.00  0.00    -0.316 Cl 
ENDBRANCH  13  14
BRANCH  13  21
HETATM   21  C   UNL     1      -9.302  14.562  67.236  1.00  0.00    -0.210 C  
BRANCH  21  22
HETATM   22  O   UNL     1      -9.406  15.194  65.946  1.00  0.00    -0.317 OA 
BRANCH  22  23
HETATM   23  C   UNL     1     -10.304  16.211  65.864  1.00  0.00    -0.367 C  
HETATM   24  O   UNL     1     -10.835  16.601  64.831  1.00  0.00    -0.697 OA 
BRANCH  23  25
HETATM   25  C   UNL     1     -10.583  16.799  67.221  1.00  0.00    -0.275 C  
BRANCH  25  26
HETATM   26  C   UNL     1     -10.360  18.298  67.238  1.00  0.00    -0.407 C  
HETATM   27  C   UNL     1      -9.111  18.696  67.984  1.00  0.00    -0.305 C  
HETATM   28  O   UNL     1      -7.966  18.273  67.411  1.00  0.00    -0.227 OA 
HETATM   29  O   UNL     1      -9.129  19.370  69.002  1.00  0.00    -0.358 OA 
ENDBRANCH  25  26
ENDBRANCH  23  25
ENDBRANCH  22  23
ENDBRANCH  21  22
ENDBRANCH  13  21
ENDBRANCH   2  13
TORSDOF 8
ENDMDL
MODEL       63
REMARK 921   NORMALIZED FREE ENERGY PREDICTED BY IDOCK:   -5.73 KCAL/MOL
REMARK 922        TOTAL FREE ENERGY PREDICTED BY IDOCK:   -9.88 KCAL/MOL
REMARK 923 INTER-LIGAND FREE ENERGY PREDICTED BY IDOCK:   -9.01 KCAL/MOL
REMARK 924 INTRA-LIGAND FREE ENERGY PREDICTED BY IDOCK:   -0.86 KCAL/MOL
REMARK 927      BINDING AFFINITY PREDICTED BY RF-SCORE:    0.00 PKD
ROOT
HETATM    1  O   UNL     1     -12.088  11.066  67.980  1.00  0.00    -0.744 OA 
HETATM    2  C   UNL     1     -11.632  12.057  67.048  1.00  0.00    -0.317 C  
HETATM    3  H   UNL     1     -12.273  10.255  67.523  1.00  0.00     0.000 HD 
ENDROOT
BRANCH   2   4
HETATM    4  C   UNL     1     -10.455  11.442  66.320  1.00  0.00    -0.301 A  
HETATM    5  C   UNL     1      -8.236  10.449  64.914  1.00  0.00    -0.145 A  
HETATM    6  C   UNL     1      -9.169  11.491  66.886  1.00  0.00    -0.181 A  
HETATM    7  O   UNL     1      -5.952  10.107  64.681  1.00  0.00    -0.106 OA 
HETATM    8  O   UNL     1      -7.266   9.480  63.041  1.00  0.00    -0.103 OA 
HETATM    9  C   UNL     1     -10.611  10.867  65.046  1.00  0.00    -0.287 A  
HETATM   10  C   UNL     1      -8.061  10.998  66.190  1.00  0.00    -0.141 A  
HETATM   11  N   UNL     1      -7.068   9.978  64.158  1.00  0.00    -0.129 N  
HETATM   12  C   UNL     1      -9.511  10.370  64.342  1.00  0.00    -0.343 A  
ENDBRANCH   2   4
BRANCH   2  13
HETATM   13  C   UNL     1     -11.329  13.385  67.794  1.00  0.00    -0.294 C  
BRANCH  13  14
HETATM   14  N   UNL     1     -11.928  13.327  69.150  1.00  0.00    -0.312 N  
HETATM   15  C   UNL     1     -12.480  14.180  71.429  1.00  0.00    -0.359 C  
HETATM   16  C   UNL     1     -11.704  14.300  70.110  1.00  0.00    -0.288 C  
HETATM   17  H   UNL     1     -12.531  12.538  69.385  1.00  0.00     0.000 HD 
HETATM   18  O   UNL     1     -10.935  15.240  69.906  1.00  0.00    -0.255 OA 
HETATM   19 CL   UNL     1     -12.989  12.507  71.745  1.00  0.00    -0.459 Cl 
HETATM   20 CL   UNL     1     -13.884  15.262  71.375  1.00  0.00    -0.582 Cl 
ENDBRANCH  13  14
BRANCH  13  21
HETATM   21  C   UNL     1     -11.850  14.595  66.987  1.00  0.00    -0.337 C  
BRANCH  21  22
HETATM   22  O   UNL     1     -11.198  14.721  65.708  1.00  0.00    -0.330 OA 
BRANCH  22  23
HETATM   23  C   UNL     1     -10.700  15.953  65.425  1.00  0.00    -0.399 C  
HETATM   24  O   UNL     1     -11.007  16.631  64.452  1.00  0.00    -0.924 OA 
BRANCH  23  25
HETATM   25  C   UNL     1      -9.719  16.396  66.477  1.00  0.00    -0.287 C  
BRANCH  25  26
HETATM   26  C   UNL     1      -9.390  17.870  66.351  1.00  0.00    -0.268 C  
HETATM   27  C   UNL     1     -10.263  18.743  67.218  1.00  0.00    -0.390 C  
HETATM   28  O   UNL     1     -10.093  18.554  68.542  1.00  0.00    -0.360 OA 
HETATM   29  O   UNL     1     -11.037  19.571  66.764  1.00  0.00    -0.374 OA 
ENDBRANCH  25  26
ENDBRANCH  23  25
ENDBRANCH  22  23
ENDBRANCH  21  22
ENDBRANCH  13  21
ENDBRANCH   2  13
TORSDOF 8
ENDMDL
MODEL       64
REMARK 921   NORMALIZED FREE ENERGY PREDICTED BY IDOCK:   -5.72 KCAL/MOL
REMARK 922        TOTAL FREE ENERGY PREDICTED BY IDOCK:   -9.87 KCAL/MOL
REMARK 923 INTER-LIGAND FREE ENERGY PREDICTED BY IDOCK:   -8.78 KCAL/MOL
REMARK 924 INTRA-LIGAND FREE ENERGY PREDICTED BY IDOCK:   -1.09 KCAL/MOL
REMARK 927      BINDING AFFINITY PREDICTED BY RF-SCORE:    0.00 PKD
ROOT
HETATM    1  O   UNL     1      -8.727   8.494  68.475  1.00  0.00    -0.137 OA 
HETATM    2  C   UNL     1      -9.317   9.557  67.715  1.00  0.00    -0.127 C  
HETATM    3  H   UNL     1      -8.284   8.849  69.236  1.00  0.00     0.000 HD 
ENDROOT
BRANCH   2   4
HETATM    4  C   UNL     1     -10.200  10.325  68.676  1.00  0.00    -0.196 A  
HETATM    5  C   UNL     1     -11.965  11.696  70.376  1.00  0.00    -0.358 A  
HETATM    6  C   UNL     1     -10.790   9.672  69.772  1.00  0.00    -0.274 A  
HETATM    7  O   UNL     1     -13.467  11.752  72.145  1.00  0.00    -0.446 OA 
HETATM    8  O   UNL     1     -13.149  13.594  70.998  1.00  0.00    -0.271 OA 
HETATM    9  C   UNL     1     -10.495  11.684  68.460  1.00  0.00    -0.236 A  
HETATM   10  C   UNL     1     -11.670  10.349  70.621  1.00  0.00    -0.444 A  
HETATM   11  N   UNL     1     -12.930  12.397  71.235  1.00  0.00    -0.276 N  
HETATM   12  C   UNL     1     -11.371  12.371  69.304  1.00  0.00    -0.315 A  
ENDBRANCH   2   4
BRANCH   2  13
HETATM   13  C   UNL     1     -10.042   8.977  66.469  1.00  0.00    -0.283 C  
BRANCH  13  14
HETATM   14  N   UNL     1      -9.663   7.552  66.307  1.00  0.00    -0.423 N  
HETATM   15  C   UNL     1      -9.962   5.083  66.508  1.00  0.00    -0.224 C  
HETATM   16  C   UNL     1     -10.398   6.515  66.854  1.00  0.00    -0.243 C  
HETATM   17  H   UNL     1      -8.825   7.327  65.770  1.00  0.00     0.000 HD 
HETATM   18  O   UNL     1     -11.382   6.727  67.565  1.00  0.00    -0.242 OA 
HETATM   19 CL   UNL     1      -8.248   5.010  66.047  1.00  0.00    -0.112 Cl 
HETATM   20 CL   UNL     1     -10.989   4.464  65.203  1.00  0.00    -0.185 Cl 
ENDBRANCH  13  14
BRANCH  13  21
HETATM   21  C   UNL     1      -9.711   9.807  65.209  1.00  0.00    -0.300 C  
BRANCH  21  22
HETATM   22  O   UNL     1     -10.644  10.886  65.003  1.00  0.00    -0.286 OA 
BRANCH  22  23
HETATM   23  C   UNL     1     -10.586  11.484  63.784  1.00  0.00    -0.406 C  
HETATM   24  O   UNL     1      -9.585  11.557  63.082  1.00  0.00    -0.355 OA 
BRANCH  23  25
HETATM   25  C   UNL     1     -11.927  12.043  63.390  1.00  0.00    -0.571 C  
BRANCH  25  26
HETATM   26  C   UNL     1     -12.698  12.549  64.593  1.00  0.00    -0.434 C  
HETATM   27  C   UNL     1     -12.314  13.953  64.987  1.00  0.00    -0.430 C  
HETATM   28  O   UNL     1     -12.626  14.890  64.069  1.00  0.00    -0.832 OA 
HETATM   29  O   UNL     1     -11.793  14.226  66.056  1.00  0.00    -0.369 OA 
ENDBRANCH  25  26
ENDBRANCH  23  25
ENDBRANCH  22  23
ENDBRANCH  21  22
ENDBRANCH  13  21
ENDBRANCH   2  13
TORSDOF 8
ENDMDL
MODEL       65
REMARK 921   NORMALIZED FREE ENERGY PREDICTED BY IDOCK:   -5.71 KCAL/MOL
REMARK 922        TOTAL FREE ENERGY PREDICTED BY IDOCK:   -9.85 KCAL/MOL
REMARK 923 INTER-LIGAND FREE ENERGY PREDICTED BY IDOCK:   -8.74 KCAL/MOL
REMARK 924 INTRA-LIGAND FREE ENERGY PREDICTED BY IDOCK:   -1.11 KCAL/MOL
REMARK 927      BINDING AFFINITY PREDICTED BY RF-SCORE:    0.00 PKD
ROOT
HETATM    1  O   UNL     1      -9.446   9.992  65.235  1.00  0.00    -0.219 OA 
HETATM    2  C   UNL     1     -10.547  10.400  66.059  1.00  0.00    -0.065 C  
HETATM    3  H   UNL     1      -9.642  10.172  64.323  1.00  0.00     0.000 HD 
ENDROOT
BRANCH   2   4
HETATM    4  C   UNL     1     -10.805  11.856  65.730  1.00  0.00    -0.341 A  
HETATM    5  C   UNL     1     -11.209  14.531  64.977  1.00  0.00    -0.382 A  
HETATM    6  C   UNL     1     -11.917  12.219  64.951  1.00  0.00    -0.420 A  
HETATM    7  O   UNL     1     -12.355  16.170  63.799  1.00  0.00    -0.864 OA 
HETATM    8  O   UNL     1     -10.573  16.763  64.932  1.00  0.00    -0.702 OA 
HETATM    9  C   UNL     1      -9.910  12.860  66.141  1.00  0.00    -0.270 A  
HETATM   10  C   UNL     1     -12.123  13.550  64.573  1.00  0.00    -0.460 A  
HETATM   11  N   UNL     1     -11.392  15.921  64.538  1.00  0.00    -0.399 N  
HETATM   12  C   UNL     1     -10.107  14.193  65.770  1.00  0.00    -0.352 A  
ENDBRANCH   2   4
BRANCH   2  13
HETATM   13  C   UNL     1     -10.227  10.105  67.551  1.00  0.00    -0.211 C  
BRANCH  13  14
HETATM   14  N   UNL     1     -10.186   8.637  67.757  1.00  0.00    -0.212 N  
HETATM   15  C   UNL     1      -9.094   6.421  68.109  1.00  0.00    -0.113 C  
HETATM   16  C   UNL     1      -9.004   7.915  67.765  1.00  0.00    -0.128 C  
HETATM   17  H   UNL     1     -11.065   8.138  67.899  1.00  0.00     0.000 HD 
HETATM   18  O   UNL     1      -7.920   8.452  67.535  1.00  0.00    -0.104 OA 
HETATM   19 CL   UNL     1     -10.710   5.763  67.774  1.00  0.00    -0.315 Cl 
HETATM   20 CL   UNL     1      -8.666   6.193  69.814  1.00  0.00    -0.134 Cl 
ENDBRANCH  13  14
BRANCH  13  21
HETATM   21  C   UNL     1     -11.261  10.786  68.475  1.00  0.00    -0.279 C  
BRANCH  21  22
HETATM   22  O   UNL     1     -10.888  10.708  69.865  1.00  0.00    -0.267 OA 
BRANCH  22  23
HETATM   23  C   UNL     1     -11.896  10.407  70.725  1.00  0.00    -0.368 C  
HETATM   24  O   UNL     1     -13.003  10.933  70.725  1.00  0.00    -0.314 OA 
BRANCH  23  25
HETATM   25  C   UNL     1     -11.486   9.321  71.683  1.00  0.00    -0.468 C  
BRANCH  25  26
HETATM   26  C   UNL     1     -11.506   7.956  71.025  1.00  0.00    -0.298 C  
HETATM   27  C   UNL     1     -12.454   6.995  71.697  1.00  0.00    -0.374 C  
HETATM   28  O   UNL     1     -13.753   7.344  71.605  1.00  0.00    -0.377 OA 
HETATM   29  O   UNL     1     -12.083   5.973  72.251  1.00  0.00    -0.301 OA 
ENDBRANCH  25  26
ENDBRANCH  23  25
ENDBRANCH  22  23
ENDBRANCH  21  22
ENDBRANCH  13  21
ENDBRANCH   2  13
TORSDOF 8
ENDMDL
MODEL       66
REMARK 921   NORMALIZED FREE ENERGY PREDICTED BY IDOCK:   -5.71 KCAL/MOL
REMARK 922        TOTAL FREE ENERGY PREDICTED BY IDOCK:   -9.85 KCAL/MOL
REMARK 923 INTER-LIGAND FREE ENERGY PREDICTED BY IDOCK:   -8.97 KCAL/MOL
REMARK 924 INTRA-LIGAND FREE ENERGY PREDICTED BY IDOCK:   -0.88 KCAL/MOL
REMARK 927      BINDING AFFINITY PREDICTED BY RF-SCORE:    0.00 PKD
ROOT
HETATM    1  O   UNL     1     -12.475  16.018  68.846  1.00  0.00    -0.351 OA 
HETATM    2  C   UNL     1     -11.486  15.036  68.506  1.00  0.00    -0.317 C  
HETATM    3  H   UNL     1     -13.344  15.660  68.710  1.00  0.00     0.000 HD 
ENDROOT
BRANCH   2   4
HETATM    4  C   UNL     1     -11.814  13.805  69.326  1.00  0.00    -0.392 A  
HETATM    5  C   UNL     1     -12.554  11.504  70.756  1.00  0.00    -0.298 A  
HETATM    6  C   UNL     1     -11.458  12.528  68.860  1.00  0.00    -0.355 A  
HETATM    7  O   UNL     1     -12.700   9.199  70.981  1.00  0.00    -0.252 OA 
HETATM    8  O   UNL     1     -13.613  10.451  72.533  1.00  0.00    -0.124 OA 
HETATM    9  C   UNL     1     -12.530  13.909  70.533  1.00  0.00    -0.422 A  
HETATM   10  C   UNL     1     -11.824  11.379  69.567  1.00  0.00    -0.426 A  
HETATM   11  N   UNL     1     -12.986  10.298  71.475  1.00  0.00    -0.417 N  
HETATM   12  C   UNL     1     -12.899  12.768  71.249  1.00  0.00    -0.355 A  
ENDBRANCH   2   4
BRANCH   2  13
HETATM   13  C   UNL     1     -10.064  15.620  68.728  1.00  0.00    -0.211 C  
BRANCH  13  14
HETATM   14  N   UNL     1     -10.016  17.000  68.186  1.00  0.00    -0.274 N  
HETATM   15  C   UNL     1      -8.945  19.176  67.600  1.00  0.00    -0.298 C  
HETATM   16  C   UNL     1      -8.905  17.815  68.312  1.00  0.00    -0.277 C  
HETATM   17  H   UNL     1     -10.837  17.363  67.700  1.00  0.00     0.000 HD 
HETATM   18  O   UNL     1      -7.910  17.456  68.943  1.00  0.00    -0.256 OA 
HETATM   19 CL   UNL     1     -10.611  19.727  67.326  1.00  0.00    -0.577 Cl 
HETATM   20 CL   UNL     1      -8.066  19.053  66.065  1.00  0.00    -0.252 Cl 
ENDBRANCH  13  14
BRANCH  13  21
HETATM   21  C   UNL     1      -8.994  14.712  68.082  1.00  0.00    -0.179 C  
BRANCH  21  22
HETATM   22  O   UNL     1      -9.085  14.696  66.644  1.00  0.00    -0.252 OA 
BRANCH  22  23
HETATM   23  C   UNL     1      -9.447  13.507  66.094  1.00  0.00    -0.141 C  
HETATM   24  O   UNL     1      -8.978  12.418  66.399  1.00  0.00    -0.192 OA 
BRANCH  23  25
HETATM   25  C   UNL     1     -10.522  13.695  65.057  1.00  0.00    -0.406 C  
BRANCH  25  26
HETATM   26  C   UNL     1     -11.571  12.603  65.135  1.00  0.00    -0.386 C  
HETATM   27  C   UNL     1     -11.812  11.926  63.809  1.00  0.00    -0.458 C  
HETATM   28  O   UNL     1     -10.754  11.233  63.342  1.00  0.00    -0.370 OA 
HETATM   29  O   UNL     1     -12.881  11.974  63.222  1.00  0.00    -0.732 OA 
ENDBRANCH  25  26
ENDBRANCH  23  25
ENDBRANCH  22  23
ENDBRANCH  21  22
ENDBRANCH  13  21
ENDBRANCH   2  13
TORSDOF 8
ENDMDL
MODEL       67
REMARK 921   NORMALIZED FREE ENERGY PREDICTED BY IDOCK:   -5.70 KCAL/MOL
REMARK 922        TOTAL FREE ENERGY PREDICTED BY IDOCK:   -9.84 KCAL/MOL
REMARK 923 INTER-LIGAND FREE ENERGY PREDICTED BY IDOCK:   -8.71 KCAL/MOL
REMARK 924 INTRA-LIGAND FREE ENERGY PREDICTED BY IDOCK:   -1.13 KCAL/MOL
REMARK 927      BINDING AFFINITY PREDICTED BY RF-SCORE:    0.00 PKD
ROOT
HETATM    1  O   UNL     1     -12.506  15.528  69.084  1.00  0.00    -0.609 OA 
HETATM    2  C   UNL     1     -11.418  14.613  68.894  1.00  0.00    -0.298 C  
HETATM    3  H   UNL     1     -12.210  16.283  69.577  1.00  0.00     0.000 HD 
ENDROOT
BRANCH   2   4
HETATM    4  C   UNL     1     -10.304  15.410  68.248  1.00  0.00    -0.238 A  
HETATM    5  C   UNL     1      -8.280  16.824  66.909  1.00  0.00    -0.210 A  
HETATM    6  C   UNL     1     -10.579  16.646  67.637  1.00  0.00    -0.321 A  
HETATM    7  O   UNL     1      -7.553  18.591  65.591  1.00  0.00    -0.511 OA 
HETATM    8  O   UNL     1      -6.098  17.048  66.151  1.00  0.00    -0.248 OA 
HETATM    9  C   UNL     1      -8.991  14.906  68.194  1.00  0.00    -0.176 A  
HETATM   10  C   UNL     1      -9.575  17.354  66.969  1.00  0.00    -0.273 A  
HETATM   11  N   UNL     1      -7.236  17.539  66.164  1.00  0.00    -0.307 N  
HETATM   12  C   UNL     1      -7.980  15.607  67.530  1.00  0.00    -0.184 A  
ENDBRANCH   2   4
BRANCH   2  13
HETATM   13  C   UNL     1     -11.902  13.377  68.086  1.00  0.00    -0.361 C  
BRANCH  13  14
HETATM   14  N   UNL     1     -10.958  12.254  68.304  1.00  0.00    -0.218 N  
HETATM   15  C   UNL     1     -10.299   9.923  68.900  1.00  0.00    -0.205 C  
HETATM   16  C   UNL     1     -11.351  11.039  68.839  1.00  0.00    -0.280 C  
HETATM   17  H   UNL     1      -9.978  12.383  68.050  1.00  0.00     0.000 HD 
HETATM   18  O   UNL     1     -12.506  10.848  69.224  1.00  0.00    -0.392 OA 
HETATM   19 CL   UNL     1      -8.646  10.575  68.909  1.00  0.00    -0.145 Cl 
HETATM   20 CL   UNL     1     -10.533   8.830  67.523  1.00  0.00    -0.337 Cl 
ENDBRANCH  13  14
BRANCH  13  21
HETATM   21  C   UNL     1     -12.043  13.726  66.587  1.00  0.00    -0.429 C  
BRANCH  21  22
HETATM   22  O   UNL     1     -12.472  12.598  65.800  1.00  0.00    -0.607 OA 
BRANCH  22  23
HETATM   23  C   UNL     1     -11.937  12.518  64.553  1.00  0.00    -0.404 C  
HETATM   24  O   UNL     1     -12.553  12.695  63.510  1.00  0.00    -0.696 OA 
BRANCH  23  25
HETATM   25  C   UNL     1     -10.468  12.193  64.613  1.00  0.00    -0.336 C  
BRANCH  25  26
HETATM   26  C   UNL     1     -10.210  10.719  64.375  1.00  0.00    -0.432 C  
HETATM   27  C   UNL     1      -8.746  10.363  64.436  1.00  0.00    -0.198 C  
HETATM   28  O   UNL     1      -8.187  10.528  65.652  1.00  0.00    -0.154 OA 
HETATM   29  O   UNL     1      -8.125   9.932  63.478  1.00  0.00    -0.141 OA 
ENDBRANCH  25  26
ENDBRANCH  23  25
ENDBRANCH  22  23
ENDBRANCH  21  22
ENDBRANCH  13  21
ENDBRANCH   2  13
TORSDOF 8
ENDMDL
MODEL       68
REMARK 921   NORMALIZED FREE ENERGY PREDICTED BY IDOCK:   -5.70 KCAL/MOL
REMARK 922        TOTAL FREE ENERGY PREDICTED BY IDOCK:   -9.83 KCAL/MOL
REMARK 923 INTER-LIGAND FREE ENERGY PREDICTED BY IDOCK:   -8.67 KCAL/MOL
REMARK 924 INTRA-LIGAND FREE ENERGY PREDICTED BY IDOCK:   -1.16 KCAL/MOL
REMARK 927      BINDING AFFINITY PREDICTED BY RF-SCORE:    0.00 PKD
ROOT
HETATM    1  O   UNL     1      -8.991  10.784  69.512  1.00  0.00    -0.398 OA 
HETATM    2  C   UNL     1     -10.121  10.893  68.636  1.00  0.00    -0.191 C  
HETATM    3  H   UNL     1      -8.670  11.650  69.733  1.00  0.00     0.000 HD 
ENDROOT
BRANCH   2   4
HETATM    4  C   UNL     1     -11.117  11.792  69.339  1.00  0.00    -0.245 A  
HETATM    5  C   UNL     1     -12.843  13.507  70.742  1.00  0.00    -0.173 A  
HETATM    6  C   UNL     1     -11.211  13.151  68.994  1.00  0.00    -0.309 A  
HETATM    7  O   UNL     1     -13.698  15.615  71.201  1.00  0.00    -0.591 OA 
HETATM    8  O   UNL     1     -14.390  13.928  72.420  1.00  0.00    -0.647 OA 
HETATM    9  C   UNL     1     -11.919  11.304  70.387  1.00  0.00    -0.471 A  
HETATM   10  C   UNL     1     -12.068  14.009  69.689  1.00  0.00    -0.408 A  
HETATM   11  N   UNL     1     -13.705  14.415  71.509  1.00  0.00    -0.383 N  
HETATM   12  C   UNL     1     -12.780  12.152  71.087  1.00  0.00    -0.351 A  
ENDBRANCH   2   4
BRANCH   2  13
HETATM   13  C   UNL     1     -10.648   9.477  68.274  1.00  0.00    -0.216 C  
BRANCH  13  14
HETATM   14  N   UNL     1      -9.821   8.460  68.968  1.00  0.00    -0.178 N  
HETATM   15  C   UNL     1      -9.394   6.540  70.504  1.00  0.00    -0.162 C  
HETATM   16  C   UNL     1     -10.327   7.629  69.953  1.00  0.00    -0.225 C  
HETATM   17  H   UNL     1      -8.838   8.369  68.710  1.00  0.00     0.000 HD 
HETATM   18  O   UNL     1     -11.488   7.735  70.352  1.00  0.00    -0.252 OA 
HETATM   19 CL   UNL     1      -7.684   6.964  70.282  1.00  0.00    -0.098 Cl 
HETATM   20 CL   UNL     1      -9.767   5.001  69.707  1.00  0.00    -0.246 Cl 
ENDBRANCH  13  14
BRANCH  13  21
HETATM   21  C   UNL     1     -10.648   9.269  66.743  1.00  0.00    -0.137 C  
BRANCH  21  22
HETATM   22  O   UNL     1      -9.490   9.850  66.112  1.00  0.00    -0.174 OA 
BRANCH  22  23
HETATM   23  C   UNL     1      -9.717  10.447  64.912  1.00  0.00    -0.309 C  
HETATM   24  O   UNL     1      -9.064  10.253  63.894  1.00  0.00    -0.208 OA 
BRANCH  23  25
HETATM   25  C   UNL     1     -10.896  11.380  64.985  1.00  0.00    -0.311 C  
BRANCH  25  26
HETATM   26  C   UNL     1     -10.787  12.499  63.968  1.00  0.00    -0.446 C  
HETATM   27  C   UNL     1     -11.784  13.606  64.207  1.00  0.00    -0.403 C  
HETATM   28  O   UNL     1     -11.593  14.284  65.357  1.00  0.00    -0.329 OA 
HETATM   29  O   UNL     1     -12.669  13.887  63.415  1.00  0.00    -0.806 OA 
ENDBRANCH  25  26
ENDBRANCH  23  25
ENDBRANCH  22  23
ENDBRANCH  21  22
ENDBRANCH  13  21
ENDBRANCH   2  13
TORSDOF 8
ENDMDL
MODEL       69
REMARK 921   NORMALIZED FREE ENERGY PREDICTED BY IDOCK:   -5.67 KCAL/MOL
REMARK 922        TOTAL FREE ENERGY PREDICTED BY IDOCK:   -9.79 KCAL/MOL
REMARK 923 INTER-LIGAND FREE ENERGY PREDICTED BY IDOCK:   -9.69 KCAL/MOL
REMARK 924 INTRA-LIGAND FREE ENERGY PREDICTED BY IDOCK:   -0.10 KCAL/MOL
REMARK 927      BINDING AFFINITY PREDICTED BY RF-SCORE:    0.00 PKD
ROOT
HETATM    1  O   UNL     1      -9.732  11.067  67.202  1.00  0.00    -0.171 OA 
HETATM    2  C   UNL     1     -10.364  11.700  68.323  1.00  0.00    -0.200 C  
HETATM    3  H   UNL     1      -8.890  10.715  67.463  1.00  0.00     0.000 HD 
ENDROOT
BRANCH   2   4
HETATM    4  C   UNL     1     -10.412  10.661  69.424  1.00  0.00    -0.252 A  
HETATM    5  C   UNL     1     -10.484   8.855  71.574  1.00  0.00    -0.323 A  
HETATM    6  C   UNL     1     -11.620  10.388  70.088  1.00  0.00    -0.392 A  
HETATM    7  O   UNL     1     -11.595   7.799  73.317  1.00  0.00    -0.248 OA 
HETATM    8  O   UNL     1      -9.455   7.393  73.054  1.00  0.00    -0.156 OA 
HETATM    9  C   UNL     1      -9.245   9.998  69.844  1.00  0.00    -0.195 A  
HETATM   10  C   UNL     1     -11.662   9.490  71.159  1.00  0.00    -0.438 A  
HETATM   11  N   UNL     1     -10.514   7.951  72.731  1.00  0.00    -0.320 N  
HETATM   12  C   UNL     1      -9.275   9.096  70.912  1.00  0.00    -0.326 A  
ENDBRANCH   2   4
BRANCH   2  13
HETATM   13  C   UNL     1     -11.743  12.277  67.897  1.00  0.00    -0.347 C  
BRANCH  13  14
HETATM   14  N   UNL     1     -11.847  12.240  66.418  1.00  0.00    -0.361 N  
HETATM   15  C   UNL     1     -11.241  12.865  64.080  1.00  0.00    -0.412 C  
HETATM   16  C   UNL     1     -11.130  13.091  65.595  1.00  0.00    -0.276 C  
HETATM   17  H   UNL     1     -12.474  11.558  65.989  1.00  0.00     0.000 HD 
HETATM   18  O   UNL     1     -10.408  13.976  66.056  1.00  0.00    -0.289 OA 
HETATM   19 CL   UNL     1     -12.745  12.026  63.647  1.00  0.00    -0.611 Cl 
HETATM   20 CL   UNL     1      -9.829  11.945  63.527  1.00  0.00    -0.379 Cl 
ENDBRANCH  13  14
BRANCH  13  21
HETATM   21  C   UNL     1     -11.931  13.707  68.450  1.00  0.00    -0.356 C  
BRANCH  21  22
HETATM   22  O   UNL     1     -11.502  13.824  69.821  1.00  0.00    -0.253 OA 
BRANCH  22  23
HETATM   23  C   UNL     1     -12.498  13.854  70.745  1.00  0.00    -0.375 C  
HETATM   24  O   UNL     1     -12.935  12.879  71.342  1.00  0.00    -0.354 OA 
BRANCH  23  25
HETATM   25  C   UNL     1     -12.997  15.259  70.958  1.00  0.00    -0.526 C  
BRANCH  25  26
HETATM   26  C   UNL     1     -13.609  15.432  72.334  1.00  0.00    -0.618 C  
HETATM   27  C   UNL     1     -12.577  15.663  73.410  1.00  0.00    -0.533 C  
HETATM   28  O   UNL     1     -11.895  16.819  73.283  1.00  0.00    -0.423 OA 
HETATM   29  O   UNL     1     -12.393  14.886  74.333  1.00  0.00    -0.560 OA 
ENDBRANCH  25  26
ENDBRANCH  23  25
ENDBRANCH  22  23
ENDBRANCH  21  22
ENDBRANCH  13  21
ENDBRANCH   2  13
TORSDOF 8
ENDMDL
MODEL       70
REMARK 921   NORMALIZED FREE ENERGY PREDICTED BY IDOCK:   -5.64 KCAL/MOL
REMARK 922        TOTAL FREE ENERGY PREDICTED BY IDOCK:   -9.74 KCAL/MOL
REMARK 923 INTER-LIGAND FREE ENERGY PREDICTED BY IDOCK:   -8.58 KCAL/MOL
REMARK 924 INTRA-LIGAND FREE ENERGY PREDICTED BY IDOCK:   -1.16 KCAL/MOL
REMARK 927      BINDING AFFINITY PREDICTED BY RF-SCORE:    0.00 PKD
ROOT
HETATM    1  O   UNL     1     -10.924  10.282  66.957  1.00  0.00    -0.224 OA 
HETATM    2  C   UNL     1     -11.509  11.342  67.726  1.00  0.00    -0.281 C  
HETATM    3  H   UNL     1     -11.347  10.227  66.110  1.00  0.00     0.000 HD 
ENDROOT
BRANCH   2   4
HETATM    4  C   UNL     1     -11.410  12.589  66.871  1.00  0.00    -0.383 A  
HETATM    5  C   UNL     1     -11.339  14.967  65.379  1.00  0.00    -0.328 A  
HETATM    6  C   UNL     1     -10.607  13.666  67.282  1.00  0.00    -0.267 A  
HETATM    7  O   UNL     1     -10.665  17.167  65.075  1.00  0.00    -0.712 OA 
HETATM    8  O   UNL     1     -12.021  16.285  63.594  1.00  0.00    -0.840 OA 
HETATM    9  C   UNL     1     -12.161  12.717  65.688  1.00  0.00    -0.514 A  
HETATM   10  C   UNL     1     -10.568  14.853  66.543  1.00  0.00    -0.306 A  
HETATM   11  N   UNL     1     -11.342  16.230  64.629  1.00  0.00    -0.353 N  
HETATM   12  C   UNL     1     -12.128  13.898  64.941  1.00  0.00    -0.434 A  
ENDBRANCH   2   4
BRANCH   2  13
HETATM   13  C   UNL     1     -10.817  11.434  69.114  1.00  0.00    -0.213 C  
BRANCH  13  14
HETATM   14  N   UNL     1      -9.779  10.378  69.209  1.00  0.00    -0.220 N  
HETATM   15  C   UNL     1      -7.455   9.471  69.235  1.00  0.00    -0.078 C  
HETATM   16  C   UNL     1      -8.436  10.626  68.986  1.00  0.00    -0.145 C  
HETATM   17  H   UNL     1     -10.068   9.429  69.448  1.00  0.00     0.000 HD 
HETATM   18  O   UNL     1      -8.036  11.736  68.631  1.00  0.00    -0.147 OA 
HETATM   19 CL   UNL     1      -8.253   7.890  69.107  1.00  0.00    -0.130 Cl 
HETATM   20 CL   UNL     1      -6.718   9.672  70.835  1.00  0.00    -0.091 Cl 
ENDBRANCH  13  14
BRANCH  13  21
HETATM   21  C   UNL     1     -11.857  11.322  70.251  1.00  0.00    -0.357 C  
BRANCH  21  22
HETATM   22  O   UNL     1     -12.216   9.955  70.532  1.00  0.00    -0.253 OA 
BRANCH  22  23
HETATM   23  C   UNL     1     -12.912   9.758  71.682  1.00  0.00    -0.419 C  
HETATM   24  O   UNL     1     -13.516  10.628  72.298  1.00  0.00    -0.333 OA 
BRANCH  23  25
HETATM   25  C   UNL     1     -12.863   8.314  72.105  1.00  0.00    -0.348 C  
BRANCH  25  26
HETATM   26  C   UNL     1     -11.601   7.631  71.617  1.00  0.00    -0.301 C  
HETATM   27  C   UNL     1     -10.446   7.778  72.577  1.00  0.00    -0.284 C  
HETATM   28  O   UNL     1     -10.630   7.163  73.762  1.00  0.00    -0.377 OA 
HETATM   29  O   UNL     1      -9.420   8.376  72.297  1.00  0.00    -0.243 OA 
ENDBRANCH  25  26
ENDBRANCH  23  25
ENDBRANCH  22  23
ENDBRANCH  21  22
ENDBRANCH  13  21
ENDBRANCH   2  13
TORSDOF 8
ENDMDL
MODEL       71
REMARK 921   NORMALIZED FREE ENERGY PREDICTED BY IDOCK:   -5.63 KCAL/MOL
REMARK 922        TOTAL FREE ENERGY PREDICTED BY IDOCK:   -9.74 KCAL/MOL
REMARK 923 INTER-LIGAND FREE ENERGY PREDICTED BY IDOCK:   -8.53 KCAL/MOL
REMARK 924 INTRA-LIGAND FREE ENERGY PREDICTED BY IDOCK:   -1.21 KCAL/MOL
REMARK 927      BINDING AFFINITY PREDICTED BY RF-SCORE:    0.00 PKD
ROOT
HETATM    1  O   UNL     1     -11.991  10.800  68.131  1.00  0.00    -0.775 OA 
HETATM    2  C   UNL     1     -10.778  11.565  68.167  1.00  0.00    -0.205 C  
HETATM    3  H   UNL     1     -12.723  11.343  68.396  1.00  0.00     0.000 HD 
ENDROOT
BRANCH   2   4
HETATM    4  C   UNL     1     -11.023  12.785  67.303  1.00  0.00    -0.294 A  
HETATM    5  C   UNL     1     -11.372  14.986  65.593  1.00  0.00    -0.297 A  
HETATM    6  C   UNL     1     -11.948  12.730  66.245  1.00  0.00    -0.460 A  
HETATM    7  O   UNL     1     -12.299  15.986  63.715  1.00  0.00    -0.858 OA 
HETATM    8  O   UNL     1     -10.848  17.135  64.891  1.00  0.00    -0.751 OA 
HETATM    9  C   UNL     1     -10.292  13.970  67.500  1.00  0.00    -0.245 A  
HETATM   10  C   UNL     1     -12.125  13.822  65.391  1.00  0.00    -0.427 A  
HETATM   11  N   UNL     1     -11.517  16.116  64.667  1.00  0.00    -0.318 N  
HETATM   12  C   UNL     1     -10.463  15.069  66.653  1.00  0.00    -0.284 A  
ENDBRANCH   2   4
BRANCH   2  13
HETATM   13  C   UNL     1      -9.580  10.676  67.733  1.00  0.00    -0.157 C  
BRANCH  13  14
HETATM   14  N   UNL     1      -9.581  10.547  66.256  1.00  0.00    -0.180 N  
HETATM   15  C   UNL     1      -8.565  10.197  64.004  1.00  0.00    -0.192 C  
HETATM   16  C   UNL     1      -8.418  10.447  65.512  1.00  0.00    -0.167 C  
HETATM   17  H   UNL     1     -10.477  10.530  65.767  1.00  0.00     0.000 HD 
HETATM   18  O   UNL     1      -7.307  10.526  66.040  1.00  0.00    -0.128 OA 
HETATM   19 CL   UNL     1     -10.142  10.743  63.396  1.00  0.00    -0.382 Cl 
HETATM   20 CL   UNL     1      -8.332   8.469  63.679  1.00  0.00    -0.127 Cl 
ENDBRANCH  13  14
BRANCH  13  21
HETATM   21  C   UNL     1      -9.642   9.299  68.431  1.00  0.00    -0.147 C  
BRANCH  21  22
HETATM   22  O   UNL     1     -10.410   8.339  67.680  1.00  0.00    -0.221 OA 
BRANCH  22  23
HETATM   23  C   UNL     1     -10.060   7.038  67.862  1.00  0.00    -0.169 C  
HETATM   24  O   UNL     1      -9.730   6.265  66.971  1.00  0.00    -0.132 OA 
BRANCH  23  25
HETATM   25  C   UNL     1     -10.112   6.663  69.319  1.00  0.00    -0.187 C  
BRANCH  25  26
HETATM   26  C   UNL     1     -11.523   6.324  69.759  1.00  0.00    -0.449 C  
HETATM   27  C   UNL     1     -11.887   6.941  71.087  1.00  0.00    -0.349 C  
HETATM   28  O   UNL     1     -11.938   8.288  71.074  1.00  0.00    -0.296 OA 
HETATM   29  O   UNL     1     -12.144   6.280  72.080  1.00  0.00    -0.333 OA 
ENDBRANCH  25  26
ENDBRANCH  23  25
ENDBRANCH  22  23
ENDBRANCH  21  22
ENDBRANCH  13  21
ENDBRANCH   2  13
TORSDOF 8
ENDMDL
MODEL       72
REMARK 921   NORMALIZED FREE ENERGY PREDICTED BY IDOCK:   -5.63 KCAL/MOL
REMARK 922        TOTAL FREE ENERGY PREDICTED BY IDOCK:   -9.74 KCAL/MOL
REMARK 923 INTER-LIGAND FREE ENERGY PREDICTED BY IDOCK:   -8.87 KCAL/MOL
REMARK 924 INTRA-LIGAND FREE ENERGY PREDICTED BY IDOCK:   -0.87 KCAL/MOL
REMARK 927      BINDING AFFINITY PREDICTED BY RF-SCORE:    0.00 PKD
ROOT
HETATM    1  O   UNL     1     -12.331  12.759  66.150  1.00  0.00    -0.542 OA 
HETATM    2  C   UNL     1     -11.965  13.184  67.470  1.00  0.00    -0.317 C  
HETATM    3  H   UNL     1     -12.899  13.405  65.749  1.00  0.00     0.000 HD 
ENDROOT
BRANCH   2   4
HETATM    4  C   UNL     1     -11.363  14.566  67.316  1.00  0.00    -0.363 A  
HETATM    5  C   UNL     1     -10.105  17.066  67.080  1.00  0.00    -0.292 A  
HETATM    6  C   UNL     1     -10.663  14.907  66.146  1.00  0.00    -0.317 A  
HETATM    7  O   UNL     1      -8.748  18.571  65.949  1.00  0.00    -0.490 OA 
HETATM    8  O   UNL     1      -9.506  19.143  67.926  1.00  0.00    -0.303 OA 
HETATM    9  C   UNL     1     -11.438  15.508  68.357  1.00  0.00    -0.370 A  
HETATM   10  C   UNL     1     -10.035  16.150  66.023  1.00  0.00    -0.373 A  
HETATM   11  N   UNL     1      -9.403  18.352  66.977  1.00  0.00    -0.274 N  
HETATM   12  C   UNL     1     -10.816  16.754  68.245  1.00  0.00    -0.366 A  
ENDBRANCH   2   4
BRANCH   2  13
HETATM   13  C   UNL     1     -11.036  12.126  68.127  1.00  0.00    -0.230 C  
BRANCH  13  14
HETATM   14  N   UNL     1     -10.517  11.217  67.077  1.00  0.00    -0.223 N  
HETATM   15  C   UNL     1      -9.036   9.444  66.135  1.00  0.00    -0.171 C  
HETATM   16  C   UNL     1      -9.394  10.428  67.258  1.00  0.00    -0.146 C  
HETATM   17  H   UNL     1     -11.008  11.171  66.183  1.00  0.00     0.000 HD 
HETATM   18  O   UNL     1      -8.723  10.488  68.289  1.00  0.00    -0.126 OA 
HETATM   19 CL   UNL     1      -9.701   9.959  64.570  1.00  0.00    -0.311 Cl 
HETATM   20 CL   UNL     1      -9.631   7.830  66.567  1.00  0.00    -0.272 Cl 
ENDBRANCH  13  14
BRANCH  13  21
HETATM   21  C   UNL     1     -11.786  11.355  69.236  1.00  0.00    -0.349 C  
BRANCH  21  22
HETATM   22  O   UNL     1     -12.037  12.171  70.397  1.00  0.00    -0.354 OA 
BRANCH  22  23
HETATM   23  C   UNL     1     -12.891  11.641  71.311  1.00  0.00    -0.328 C  
HETATM   24  O   UNL     1     -13.336  12.233  72.286  1.00  0.00    -0.515 OA 
BRANCH  23  25
HETATM   25  C   UNL     1     -13.240  10.218  70.965  1.00  0.00    -0.399 C  
BRANCH  25  26
HETATM   26  C   UNL     1     -12.911   9.269  72.100  1.00  0.00    -0.503 C  
HETATM   27  C   UNL     1     -12.368   7.946  71.619  1.00  0.00    -0.315 C  
HETATM   28  O   UNL     1     -11.173   8.031  71.000  1.00  0.00    -0.256 OA 
HETATM   29  O   UNL     1     -12.944   6.885  71.800  1.00  0.00    -0.363 OA 
ENDBRANCH  25  26
ENDBRANCH  23  25
ENDBRANCH  22  23
ENDBRANCH  21  22
ENDBRANCH  13  21
ENDBRANCH   2  13
TORSDOF 8
ENDMDL
MODEL       73
REMARK 921   NORMALIZED FREE ENERGY PREDICTED BY IDOCK:   -5.63 KCAL/MOL
REMARK 922        TOTAL FREE ENERGY PREDICTED BY IDOCK:   -9.73 KCAL/MOL
REMARK 923 INTER-LIGAND FREE ENERGY PREDICTED BY IDOCK:   -8.66 KCAL/MOL
REMARK 924 INTRA-LIGAND FREE ENERGY PREDICTED BY IDOCK:   -1.07 KCAL/MOL
REMARK 927      BINDING AFFINITY PREDICTED BY RF-SCORE:    0.00 PKD
ROOT
HETATM    1  O   UNL     1      -8.808  10.197  70.042  1.00  0.00    -0.359 OA 
HETATM    2  C   UNL     1     -10.196   9.924  70.281  1.00  0.00    -0.264 C  
HETATM    3  H   UNL     1      -8.319  10.110  70.851  1.00  0.00     0.000 HD 
ENDROOT
BRANCH   2   4
HETATM    4  C   UNL     1     -10.253   8.555  70.926  1.00  0.00    -0.246 A  
HETATM    5  C   UNL     1     -10.479   5.979  72.021  1.00  0.00    -0.209 A  
HETATM    6  C   UNL     1      -9.594   7.464  70.332  1.00  0.00    -0.165 A  
HETATM    7  O   UNL     1     -10.088   3.691  71.959  1.00  0.00    -0.173 OA 
HETATM    8  O   UNL     1     -11.318   4.489  73.591  1.00  0.00    -0.292 OA 
HETATM    9  C   UNL     1     -11.010   8.334  72.090  1.00  0.00    -0.396 A  
HETATM   10  C   UNL     1      -9.703   6.180  70.873  1.00  0.00    -0.203 A  
HETATM   11  N   UNL     1     -10.640   4.623  72.562  1.00  0.00    -0.198 N  
HETATM   12  C   UNL     1     -11.125   7.054  72.641  1.00  0.00    -0.317 A  
ENDBRANCH   2   4
BRANCH   2  13
HETATM   13  C   UNL     1     -10.997  10.066  68.957  1.00  0.00    -0.212 C  
BRANCH  13  14
HETATM   14  N   UNL     1     -10.048  10.237  67.831  1.00  0.00    -0.164 N  
HETATM   15  C   UNL     1      -9.024   9.700  65.620  1.00  0.00    -0.169 C  
HETATM   16  C   UNL     1      -9.965   9.340  66.779  1.00  0.00    -0.245 C  
HETATM   17  H   UNL     1      -9.430  11.049  67.831  1.00  0.00     0.000 HD 
HETATM   18  O   UNL     1     -10.638   8.309  66.756  1.00  0.00    -0.306 OA 
HETATM   19 CL   UNL     1      -7.744  10.820  66.132  1.00  0.00    -0.151 Cl 
HETATM   20 CL   UNL     1      -9.976  10.400  64.297  1.00  0.00    -0.397 Cl 
ENDBRANCH  13  14
BRANCH  13  21
HETATM   21  C   UNL     1     -11.998  11.240  69.048  1.00  0.00    -0.325 C  
BRANCH  21  22
HETATM   22  O   UNL     1     -12.119  11.954  67.802  1.00  0.00    -0.564 OA 
BRANCH  22  23
HETATM   23  C   UNL     1     -11.747  13.260  67.838  1.00  0.00    -0.357 C  
HETATM   24  O   UNL     1     -11.086  13.780  68.728  1.00  0.00    -0.246 OA 
BRANCH  23  25
HETATM   25  C   UNL     1     -12.241  13.999  66.623  1.00  0.00    -0.463 C  
BRANCH  25  26
HETATM   26  C   UNL     1     -11.481  13.595  65.375  1.00  0.00    -0.322 C  
HETATM   27  C   UNL     1     -12.280  13.796  64.112  1.00  0.00    -0.396 C  
HETATM   28  O   UNL     1     -12.562  15.085  63.835  1.00  0.00    -0.813 OA 
HETATM   29  O   UNL     1     -12.617  12.876  63.384  1.00  0.00    -0.709 OA 
ENDBRANCH  25  26
ENDBRANCH  23  25
ENDBRANCH  22  23
ENDBRANCH  21  22
ENDBRANCH  13  21
ENDBRANCH   2  13
TORSDOF 8
ENDMDL
MODEL       74
REMARK 921   NORMALIZED FREE ENERGY PREDICTED BY IDOCK:   -5.63 KCAL/MOL
REMARK 922        TOTAL FREE ENERGY PREDICTED BY IDOCK:   -9.73 KCAL/MOL
REMARK 923 INTER-LIGAND FREE ENERGY PREDICTED BY IDOCK:   -8.65 KCAL/MOL
REMARK 924 INTRA-LIGAND FREE ENERGY PREDICTED BY IDOCK:   -1.08 KCAL/MOL
REMARK 927      BINDING AFFINITY PREDICTED BY RF-SCORE:    0.00 PKD
ROOT
HETATM    1  O   UNL     1      -9.078  10.818  69.349  1.00  0.00    -0.374 OA 
HETATM    2  C   UNL     1      -9.660  11.768  68.446  1.00  0.00    -0.191 C  
HETATM    3  H   UNL     1      -8.824  11.253  70.155  1.00  0.00     0.000 HD 
ENDROOT
BRANCH   2   4
HETATM    4  C   UNL     1     -10.790  12.434  69.204  1.00  0.00    -0.148 A  
HETATM    5  C   UNL     1     -12.776  13.719  70.717  1.00  0.00    -0.290 A  
HETATM    6  C   UNL     1     -11.066  13.798  69.010  1.00  0.00    -0.296 A  
HETATM    7  O   UNL     1     -13.932  15.622  71.374  1.00  0.00    -0.540 OA 
HETATM    8  O   UNL     1     -14.410  13.726  72.365  1.00  0.00    -0.664 OA 
HETATM    9  C   UNL     1     -11.542  11.721  70.155  1.00  0.00    -0.281 A  
HETATM   10  C   UNL     1     -12.053  14.443  69.761  1.00  0.00    -0.386 A  
HETATM   11  N   UNL     1     -13.778  14.405  71.544  1.00  0.00    -0.383 N  
HETATM   12  C   UNL     1     -12.533  12.355  70.910  1.00  0.00    -0.367 A  
ENDBRANCH   2   4
BRANCH   2  13
HETATM   13  C   UNL     1     -10.075  11.058  67.128  1.00  0.00    -0.193 C  
BRANCH  13  14
HETATM   14  N   UNL     1     -10.963  11.956  66.351  1.00  0.00    -0.280 N  
HETATM   15  C   UNL     1     -11.859  13.040  64.290  1.00  0.00    -0.396 C  
HETATM   16  C   UNL     1     -10.798  12.182  64.995  1.00  0.00    -0.300 C  
HETATM   17  H   UNL     1     -11.727  12.427  66.836  1.00  0.00     0.000 HD 
HETATM   18  O   UNL     1      -9.856  11.693  64.370  1.00  0.00    -0.244 OA 
HETATM   19 CL   UNL     1     -12.700  14.115  65.427  1.00  0.00    -0.499 Cl 
HETATM   20 CL   UNL     1     -13.012  11.973  63.467  1.00  0.00    -0.495 Cl 
ENDBRANCH  13  14
BRANCH  13  21
HETATM   21  C   UNL     1     -10.751   9.701  67.428  1.00  0.00    -0.241 C  
BRANCH  21  22
HETATM   22  O   UNL     1      -9.809   8.610  67.435  1.00  0.00    -0.167 OA 
BRANCH  22  23
HETATM   23  C   UNL     1     -10.300   7.417  67.861  1.00  0.00    -0.204 C  
HETATM   24  O   UNL     1     -10.914   6.618  67.165  1.00  0.00    -0.363 OA 
BRANCH  23  25
HETATM   25  C   UNL     1      -9.980   7.187  69.314  1.00  0.00    -0.168 C  
BRANCH  25  26
HETATM   26  C   UNL     1     -10.661   5.943  69.848  1.00  0.00    -0.370 C  
HETATM   27  C   UNL     1     -11.588   6.231  71.002  1.00  0.00    -0.272 C  
HETATM   28  O   UNL     1     -12.655   6.989  70.679  1.00  0.00    -0.260 OA 
HETATM   29  O   UNL     1     -11.407   5.792  72.127  1.00  0.00    -0.280 OA 
ENDBRANCH  25  26
ENDBRANCH  23  25
ENDBRANCH  22  23
ENDBRANCH  21  22
ENDBRANCH  13  21
ENDBRANCH   2  13
TORSDOF 8
ENDMDL
MODEL       75
REMARK 921   NORMALIZED FREE ENERGY PREDICTED BY IDOCK:   -5.60 KCAL/MOL
REMARK 922        TOTAL FREE ENERGY PREDICTED BY IDOCK:   -9.68 KCAL/MOL
REMARK 923 INTER-LIGAND FREE ENERGY PREDICTED BY IDOCK:   -8.26 KCAL/MOL
REMARK 924 INTRA-LIGAND FREE ENERGY PREDICTED BY IDOCK:   -1.43 KCAL/MOL
REMARK 927      BINDING AFFINITY PREDICTED BY RF-SCORE:    0.00 PKD
ROOT
HETATM    1  O   UNL     1      -9.607  12.995  68.975  1.00  0.00    -0.387 OA 
HETATM    2  C   UNL     1     -10.993  13.229  68.688  1.00  0.00    -0.264 C  
HETATM    3  H   UNL     1      -9.156  13.824  69.081  1.00  0.00     0.000 HD 
ENDROOT
BRANCH   2   4
HETATM    4  C   UNL     1     -11.513  14.109  69.805  1.00  0.00    -0.309 A  
HETATM    5  C   UNL     1     -12.445  15.622  71.980  1.00  0.00    -0.426 A  
HETATM    6  C   UNL     1     -10.621  14.866  70.584  1.00  0.00     0.121 A  
HETATM    7  O   UNL     1     -12.082  16.966  73.837  1.00  0.00    -0.349 OA 
HETATM    8  O   UNL     1     -14.141  16.363  73.381  1.00  0.00    -0.349 OA 
HETATM    9  C   UNL     1     -12.883  14.140  70.124  1.00  0.00    -0.107 A  
HETATM   10  C   UNL     1     -11.080  15.620  71.668  1.00  0.00    -0.217 A  
HETATM   11  N   UNL     1     -12.923  16.371  73.150  1.00  0.00    -0.278 N  
HETATM   12  C   UNL     1     -13.352  14.893  71.204  1.00  0.00    -0.480 A  
ENDBRANCH   2   4
BRANCH   2  13
HETATM   13  C   UNL     1     -11.732  11.873  68.514  1.00  0.00    -0.330 C  
BRANCH  13  14
HETATM   14  N   UNL     1     -11.193  10.898  69.493  1.00  0.00    -0.255 N  
HETATM   15  C   UNL     1     -11.313   9.262  71.373  1.00  0.00    -0.364 C  
HETATM   16  C   UNL     1     -11.963  10.348  70.504  1.00  0.00    -0.334 C  
HETATM   17  H   UNL     1     -10.214  10.620  69.418  1.00  0.00     0.000 HD 
HETATM   18  O   UNL     1     -13.132  10.694  70.684  1.00  0.00    -0.318 OA 
HETATM   19 CL   UNL     1      -9.541   9.386  71.369  1.00  0.00    -0.214 Cl 
HETATM   20 CL   UNL     1     -11.831   7.669  70.791  1.00  0.00    -0.268 Cl 
ENDBRANCH  13  14
BRANCH  13  21
HETATM   21  C   UNL     1     -11.600  11.362  67.062  1.00  0.00    -0.051 C  
BRANCH  21  22
HETATM   22  O   UNL     1     -10.248  11.450  66.572  1.00  0.00    -0.209 OA 
BRANCH  22  23
HETATM   23  C   UNL     1     -10.118  11.488  65.219  1.00  0.00    -0.269 C  
HETATM   24  O   UNL     1      -9.905  10.518  64.504  1.00  0.00    -0.288 OA 
BRANCH  23  25
HETATM   25  C   UNL     1     -10.286  12.891  64.699  1.00  0.00    -0.321 C  
BRANCH  25  26
HETATM   26  C   UNL     1     -11.347  12.964  63.619  1.00  0.00    -0.455 C  
HETATM   27  C   UNL     1     -12.748  12.836  64.165  1.00  0.00    -0.226 C  
HETATM   28  O   UNL     1     -13.125  13.853  64.966  1.00  0.00    -0.749 OA 
HETATM   29  O   UNL     1     -13.489  11.908  63.884  1.00  0.00    -0.559 OA 
ENDBRANCH  25  26
ENDBRANCH  23  25
ENDBRANCH  22  23
ENDBRANCH  21  22
ENDBRANCH  13  21
ENDBRANCH   2  13
TORSDOF 8
ENDMDL
MODEL       76
REMARK 921   NORMALIZED FREE ENERGY PREDICTED BY IDOCK:   -5.59 KCAL/MOL
REMARK 922        TOTAL FREE ENERGY PREDICTED BY IDOCK:   -9.67 KCAL/MOL
REMARK 923 INTER-LIGAND FREE ENERGY PREDICTED BY IDOCK:   -8.37 KCAL/MOL
REMARK 924 INTRA-LIGAND FREE ENERGY PREDICTED BY IDOCK:   -1.29 KCAL/MOL
REMARK 927      BINDING AFFINITY PREDICTED BY RF-SCORE:    0.00 PKD
ROOT
HETATM    1  O   UNL     1     -10.881  16.276  69.486  1.00  0.00    -0.297 OA 
HETATM    2  C   UNL     1     -10.317  16.718  68.243  1.00  0.00    -0.319 C  
HETATM    3  H   UNL     1     -11.828  16.252  69.420  1.00  0.00     0.000 HD 
ENDROOT
BRANCH   2   4
HETATM    4  C   UNL     1     -10.867  15.794  67.177  1.00  0.00    -0.289 A  
HETATM    5  C   UNL     1     -12.012  14.180  65.184  1.00  0.00    -0.388 A  
HETATM    6  C   UNL     1     -10.630  16.060  65.817  1.00  0.00    -0.366 A  
HETATM    7  O   UNL     1     -12.459  13.691  62.959  1.00  0.00    -0.719 OA 
HETATM    8  O   UNL     1     -13.349  12.410  64.501  1.00  0.00    -0.800 OA 
HETATM    9  C   UNL     1     -11.671  14.692  67.519  1.00  0.00    -0.403 A  
HETATM   10  C   UNL     1     -11.198  15.260  64.821  1.00  0.00    -0.405 A  
HETATM   11  N   UNL     1     -12.652  13.369  64.140  1.00  0.00    -0.203 N  
HETATM   12  C   UNL     1     -12.242  13.884  66.532  1.00  0.00    -0.482 A  
ENDBRANCH   2   4
BRANCH   2  13
HETATM   13  C   UNL     1      -8.768  16.759  68.350  1.00  0.00    -0.236 C  
BRANCH  13  14
HETATM   14  N   UNL     1      -8.260  17.937  67.607  1.00  0.00    -0.230 N  
HETATM   15  C   UNL     1      -7.800  20.360  67.228  1.00  0.00    -0.334 C  
HETATM   16  C   UNL     1      -8.484  19.238  68.023  1.00  0.00    -0.317 C  
HETATM   17  H   UNL     1      -7.724  17.782  66.753  1.00  0.00     0.000 HD 
HETATM   18  O   UNL     1      -9.178  19.489  69.010  1.00  0.00    -0.364 OA 
HETATM   19 CL   UNL     1      -7.418  19.852  65.569  1.00  0.00    -0.295 Cl 
HETATM   20 CL   UNL     1      -6.331  20.864  68.083  1.00  0.00    -0.363 Cl 
ENDBRANCH  13  14
BRANCH  13  21
HETATM   21  C   UNL     1      -8.151  15.441  67.830  1.00  0.00    -0.140 C  
BRANCH  21  22
HETATM   22  O   UNL     1      -8.366  14.341  68.736  1.00  0.00    -0.148 OA 
BRANCH  22  23
HETATM   23  C   UNL     1      -8.035  13.114  68.253  1.00  0.00    -0.148 C  
HETATM   24  O   UNL     1      -7.345  12.289  68.839  1.00  0.00    -0.104 OA 
BRANCH  23  25
HETATM   25  C   UNL     1      -8.644  12.883  66.896  1.00  0.00    -0.132 C  
BRANCH  25  26
HETATM   26  C   UNL     1      -9.432  11.589  66.849  1.00  0.00    -0.194 C  
HETATM   27  C   UNL     1      -9.426  10.949  65.483  1.00  0.00    -0.211 C  
HETATM   28  O   UNL     1      -8.212  10.525  65.076  1.00  0.00    -0.161 OA 
HETATM   29  O   UNL     1     -10.436  10.797  64.814  1.00  0.00    -0.326 OA 
ENDBRANCH  25  26
ENDBRANCH  23  25
ENDBRANCH  22  23
ENDBRANCH  21  22
ENDBRANCH  13  21
ENDBRANCH   2  13
TORSDOF 8
ENDMDL
MODEL       77
REMARK 921   NORMALIZED FREE ENERGY PREDICTED BY IDOCK:   -5.58 KCAL/MOL
REMARK 922        TOTAL FREE ENERGY PREDICTED BY IDOCK:   -9.66 KCAL/MOL
REMARK 923 INTER-LIGAND FREE ENERGY PREDICTED BY IDOCK:   -8.54 KCAL/MOL
REMARK 924 INTRA-LIGAND FREE ENERGY PREDICTED BY IDOCK:   -1.13 KCAL/MOL
REMARK 927      BINDING AFFINITY PREDICTED BY RF-SCORE:    0.00 PKD
ROOT
HETATM    1  O   UNL     1     -12.306  11.161  68.454  1.00  0.00    -0.697 OA 
HETATM    2  C   UNL     1     -11.780  12.095  67.500  1.00  0.00    -0.315 C  
HETATM    3  H   UNL     1     -12.254  10.280  68.105  1.00  0.00     0.000 HD 
ENDROOT
BRANCH   2   4
HETATM    4  C   UNL     1     -10.384  11.614  67.164  1.00  0.00    -0.247 A  
HETATM    5  C   UNL     1      -7.853  10.572  66.533  1.00  0.00    -0.134 A  
HETATM    6  C   UNL     1     -10.012  11.400  65.825  1.00  0.00    -0.271 A  
HETATM    7  O   UNL     1      -6.304   9.751  65.012  1.00  0.00    -0.083 OA 
HETATM    8  O   UNL     1      -5.774   9.736  67.141  1.00  0.00    -0.046 OA 
HETATM    9  C   UNL     1      -9.457  11.315  68.179  1.00  0.00    -0.184 A  
HETATM   10  C   UNL     1      -8.754  10.881  65.506  1.00  0.00    -0.178 A  
HETATM   11  N   UNL     1      -6.551   9.977  66.205  1.00  0.00    -0.083 N  
HETATM   12  C   UNL     1      -8.196  10.798  67.871  1.00  0.00    -0.113 A  
ENDBRANCH   2   4
BRANCH   2  13
HETATM   13  C   UNL     1     -11.864  13.537  68.071  1.00  0.00    -0.365 C  
BRANCH  13  14
HETATM   14  N   UNL     1     -10.854  14.387  67.395  1.00  0.00    -0.287 N  
HETATM   15  C   UNL     1      -9.967  15.861  65.588  1.00  0.00    -0.334 C  
HETATM   16  C   UNL     1     -11.038  14.898  66.122  1.00  0.00    -0.335 C  
HETATM   17  H   UNL     1      -9.988  14.603  67.889  1.00  0.00     0.000 HD 
HETATM   18  O   UNL     1     -12.033  14.619  65.452  1.00  0.00    -0.341 OA 
HETATM   19 CL   UNL     1      -8.402  15.618  66.393  1.00  0.00    -0.284 Cl 
HETATM   20 CL   UNL     1     -10.528  17.529  65.802  1.00  0.00    -0.295 Cl 
ENDBRANCH  13  14
BRANCH  13  21
HETATM   21  C   UNL     1     -11.675  13.529  69.605  1.00  0.00    -0.314 C  
BRANCH  21  22
HETATM   22  O   UNL     1     -12.913  13.742  70.310  1.00  0.00    -0.129 OA 
BRANCH  22  23
HETATM   23  C   UNL     1     -13.161  12.879  71.330  1.00  0.00    -0.242 C  
HETATM   24  O   UNL     1     -12.791  11.712  71.371  1.00  0.00    -0.409 OA 
BRANCH  23  25
HETATM   25  C   UNL     1     -13.945  13.547  72.428  1.00  0.00    -0.638 C  
BRANCH  25  26
HETATM   26  C   UNL     1     -13.884  15.058  72.320  1.00  0.00    -0.596 C  
HETATM   27  C   UNL     1     -12.841  15.668  73.223  1.00  0.00    -0.527 C  
HETATM   28  O   UNL     1     -11.573  15.336  72.907  1.00  0.00    -0.436 OA 
HETATM   29  O   UNL     1     -13.115  16.423  74.142  1.00  0.00    -0.656 OA 
ENDBRANCH  25  26
ENDBRANCH  23  25
ENDBRANCH  22  23
ENDBRANCH  21  22
ENDBRANCH  13  21
ENDBRANCH   2  13
TORSDOF 8
ENDMDL
MODEL       78
REMARK 921   NORMALIZED FREE ENERGY PREDICTED BY IDOCK:   -5.58 KCAL/MOL
REMARK 922        TOTAL FREE ENERGY PREDICTED BY IDOCK:   -9.65 KCAL/MOL
REMARK 923 INTER-LIGAND FREE ENERGY PREDICTED BY IDOCK:   -8.47 KCAL/MOL
REMARK 924 INTRA-LIGAND FREE ENERGY PREDICTED BY IDOCK:   -1.18 KCAL/MOL
REMARK 927      BINDING AFFINITY PREDICTED BY RF-SCORE:    0.00 PKD
ROOT
HETATM    1  O   UNL     1     -12.479  15.515  68.928  1.00  0.00    -0.590 OA 
HETATM    2  C   UNL     1     -11.218  14.867  69.146  1.00  0.00    -0.279 C  
HETATM    3  H   UNL     1     -12.505  16.338  69.401  1.00  0.00     0.000 HD 
ENDROOT
BRANCH   2   4
HETATM    4  C   UNL     1     -10.154  15.871  68.753  1.00  0.00    -0.221 A  
HETATM    5  C   UNL     1      -8.220  17.818  68.157  1.00  0.00    -0.260 A  
HETATM    6  C   UNL     1      -8.870  15.800  69.320  1.00  0.00    -0.262 A  
HETATM    7  O   UNL     1      -6.132  18.785  68.467  1.00  0.00    -0.208 OA 
HETATM    8  O   UNL     1      -7.536  19.767  67.097  1.00  0.00    -0.241 OA 
HETATM    9  C   UNL     1     -10.444  16.924  67.867  1.00  0.00    -0.344 A  
HETATM   10  C   UNL     1      -7.903  16.767  69.027  1.00  0.00    -0.201 A  
HETATM   11  N   UNL     1      -7.225  18.864  67.888  1.00  0.00    -0.236 N  
HETATM   12  C   UNL     1      -9.485  17.894  67.565  1.00  0.00    -0.258 A  
ENDBRANCH   2   4
BRANCH   2  13
HETATM   13  C   UNL     1     -11.175  13.520  68.373  1.00  0.00    -0.278 C  
BRANCH  13  14
HETATM   14  N   UNL     1      -9.777  13.236  67.970  1.00  0.00    -0.217 N  
HETATM   15  C   UNL     1      -7.749  11.819  67.643  1.00  0.00    -0.137 C  
HETATM   16  C   UNL     1      -9.158  12.023  68.220  1.00  0.00    -0.190 C  
HETATM   17  H   UNL     1      -9.249  13.964  67.489  1.00  0.00     0.000 HD 
HETATM   18  O   UNL     1      -9.722  11.130  68.853  1.00  0.00    -0.198 OA 
HETATM   19 CL   UNL     1      -6.924  13.366  67.357  1.00  0.00    -0.152 Cl 
HETATM   20 CL   UNL     1      -7.868  10.885  66.141  1.00  0.00    -0.159 Cl 
ENDBRANCH  13  14
BRANCH  13  21
HETATM   21  C   UNL     1     -12.127  13.559  67.156  1.00  0.00    -0.340 C  
BRANCH  21  22
HETATM   22  O   UNL     1     -11.594  14.341  66.069  1.00  0.00    -0.342 OA 
BRANCH  22  23
HETATM   23  C   UNL     1     -12.242  14.209  64.882  1.00  0.00    -0.438 C  
HETATM   24  O   UNL     1     -12.373  15.097  64.049  1.00  0.00    -0.675 OA 
BRANCH  23  25
HETATM   25  C   UNL     1     -12.775  12.812  64.707  1.00  0.00    -0.469 C  
BRANCH  25  26
HETATM   26  C   UNL     1     -12.201  12.145  63.473  1.00  0.00    -0.670 C  
HETATM   27  C   UNL     1     -10.783  11.671  63.668  1.00  0.00    -0.435 C  
HETATM   28  O   UNL     1     -10.649  10.685  64.578  1.00  0.00    -0.304 OA 
HETATM   29  O   UNL     1      -9.839  12.118  63.036  1.00  0.00    -0.365 OA 
ENDBRANCH  25  26
ENDBRANCH  23  25
ENDBRANCH  22  23
ENDBRANCH  21  22
ENDBRANCH  13  21
ENDBRANCH   2  13
TORSDOF 8
ENDMDL
MODEL       79
REMARK 921   NORMALIZED FREE ENERGY PREDICTED BY IDOCK:   -5.55 KCAL/MOL
REMARK 922        TOTAL FREE ENERGY PREDICTED BY IDOCK:   -9.62 KCAL/MOL
REMARK 923 INTER-LIGAND FREE ENERGY PREDICTED BY IDOCK:   -8.46 KCAL/MOL
REMARK 924 INTRA-LIGAND FREE ENERGY PREDICTED BY IDOCK:   -1.16 KCAL/MOL
REMARK 927      BINDING AFFINITY PREDICTED BY RF-SCORE:    0.00 PKD
ROOT
HETATM    1  O   UNL     1      -8.378  12.314  68.481  1.00  0.00    -0.237 OA 
HETATM    2  C   UNL     1      -9.765  12.073  68.756  1.00  0.00    -0.016 C  
HETATM    3  H   UNL     1      -7.839  11.762  69.035  1.00  0.00     0.000 HD 
ENDROOT
BRANCH   2   4
HETATM    4  C   UNL     1      -9.977  10.584  68.585  1.00  0.00    -0.188 A  
HETATM    5  C   UNL     1     -10.528   7.850  68.247  1.00  0.00    -0.164 A  
HETATM    6  C   UNL     1     -10.044  10.021  67.299  1.00  0.00    -0.259 A  
HETATM    7  O   UNL     1     -10.978   6.008  66.909  1.00  0.00    -0.318 OA 
HETATM    8  O   UNL     1     -11.027   5.744  69.086  1.00  0.00    -0.320 OA 
HETATM    9  C   UNL     1     -10.171   9.747  69.699  1.00  0.00    -0.254 A  
HETATM   10  C   UNL     1     -10.318   8.661  67.125  1.00  0.00    -0.369 A  
HETATM   11  N   UNL     1     -10.868   6.433  68.068  1.00  0.00    -0.294 N  
HETATM   12  C   UNL     1     -10.444   8.386  69.537  1.00  0.00    -0.225 A  
ENDBRANCH   2   4
BRANCH   2  13
HETATM   13  C   UNL     1     -10.648  12.977  67.851  1.00  0.00    -0.229 C  
BRANCH  13  14
HETATM   14  N   UNL     1      -9.862  14.164  67.437  1.00  0.00    -0.236 N  
HETATM   15  C   UNL     1      -9.317  16.151  66.030  1.00  0.00    -0.333 C  
HETATM   16  C   UNL     1     -10.129  14.871  66.277  1.00  0.00    -0.283 C  
HETATM   17  H   UNL     1      -9.093  14.474  68.032  1.00  0.00     0.000 HD 
HETATM   18  O   UNL     1     -11.002  14.508  65.488  1.00  0.00    -0.308 OA 
HETATM   19 CL   UNL     1      -7.767  16.126  66.897  1.00  0.00    -0.262 Cl 
HETATM   20 CL   UNL     1     -10.285  17.554  66.518  1.00  0.00    -0.334 Cl 
ENDBRANCH  13  14
BRANCH  13  21
HETATM   21  C   UNL     1     -11.950  13.375  68.582  1.00  0.00    -0.327 C  
BRANCH  21  22
HETATM   22  O   UNL     1     -11.728  13.667  69.975  1.00  0.00    -0.284 OA 
BRANCH  22  23
HETATM   23  C   UNL     1     -11.723  14.986  70.303  1.00  0.00    -0.294 C  
HETATM   24  O   UNL     1     -10.772  15.744  70.159  1.00  0.00    -0.308 OA 
BRANCH  23  25
HETATM   25  C   UNL     1     -13.056  15.411  70.858  1.00  0.00    -0.528 C  
BRANCH  25  26
HETATM   26  C   UNL     1     -13.440  14.596  72.078  1.00  0.00    -0.476 C  
HETATM   27  C   UNL     1     -12.954  15.209  73.368  1.00  0.00    -0.518 C  
HETATM   28  O   UNL     1     -13.519  16.397  73.664  1.00  0.00    -0.631 OA 
HETATM   29  O   UNL     1     -12.142  14.664  74.099  1.00  0.00    -0.463 OA 
ENDBRANCH  25  26
ENDBRANCH  23  25
ENDBRANCH  22  23
ENDBRANCH  21  22
ENDBRANCH  13  21
ENDBRANCH   2  13
TORSDOF 8
ENDMDL
MODEL       80
REMARK 921   NORMALIZED FREE ENERGY PREDICTED BY IDOCK:   -5.55 KCAL/MOL
REMARK 922        TOTAL FREE ENERGY PREDICTED BY IDOCK:   -9.62 KCAL/MOL
REMARK 923 INTER-LIGAND FREE ENERGY PREDICTED BY IDOCK:   -8.18 KCAL/MOL
REMARK 924 INTRA-LIGAND FREE ENERGY PREDICTED BY IDOCK:   -1.44 KCAL/MOL
REMARK 927      BINDING AFFINITY PREDICTED BY RF-SCORE:    0.00 PKD
ROOT
HETATM    1  O   UNL     1     -11.587  12.974  63.976  1.00  0.00    -0.379 OA 
HETATM    2  C   UNL     1     -10.726  13.563  64.961  1.00  0.00    -0.357 C  
HETATM    3  H   UNL     1     -11.102  12.337  63.465  1.00  0.00     0.000 HD 
ENDROOT
BRANCH   2   4
HETATM    4  C   UNL     1     -10.138  12.412  65.751  1.00  0.00    -0.273 A  
HETATM    5  C   UNL     1      -9.155  10.311  67.334  1.00  0.00    -0.138 A  
HETATM    6  C   UNL     1     -10.746  11.146  65.716  1.00  0.00    -0.252 A  
HETATM    7  O   UNL     1      -9.290   8.152  68.175  1.00  0.00    -0.134 OA 
HETATM    8  O   UNL     1      -7.682   9.450  68.907  1.00  0.00    -0.074 OA 
HETATM    9  C   UNL     1      -9.017  12.601  66.579  1.00  0.00    -0.115 A  
HETATM   10  C   UNL     1     -10.261  10.096  66.502  1.00  0.00    -0.288 A  
HETATM   11  N   UNL     1      -8.675   9.227  68.200  1.00  0.00    -0.125 N  
HETATM   12  C   UNL     1      -8.522  11.559  67.367  1.00  0.00    -0.147 A  
ENDBRANCH   2   4
BRANCH   2  13
HETATM   13  C   UNL     1     -11.518  14.606  65.798  1.00  0.00    -0.338 C  
BRANCH  13  14
HETATM   14  N   UNL     1     -10.614  15.723  66.162  1.00  0.00    -0.311 N  
HETATM   15  C   UNL     1      -9.683  18.033  66.016  1.00  0.00    -0.118 C  
HETATM   16  C   UNL     1     -10.577  16.916  65.460  1.00  0.00    -0.202 C  
HETATM   17  H   UNL     1      -9.993  15.608  66.964  1.00  0.00     0.000 HD 
HETATM   18  O   UNL     1     -11.256  17.088  64.447  1.00  0.00    -1.167 OA 
HETATM   19 CL   UNL     1      -8.378  17.388  67.034  1.00  0.00    -0.227 Cl 
HETATM   20 CL   UNL     1     -10.684  19.176  66.930  1.00  0.00    -0.531 Cl 
ENDBRANCH  13  14
BRANCH  13  21
HETATM   21  C   UNL     1     -12.143  13.942  67.046  1.00  0.00    -0.415 C  
BRANCH  21  22
HETATM   22  O   UNL     1     -11.461  14.309  68.261  1.00  0.00    -0.272 OA 
BRANCH  22  23
HETATM   23  C   UNL     1     -11.942  13.739  69.396  1.00  0.00    -0.347 C  
HETATM   24  O   UNL     1     -12.848  14.192  70.084  1.00  0.00    -0.267 OA 
BRANCH  23  25
HETATM   25  C   UNL     1     -11.223  12.452  69.702  1.00  0.00    -0.106 C  
BRANCH  25  26
HETATM   26  C   UNL     1     -12.153  11.258  69.621  1.00  0.00    -0.391 C  
HETATM   27  C   UNL     1     -12.424  10.633  70.967  1.00  0.00    -0.413 C  
HETATM   28  O   UNL     1     -13.101  11.429  71.820  1.00  0.00    -0.480 OA 
HETATM   29  O   UNL     1     -12.088   9.495  71.253  1.00  0.00    -0.313 OA 
ENDBRANCH  25  26
ENDBRANCH  23  25
ENDBRANCH  22  23
ENDBRANCH  21  22
ENDBRANCH  13  21
ENDBRANCH   2  13
TORSDOF 8
ENDMDL
MODEL       81
REMARK 921   NORMALIZED FREE ENERGY PREDICTED BY IDOCK:   -5.55 KCAL/MOL
REMARK 922        TOTAL FREE ENERGY PREDICTED BY IDOCK:   -9.61 KCAL/MOL
REMARK 923 INTER-LIGAND FREE ENERGY PREDICTED BY IDOCK:   -8.35 KCAL/MOL
REMARK 924 INTRA-LIGAND FREE ENERGY PREDICTED BY IDOCK:   -1.26 KCAL/MOL
REMARK 927      BINDING AFFINITY PREDICTED BY RF-SCORE:    0.00 PKD
ROOT
HETATM    1  O   UNL     1     -12.058  13.408  67.228  1.00  0.00    -0.361 OA 
HETATM    2  C   UNL     1     -10.931  12.522  67.292  1.00  0.00    -0.261 C  
HETATM    3  H   UNL     1     -12.860  12.904  67.166  1.00  0.00     0.000 HD 
ENDROOT
BRANCH   2   4
HETATM    4  C   UNL     1     -11.197  11.584  68.451  1.00  0.00    -0.314 A  
HETATM    5  C   UNL     1     -11.816   9.786  70.518  1.00  0.00    -0.240 A  
HETATM    6  C   UNL     1     -10.726  10.260  68.412  1.00  0.00    -0.263 A  
HETATM    7  O   UNL     1     -11.794   7.661  71.450  1.00  0.00    -0.278 OA 
HETATM    8  O   UNL     1     -12.863   9.250  72.519  1.00  0.00    -0.370 OA 
HETATM    9  C   UNL     1     -11.967  11.995  69.554  1.00  0.00    -0.346 A  
HETATM   10  C   UNL     1     -11.031   9.361  69.438  1.00  0.00    -0.165 A  
HETATM   11  N   UNL     1     -12.184   8.830  71.571  1.00  0.00    -0.313 N  
HETATM   12  C   UNL     1     -12.276  11.105  70.586  1.00  0.00    -0.492 A  
ENDBRANCH   2   4
BRANCH   2  13
HETATM   13  C   UNL     1      -9.617  13.346  67.394  1.00  0.00    -0.223 C  
BRANCH  13  14
HETATM   14  N   UNL     1      -8.644  12.605  68.233  1.00  0.00    -0.209 N  
HETATM   15  C   UNL     1      -6.384  12.023  69.116  1.00  0.00    -0.093 C  
HETATM   16  C   UNL     1      -7.275  12.759  68.104  1.00  0.00    -0.115 C  
HETATM   17  H   UNL     1      -8.999  11.955  68.935  1.00  0.00     0.000 HD 
HETATM   18  O   UNL     1      -6.787  13.479  67.232  1.00  0.00    -0.166 OA 
HETATM   19 CL   UNL     1      -7.209  10.614  69.817  1.00  0.00    -0.152 Cl 
HETATM   20 CL   UNL     1      -5.892  13.157  70.386  1.00  0.00    -0.166 Cl 
ENDBRANCH  13  14
BRANCH  13  21
HETATM   21  C   UNL     1      -9.901  14.758  67.954  1.00  0.00    -0.212 C  
BRANCH  21  22
HETATM   22  O   UNL     1     -10.388  14.721  69.310  1.00  0.00    -0.233 OA 
BRANCH  22  23
HETATM   23  C   UNL     1     -10.953  15.873  69.759  1.00  0.00    -0.328 C  
HETATM   24  O   UNL     1     -10.593  17.002  69.449  1.00  0.00    -0.335 OA 
BRANCH  23  25
HETATM   25  C   UNL     1     -12.102  15.586  70.688  1.00  0.00    -0.430 C  
BRANCH  25  26
HETATM   26  C   UNL     1     -11.627  15.334  72.105  1.00  0.00    -0.535 C  
HETATM   27  C   UNL     1     -12.750  15.348  73.112  1.00  0.00    -0.479 C  
HETATM   28  O   UNL     1     -13.642  14.349  72.959  1.00  0.00    -0.619 OA 
HETATM   29  O   UNL     1     -12.831  16.173  74.008  1.00  0.00    -0.653 OA 
ENDBRANCH  25  26
ENDBRANCH  23  25
ENDBRANCH  22  23
ENDBRANCH  21  22
ENDBRANCH  13  21
ENDBRANCH   2  13
TORSDOF 8
ENDMDL
MODEL       82
REMARK 921   NORMALIZED FREE ENERGY PREDICTED BY IDOCK:   -5.54 KCAL/MOL
REMARK 922        TOTAL FREE ENERGY PREDICTED BY IDOCK:   -9.59 KCAL/MOL
REMARK 923 INTER-LIGAND FREE ENERGY PREDICTED BY IDOCK:   -8.62 KCAL/MOL
REMARK 924 INTRA-LIGAND FREE ENERGY PREDICTED BY IDOCK:   -0.98 KCAL/MOL
REMARK 927      BINDING AFFINITY PREDICTED BY RF-SCORE:    0.00 PKD
ROOT
HETATM    1  O   UNL     1      -8.998  10.581  69.584  1.00  0.00    -0.379 OA 
HETATM    2  C   UNL     1     -10.285   9.948  69.564  1.00  0.00    -0.225 C  
HETATM    3  H   UNL     1      -8.329   9.945  69.808  1.00  0.00     0.000 HD 
ENDROOT
BRANCH   2   4
HETATM    4  C   UNL     1     -10.165   8.776  68.613  1.00  0.00    -0.214 A  
HETATM    5  C   UNL     1      -9.827   6.543  66.944  1.00  0.00    -0.164 A  
HETATM    6  C   UNL     1     -10.847   7.576  68.877  1.00  0.00    -0.063 A  
HETATM    7  O   UNL     1     -10.187   4.310  66.423  1.00  0.00    -0.213 OA 
HETATM    8  O   UNL     1      -8.861   5.476  65.122  1.00  0.00    -0.149 OA 
HETATM    9  C   UNL     1      -9.326   8.843  67.485  1.00  0.00    -0.160 A  
HETATM   10  C   UNL     1     -10.682   6.461  68.050  1.00  0.00    -0.362 A  
HETATM   11  N   UNL     1      -9.610   5.358  66.103  1.00  0.00    -0.158 N  
HETATM   12  C   UNL     1      -9.156   7.735  66.650  1.00  0.00    -0.195 A  
ENDBRANCH   2   4
BRANCH   2  13
HETATM   13  C   UNL     1     -11.380  10.989  69.199  1.00  0.00    -0.280 C  
BRANCH  13  14
HETATM   14  N   UNL     1     -10.759  12.097  68.434  1.00  0.00    -0.220 N  
HETATM   15  C   UNL     1     -10.523  13.689  66.527  1.00  0.00    -0.281 C  
HETATM   16  C   UNL     1     -11.168  12.447  67.158  1.00  0.00    -0.298 C  
HETATM   17  H   UNL     1     -10.000  12.625  68.865  1.00  0.00     0.000 HD 
HETATM   18  O   UNL     1     -12.035  11.806  66.561  1.00  0.00    -0.545 OA 
HETATM   19 CL   UNL     1      -8.936  14.043  67.242  1.00  0.00    -0.209 Cl 
HETATM   20 CL   UNL     1     -11.618  15.071  66.719  1.00  0.00    -0.267 Cl 
ENDBRANCH  13  14
BRANCH  13  21
HETATM   21  C   UNL     1     -12.094  11.498  70.471  1.00  0.00    -0.378 C  
BRANCH  21  22
HETATM   22  O   UNL     1     -12.462  12.888  70.373  1.00  0.00    -0.267 OA 
BRANCH  22  23
HETATM   23  C   UNL     1     -13.199  13.372  71.407  1.00  0.00    -0.250 C  
HETATM   24  O   UNL     1     -13.622  12.705  72.343  1.00  0.00    -0.550 OA 
BRANCH  23  25
HETATM   25  C   UNL     1     -13.422  14.854  71.267  1.00  0.00    -0.500 C  
BRANCH  25  26
HETATM   26  C   UNL     1     -13.800  15.491  72.590  1.00  0.00    -0.654 C  
HETATM   27  C   UNL     1     -12.601  15.841  73.436  1.00  0.00    -0.545 C  
HETATM   28  O   UNL     1     -11.810  16.797  72.907  1.00  0.00    -0.460 OA 
HETATM   29  O   UNL     1     -12.379  15.327  74.520  1.00  0.00    -0.629 OA 
ENDBRANCH  25  26
ENDBRANCH  23  25
ENDBRANCH  22  23
ENDBRANCH  21  22
ENDBRANCH  13  21
ENDBRANCH   2  13
TORSDOF 8
ENDMDL
MODEL       83
REMARK 921   NORMALIZED FREE ENERGY PREDICTED BY IDOCK:   -5.53 KCAL/MOL
REMARK 922        TOTAL FREE ENERGY PREDICTED BY IDOCK:   -9.58 KCAL/MOL
REMARK 923 INTER-LIGAND FREE ENERGY PREDICTED BY IDOCK:   -8.68 KCAL/MOL
REMARK 924 INTRA-LIGAND FREE ENERGY PREDICTED BY IDOCK:   -0.90 KCAL/MOL
REMARK 927      BINDING AFFINITY PREDICTED BY RF-SCORE:    0.00 PKD
ROOT
HETATM    1  O   UNL     1     -12.292  12.230  65.959  1.00  0.00    -0.609 OA 
HETATM    2  C   UNL     1     -10.886  11.972  65.845  1.00  0.00    -0.288 C  
HETATM    3  H   UNL     1     -12.784  11.483  65.642  1.00  0.00     0.000 HD 
ENDROOT
BRANCH   2   4
HETATM    4  C   UNL     1     -10.634  10.673  66.582  1.00  0.00    -0.276 A  
HETATM    5  C   UNL     1     -10.037   8.334  68.018  1.00  0.00    -0.198 A  
HETATM    6  C   UNL     1     -11.089  10.508  67.901  1.00  0.00    -0.367 A  
HETATM    7  O   UNL     1     -10.055   7.074  69.967  1.00  0.00    -0.184 OA 
HETATM    8  O   UNL     1      -9.026   6.254  68.212  1.00  0.00    -0.117 OA 
HETATM    9  C   UNL     1      -9.891   9.636  65.989  1.00  0.00    -0.345 A  
HETATM   10  C   UNL     1     -10.795   9.346  68.621  1.00  0.00    -0.149 A  
HETATM   11  N   UNL     1      -9.681   7.135  68.787  1.00  0.00    -0.144 N  
HETATM   12  C   UNL     1      -9.593   8.469  66.698  1.00  0.00    -0.292 A  
ENDBRANCH   2   4
BRANCH   2  13
HETATM   13  C   UNL     1     -10.080  13.195  66.363  1.00  0.00    -0.281 C  
BRANCH  13  14
HETATM   14  N   UNL     1     -10.615  13.604  67.684  1.00  0.00    -0.240 N  
HETATM   15  C   UNL     1     -10.566  14.746  69.902  1.00  0.00    -0.064 C  
HETATM   16  C   UNL     1      -9.854  14.276  68.625  1.00  0.00    -0.228 C  
HETATM   17  H   UNL     1     -11.586  13.381  67.909  1.00  0.00     0.000 HD 
HETATM   18  O   UNL     1      -8.660  14.515  68.437  1.00  0.00    -0.160 OA 
HETATM   19 CL   UNL     1     -12.019  13.782  70.239  1.00  0.00    -0.398 Cl 
HETATM   20 CL   UNL     1     -10.978  16.463  69.737  1.00  0.00    -0.351 Cl 
ENDBRANCH  13  14
BRANCH  13  21
HETATM   21  C   UNL     1     -10.127  14.352  65.340  1.00  0.00    -0.359 C  
BRANCH  21  22
HETATM   22  O   UNL     1     -11.188  15.286  65.619  1.00  0.00    -0.323 OA 
BRANCH  22  23
HETATM   23  C   UNL     1     -10.993  16.548  65.154  1.00  0.00    -0.191 C  
HETATM   24  O   UNL     1     -11.446  16.991  64.106  1.00  0.00    -1.135 OA 
BRANCH  23  25
HETATM   25  C   UNL     1     -10.152  17.354  66.108  1.00  0.00    -0.309 C  
BRANCH  25  26
HETATM   26  C   UNL     1     -10.430  18.838  65.983  1.00  0.00    -0.483 C  
HETATM   27  C   UNL     1      -9.287  19.692  66.472  1.00  0.00    -0.384 C  
HETATM   28  O   UNL     1      -8.160  19.579  65.741  1.00  0.00    -0.424 OA 
HETATM   29  O   UNL     1      -9.380  20.445  67.429  1.00  0.00    -0.379 OA 
ENDBRANCH  25  26
ENDBRANCH  23  25
ENDBRANCH  22  23
ENDBRANCH  21  22
ENDBRANCH  13  21
ENDBRANCH   2  13
TORSDOF 8
ENDMDL
MODEL       84
REMARK 921   NORMALIZED FREE ENERGY PREDICTED BY IDOCK:   -5.52 KCAL/MOL
REMARK 922        TOTAL FREE ENERGY PREDICTED BY IDOCK:   -9.56 KCAL/MOL
REMARK 923 INTER-LIGAND FREE ENERGY PREDICTED BY IDOCK:   -8.30 KCAL/MOL
REMARK 924 INTRA-LIGAND FREE ENERGY PREDICTED BY IDOCK:   -1.26 KCAL/MOL
REMARK 927      BINDING AFFINITY PREDICTED BY RF-SCORE:    0.00 PKD
ROOT
HETATM    1  O   UNL     1     -11.153  12.249  69.867  1.00  0.00    -0.479 OA 
HETATM    2  C   UNL     1     -11.402  10.948  69.319  1.00  0.00    -0.277 C  
HETATM    3  H   UNL     1     -11.574  12.328  70.714  1.00  0.00     0.000 HD 
ENDROOT
BRANCH   2   4
HETATM    4  C   UNL     1     -10.940   9.954  70.364  1.00  0.00    -0.379 A  
HETATM    5  C   UNL     1     -10.083   8.232  72.411  1.00  0.00    -0.312 A  
HETATM    6  C   UNL     1     -11.871   9.350  71.227  1.00  0.00    -0.435 A  
HETATM    7  O   UNL     1     -10.493   6.922  74.283  1.00  0.00    -0.312 OA 
HETATM    8  O   UNL     1      -8.417   7.151  73.612  1.00  0.00    -0.125 OA 
HETATM    9  C   UNL     1      -9.574   9.663  70.533  1.00  0.00    -0.261 A  
HETATM   10  C   UNL     1     -11.450   8.493  72.248  1.00  0.00    -0.445 A  
HETATM   11  N   UNL     1      -9.633   7.374  73.514  1.00  0.00    -0.243 N  
HETATM   12  C   UNL     1      -9.143   8.805  71.548  1.00  0.00    -0.322 A  
ENDBRANCH   2   4
BRANCH   2  13
HETATM   13  C   UNL     1     -10.714  10.818  67.932  1.00  0.00    -0.239 C  
BRANCH  13  14
HETATM   14  N   UNL     1     -11.363  11.750  66.979  1.00  0.00    -0.323 N  
HETATM   15  C   UNL     1     -11.604  13.010  64.839  1.00  0.00    -0.326 C  
HETATM   16  C   UNL     1     -10.771  12.136  65.788  1.00  0.00    -0.267 C  
HETATM   17  H   UNL     1     -12.285  12.123  67.210  1.00  0.00     0.000 HD 
HETATM   18  O   UNL     1      -9.634  11.771  65.485  1.00  0.00    -0.228 OA 
HETATM   19 CL   UNL     1     -12.870  13.905  65.706  1.00  0.00    -0.512 Cl 
HETATM   20 CL   UNL     1     -12.313  11.984  63.579  1.00  0.00    -0.670 Cl 
ENDBRANCH  13  14
BRANCH  13  21
HETATM   21  C   UNL     1     -10.765   9.357  67.432  1.00  0.00    -0.210 C  
BRANCH  21  22
HETATM   22  O   UNL     1      -9.452   8.813  67.195  1.00  0.00    -0.150 OA 
BRANCH  22  23
HETATM   23  C   UNL     1      -9.422   7.612  66.560  1.00  0.00    -0.190 C  
HETATM   24  O   UNL     1      -8.508   7.213  65.849  1.00  0.00    -0.137 OA 
BRANCH  23  25
HETATM   25  C   UNL     1     -10.663   6.812  66.855  1.00  0.00    -0.394 C  
BRANCH  25  26
HETATM   26  C   UNL     1     -10.357   5.597  67.707  1.00  0.00    -0.260 C  
HETATM   27  C   UNL     1     -10.299   5.913  69.180  1.00  0.00    -0.238 C  
HETATM   28  O   UNL     1     -11.476   6.307  69.708  1.00  0.00    -0.430 OA 
HETATM   29  O   UNL     1      -9.284   5.795  69.848  1.00  0.00    -0.141 OA 
ENDBRANCH  25  26
ENDBRANCH  23  25
ENDBRANCH  22  23
ENDBRANCH  21  22
ENDBRANCH  13  21
ENDBRANCH   2  13
TORSDOF 8
ENDMDL
MODEL       85
REMARK 921   NORMALIZED FREE ENERGY PREDICTED BY IDOCK:   -5.52 KCAL/MOL
REMARK 922        TOTAL FREE ENERGY PREDICTED BY IDOCK:   -9.56 KCAL/MOL
REMARK 923 INTER-LIGAND FREE ENERGY PREDICTED BY IDOCK:   -8.72 KCAL/MOL
REMARK 924 INTRA-LIGAND FREE ENERGY PREDICTED BY IDOCK:   -0.85 KCAL/MOL
REMARK 927      BINDING AFFINITY PREDICTED BY RF-SCORE:    0.00 PKD
ROOT
HETATM    1  O   UNL     1      -9.393  11.658  68.552  1.00  0.00    -0.195 OA 
HETATM    2  C   UNL     1      -9.930  11.231  67.292  1.00  0.00    -0.183 C  
HETATM    3  H   UNL     1      -8.757  12.348  68.414  1.00  0.00     0.000 HD 
ENDROOT
BRANCH   2   4
HETATM    4  C   UNL     1     -10.465  12.477  66.618  1.00  0.00    -0.252 A  
HETATM    5  C   UNL     1     -11.415  14.723  65.225  1.00  0.00    -0.352 A  
HETATM    6  C   UNL     1     -11.764  12.489  66.080  1.00  0.00    -0.472 A  
HETATM    7  O   UNL     1     -13.022  15.803  63.945  1.00  0.00    -0.463 OA 
HETATM    8  O   UNL     1     -11.140  16.855  64.349  1.00  0.00    -1.128 OA 
HETATM    9  C   UNL     1      -9.659  13.619  66.462  1.00  0.00    -0.294 A  
HETATM   10  C   UNL     1     -12.241  13.604  65.385  1.00  0.00    -0.474 A  
HETATM   11  N   UNL     1     -11.894  15.876  64.451  1.00  0.00    -0.246 N  
HETATM   12  C   UNL     1     -10.127  14.740  65.772  1.00  0.00    -0.364 A  
ENDBRANCH   2   4
BRANCH   2  13
HETATM   13  C   UNL     1     -10.971  10.100  67.517  1.00  0.00    -0.255 C  
BRANCH  13  14
HETATM   14  N   UNL     1     -11.088   9.830  68.970  1.00  0.00    -0.403 N  
HETATM   15  C   UNL     1     -11.957  10.175  71.284  1.00  0.00    -0.382 C  
HETATM   16  C   UNL     1     -11.820  10.636  69.825  1.00  0.00    -0.304 C  
HETATM   17  H   UNL     1     -10.609   9.016  69.357  1.00  0.00     0.000 HD 
HETATM   18  O   UNL     1     -12.367  11.667  69.429  1.00  0.00    -0.212 OA 
HETATM   19 CL   UNL     1     -10.632   9.092  71.760  1.00  0.00    -0.424 Cl 
HETATM   20 CL   UNL     1     -13.525   9.376  71.494  1.00  0.00    -0.440 Cl 
ENDBRANCH  13  14
BRANCH  13  21
HETATM   21  C   UNL     1     -10.579   8.832  66.726  1.00  0.00    -0.150 C  
BRANCH  21  22
HETATM   22  O   UNL     1      -9.855   7.884  67.536  1.00  0.00    -0.150 OA 
BRANCH  22  23
HETATM   23  C   UNL     1     -10.276   6.595  67.443  1.00  0.00    -0.190 C  
HETATM   24  O   UNL     1     -10.098   5.864  66.477  1.00  0.00    -0.172 OA 
BRANCH  23  25
HETATM   25  C   UNL     1     -10.985   6.165  68.699  1.00  0.00    -0.415 C  
BRANCH  25  26
HETATM   26  C   UNL     1     -10.065   6.203  69.903  1.00  0.00    -0.227 C  
HETATM   27  C   UNL     1     -10.279   5.041  70.841  1.00  0.00    -0.217 C  
HETATM   28  O   UNL     1      -9.964   3.840  70.316  1.00  0.00    -0.134 OA 
HETATM   29  O   UNL     1     -10.673   5.176  71.989  1.00  0.00    -0.218 OA 
ENDBRANCH  25  26
ENDBRANCH  23  25
ENDBRANCH  22  23
ENDBRANCH  21  22
ENDBRANCH  13  21
ENDBRANCH   2  13
TORSDOF 8
ENDMDL
MODEL       86
REMARK 921   NORMALIZED FREE ENERGY PREDICTED BY IDOCK:   -5.51 KCAL/MOL
REMARK 922        TOTAL FREE ENERGY PREDICTED BY IDOCK:   -9.56 KCAL/MOL
REMARK 923 INTER-LIGAND FREE ENERGY PREDICTED BY IDOCK:   -8.88 KCAL/MOL
REMARK 924 INTRA-LIGAND FREE ENERGY PREDICTED BY IDOCK:   -0.68 KCAL/MOL
REMARK 927      BINDING AFFINITY PREDICTED BY RF-SCORE:    0.00 PKD
ROOT
HETATM    1  O   UNL     1     -13.078  13.557  65.329  1.00  0.00    -0.713 OA 
HETATM    2  C   UNL     1     -11.677  13.843  65.451  1.00  0.00    -0.340 C  
HETATM    3  H   UNL     1     -13.222  12.956  64.609  1.00  0.00     0.000 HD 
ENDROOT
BRANCH   2   4
HETATM    4  C   UNL     1     -10.982  12.504  65.578  1.00  0.00    -0.322 A  
HETATM    5  C   UNL     1      -9.808   9.956  65.718  1.00  0.00    -0.287 A  
HETATM    6  C   UNL     1     -10.091  12.071  64.581  1.00  0.00    -0.291 A  
HETATM    7  O   UNL     1      -8.508   8.255  64.822  1.00  0.00    -0.148 OA 
HETATM    8  O   UNL     1      -9.512   7.893  66.738  1.00  0.00    -0.175 OA 
HETATM    9  C   UNL     1     -11.258  11.645  66.657  1.00  0.00    -0.362 A  
HETATM   10  C   UNL     1      -9.504  10.804  64.645  1.00  0.00    -0.297 A  
HETATM   11  N   UNL     1      -9.235   8.605  65.762  1.00  0.00    -0.206 N  
HETATM   12  C   UNL     1     -10.675  10.377  66.733  1.00  0.00    -0.235 A  
ENDBRANCH   2   4
BRANCH   2  13
HETATM   13  C   UNL     1     -11.440  14.827  66.630  1.00  0.00    -0.335 C  
BRANCH  13  14
HETATM   14  N   UNL     1      -9.983  14.937  66.885  1.00  0.00    -0.239 N  
HETATM   15  C   UNL     1      -7.736  16.018  66.800  1.00  0.00    -0.235 C  
HETATM   16  C   UNL     1      -9.206  15.955  66.360  1.00  0.00    -0.309 C  
HETATM   17  H   UNL     1      -9.535  14.233  67.472  1.00  0.00     0.000 HD 
HETATM   18  O   UNL     1      -9.678  16.796  65.593  1.00  0.00    -0.539 OA 
HETATM   19 CL   UNL     1      -7.143  14.435  67.344  1.00  0.00    -0.188 Cl 
HETATM   20 CL   UNL     1      -7.568  17.226  68.087  1.00  0.00    -0.204 Cl 
ENDBRANCH  13  14
BRANCH  13  21
HETATM   21  C   UNL     1     -12.210  14.367  67.888  1.00  0.00    -0.143 C  
BRANCH  21  22
HETATM   22  O   UNL     1     -11.333  14.095  68.998  1.00  0.00    -0.245 OA 
BRANCH  22  23
HETATM   23  C   UNL     1     -11.207  15.101  69.904  1.00  0.00    -0.283 C  
HETATM   24  O   UNL     1     -10.170  15.706  70.145  1.00  0.00    -0.302 OA 
BRANCH  23  25
HETATM   25  C   UNL     1     -12.523  15.396  70.573  1.00  0.00    -0.468 C  
BRANCH  25  26
HETATM   26  C   UNL     1     -12.779  14.461  71.739  1.00  0.00    -0.427 C  
HETATM   27  C   UNL     1     -12.936  15.189  73.050  1.00  0.00    -0.493 C  
HETATM   28  O   UNL     1     -14.023  15.985  73.115  1.00  0.00    -0.526 OA 
HETATM   29  O   UNL     1     -12.165  15.050  73.986  1.00  0.00    -0.570 OA 
ENDBRANCH  25  26
ENDBRANCH  23  25
ENDBRANCH  22  23
ENDBRANCH  21  22
ENDBRANCH  13  21
ENDBRANCH   2  13
TORSDOF 8
ENDMDL
MODEL       87
REMARK 921   NORMALIZED FREE ENERGY PREDICTED BY IDOCK:   -5.49 KCAL/MOL
REMARK 922        TOTAL FREE ENERGY PREDICTED BY IDOCK:   -9.52 KCAL/MOL
REMARK 923 INTER-LIGAND FREE ENERGY PREDICTED BY IDOCK:   -8.65 KCAL/MOL
REMARK 924 INTRA-LIGAND FREE ENERGY PREDICTED BY IDOCK:   -0.87 KCAL/MOL
REMARK 927      BINDING AFFINITY PREDICTED BY RF-SCORE:    0.00 PKD
ROOT
HETATM    1  O   UNL     1     -12.234  10.718  68.584  1.00  0.00    -0.813 OA 
HETATM    2  C   UNL     1     -11.187  11.663  68.845  1.00  0.00    -0.246 C  
HETATM    3  H   UNL     1     -13.061  11.173  68.483  1.00  0.00     0.000 HD 
ENDROOT
BRANCH   2   4
HETATM    4  C   UNL     1     -11.236  12.671  67.716  1.00  0.00    -0.319 A  
HETATM    5  C   UNL     1     -11.419  14.635  65.716  1.00  0.00    -0.338 A  
HETATM    6  C   UNL     1     -10.348  13.761  67.700  1.00  0.00    -0.239 A  
HETATM    7  O   UNL     1     -10.780  16.659  64.777  1.00  0.00    -0.721 OA 
HETATM    8  O   UNL     1     -12.418  15.549  63.831  1.00  0.00    -0.656 OA 
HETATM    9  C   UNL     1     -12.204  12.573  66.700  1.00  0.00    -0.012 A  
HETATM   10  C   UNL     1     -10.435  14.741  66.707  1.00  0.00    -0.282 A  
HETATM   11  N   UNL     1     -11.548  15.690  64.702  1.00  0.00    -0.320 N  
HETATM   12  C   UNL     1     -12.299  13.547  65.701  1.00  0.00    -0.522 A  
ENDBRANCH   2   4
BRANCH   2  13
HETATM   13  C   UNL     1      -9.833  10.919  69.011  1.00  0.00    -0.180 C  
BRANCH  13  14
HETATM   14  N   UNL     1      -9.263  10.645  67.669  1.00  0.00    -0.146 N  
HETATM   15  C   UNL     1      -9.177   9.592  65.409  1.00  0.00    -0.247 C  
HETATM   16  C   UNL     1      -9.788   9.690  66.814  1.00  0.00    -0.211 C  
HETATM   17  H   UNL     1      -8.451  11.181  67.363  1.00  0.00     0.000 HD 
HETATM   18  O   UNL     1     -10.726   8.968  67.153  1.00  0.00    -0.259 OA 
HETATM   19 CL   UNL     1      -7.518  10.224  65.365  1.00  0.00    -0.144 Cl 
HETATM   20 CL   UNL     1     -10.211  10.468  64.265  1.00  0.00    -0.390 Cl 
ENDBRANCH  13  14
BRANCH  13  21
HETATM   21  C   UNL     1     -10.019   9.624  69.832  1.00  0.00    -0.241 C  
BRANCH  21  22
HETATM   22  O   UNL     1     -10.841   9.829  70.998  1.00  0.00    -0.326 OA 
BRANCH  22  23
HETATM   23  C   UNL     1     -11.759   8.858  71.245  1.00  0.00    -0.306 C  
HETATM   24  O   UNL     1     -12.967   8.973  71.085  1.00  0.00    -0.262 OA 
BRANCH  23  25
HETATM   25  C   UNL     1     -11.096   7.597  71.731  1.00  0.00    -0.281 C  
BRANCH  25  26
HETATM   26  C   UNL     1     -10.744   7.681  73.203  1.00  0.00    -0.445 C  
HETATM   27  C   UNL     1      -9.262   7.563  73.459  1.00  0.00    -0.249 C  
HETATM   28  O   UNL     1      -8.532   8.582  72.962  1.00  0.00    -0.360 OA 
HETATM   29  O   UNL     1      -8.767   6.642  74.089  1.00  0.00    -0.134 OA 
ENDBRANCH  25  26
ENDBRANCH  23  25
ENDBRANCH  22  23
ENDBRANCH  21  22
ENDBRANCH  13  21
ENDBRANCH   2  13
TORSDOF 8
ENDMDL
MODEL       88
REMARK 921   NORMALIZED FREE ENERGY PREDICTED BY IDOCK:   -5.47 KCAL/MOL
REMARK 922        TOTAL FREE ENERGY PREDICTED BY IDOCK:   -9.50 KCAL/MOL
REMARK 923 INTER-LIGAND FREE ENERGY PREDICTED BY IDOCK:   -8.17 KCAL/MOL
REMARK 924 INTRA-LIGAND FREE ENERGY PREDICTED BY IDOCK:   -1.33 KCAL/MOL
REMARK 927      BINDING AFFINITY PREDICTED BY RF-SCORE:    0.00 PKD
ROOT
HETATM    1  O   UNL     1     -10.013   9.905  65.271  1.00  0.00    -0.318 OA 
HETATM    2  C   UNL     1     -10.453  10.599  66.447  1.00  0.00    -0.213 C  
HETATM    3  H   UNL     1     -10.639  10.033  64.569  1.00  0.00     0.000 HD 
ENDROOT
BRANCH   2   4
HETATM    4  C   UNL     1     -10.671  12.039  66.031  1.00  0.00    -0.317 A  
HETATM    5  C   UNL     1     -10.978  14.682  65.133  1.00  0.00    -0.386 A  
HETATM    6  C   UNL     1     -11.632  12.356  65.055  1.00  0.00    -0.392 A  
HETATM    7  O   UNL     1     -11.922  16.262  63.718  1.00  0.00    -0.973 OA 
HETATM    8  O   UNL     1     -10.382  16.925  65.131  1.00  0.00    -0.631 OA 
HETATM    9  C   UNL     1      -9.882  13.074  66.563  1.00  0.00    -0.263 A  
HETATM   10  C   UNL     1     -11.789  13.670  64.604  1.00  0.00    -0.427 A  
HETATM   11  N   UNL     1     -11.103  16.054  64.624  1.00  0.00    -0.433 N  
HETATM   12  C   UNL     1     -10.031  14.392  66.121  1.00  0.00    -0.328 A  
ENDBRANCH   2   4
BRANCH   2  13
HETATM   13  C   UNL     1      -9.429  10.390  67.597  1.00  0.00    -0.148 C  
BRANCH  13  14
HETATM   14  N   UNL     1      -8.558   9.236  67.268  1.00  0.00    -0.124 N  
HETATM   15  C   UNL     1      -6.395   8.016  67.027  1.00  0.00    -0.056 C  
HETATM   16  C   UNL     1      -7.176   9.316  67.268  1.00  0.00    -0.087 C  
HETATM   17  H   UNL     1      -8.996   8.345  67.032  1.00  0.00     0.000 HD 
HETATM   18  O   UNL     1      -6.593  10.380  67.482  1.00  0.00    -0.065 OA 
HETATM   19 CL   UNL     1      -7.365   6.818  66.144  1.00  0.00    -0.071 Cl 
HETATM   20 CL   UNL     1      -5.862   7.363  68.588  1.00  0.00    -0.023 Cl 
ENDBRANCH  13  14
BRANCH  13  21
HETATM   21  C   UNL     1     -10.156  10.196  68.946  1.00  0.00    -0.200 C  
BRANCH  21  22
HETATM   22  O   UNL     1     -11.516  10.672  68.909  1.00  0.00    -0.262 OA 
BRANCH  22  23
HETATM   23  C   UNL     1     -11.884  11.471  69.945  1.00  0.00    -0.355 C  
HETATM   24  O   UNL     1     -11.914  11.130  71.121  1.00  0.00    -0.255 OA 
BRANCH  23  25
HETATM   25  C   UNL     1     -12.242  12.852  69.464  1.00  0.00    -0.177 C  
BRANCH  25  26
HETATM   26  C   UNL     1     -11.880  13.912  70.485  1.00  0.00    -0.317 C  
HETATM   27  C   UNL     1     -13.090  14.550  71.121  1.00  0.00    -0.359 C  
HETATM   28  O   UNL     1     -13.828  13.710  71.874  1.00  0.00    -0.405 OA 
HETATM   29  O   UNL     1     -13.363  15.733  70.993  1.00  0.00    -0.580 OA 
ENDBRANCH  25  26
ENDBRANCH  23  25
ENDBRANCH  22  23
ENDBRANCH  21  22
ENDBRANCH  13  21
ENDBRANCH   2  13
TORSDOF 8
ENDMDL
MODEL       89
REMARK 921   NORMALIZED FREE ENERGY PREDICTED BY IDOCK:   -5.46 KCAL/MOL
REMARK 922        TOTAL FREE ENERGY PREDICTED BY IDOCK:   -9.48 KCAL/MOL
REMARK 923 INTER-LIGAND FREE ENERGY PREDICTED BY IDOCK:   -8.42 KCAL/MOL
REMARK 924 INTRA-LIGAND FREE ENERGY PREDICTED BY IDOCK:   -1.05 KCAL/MOL
REMARK 927      BINDING AFFINITY PREDICTED BY RF-SCORE:    0.00 PKD
ROOT
HETATM    1  O   UNL     1     -11.860  10.519  67.951  1.00  0.00    -0.731 OA 
HETATM    2  C   UNL     1     -10.741  11.389  68.174  1.00  0.00    -0.202 C  
HETATM    3  H   UNL     1     -12.669  11.010  68.021  1.00  0.00     0.000 HD 
ENDROOT
BRANCH   2   4
HETATM    4  C   UNL     1     -10.891  12.530  67.189  1.00  0.00    -0.282 A  
HETATM    5  C   UNL     1     -11.259  14.722  65.473  1.00  0.00    -0.346 A  
HETATM    6  C   UNL     1     -10.047  13.650  67.270  1.00  0.00    -0.239 A  
HETATM    7  O   UNL     1     -10.748  16.876  64.774  1.00  0.00    -0.758 OA 
HETATM    8  O   UNL     1     -12.394  15.825  63.776  1.00  0.00    -0.698 OA 
HETATM    9  C   UNL     1     -11.910  12.520  66.219  1.00  0.00    -0.453 A  
HETATM   10  C   UNL     1     -10.226  14.745  66.419  1.00  0.00    -0.299 A  
HETATM   11  N   UNL     1     -11.483  15.892  64.613  1.00  0.00    -0.340 N  
HETATM   12  C   UNL     1     -12.096  13.607  65.362  1.00  0.00    -0.429 A  
ENDBRANCH   2   4
BRANCH   2  13
HETATM   13  C   UNL     1      -9.416  10.585  68.061  1.00  0.00    -0.148 C  
BRANCH  13  14
HETATM   14  N   UNL     1      -9.727   9.190  67.668  1.00  0.00    -0.153 N  
HETATM   15  C   UNL     1      -9.465   7.087  66.350  1.00  0.00    -0.124 C  
HETATM   16  C   UNL     1      -9.146   8.573  66.573  1.00  0.00    -0.176 C  
HETATM   17  H   UNL     1     -10.397   8.661  68.229  1.00  0.00     0.000 HD 
HETATM   18  O   UNL     1      -8.381   9.180  65.822  1.00  0.00    -0.116 OA 
HETATM   19 CL   UNL     1     -11.002   6.622  67.110  1.00  0.00    -0.471 Cl 
HETATM   20 CL   UNL     1      -8.131   6.107  66.985  1.00  0.00    -0.105 Cl 
ENDBRANCH  13  14
BRANCH  13  21
HETATM   21  C   UNL     1      -8.626  10.647  69.387  1.00  0.00    -0.030 C  
BRANCH  21  22
HETATM   22  O   UNL     1      -8.384   9.339  69.941  1.00  0.00    -0.125 OA 
BRANCH  22  23
HETATM   23  C   UNL     1      -8.929   9.113  71.165  1.00  0.00    -0.179 C  
HETATM   24  O   UNL     1      -8.304   8.790  72.167  1.00  0.00    -0.351 OA 
BRANCH  23  25
HETATM   25  C   UNL     1     -10.419   9.327  71.142  1.00  0.00    -0.401 C  
BRANCH  25  26
HETATM   26  C   UNL     1     -11.150   8.116  70.595  1.00  0.00    -0.264 C  
HETATM   27  C   UNL     1     -12.164   7.557  71.562  1.00  0.00    -0.331 C  
HETATM   28  O   UNL     1     -13.196   8.385  71.821  1.00  0.00    -0.335 OA 
HETATM   29  O   UNL     1     -12.076   6.440  72.047  1.00  0.00    -0.335 OA 
ENDBRANCH  25  26
ENDBRANCH  23  25
ENDBRANCH  22  23
ENDBRANCH  21  22
ENDBRANCH  13  21
ENDBRANCH   2  13
TORSDOF 8
ENDMDL
MODEL       90
REMARK 921   NORMALIZED FREE ENERGY PREDICTED BY IDOCK:   -5.45 KCAL/MOL
REMARK 922        TOTAL FREE ENERGY PREDICTED BY IDOCK:   -9.47 KCAL/MOL
REMARK 923 INTER-LIGAND FREE ENERGY PREDICTED BY IDOCK:   -8.43 KCAL/MOL
REMARK 924 INTRA-LIGAND FREE ENERGY PREDICTED BY IDOCK:   -1.04 KCAL/MOL
REMARK 927      BINDING AFFINITY PREDICTED BY RF-SCORE:    0.00 PKD
ROOT
HETATM    1  O   UNL     1     -12.075  10.573  68.353  1.00  0.00    -0.804 OA 
HETATM    2  C   UNL     1     -11.530  11.349  67.277  1.00  0.00    -0.224 C  
HETATM    3  H   UNL     1     -11.998   9.648  68.155  1.00  0.00     0.000 HD 
ENDROOT
BRANCH   2   4
HETATM    4  C   UNL     1     -10.115  10.849  67.070  1.00  0.00    -0.244 A  
HETATM    5  C   UNL     1      -7.469   9.936  66.846  1.00  0.00    -0.092 A  
HETATM    6  C   UNL     1      -9.807   9.492  67.273  1.00  0.00    -0.228 A  
HETATM    7  O   UNL     1      -5.859   8.274  67.033  1.00  0.00    -0.043 OA 
HETATM    8  O   UNL     1      -5.205  10.293  66.478  1.00  0.00    -0.039 OA 
HETATM    9  C   UNL     1      -9.076  11.735  66.732  1.00  0.00    -0.194 A  
HETATM   10  C   UNL     1      -8.491   9.033  67.163  1.00  0.00    -0.113 A  
HETATM   11  N   UNL     1      -6.078   9.467  66.781  1.00  0.00    -0.063 N  
HETATM   12  C   UNL     1      -7.758  11.286  66.618  1.00  0.00    -0.148 A  
ENDBRANCH   2   4
BRANCH   2  13
HETATM   13  C   UNL     1     -11.656  12.863  67.600  1.00  0.00    -0.355 C  
BRANCH  13  14
HETATM   14  N   UNL     1     -12.133  13.024  68.995  1.00  0.00    -0.244 N  
HETATM   15  C   UNL     1     -12.291  14.118  71.231  1.00  0.00    -0.369 C  
HETATM   16  C   UNL     1     -11.625  13.982  69.855  1.00  0.00    -0.254 C  
HETATM   17  H   UNL     1     -12.868  12.402  69.335  1.00  0.00     0.000 HD 
HETATM   18  O   UNL     1     -10.694  14.717  69.522  1.00  0.00    -0.241 OA 
HETATM   19 CL   UNL     1     -13.115  12.621  71.716  1.00  0.00    -0.501 Cl 
HETATM   20 CL   UNL     1     -13.432  15.475  71.190  1.00  0.00    -0.573 Cl 
ENDBRANCH  13  14
BRANCH  13  21
HETATM   21  C   UNL     1     -12.593  13.561  66.588  1.00  0.00    -0.058 C  
BRANCH  21  22
HETATM   22  O   UNL     1     -12.506  12.980  65.272  1.00  0.00    -0.468 OA 
BRANCH  22  23
HETATM   23  C   UNL     1     -12.047  13.808  64.297  1.00  0.00    -0.440 C  
HETATM   24  O   UNL     1     -12.577  13.975  63.206  1.00  0.00    -0.801 OA 
BRANCH  23  25
HETATM   25  C   UNL     1     -10.793  14.518  64.735  1.00  0.00    -0.410 C  
BRANCH  25  26
HETATM   26  C   UNL     1     -11.027  16.004  64.921  1.00  0.00    -0.399 C  
HETATM   27  C   UNL     1     -10.165  16.602  66.004  1.00  0.00    -0.351 C  
HETATM   28  O   UNL     1      -8.844  16.582  65.734  1.00  0.00    -0.474 OA 
HETATM   29  O   UNL     1     -10.622  17.091  67.025  1.00  0.00    -0.303 OA 
ENDBRANCH  25  26
ENDBRANCH  23  25
ENDBRANCH  22  23
ENDBRANCH  21  22
ENDBRANCH  13  21
ENDBRANCH   2  13
TORSDOF 8
ENDMDL
MODEL       91
REMARK 921   NORMALIZED FREE ENERGY PREDICTED BY IDOCK:   -5.42 KCAL/MOL
REMARK 922        TOTAL FREE ENERGY PREDICTED BY IDOCK:   -9.43 KCAL/MOL
REMARK 923 INTER-LIGAND FREE ENERGY PREDICTED BY IDOCK:   -8.18 KCAL/MOL
REMARK 924 INTRA-LIGAND FREE ENERGY PREDICTED BY IDOCK:   -1.25 KCAL/MOL
REMARK 927      BINDING AFFINITY PREDICTED BY RF-SCORE:    0.00 PKD
ROOT
HETATM    1  O   UNL     1     -12.969  14.112  66.631  1.00  0.00    -0.335 OA 
HETATM    2  C   UNL     1     -12.128  14.136  67.792  1.00  0.00    -0.286 C  
HETATM    3  H   UNL     1     -13.473  14.915  66.581  1.00  0.00     0.000 HD 
ENDROOT
BRANCH   2   4
HETATM    4  C   UNL     1     -11.310  15.407  67.696  1.00  0.00    -0.292 A  
HETATM    5  C   UNL     1      -9.660  17.675  67.543  1.00  0.00    -0.267 A  
HETATM    6  C   UNL     1     -10.689  15.759  66.485  1.00  0.00    -0.283 A  
HETATM    7  O   UNL     1      -8.186  19.054  66.398  1.00  0.00    -0.290 OA 
HETATM    8  O   UNL     1      -8.615  19.514  68.499  1.00  0.00    -0.348 OA 
HETATM    9  C   UNL     1     -11.105  16.223  68.823  1.00  0.00    -0.355 A  
HETATM   10  C   UNL     1      -9.867  16.887  66.404  1.00  0.00    -0.319 A  
HETATM   11  N   UNL     1      -8.756  18.830  67.475  1.00  0.00    -0.273 N  
HETATM   12  C   UNL     1     -10.287  17.354  68.752  1.00  0.00    -0.357 A  
ENDBRANCH   2   4
BRANCH   2  13
HETATM   13  C   UNL     1     -11.303  12.822  67.874  1.00  0.00    -0.293 C  
BRANCH  13  14
HETATM   14  N   UNL     1     -11.131  12.271  66.508  1.00  0.00    -0.283 N  
HETATM   15  C   UNL     1      -9.846  11.420  64.545  1.00  0.00    -0.260 C  
HETATM   16  C   UNL     1      -9.890  12.113  65.915  1.00  0.00    -0.247 C  
HETATM   17  H   UNL     1     -11.962  11.998  65.982  1.00  0.00     0.000 HD 
HETATM   18  O   UNL     1      -8.857  12.485  66.474  1.00  0.00    -0.185 OA 
HETATM   19 CL   UNL     1     -11.396  11.557  63.688  1.00  0.00    -0.477 Cl 
HETATM   20 CL   UNL     1      -9.404   9.718  64.771  1.00  0.00    -0.325 Cl 
ENDBRANCH  13  14
BRANCH  13  21
HETATM   21  C   UNL     1     -11.984  11.808  68.820  1.00  0.00    -0.257 C  
BRANCH  21  22
HETATM   22  O   UNL     1     -11.033  11.102  69.641  1.00  0.00    -0.244 OA 
BRANCH  22  23
HETATM   23  C   UNL     1     -10.732   9.840  69.234  1.00  0.00    -0.224 C  
HETATM   24  O   UNL     1     -10.109   9.558  68.218  1.00  0.00    -0.169 OA 
BRANCH  23  25
HETATM   25  C   UNL     1     -11.255   8.817  70.207  1.00  0.00    -0.212 C  
BRANCH  25  26
HETATM   26  C   UNL     1     -11.365   9.383  71.609  1.00  0.00    -0.452 C  
HETATM   27  C   UNL     1     -12.794   9.581  72.050  1.00  0.00    -0.414 C  
HETATM   28  O   UNL     1     -13.496   8.437  72.179  1.00  0.00    -0.338 OA 
HETATM   29  O   UNL     1     -13.267  10.678  72.300  1.00  0.00    -0.400 OA 
ENDBRANCH  25  26
ENDBRANCH  23  25
ENDBRANCH  22  23
ENDBRANCH  21  22
ENDBRANCH  13  21
ENDBRANCH   2  13
TORSDOF 8
ENDMDL
MODEL       92
REMARK 921   NORMALIZED FREE ENERGY PREDICTED BY IDOCK:   -5.42 KCAL/MOL
REMARK 922        TOTAL FREE ENERGY PREDICTED BY IDOCK:   -9.43 KCAL/MOL
REMARK 923 INTER-LIGAND FREE ENERGY PREDICTED BY IDOCK:   -8.66 KCAL/MOL
REMARK 924 INTRA-LIGAND FREE ENERGY PREDICTED BY IDOCK:   -0.76 KCAL/MOL
REMARK 927      BINDING AFFINITY PREDICTED BY RF-SCORE:    0.00 PKD
ROOT
HETATM    1  O   UNL     1     -10.467  14.783  69.723  1.00  0.00    -0.401 OA 
HETATM    2  C   UNL     1     -11.453  14.120  68.919  1.00  0.00    -0.293 C  
HETATM    3  H   UNL     1     -10.446  14.397  70.591  1.00  0.00     0.000 HD 
ENDROOT
BRANCH   2   4
HETATM    4  C   UNL     1     -11.111  12.646  68.962  1.00  0.00    -0.291 A  
HETATM    5  C   UNL     1     -10.542   9.896  68.894  1.00  0.00    -0.218 A  
HETATM    6  C   UNL     1      -9.937  12.173  68.350  1.00  0.00    -0.206 A  
HETATM    7  O   UNL     1      -9.254   8.093  68.203  1.00  0.00    -0.134 OA 
HETATM    8  O   UNL     1     -11.074   7.684  69.355  1.00  0.00    -0.126 OA 
HETATM    9  C   UNL     1     -11.984  11.717  69.557  1.00  0.00    -0.383 A  
HETATM   10  C   UNL     1      -9.650  10.805  68.313  1.00  0.00    -0.170 A  
HETATM   11  N   UNL     1     -10.270   8.455  68.811  1.00  0.00    -0.204 N  
HETATM   12  C   UNL     1     -11.705  10.348  69.528  1.00  0.00    -0.259 A  
ENDBRANCH   2   4
BRANCH   2  13
HETATM   13  C   UNL     1     -11.487  14.751  67.499  1.00  0.00    -0.354 C  
BRANCH  13  14
HETATM   14  N   UNL     1     -11.363  13.675  66.487  1.00  0.00    -0.311 N  
HETATM   15  C   UNL     1     -12.090  12.283  64.548  1.00  0.00    -0.383 C  
HETATM   16  C   UNL     1     -12.393  13.332  65.628  1.00  0.00    -0.465 C  
HETATM   17  H   UNL     1     -10.481  13.166  66.420  1.00  0.00     0.000 HD 
HETATM   18  O   UNL     1     -13.500  13.867  65.704  1.00  0.00    -0.590 OA 
HETATM   19 CL   UNL     1     -10.732  11.236  65.009  1.00  0.00    -0.344 Cl 
HETATM   20 CL   UNL     1     -11.752  13.109  63.016  1.00  0.00    -0.075 Cl 
ENDBRANCH  13  14
BRANCH  13  21
HETATM   21  C   UNL     1     -10.376  15.815  67.348  1.00  0.00    -0.282 C  
BRANCH  21  22
HETATM   22  O   UNL     1     -10.825  17.132  67.723  1.00  0.00    -0.348 OA 
BRANCH  22  23
HETATM   23  C   UNL     1      -9.887  17.924  68.307  1.00  0.00    -0.348 C  
HETATM   24  O   UNL     1      -8.760  17.565  68.625  1.00  0.00    -0.279 OA 
BRANCH  23  25
HETATM   25  C   UNL     1     -10.406  19.323  68.503  1.00  0.00    -0.385 C  
BRANCH  25  26
HETATM   26  C   UNL     1      -9.621  20.332  67.688  1.00  0.00    -0.530 C  
HETATM   27  C   UNL     1      -9.483  19.934  66.240  1.00  0.00    -0.410 C  
HETATM   28  O   UNL     1     -10.648  19.906  65.561  1.00  0.00    -0.464 OA 
HETATM   29  O   UNL     1      -8.409  19.689  65.716  1.00  0.00    -0.408 OA 
ENDBRANCH  25  26
ENDBRANCH  23  25
ENDBRANCH  22  23
ENDBRANCH  21  22
ENDBRANCH  13  21
ENDBRANCH   2  13
TORSDOF 8
ENDMDL
MODEL       93
REMARK 921   NORMALIZED FREE ENERGY PREDICTED BY IDOCK:   -5.42 KCAL/MOL
REMARK 922        TOTAL FREE ENERGY PREDICTED BY IDOCK:   -9.42 KCAL/MOL
REMARK 923 INTER-LIGAND FREE ENERGY PREDICTED BY IDOCK:   -7.93 KCAL/MOL
REMARK 924 INTRA-LIGAND FREE ENERGY PREDICTED BY IDOCK:   -1.50 KCAL/MOL
REMARK 927      BINDING AFFINITY PREDICTED BY RF-SCORE:    0.00 PKD
ROOT
HETATM    1  O   UNL     1     -12.487  10.939  68.470  1.00  0.00    -0.742 OA 
HETATM    2  C   UNL     1     -11.102  10.587  68.350  1.00  0.00    -0.281 C  
HETATM    3  H   UNL     1     -13.018  10.153  68.504  1.00  0.00     0.000 HD 
ENDROOT
BRANCH   2   4
HETATM    4  C   UNL     1     -10.801   9.655  69.505  1.00  0.00    -0.253 A  
HETATM    5  C   UNL     1     -10.375   7.841  71.606  1.00  0.00    -0.197 A  
HETATM    6  C   UNL     1     -10.101   8.457  69.284  1.00  0.00    -0.202 A  
HETATM    7  O   UNL     1      -9.630   5.800  72.423  1.00  0.00    -0.150 OA 
HETATM    8  O   UNL     1     -10.627   7.171  73.815  1.00  0.00    -0.377 OA 
HETATM    9  C   UNL     1     -11.266   9.937  70.803  1.00  0.00    -0.427 A  
HETATM   10  C   UNL     1      -9.887   7.550  70.327  1.00  0.00    -0.183 A  
HETATM   11  N   UNL     1     -10.198   6.868  72.692  1.00  0.00    -0.182 N  
HETATM   12  C   UNL     1     -11.055   9.039  71.852  1.00  0.00    -0.433 A  
ENDBRANCH   2   4
BRANCH   2  13
HETATM   13  C   UNL     1     -10.233  11.874  68.294  1.00  0.00    -0.204 C  
BRANCH  13  14
HETATM   14  N   UNL     1      -8.924  11.605  68.938  1.00  0.00    -0.385 N  
HETATM   15  C   UNL     1      -6.449  11.763  69.209  1.00  0.00    -0.107 C  
HETATM   16  C   UNL     1      -7.720  11.999  68.380  1.00  0.00    -0.138 C  
HETATM   17  H   UNL     1      -8.911  11.109  69.830  1.00  0.00     0.000 HD 
HETATM   18  O   UNL     1      -7.669  12.543  67.276  1.00  0.00    -0.159 OA 
HETATM   19 CL   UNL     1      -6.667  10.456  70.392  1.00  0.00    -0.139 Cl 
HETATM   20 CL   UNL     1      -5.999  13.274  70.021  1.00  0.00    -0.133 Cl 
ENDBRANCH  13  14
BRANCH  13  21
HETATM   21  C   UNL     1     -10.968  13.059  68.960  1.00  0.00    -0.196 C  
BRANCH  21  22
HETATM   22  O   UNL     1     -11.463  14.008  67.995  1.00  0.00    -0.277 OA 
BRANCH  22  23
HETATM   23  C   UNL     1     -10.512  14.650  67.267  1.00  0.00    -0.266 C  
HETATM   24  O   UNL     1      -9.598  15.318  67.734  1.00  0.00    -0.205 OA 
BRANCH  23  25
HETATM   25  C   UNL     1     -10.714  14.424  65.792  1.00  0.00    -0.312 C  
BRANCH  25  26
HETATM   26  C   UNL     1     -12.180  14.250  65.448  1.00  0.00    -0.408 C  
HETATM   27  C   UNL     1     -12.479  12.916  64.812  1.00  0.00    -0.455 C  
HETATM   28  O   UNL     1     -12.279  11.858  65.625  1.00  0.00    -0.413 OA 
HETATM   29  O   UNL     1     -12.896  12.800  63.671  1.00  0.00    -0.701 OA 
ENDBRANCH  25  26
ENDBRANCH  23  25
ENDBRANCH  22  23
ENDBRANCH  21  22
ENDBRANCH  13  21
ENDBRANCH   2  13
TORSDOF 8
ENDMDL
MODEL       94
REMARK 921   NORMALIZED FREE ENERGY PREDICTED BY IDOCK:   -5.42 KCAL/MOL
REMARK 922        TOTAL FREE ENERGY PREDICTED BY IDOCK:   -9.42 KCAL/MOL
REMARK 923 INTER-LIGAND FREE ENERGY PREDICTED BY IDOCK:   -8.62 KCAL/MOL
REMARK 924 INTRA-LIGAND FREE ENERGY PREDICTED BY IDOCK:   -0.80 KCAL/MOL
REMARK 927      BINDING AFFINITY PREDICTED BY RF-SCORE:    0.00 PKD
ROOT
HETATM    1  O   UNL     1     -10.508  12.913  69.250  1.00  0.00    -0.432 OA 
HETATM    2  C   UNL     1      -9.250  12.937  68.562  1.00  0.00    -0.062 C  
HETATM    3  H   UNL     1     -10.550  13.632  69.869  1.00  0.00     0.000 HD 
ENDROOT
BRANCH   2   4
HETATM    4  C   UNL     1      -9.126  14.319  67.955  1.00  0.00    -0.191 A  
HETATM    5  C   UNL     1      -8.942  16.820  66.690  1.00  0.00    -0.250 A  
HETATM    6  C   UNL     1     -10.261  15.138  67.820  1.00  0.00    -0.236 A  
HETATM    7  O   UNL     1      -9.904  18.752  65.835  1.00  0.00    -0.496 OA 
HETATM    8  O   UNL     1      -7.746  18.464  65.570  1.00  0.00    -0.484 OA 
HETATM    9  C   UNL     1      -7.894  14.786  67.463  1.00  0.00    -0.208 A  
HETATM   10  C   UNL     1     -10.175  16.383  67.191  1.00  0.00    -0.282 A  
HETATM   11  N   UNL     1      -8.858  18.103  65.981  1.00  0.00    -0.066 N  
HETATM   12  C   UNL     1      -7.796  16.030  66.834  1.00  0.00    -0.284 A  
ENDBRANCH   2   4
BRANCH   2  13
HETATM   13  C   UNL     1      -9.180  11.761  67.549  1.00  0.00    -0.175 C  
BRANCH  13  14
HETATM   14  N   UNL     1     -10.021  12.084  66.371  1.00  0.00    -0.214 N  
HETATM   15  C   UNL     1     -12.158  12.456  65.138  1.00  0.00    -0.405 C  
HETATM   16  C   UNL     1     -11.401  11.976  66.385  1.00  0.00    -0.354 C  
HETATM   17  H   UNL     1      -9.564  12.399  65.515  1.00  0.00     0.000 HD 
HETATM   18  O   UNL     1     -12.004  11.539  67.367  1.00  0.00    -0.623 OA 
HETATM   19 CL   UNL     1     -11.129  12.427  63.690  1.00  0.00    -0.493 Cl 
HETATM   20 CL   UNL     1     -12.779  14.091  65.432  1.00  0.00    -0.532 Cl 
ENDBRANCH  13  14
BRANCH  13  21
HETATM   21  C   UNL     1      -9.612  10.437  68.219  1.00  0.00    -0.144 C  
BRANCH  21  22
HETATM   22  O   UNL     1      -8.882  10.174  69.433  1.00  0.00    -0.170 OA 
BRANCH  22  23
HETATM   23  C   UNL     1      -9.596   9.590  70.430  1.00  0.00    -0.269 C  
HETATM   24  O   UNL     1      -9.128   9.177  71.484  1.00  0.00    -0.309 OA 
BRANCH  23  25
HETATM   25  C   UNL     1     -11.060   9.527  70.083  1.00  0.00    -0.294 C  
BRANCH  25  26
HETATM   26  C   UNL     1     -11.924  10.084  71.196  1.00  0.00    -0.484 C  
HETATM   27  C   UNL     1     -12.723   9.020  71.907  1.00  0.00    -0.382 C  
HETATM   28  O   UNL     1     -11.974   8.127  72.586  1.00  0.00    -0.381 OA 
HETATM   29  O   UNL     1     -13.943   8.985  71.897  1.00  0.00    -0.402 OA 
ENDBRANCH  25  26
ENDBRANCH  23  25
ENDBRANCH  22  23
ENDBRANCH  21  22
ENDBRANCH  13  21
ENDBRANCH   2  13
TORSDOF 8
ENDMDL
MODEL       95
REMARK 921   NORMALIZED FREE ENERGY PREDICTED BY IDOCK:   -5.42 KCAL/MOL
REMARK 922        TOTAL FREE ENERGY PREDICTED BY IDOCK:   -9.42 KCAL/MOL
REMARK 923 INTER-LIGAND FREE ENERGY PREDICTED BY IDOCK:   -8.55 KCAL/MOL
REMARK 924 INTRA-LIGAND FREE ENERGY PREDICTED BY IDOCK:   -0.87 KCAL/MOL
REMARK 927      BINDING AFFINITY PREDICTED BY RF-SCORE:    0.00 PKD
ROOT
HETATM    1  O   UNL     1      -9.390  12.082  68.941  1.00  0.00    -0.397 OA 
HETATM    2  C   UNL     1      -9.679  11.547  67.642  1.00  0.00    -0.174 C  
HETATM    3  H   UNL     1      -8.840  12.851  68.858  1.00  0.00     0.000 HD 
ENDROOT
BRANCH   2   4
HETATM    4  C   UNL     1     -10.276  12.684  66.840  1.00  0.00    -0.242 A  
HETATM    5  C   UNL     1     -11.316  14.728  65.219  1.00  0.00    -0.363 A  
HETATM    6  C   UNL     1     -11.497  12.510  66.165  1.00  0.00    -0.426 A  
HETATM    7  O   UNL     1     -12.882  15.541  63.710  1.00  0.00    -0.526 OA 
HETATM    8  O   UNL     1     -11.193  16.833  64.249  1.00  0.00    -1.163 OA 
HETATM    9  C   UNL     1      -9.596  13.908  66.703  1.00  0.00    -0.297 A  
HETATM   10  C   UNL     1     -12.019  13.524  65.357  1.00  0.00    -0.406 A  
HETATM   11  N   UNL     1     -11.834  15.775  64.329  1.00  0.00    -0.269 N  
HETATM   12  C   UNL     1     -10.110  14.929  65.899  1.00  0.00    -0.348 A  
ENDBRANCH   2   4
BRANCH   2  13
HETATM   13  C   UNL     1     -10.580  10.288  67.778  1.00  0.00    -0.250 C  
BRANCH  13  14
HETATM   14  N   UNL     1     -10.529   9.804  69.179  1.00  0.00    -0.206 N  
HETATM   15  C   UNL     1     -11.415   9.392  71.475  1.00  0.00    -0.397 C  
HETATM   16  C   UNL     1     -11.538  10.052  70.094  1.00  0.00    -0.252 C  
HETATM   17  H   UNL     1      -9.717   9.265  69.481  1.00  0.00     0.000 HD 
HETATM   18  O   UNL     1     -12.511  10.751  69.806  1.00  0.00    -0.309 OA 
HETATM   19 CL   UNL     1      -9.729   9.000  71.871  1.00  0.00    -0.336 Cl 
HETATM   20 CL   UNL     1     -12.422   7.932  71.510  1.00  0.00    -0.327 Cl 
ENDBRANCH  13  14
BRANCH  13  21
HETATM   21  C   UNL     1     -10.144   9.195  66.776  1.00  0.00    -0.271 C  
BRANCH  21  22
HETATM   22  O   UNL     1     -10.833   7.948  66.993  1.00  0.00    -0.305 OA 
BRANCH  22  23
HETATM   23  C   UNL     1     -10.091   6.961  67.562  1.00  0.00    -0.174 C  
HETATM   24  O   UNL     1      -9.024   7.126  68.139  1.00  0.00    -0.129 OA 
BRANCH  23  25
HETATM   25  C   UNL     1     -10.759   5.622  67.405  1.00  0.00    -0.283 C  
BRANCH  25  26
HETATM   26  C   UNL     1     -10.604   5.079  65.998  1.00  0.00    -0.286 C  
HETATM   27  C   UNL     1      -9.177   4.724  65.661  1.00  0.00    -0.152 C  
HETATM   28  O   UNL     1      -8.675   3.704  66.387  1.00  0.00    -0.111 OA 
HETATM   29  O   UNL     1      -8.539   5.288  64.787  1.00  0.00    -0.148 OA 
ENDBRANCH  25  26
ENDBRANCH  23  25
ENDBRANCH  22  23
ENDBRANCH  21  22
ENDBRANCH  13  21
ENDBRANCH   2  13
TORSDOF 8
ENDMDL
MODEL       96
REMARK 921   NORMALIZED FREE ENERGY PREDICTED BY IDOCK:   -5.40 KCAL/MOL
REMARK 922        TOTAL FREE ENERGY PREDICTED BY IDOCK:   -9.40 KCAL/MOL
REMARK 923 INTER-LIGAND FREE ENERGY PREDICTED BY IDOCK:   -8.62 KCAL/MOL
REMARK 924 INTRA-LIGAND FREE ENERGY PREDICTED BY IDOCK:   -0.78 KCAL/MOL
REMARK 927      BINDING AFFINITY PREDICTED BY RF-SCORE:    0.00 PKD
ROOT
HETATM    1  O   UNL     1     -11.326  11.709  70.250  1.00  0.00    -0.492 OA 
HETATM    2  C   UNL     1     -11.659  10.596  69.410  1.00  0.00    -0.280 C  
HETATM    3  H   UNL     1     -11.782  11.635  71.080  1.00  0.00     0.000 HD 
ENDROOT
BRANCH   2   4
HETATM    4  C   UNL     1     -11.342   9.351  70.212  1.00  0.00    -0.261 A  
HETATM    5  C   UNL     1     -10.909   6.995  71.679  1.00  0.00    -0.223 A  
HETATM    6  C   UNL     1     -11.013   8.151  69.558  1.00  0.00    -0.056 A  
HETATM    7  O   UNL     1     -10.509   4.712  71.804  1.00  0.00    -0.171 OA 
HETATM    8  O   UNL     1     -10.821   5.814  73.675  1.00  0.00    -0.270 OA 
HETATM    9  C   UNL     1     -11.430   9.353  71.616  1.00  0.00    -0.463 A  
HETATM   10  C   UNL     1     -10.797   6.976  70.283  1.00  0.00    -0.283 A  
HETATM   11  N   UNL     1     -10.734   5.752  72.440  1.00  0.00    -0.223 N  
HETATM   12  C   UNL     1     -11.213   8.184  72.351  1.00  0.00    -0.452 A  
ENDBRANCH   2   4
BRANCH   2  13
HETATM   13  C   UNL     1     -10.913  10.717  68.052  1.00  0.00    -0.282 C  
BRANCH  13  14
HETATM   14  N   UNL     1      -9.467  10.920  68.310  1.00  0.00    -0.161 N  
HETATM   15  C   UNL     1      -7.023  10.554  67.964  1.00  0.00    -0.074 C  
HETATM   16  C   UNL     1      -8.484  10.160  67.700  1.00  0.00    -0.118 C  
HETATM   17  H   UNL     1      -9.184  11.651  68.964  1.00  0.00     0.000 HD 
HETATM   18  O   UNL     1      -8.765   9.222  66.952  1.00  0.00    -0.125 OA 
HETATM   19 CL   UNL     1      -6.847  11.449  69.488  1.00  0.00    -0.118 Cl 
HETATM   20 CL   UNL     1      -6.428  11.518  66.599  1.00  0.00    -0.123 Cl 
ENDBRANCH  13  14
BRANCH  13  21
HETATM   21  C   UNL     1     -11.511  11.859  67.201  1.00  0.00    -0.319 C  
BRANCH  21  22
HETATM   22  O   UNL     1     -11.386  11.611  65.787  1.00  0.00    -0.284 OA 
BRANCH  22  23
HETATM   23  C   UNL     1     -11.965  12.537  64.978  1.00  0.00    -0.427 C  
HETATM   24  O   UNL     1     -13.122  12.498  64.578  1.00  0.00    -0.816 OA 
BRANCH  23  25
HETATM   25  C   UNL     1     -10.999  13.641  64.639  1.00  0.00    -0.403 C  
BRANCH  25  26
HETATM   26  C   UNL     1     -11.221  14.864  65.506  1.00  0.00    -0.348 C  
HETATM   27  C   UNL     1     -10.930  16.156  64.783  1.00  0.00    -0.313 C  
HETATM   28  O   UNL     1     -11.763  16.414  63.755  1.00  0.00    -1.049 OA 
HETATM   29  O   UNL     1     -10.037  16.918  65.116  1.00  0.00    -0.484 OA 
ENDBRANCH  25  26
ENDBRANCH  23  25
ENDBRANCH  22  23
ENDBRANCH  21  22
ENDBRANCH  13  21
ENDBRANCH   2  13
TORSDOF 8
ENDMDL
MODEL       97
REMARK 921   NORMALIZED FREE ENERGY PREDICTED BY IDOCK:   -5.38 KCAL/MOL
REMARK 922        TOTAL FREE ENERGY PREDICTED BY IDOCK:   -9.36 KCAL/MOL
REMARK 923 INTER-LIGAND FREE ENERGY PREDICTED BY IDOCK:   -8.17 KCAL/MOL
REMARK 924 INTRA-LIGAND FREE ENERGY PREDICTED BY IDOCK:   -1.19 KCAL/MOL
REMARK 927      BINDING AFFINITY PREDICTED BY RF-SCORE:    0.00 PKD
ROOT
HETATM    1  O   UNL     1     -10.468  12.077  64.514  1.00  0.00    -0.270 OA 
HETATM    2  C   UNL     1     -10.923  12.336  65.850  1.00  0.00    -0.302 C  
HETATM    3  H   UNL     1     -10.917  12.650  63.904  1.00  0.00     0.000 HD 
ENDROOT
BRANCH   2   4
HETATM    4  C   UNL     1     -10.718  13.818  66.085  1.00  0.00    -0.283 A  
HETATM    5  C   UNL     1     -10.497  16.579  66.553  1.00  0.00    -0.270 A  
HETATM    6  C   UNL     1     -10.553  14.311  67.391  1.00  0.00    -0.276 A  
HETATM    7  O   UNL     1     -10.354  18.403  67.981  1.00  0.00    -0.366 OA 
HETATM    8  O   UNL     1     -10.465  18.782  65.823  1.00  0.00    -0.571 OA 
HETATM    9  C   UNL     1     -10.750  14.732  65.017  1.00  0.00    -0.452 A  
HETATM   10  C   UNL     1     -10.443  15.685  67.630  1.00  0.00    -0.283 A  
HETATM   11  N   UNL     1     -10.434  18.025  66.804  1.00  0.00    -0.350 N  
HETATM   12  C   UNL     1     -10.638  16.107  65.243  1.00  0.00    -0.390 A  
ENDBRANCH   2   4
BRANCH   2  13
HETATM   13  C   UNL     1     -10.190  11.399  66.849  1.00  0.00    -0.219 C  
BRANCH  13  14
HETATM   14  N   UNL     1      -9.135  10.649  66.125  1.00  0.00    -0.164 N  
HETATM   15  C   UNL     1      -6.795  10.007  65.543  1.00  0.00    -0.120 C  
HETATM   16  C   UNL     1      -7.788  10.939  66.254  1.00  0.00    -0.158 C  
HETATM   17  H   UNL     1      -9.414   9.886  65.506  1.00  0.00     0.000 HD 
HETATM   18  O   UNL     1      -7.395  11.887  66.936  1.00  0.00    -0.138 OA 
HETATM   19 CL   UNL     1      -7.548   9.164  64.174  1.00  0.00    -0.109 Cl 
HETATM   20 CL   UNL     1      -6.150   8.845  66.716  1.00  0.00    -0.056 Cl 
ENDBRANCH  13  14
BRANCH  13  21
HETATM   21  C   UNL     1     -11.193  10.453  67.546  1.00  0.00    -0.179 C  
BRANCH  21  22
HETATM   22  O   UNL     1     -12.065  11.153  68.455  1.00  0.00    -0.605 OA 
BRANCH  22  23
HETATM   23  C   UNL     1     -11.651  11.190  69.749  1.00  0.00    -0.334 C  
HETATM   24  O   UNL     1     -10.603  10.716  70.167  1.00  0.00    -0.199 OA 
BRANCH  23  25
HETATM   25  C   UNL     1     -12.649  11.912  70.616  1.00  0.00    -0.269 C  
BRANCH  25  26
HETATM   26  C   UNL     1     -12.342  13.393  70.708  1.00  0.00    -0.433 C  
HETATM   27  C   UNL     1     -13.337  14.146  71.555  1.00  0.00    -0.351 C  
HETATM   28  O   UNL     1     -13.329  13.801  72.858  1.00  0.00    -0.605 OA 
HETATM   29  O   UNL     1     -14.068  15.016  71.108  1.00  0.00    -0.417 OA 
ENDBRANCH  25  26
ENDBRANCH  23  25
ENDBRANCH  22  23
ENDBRANCH  21  22
ENDBRANCH  13  21
ENDBRANCH   2  13
TORSDOF 8
ENDMDL
MODEL       98
REMARK 921   NORMALIZED FREE ENERGY PREDICTED BY IDOCK:   -5.37 KCAL/MOL
REMARK 922        TOTAL FREE ENERGY PREDICTED BY IDOCK:   -9.35 KCAL/MOL
REMARK 923 INTER-LIGAND FREE ENERGY PREDICTED BY IDOCK:   -8.01 KCAL/MOL
REMARK 924 INTRA-LIGAND FREE ENERGY PREDICTED BY IDOCK:   -1.34 KCAL/MOL
REMARK 927      BINDING AFFINITY PREDICTED BY RF-SCORE:    0.00 PKD
ROOT
HETATM    1  O   UNL     1     -11.889  12.219  70.200  1.00  0.00    -0.425 OA 
HETATM    2  C   UNL     1     -10.927  11.821  69.213  1.00  0.00    -0.175 C  
HETATM    3  H   UNL     1     -11.992  13.163  70.186  1.00  0.00     0.000 HD 
ENDROOT
BRANCH   2   4
HETATM    4  C   UNL     1     -11.406  12.400  67.898  1.00  0.00    -0.344 A  
HETATM    5  C   UNL     1     -12.141  13.502  65.422  1.00  0.00    -0.415 A  
HETATM    6  C   UNL     1     -11.410  11.609  66.736  1.00  0.00    -0.354 A  
HETATM    7  O   UNL     1     -12.396  13.362  63.119  1.00  0.00    -0.668 OA 
HETATM    8  O   UNL     1     -12.813  15.283  64.093  1.00  0.00    -0.559 OA 
HETATM    9  C   UNL     1     -11.798  13.747  67.800  1.00  0.00    -0.404 A  
HETATM   10  C   UNL     1     -11.774  12.153  65.501  1.00  0.00    -0.384 A  
HETATM   11  N   UNL     1     -12.474  14.091  64.118  1.00  0.00    -0.314 N  
HETATM   12  C   UNL     1     -12.166  14.301  66.571  1.00  0.00    -0.419 A  
ENDBRANCH   2   4
BRANCH   2  13
HETATM   13  C   UNL     1     -10.757  10.277  69.234  1.00  0.00    -0.234 C  
BRANCH  13  14
HETATM   14  N   UNL     1     -11.593   9.712  70.321  1.00  0.00    -0.380 N  
HETATM   15  C   UNL     1     -12.521   7.904  71.768  1.00  0.00    -0.323 C  
HETATM   16  C   UNL     1     -11.722   8.350  70.535  1.00  0.00    -0.070 C  
HETATM   17  H   UNL     1     -12.093  10.353  70.938  1.00  0.00     0.000 HD 
HETATM   18  O   UNL     1     -11.195   7.527  69.786  1.00  0.00    -0.182 OA 
HETATM   19 CL   UNL     1     -13.670   9.151  72.297  1.00  0.00    -0.515 Cl 
HETATM   20 CL   UNL     1     -11.392   7.499  73.074  1.00  0.00    -0.364 Cl 
ENDBRANCH  13  14
BRANCH  13  21
HETATM   21  C   UNL     1      -9.269   9.894  69.396  1.00  0.00    -0.214 C  
BRANCH  21  22
HETATM   22  O   UNL     1      -8.383  10.937  68.944  1.00  0.00    -0.145 OA 
BRANCH  22  23
HETATM   23  C   UNL     1      -7.870  10.769  67.697  1.00  0.00    -0.109 C  
HETATM   24  O   UNL     1      -7.564   9.692  67.200  1.00  0.00    -0.091 OA 
BRANCH  23  25
HETATM   25  C   UNL     1      -7.736  12.088  66.983  1.00  0.00    -0.129 C  
BRANCH  25  26
HETATM   26  C   UNL     1      -7.633  13.244  67.958  1.00  0.00    -0.145 C  
HETATM   27  C   UNL     1      -7.666  14.589  67.278  1.00  0.00    -0.149 C  
HETATM   28  O   UNL     1      -8.834  14.872  66.667  1.00  0.00    -0.260 OA 
HETATM   29  O   UNL     1      -6.729  15.371  67.302  1.00  0.00    -0.232 OA 
ENDBRANCH  25  26
ENDBRANCH  23  25
ENDBRANCH  22  23
ENDBRANCH  21  22
ENDBRANCH  13  21
ENDBRANCH   2  13
TORSDOF 8
ENDMDL
MODEL       99
REMARK 921   NORMALIZED FREE ENERGY PREDICTED BY IDOCK:   -5.36 KCAL/MOL
REMARK 922        TOTAL FREE ENERGY PREDICTED BY IDOCK:   -9.33 KCAL/MOL
REMARK 923 INTER-LIGAND FREE ENERGY PREDICTED BY IDOCK:   -8.17 KCAL/MOL
REMARK 924 INTRA-LIGAND FREE ENERGY PREDICTED BY IDOCK:   -1.16 KCAL/MOL
REMARK 927      BINDING AFFINITY PREDICTED BY RF-SCORE:    0.00 PKD
ROOT
HETATM    1  O   UNL     1      -8.015  12.023  67.242  1.00  0.00    -0.157 OA 
HETATM    2  C   UNL     1      -8.975  12.065  68.307  1.00  0.00    -0.186 C  
HETATM    3  H   UNL     1      -7.393  11.323  67.396  1.00  0.00     0.000 HD 
ENDROOT
BRANCH   2   4
HETATM    4  C   UNL     1      -9.573  10.676  68.392  1.00  0.00    -0.170 A  
HETATM    5  C   UNL     1     -10.539   8.047  68.602  1.00  0.00    -0.109 A  
HETATM    6  C   UNL     1     -10.065  10.191  69.616  1.00  0.00    -0.265 A  
HETATM    7  O   UNL     1     -11.357   6.265  69.845  1.00  0.00    -0.397 OA 
HETATM    8  O   UNL     1     -10.991   5.955  67.705  1.00  0.00    -0.282 OA 
HETATM    9  C   UNL     1      -9.592   9.826  67.271  1.00  0.00    -0.194 A  
HETATM   10  C   UNL     1     -10.547   8.883  69.726  1.00  0.00    -0.230 A  
HETATM   11  N   UNL     1     -10.995   6.657  68.726  1.00  0.00    -0.268 N  
HETATM   12  C   UNL     1     -10.073   8.518  67.370  1.00  0.00    -0.298 A  
ENDBRANCH   2   4
BRANCH   2  13
HETATM   13  C   UNL     1      -9.993  13.211  68.055  1.00  0.00    -0.233 C  
BRANCH  13  14
HETATM   14  N   UNL     1     -10.386  13.206  66.625  1.00  0.00    -0.262 N  
HETATM   15  C   UNL     1     -11.948  13.456  64.696  1.00  0.00    -0.399 C  
HETATM   16  C   UNL     1     -11.697  13.360  66.208  1.00  0.00    -0.366 C  
HETATM   17  H   UNL     1      -9.659  13.084  65.919  1.00  0.00     0.000 HD 
HETATM   18  O   UNL     1     -12.624  13.446  67.015  1.00  0.00    -0.130 OA 
HETATM   19 CL   UNL     1     -10.644  12.694  63.761  1.00  0.00    -0.446 Cl 
HETATM   20 CL   UNL     1     -12.126  15.162  64.246  1.00  0.00    -0.392 Cl 
ENDBRANCH  13  14
BRANCH  13  21
HETATM   21  C   UNL     1      -9.400  14.572  68.484  1.00  0.00    -0.203 C  
BRANCH  21  22
HETATM   22  O   UNL     1     -10.147  15.181  69.556  1.00  0.00    -0.231 OA 
BRANCH  22  23
HETATM   23  C   UNL     1     -11.287  15.821  69.184  1.00  0.00    -0.349 C  
HETATM   24  O   UNL     1     -11.392  16.569  68.220  1.00  0.00    -0.331 OA 
BRANCH  23  25
HETATM   25  C   UNL     1     -12.425  15.480  70.108  1.00  0.00    -0.351 C  
BRANCH  25  26
HETATM   26  C   UNL     1     -11.929  15.079  71.483  1.00  0.00    -0.416 C  
HETATM   27  C   UNL     1     -12.567  15.878  72.592  1.00  0.00    -0.470 C  
HETATM   28  O   UNL     1     -13.893  15.675  72.728  1.00  0.00    -0.559 OA 
HETATM   29  O   UNL     1     -11.935  16.621  73.326  1.00  0.00    -0.475 OA 
ENDBRANCH  25  26
ENDBRANCH  23  25
ENDBRANCH  22  23
ENDBRANCH  21  22
ENDBRANCH  13  21
ENDBRANCH   2  13
TORSDOF 8
ENDMDL
MODEL      100
REMARK 921   NORMALIZED FREE ENERGY PREDICTED BY IDOCK:   -5.35 KCAL/MOL
REMARK 922        TOTAL FREE ENERGY PREDICTED BY IDOCK:   -9.32 KCAL/MOL
REMARK 923 INTER-LIGAND FREE ENERGY PREDICTED BY IDOCK:   -7.36 KCAL/MOL
REMARK 924 INTRA-LIGAND FREE ENERGY PREDICTED BY IDOCK:   -1.97 KCAL/MOL
REMARK 927      BINDING AFFINITY PREDICTED BY RF-SCORE:    0.00 PKD
ROOT
HETATM    1  O   UNL     1      -9.537   9.429  69.789  1.00  0.00    -0.176 OA 
HETATM    2  C   UNL     1     -10.927   9.081  69.841  1.00  0.00    -0.193 C  
HETATM    3  H   UNL     1      -9.416  10.192  69.236  1.00  0.00     0.000 HD 
ENDROOT
BRANCH   2   4
HETATM    4  C   UNL     1     -11.658  10.328  70.293  1.00  0.00    -0.396 A  
HETATM    5  C   UNL     1     -12.880  12.685  71.207  1.00  0.00    -0.250 A  
HETATM    6  C   UNL     1     -11.508  11.532  69.584  1.00  0.00    -0.373 A  
HETATM    7  O   UNL     1     -13.254  14.973  71.082  1.00  0.00    -0.376 OA 
HETATM    8  O   UNL     1     -14.162  13.863  72.742  1.00  0.00    -0.620 OA 
HETATM    9  C   UNL     1     -12.449  10.322  71.456  1.00  0.00    -0.524 A  
HETATM   10  C   UNL     1     -12.114  12.709  70.035  1.00  0.00    -0.339 A  
HETATM   11  N   UNL     1     -13.474  13.930  71.713  1.00  0.00    -0.369 N  
HETATM   12  C   UNL     1     -13.060  11.492  71.915  1.00  0.00    -0.492 A  
ENDBRANCH   2   4
BRANCH   2  13
HETATM   13  C   UNL     1     -11.125   7.833  70.746  1.00  0.00    -0.257 C  
BRANCH  13  14
HETATM   14  N   UNL     1     -10.020   7.769  71.733  1.00  0.00    -0.172 N  
HETATM   15  C   UNL     1      -9.002   7.429  73.985  1.00  0.00    -0.239 C  
HETATM   16  C   UNL     1     -10.238   7.598  73.090  1.00  0.00    -0.342 C  
HETATM   17  H   UNL     1      -9.060   7.855  71.399  1.00  0.00     0.000 HD 
HETATM   18  O   UNL     1     -11.376   7.553  73.559  1.00  0.00    -0.202 OA 
HETATM   19 CL   UNL     1      -7.551   8.142  73.249  1.00  0.00    -0.191 Cl 
HETATM   20 CL   UNL     1      -8.755   5.704  74.312  1.00  0.00    -0.118 Cl 
ENDBRANCH  13  14
BRANCH  13  21
HETATM   21  C   UNL     1     -11.207   6.548  69.892  1.00  0.00    -0.395 C  
BRANCH  21  22
HETATM   22  O   UNL     1     -11.000   6.808  68.489  1.00  0.00    -0.231 OA 
BRANCH  22  23
HETATM   23  C   UNL     1     -10.421   5.800  67.787  1.00  0.00    -0.226 C  
HETATM   24  O   UNL     1     -10.720   5.474  66.645  1.00  0.00    -0.295 OA 
BRANCH  23  25
HETATM   25  C   UNL     1      -9.337   5.132  68.591  1.00  0.00    -0.164 C  
BRANCH  25  26
HETATM   26  C   UNL     1      -7.964   5.662  68.229  1.00  0.00    -0.100 C  
HETATM   27  C   UNL     1      -7.740   7.078  68.698  1.00  0.00    -0.120 C  
HETATM   28  O   UNL     1      -7.726   7.221  70.039  1.00  0.00    -0.092 OA 
HETATM   29  O   UNL     1      -7.556   8.011  67.933  1.00  0.00    -0.107 OA 
ENDBRANCH  25  26
ENDBRANCH  23  25
ENDBRANCH  22  23
ENDBRANCH  21  22
ENDBRANCH  13  21
ENDBRANCH   2  13
TORSDOF 8
ENDMDL
MODEL      101
REMARK 921   NORMALIZED FREE ENERGY PREDICTED BY IDOCK:   -5.35 KCAL/MOL
REMARK 922        TOTAL FREE ENERGY PREDICTED BY IDOCK:   -9.31 KCAL/MOL
REMARK 923 INTER-LIGAND FREE ENERGY PREDICTED BY IDOCK:   -8.33 KCAL/MOL
REMARK 924 INTRA-LIGAND FREE ENERGY PREDICTED BY IDOCK:   -0.98 KCAL/MOL
REMARK 927      BINDING AFFINITY PREDICTED BY RF-SCORE:    0.00 PKD
ROOT
HETATM    1  O   UNL     1     -10.360  11.393  69.540  1.00  0.00    -0.441 OA 
HETATM    2  C   UNL     1     -10.992  11.134  68.279  1.00  0.00    -0.226 C  
HETATM    3  H   UNL     1      -9.856  10.635  69.810  1.00  0.00     0.000 HD 
ENDROOT
BRANCH   2   4
HETATM    4  C   UNL     1      -9.886  10.721  67.329  1.00  0.00    -0.208 A  
HETATM    5  C   UNL     1      -7.880  10.079  65.472  1.00  0.00    -0.134 A  
HETATM    6  C   UNL     1      -8.636  11.362  67.377  1.00  0.00    -0.142 A  
HETATM    7  O   UNL     1      -5.791  10.425  64.521  1.00  0.00    -0.131 OA 
HETATM    8  O   UNL     1      -7.097   8.906  63.628  1.00  0.00    -0.088 OA 
HETATM    9  C   UNL     1     -10.105   9.738  66.347  1.00  0.00    -0.313 A  
HETATM   10  C   UNL     1      -7.634  11.046  66.454  1.00  0.00    -0.135 A  
HETATM   11  N   UNL     1      -6.849   9.782  64.469  1.00  0.00    -0.112 N  
HETATM   12  C   UNL     1      -9.110   9.414  65.421  1.00  0.00    -0.280 A  
ENDBRANCH   2   4
BRANCH   2  13
HETATM   13  C   UNL     1     -11.817  12.374  67.836  1.00  0.00    -0.308 C  
BRANCH  13  14
HETATM   14  N   UNL     1     -11.505  12.684  66.420  1.00  0.00    -0.335 N  
HETATM   15  C   UNL     1     -11.900  13.698  64.175  1.00  0.00    -0.422 C  
HETATM   16  C   UNL     1     -12.396  13.331  65.581  1.00  0.00    -0.465 C  
HETATM   17  H   UNL     1     -10.595  12.410  66.048  1.00  0.00     0.000 HD 
HETATM   18  O   UNL     1     -13.532  13.629  65.954  1.00  0.00    -0.175 OA 
HETATM   19 CL   UNL     1     -10.556  12.658  63.657  1.00  0.00    -0.426 Cl 
HETATM   20 CL   UNL     1     -11.415  15.403  64.158  1.00  0.00    -0.144 Cl 
ENDBRANCH  13  14
BRANCH  13  21
HETATM   21  C   UNL     1     -11.534  13.576  68.764  1.00  0.00    -0.311 C  
BRANCH  21  22
HETATM   22  O   UNL     1     -12.342  13.549  69.957  1.00  0.00    -0.307 OA 
BRANCH  22  23
HETATM   23  C   UNL     1     -12.561  14.755  70.543  1.00  0.00    -0.359 C  
HETATM   24  O   UNL     1     -13.532  15.473  70.337  1.00  0.00    -0.273 OA 
BRANCH  23  25
HETATM   25  C   UNL     1     -11.453  15.101  71.502  1.00  0.00    -0.422 C  
BRANCH  25  26
HETATM   26  C   UNL     1     -11.824  16.276  72.385  1.00  0.00    -0.606 C  
HETATM   27  C   UNL     1     -12.789  15.902  73.482  1.00  0.00    -0.590 C  
HETATM   28  O   UNL     1     -12.287  15.044  74.393  1.00  0.00    -0.570 OA 
HETATM   29  O   UNL     1     -13.919  16.359  73.560  1.00  0.00    -0.408 OA 
ENDBRANCH  25  26
ENDBRANCH  23  25
ENDBRANCH  22  23
ENDBRANCH  21  22
ENDBRANCH  13  21
ENDBRANCH   2  13
TORSDOF 8
ENDMDL
MODEL      102
REMARK 921   NORMALIZED FREE ENERGY PREDICTED BY IDOCK:   -5.33 KCAL/MOL
REMARK 922        TOTAL FREE ENERGY PREDICTED BY IDOCK:   -9.29 KCAL/MOL
REMARK 923 INTER-LIGAND FREE ENERGY PREDICTED BY IDOCK:   -8.26 KCAL/MOL
REMARK 924 INTRA-LIGAND FREE ENERGY PREDICTED BY IDOCK:   -1.03 KCAL/MOL
REMARK 927      BINDING AFFINITY PREDICTED BY RF-SCORE:    0.00 PKD
ROOT
HETATM    1  O   UNL     1     -12.268  10.345  68.409  1.00  0.00    -0.686 OA 
HETATM    2  C   UNL     1     -11.102  11.103  68.058  1.00  0.00    -0.276 C  
HETATM    3  H   UNL     1     -12.085   9.417  68.332  1.00  0.00     0.000 HD 
ENDROOT
BRANCH   2   4
HETATM    4  C   UNL     1      -9.984  10.591  68.942  1.00  0.00    -0.213 A  
HETATM    5  C   UNL     1      -7.883   9.525  70.471  1.00  0.00    -0.157 A  
HETATM    6  C   UNL     1      -8.654  10.970  68.691  1.00  0.00    -0.157 A  
HETATM    7  O   UNL     1      -5.623   9.251  70.926  1.00  0.00    -0.034 OA 
HETATM    8  O   UNL     1      -7.068   8.137  72.143  1.00  0.00    -0.073 OA 
HETATM    9  C   UNL     1     -10.244   9.685  69.986  1.00  0.00    -0.296 A  
HETATM   10  C   UNL     1      -7.604  10.442  69.449  1.00  0.00    -0.140 A  
HETATM   11  N   UNL     1      -6.779   8.929  71.234  1.00  0.00    -0.078 N  
HETATM   12  C   UNL     1      -9.202   9.153  70.751  1.00  0.00    -0.321 A  
ENDBRANCH   2   4
BRANCH   2  13
HETATM   13  C   UNL     1     -11.403  12.623  68.184  1.00  0.00    -0.290 C  
BRANCH  13  14
HETATM   14  N   UNL     1     -12.057  12.882  69.489  1.00  0.00    -0.258 N  
HETATM   15  C   UNL     1     -12.684  14.238  71.487  1.00  0.00    -0.350 C  
HETATM   16  C   UNL     1     -11.853  14.046  70.211  1.00  0.00    -0.303 C  
HETATM   17  H   UNL     1     -12.683  12.173  69.872  1.00  0.00     0.000 HD 
HETATM   18  O   UNL     1     -11.059  14.908  69.832  1.00  0.00    -0.258 OA 
HETATM   19 CL   UNL     1     -13.237  12.687  72.154  1.00  0.00    -0.572 Cl 
HETATM   20 CL   UNL     1     -14.064  15.291  71.127  1.00  0.00    -0.508 Cl 
ENDBRANCH  13  14
BRANCH  13  21
HETATM   21  C   UNL     1     -12.270  13.107  67.000  1.00  0.00    -0.210 C  
BRANCH  21  22
HETATM   22  O   UNL     1     -11.997  14.476  66.645  1.00  0.00    -0.393 OA 
BRANCH  22  23
HETATM   23  C   UNL     1     -11.800  14.708  65.320  1.00  0.00    -0.324 C  
HETATM   24  O   UNL     1     -12.479  14.242  64.415  1.00  0.00    -0.630 OA 
BRANCH  23  25
HETATM   25  C   UNL     1     -10.635  15.636  65.100  1.00  0.00    -0.449 C  
BRANCH  25  26
HETATM   26  C   UNL     1     -10.048  16.119  66.412  1.00  0.00    -0.321 C  
HETATM   27  C   UNL     1      -9.175  17.338  66.249  1.00  0.00    -0.215 C  
HETATM   28  O   UNL     1      -9.835  18.441  65.842  1.00  0.00    -0.517 OA 
HETATM   29  O   UNL     1      -7.979  17.338  66.495  1.00  0.00    -0.233 OA 
ENDBRANCH  25  26
ENDBRANCH  23  25
ENDBRANCH  22  23
ENDBRANCH  21  22
ENDBRANCH  13  21
ENDBRANCH   2  13
TORSDOF 8
ENDMDL
MODEL      103
REMARK 921   NORMALIZED FREE ENERGY PREDICTED BY IDOCK:   -5.33 KCAL/MOL
REMARK 922        TOTAL FREE ENERGY PREDICTED BY IDOCK:   -9.29 KCAL/MOL
REMARK 923 INTER-LIGAND FREE ENERGY PREDICTED BY IDOCK:   -8.23 KCAL/MOL
REMARK 924 INTRA-LIGAND FREE ENERGY PREDICTED BY IDOCK:   -1.05 KCAL/MOL
REMARK 927      BINDING AFFINITY PREDICTED BY RF-SCORE:    0.00 PKD
ROOT
HETATM    1  O   UNL     1     -11.699  11.277  66.823  1.00  0.00    -0.418 OA 
HETATM    2  C   UNL     1     -12.012  11.842  68.104  1.00  0.00    -0.152 C  
HETATM    3  H   UNL     1     -12.088  11.803  66.135  1.00  0.00     0.000 HD 
ENDROOT
BRANCH   2   4
HETATM    4  C   UNL     1     -11.550  13.283  68.054  1.00  0.00    -0.371 A  
HETATM    5  C   UNL     1     -10.846  16.001  67.983  1.00  0.00    -0.335 A  
HETATM    6  C   UNL     1     -11.310  13.991  69.244  1.00  0.00    -0.318 A  
HETATM    7  O   UNL     1     -10.393  18.022  69.031  1.00  0.00    -0.350 OA 
HETATM    8  O   UNL     1     -10.418  17.975  66.839  1.00  0.00    -0.360 OA 
HETATM    9  C   UNL     1     -11.410  13.957  66.827  1.00  0.00    -0.347 A  
HETATM   10  C   UNL     1     -10.960  15.345  69.214  1.00  0.00    -0.261 A  
HETATM   11  N   UNL     1     -10.530  17.435  67.949  1.00  0.00    -0.370 N  
HETATM   12  C   UNL     1     -11.059  15.309  66.785  1.00  0.00    -0.278 A  
ENDBRANCH   2   4
BRANCH   2  13
HETATM   13  C   UNL     1     -11.377  10.981  69.231  1.00  0.00    -0.282 C  
BRANCH  13  14
HETATM   14  N   UNL     1     -11.028   9.647  68.684  1.00  0.00    -0.421 N  
HETATM   15  C   UNL     1      -9.538   7.702  68.216  1.00  0.00    -0.153 C  
HETATM   16  C   UNL     1      -9.739   9.143  68.705  1.00  0.00    -0.162 C  
HETATM   17  H   UNL     1     -11.770   9.077  68.275  1.00  0.00     0.000 HD 
HETATM   18  O   UNL     1      -8.793   9.811  69.127  1.00  0.00    -0.141 OA 
HETATM   19 CL   UNL     1     -10.832   7.194  67.110  1.00  0.00    -0.417 Cl 
HETATM   20 CL   UNL     1      -9.453   6.621  69.619  1.00  0.00    -0.143 Cl 
ENDBRANCH  13  14
BRANCH  13  21
HETATM   21  C   UNL     1     -12.333  10.874  70.440  1.00  0.00    -0.351 C  
BRANCH  21  22
HETATM   22  O   UNL     1     -11.745  10.154  71.541  1.00  0.00    -0.343 OA 
BRANCH  22  23
HETATM   23  C   UNL     1     -12.514   9.165  72.069  1.00  0.00    -0.382 C  
HETATM   24  O   UNL     1     -13.635   9.319  72.538  1.00  0.00    -0.467 OA 
BRANCH  23  25
HETATM   25  C   UNL     1     -11.813   7.835  71.994  1.00  0.00    -0.351 C  
BRANCH  25  26
HETATM   26  C   UNL     1     -10.955   7.584  73.219  1.00  0.00    -0.362 C  
HETATM   27  C   UNL     1      -9.478   7.635  72.920  1.00  0.00    -0.206 C  
HETATM   28  O   UNL     1      -9.032   8.850  72.539  1.00  0.00    -0.367 OA 
HETATM   29  O   UNL     1      -8.740   6.671  73.042  1.00  0.00    -0.122 OA 
ENDBRANCH  25  26
ENDBRANCH  23  25
ENDBRANCH  22  23
ENDBRANCH  21  22
ENDBRANCH  13  21
ENDBRANCH   2  13
TORSDOF 8
ENDMDL
MODEL      104
REMARK 921   NORMALIZED FREE ENERGY PREDICTED BY IDOCK:   -5.31 KCAL/MOL
REMARK 922        TOTAL FREE ENERGY PREDICTED BY IDOCK:   -9.26 KCAL/MOL
REMARK 923 INTER-LIGAND FREE ENERGY PREDICTED BY IDOCK:   -8.27 KCAL/MOL
REMARK 924 INTRA-LIGAND FREE ENERGY PREDICTED BY IDOCK:   -0.99 KCAL/MOL
REMARK 927      BINDING AFFINITY PREDICTED BY RF-SCORE:    0.00 PKD
ROOT
HETATM    1  O   UNL     1     -12.811  14.167  66.443  1.00  0.00    -0.490 OA 
HETATM    2  C   UNL     1     -12.047  14.176  67.657  1.00  0.00    -0.302 C  
HETATM    3  H   UNL     1     -13.285  14.985  66.355  1.00  0.00     0.000 HD 
ENDROOT
BRANCH   2   4
HETATM    4  C   UNL     1     -11.185  15.420  67.605  1.00  0.00    -0.311 A  
HETATM    5  C   UNL     1      -9.720  17.812  67.473  1.00  0.00    -0.284 A  
HETATM    6  C   UNL     1     -11.093  16.265  68.724  1.00  0.00    -0.355 A  
HETATM    7  O   UNL     1      -9.006  19.823  68.387  1.00  0.00    -0.327 OA 
HETATM    8  O   UNL     1      -8.424  19.358  66.324  1.00  0.00    -0.323 OA 
HETATM    9  C   UNL     1     -10.513  15.786  66.425  1.00  0.00    -0.307 A  
HETATM   10  C   UNL     1     -10.365  17.457  68.664  1.00  0.00    -0.364 A  
HETATM   11  N   UNL     1      -8.999  19.089  67.389  1.00  0.00    -0.288 N  
HETATM   12  C   UNL     1      -9.781  16.974  66.354  1.00  0.00    -0.310 A  
ENDBRANCH   2   4
BRANCH   2  13
HETATM   13  C   UNL     1     -11.271  12.838  67.802  1.00  0.00    -0.275 C  
BRANCH  13  14
HETATM   14  N   UNL     1     -11.054  12.254  66.457  1.00  0.00    -0.283 N  
HETATM   15  C   UNL     1      -9.711  11.298  64.583  1.00  0.00    -0.253 C  
HETATM   16  C   UNL     1      -9.792  12.017  65.938  1.00  0.00    -0.238 C  
HETATM   17  H   UNL     1     -11.868  12.017  65.889  1.00  0.00     0.000 HD 
HETATM   18  O   UNL     1      -8.773  12.341  66.549  1.00  0.00    -0.176 OA 
HETATM   19 CL   UNL     1     -11.200  11.506  63.637  1.00  0.00    -0.491 Cl 
HETATM   20 CL   UNL     1      -9.378   9.579  64.859  1.00  0.00    -0.299 Cl 
ENDBRANCH  13  14
BRANCH  13  21
HETATM   21  C   UNL     1     -12.028  11.866  68.735  1.00  0.00    -0.249 C  
BRANCH  21  22
HETATM   22  O   UNL     1     -11.206  11.397  69.821  1.00  0.00    -0.251 OA 
BRANCH  22  23
HETATM   23  C   UNL     1     -10.969  10.059  69.840  1.00  0.00    -0.293 C  
HETATM   24  O   UNL     1     -10.332   9.445  68.994  1.00  0.00    -0.198 OA 
BRANCH  23  25
HETATM   25  C   UNL     1     -11.584   9.417  71.055  1.00  0.00    -0.400 C  
BRANCH  25  26
HETATM   26  C   UNL     1     -10.860   8.142  71.441  1.00  0.00    -0.281 C  
HETATM   27  C   UNL     1     -11.716   6.911  71.281  1.00  0.00    -0.328 C  
HETATM   28  O   UNL     1     -12.058   6.636  70.006  1.00  0.00    -0.280 OA 
HETATM   29  O   UNL     1     -12.047   6.204  72.219  1.00  0.00    -0.311 OA 
ENDBRANCH  25  26
ENDBRANCH  23  25
ENDBRANCH  22  23
ENDBRANCH  21  22
ENDBRANCH  13  21
ENDBRANCH   2  13
TORSDOF 8
ENDMDL
MODEL      105
REMARK 921   NORMALIZED FREE ENERGY PREDICTED BY IDOCK:   -5.31 KCAL/MOL
REMARK 922        TOTAL FREE ENERGY PREDICTED BY IDOCK:   -9.26 KCAL/MOL
REMARK 923 INTER-LIGAND FREE ENERGY PREDICTED BY IDOCK:   -8.18 KCAL/MOL
REMARK 924 INTRA-LIGAND FREE ENERGY PREDICTED BY IDOCK:   -1.08 KCAL/MOL
REMARK 927      BINDING AFFINITY PREDICTED BY RF-SCORE:    0.00 PKD
ROOT
HETATM    1  O   UNL     1      -8.406  11.494  69.183  1.00  0.00    -0.370 OA 
HETATM    2  C   UNL     1      -9.210  10.312  69.298  1.00  0.00    -0.202 C  
HETATM    3  H   UNL     1      -7.506  11.255  68.998  1.00  0.00     0.000 HD 
ENDROOT
BRANCH   2   4
HETATM    4  C   UNL     1      -9.000   9.533  68.016  1.00  0.00    -0.123 A  
HETATM    5  C   UNL     1      -8.464   8.048  65.693  1.00  0.00    -0.149 A  
HETATM    6  C   UNL     1      -9.238   8.148  67.982  1.00  0.00    -0.137 A  
HETATM    7  O   UNL     1      -8.303   6.035  64.548  1.00  0.00    -0.123 OA 
HETATM    8  O   UNL     1      -7.705   7.871  63.507  1.00  0.00    -0.123 OA 
HETATM    9  C   UNL     1      -8.508  10.163  66.858  1.00  0.00    -0.126 A  
HETATM   10  C   UNL     1      -8.972   7.404  66.828  1.00  0.00    -0.159 A  
HETATM   11  N   UNL     1      -8.134   7.261  64.497  1.00  0.00    -0.109 N  
HETATM   12  C   UNL     1      -8.242   9.429  65.699  1.00  0.00    -0.121 A  
ENDBRANCH   2   4
BRANCH   2  13
HETATM   13  C   UNL     1     -10.683  10.702  69.602  1.00  0.00    -0.244 C  
BRANCH  13  14
HETATM   14  N   UNL     1     -11.246   9.744  70.584  1.00  0.00    -0.306 N  
HETATM   15  C   UNL     1     -12.845   8.953  72.328  1.00  0.00    -0.411 C  
HETATM   16  C   UNL     1     -12.278  10.074  71.446  1.00  0.00    -0.416 C  
HETATM   17  H   UNL     1     -10.856   8.801  70.627  1.00  0.00     0.000 HD 
HETATM   18  O   UNL     1     -12.744  11.214  71.485  1.00  0.00    -0.403 OA 
HETATM   19 CL   UNL     1     -11.667   7.646  72.573  1.00  0.00    -0.360 Cl 
HETATM   20 CL   UNL     1     -14.329   8.327  71.586  1.00  0.00    -0.532 Cl 
ENDBRANCH  13  14
BRANCH  13  21
HETATM   21  C   UNL     1     -11.516  10.746  68.301  1.00  0.00    -0.280 C  
BRANCH  21  22
HETATM   22  O   UNL     1     -12.038  12.061  68.031  1.00  0.00    -0.514 OA 
BRANCH  22  23
HETATM   23  C   UNL     1     -11.455  12.721  66.995  1.00  0.00    -0.341 C  
HETATM   24  O   UNL     1     -10.254  12.935  66.883  1.00  0.00    -0.237 OA 
BRANCH  23  25
HETATM   25  C   UNL     1     -12.480  13.150  65.980  1.00  0.00    -0.330 C  
BRANCH  25  26
HETATM   26  C   UNL     1     -11.830  13.611  64.690  1.00  0.00    -0.427 C  
HETATM   27  C   UNL     1     -11.637  12.491  63.698  1.00  0.00    -0.504 C  
HETATM   28  O   UNL     1     -12.786  11.961  63.232  1.00  0.00    -0.702 OA 
HETATM   29  O   UNL     1     -10.538  12.116  63.323  1.00  0.00    -0.428 OA 
ENDBRANCH  25  26
ENDBRANCH  23  25
ENDBRANCH  22  23
ENDBRANCH  21  22
ENDBRANCH  13  21
ENDBRANCH   2  13
TORSDOF 8
ENDMDL
MODEL      106
REMARK 921   NORMALIZED FREE ENERGY PREDICTED BY IDOCK:   -5.28 KCAL/MOL
REMARK 922        TOTAL FREE ENERGY PREDICTED BY IDOCK:   -9.22 KCAL/MOL
REMARK 923 INTER-LIGAND FREE ENERGY PREDICTED BY IDOCK:   -8.34 KCAL/MOL
REMARK 924 INTRA-LIGAND FREE ENERGY PREDICTED BY IDOCK:   -0.88 KCAL/MOL
REMARK 927      BINDING AFFINITY PREDICTED BY RF-SCORE:    0.00 PKD
ROOT
HETATM    1  O   UNL     1      -9.667  12.062  69.038  1.00  0.00    -0.412 OA 
HETATM    2  C   UNL     1      -9.901  11.436  67.769  1.00  0.00    -0.175 C  
HETATM    3  H   UNL     1      -9.061  12.786  68.934  1.00  0.00     0.000 HD 
ENDROOT
BRANCH   2   4
HETATM    4  C   UNL     1     -10.361  12.535  66.834  1.00  0.00    -0.242 A  
HETATM    5  C   UNL     1     -11.279  14.649  65.229  1.00  0.00    -0.358 A  
HETATM    6  C   UNL     1      -9.596  13.704  66.684  1.00  0.00    -0.289 A  
HETATM    7  O   UNL     1     -11.095  16.805  64.390  1.00  0.00    -1.072 OA 
HETATM    8  O   UNL     1     -12.867  15.631  63.850  1.00  0.00    -0.619 OA 
HETATM    9  C   UNL     1     -11.586  12.437  66.149  1.00  0.00    -0.452 A  
HETATM   10  C   UNL     1     -10.048  14.760  65.887  1.00  0.00    -0.343 A  
HETATM   11  N   UNL     1     -11.783  15.776  64.432  1.00  0.00    -0.310 N  
HETATM   12  C   UNL     1     -12.047  13.485  65.347  1.00  0.00    -0.447 A  
ENDBRANCH   2   4
BRANCH   2  13
HETATM   13  C   UNL     1     -10.893  10.253  67.939  1.00  0.00    -0.284 C  
BRANCH  13  14
HETATM   14  N   UNL     1     -10.826   9.760  69.336  1.00  0.00    -0.231 N  
HETATM   15  C   UNL     1     -11.605   9.489  71.691  1.00  0.00    -0.381 C  
HETATM   16  C   UNL     1     -11.713  10.168  70.318  1.00  0.00    -0.282 C  
HETATM   17  H   UNL     1     -10.095   9.092  69.585  1.00  0.00     0.000 HD 
HETATM   18  O   UNL     1     -12.574  11.020  70.094  1.00  0.00    -0.283 OA 
HETATM   19 CL   UNL     1      -9.983   8.821  71.971  1.00  0.00    -0.399 Cl 
HETATM   20 CL   UNL     1     -12.835   8.217  71.806  1.00  0.00    -0.342 Cl 
ENDBRANCH  13  14
BRANCH  13  21
HETATM   21  C   UNL     1     -10.587   9.133  66.919  1.00  0.00    -0.167 C  
BRANCH  21  22
HETATM   22  O   UNL     1      -9.228   9.184  66.443  1.00  0.00    -0.159 OA 
BRANCH  22  23
HETATM   23  C   UNL     1      -8.759   8.034  65.891  1.00  0.00    -0.157 C  
HETATM   24  O   UNL     1      -9.086   6.904  66.231  1.00  0.00    -0.156 OA 
BRANCH  23  25
HETATM   25  C   UNL     1      -7.784   8.325  64.780  1.00  0.00    -0.114 C  
BRANCH  25  26
HETATM   26  C   UNL     1      -8.488   8.496  63.449  1.00  0.00    -0.042 C  
HETATM   27  C   UNL     1      -8.716   9.942  63.088  1.00  0.00    -0.222 C  
HETATM   28  O   UNL     1      -7.585  10.644  62.873  1.00  0.00    -0.111 OA 
HETATM   29  O   UNL     1      -9.828  10.431  62.970  1.00  0.00    -0.293 OA 
ENDBRANCH  25  26
ENDBRANCH  23  25
ENDBRANCH  22  23
ENDBRANCH  21  22
ENDBRANCH  13  21
ENDBRANCH   2  13
TORSDOF 8
ENDMDL
MODEL      107
REMARK 921   NORMALIZED FREE ENERGY PREDICTED BY IDOCK:   -5.28 KCAL/MOL
REMARK 922        TOTAL FREE ENERGY PREDICTED BY IDOCK:   -9.21 KCAL/MOL
REMARK 923 INTER-LIGAND FREE ENERGY PREDICTED BY IDOCK:   -7.55 KCAL/MOL
REMARK 924 INTRA-LIGAND FREE ENERGY PREDICTED BY IDOCK:   -1.66 KCAL/MOL
REMARK 927      BINDING AFFINITY PREDICTED BY RF-SCORE:    0.00 PKD
ROOT
HETATM    1  O   UNL     1      -9.111  11.915  65.709  1.00  0.00    -0.386 OA 
HETATM    2  C   UNL     1      -9.169  12.068  67.134  1.00  0.00    -0.190 C  
HETATM    3  H   UNL     1      -8.459  11.263  65.481  1.00  0.00     0.000 HD 
ENDROOT
BRANCH   2   4
HETATM    4  C   UNL     1      -9.415  10.684  67.697  1.00  0.00    -0.167 A  
HETATM    5  C   UNL     1      -9.981   8.183  68.844  1.00  0.00    -0.192 A  
HETATM    6  C   UNL     1     -10.496   9.913  67.235  1.00  0.00    -0.319 A  
HETATM    7  O   UNL     1     -11.312   6.295  69.072  1.00  0.00    -0.390 OA 
HETATM    8  O   UNL     1      -9.564   6.496  70.382  1.00  0.00    -0.162 OA 
HETATM    9  C   UNL     1      -8.611  10.169  68.730  1.00  0.00    -0.133 A  
HETATM   10  C   UNL     1     -10.782   8.668  67.803  1.00  0.00    -0.178 A  
HETATM   11  N   UNL     1     -10.309   6.900  69.478  1.00  0.00    -0.199 N  
HETATM   12  C   UNL     1      -8.887   8.925  69.303  1.00  0.00    -0.139 A  
ENDBRANCH   2   4
BRANCH   2  13
HETATM   13  C   UNL     1     -10.235  13.135  67.507  1.00  0.00    -0.225 C  
BRANCH  13  14
HETATM   14  N   UNL     1      -9.757  14.470  67.075  1.00  0.00    -0.238 N  
HETATM   15  C   UNL     1      -9.962  16.735  66.047  1.00  0.00    -0.313 C  
HETATM   16  C   UNL     1     -10.533  15.337  66.324  1.00  0.00    -0.307 C  
HETATM   17  H   UNL     1      -8.817  14.764  67.343  1.00  0.00     0.000 HD 
HETATM   18  O   UNL     1     -11.650  15.013  65.917  1.00  0.00    -0.291 OA 
HETATM   19 CL   UNL     1      -8.189  16.755  66.151  1.00  0.00    -0.347 Cl 
HETATM   20 CL   UNL     1     -10.669  17.887  67.195  1.00  0.00    -0.298 Cl 
ENDBRANCH  13  14
BRANCH  13  21
HETATM   21  C   UNL     1     -10.539  13.095  69.021  1.00  0.00    -0.056 C  
BRANCH  21  22
HETATM   22  O   UNL     1     -11.950  13.188  69.299  1.00  0.00    -0.311 OA 
BRANCH  22  23
HETATM   23  C   UNL     1     -12.355  12.617  70.464  1.00  0.00    -0.268 C  
HETATM   24  O   UNL     1     -12.960  13.195  71.359  1.00  0.00    -0.354 OA 
BRANCH  23  25
HETATM   25  C   UNL     1     -11.977  11.161  70.515  1.00  0.00    -0.475 C  
BRANCH  25  26
HETATM   26  C   UNL     1     -12.766  10.415  71.573  1.00  0.00    -0.564 C  
HETATM   27  C   UNL     1     -12.337   8.976  71.717  1.00  0.00    -0.367 C  
HETATM   28  O   UNL     1     -11.078   8.818  72.176  1.00  0.00    -0.355 OA 
HETATM   29  O   UNL     1     -13.072   8.034  71.471  1.00  0.00    -0.323 OA 
ENDBRANCH  25  26
ENDBRANCH  23  25
ENDBRANCH  22  23
ENDBRANCH  21  22
ENDBRANCH  13  21
ENDBRANCH   2  13
TORSDOF 8
ENDMDL
MODEL      108
REMARK 921   NORMALIZED FREE ENERGY PREDICTED BY IDOCK:   -5.27 KCAL/MOL
REMARK 922        TOTAL FREE ENERGY PREDICTED BY IDOCK:   -9.21 KCAL/MOL
REMARK 923 INTER-LIGAND FREE ENERGY PREDICTED BY IDOCK:   -7.84 KCAL/MOL
REMARK 924 INTRA-LIGAND FREE ENERGY PREDICTED BY IDOCK:   -1.36 KCAL/MOL
REMARK 927      BINDING AFFINITY PREDICTED BY RF-SCORE:    0.00 PKD
ROOT
HETATM    1  O   UNL     1     -12.093  12.237  66.106  1.00  0.00    -0.625 OA 
HETATM    2  C   UNL     1     -11.710  12.702  67.408  1.00  0.00    -0.369 C  
HETATM    3  H   UNL     1     -12.770  12.799  65.749  1.00  0.00     0.000 HD 
ENDROOT
BRANCH   2   4
HETATM    4  C   UNL     1     -11.320  14.156  67.238  1.00  0.00    -0.349 A  
HETATM    5  C   UNL     1     -10.752  16.886  66.901  1.00  0.00    -0.130 A  
HETATM    6  C   UNL     1     -11.410  15.044  68.323  1.00  0.00    -0.331 A  
HETATM    7  O   UNL     1     -10.665  19.066  67.691  1.00  0.00    -0.443 OA 
HETATM    8  O   UNL     1     -10.157  18.705  65.589  1.00  0.00    -0.495 OA 
HETATM    9  C   UNL     1     -10.920  14.657  65.986  1.00  0.00    -0.325 A  
HETATM   10  C   UNL     1     -11.129  16.404  68.161  1.00  0.00    -0.320 A  
HETATM   11  N   UNL     1     -10.507  18.322  66.714  1.00  0.00    -0.377 N  
HETATM   12  C   UNL     1     -10.635  16.014  65.813  1.00  0.00    -0.366 A  
ENDBRANCH   2   4
BRANCH   2  13
HETATM   13  C   UNL     1     -10.602  11.783  67.992  1.00  0.00    -0.206 C  
BRANCH  13  14
HETATM   14  N   UNL     1     -11.124  11.105  69.204  1.00  0.00    -0.229 N  
HETATM   15  C   UNL     1     -11.507   9.180  70.744  1.00  0.00    -0.282 C  
HETATM   16  C   UNL     1     -11.036   9.736  69.392  1.00  0.00    -0.212 C  
HETATM   17  H   UNL     1     -11.566  11.671  69.929  1.00  0.00     0.000 HD 
HETATM   18  O   UNL     1     -10.572   8.995  68.525  1.00  0.00    -0.209 OA 
HETATM   19 CL   UNL     1     -12.672  10.263  71.533  1.00  0.00    -0.518 Cl 
HETATM   20 CL   UNL     1     -10.096   8.913  71.784  1.00  0.00    -0.398 Cl 
ENDBRANCH  13  14
BRANCH  13  21
HETATM   21  C   UNL     1      -9.322  12.594  68.294  1.00  0.00    -0.195 C  
BRANCH  21  22
HETATM   22  O   UNL     1      -8.376  12.547  67.208  1.00  0.00    -0.171 OA 
BRANCH  22  23
HETATM   23  C   UNL     1      -7.205  13.202  67.424  1.00  0.00    -0.110 C  
HETATM   24  O   UNL     1      -6.104  12.819  67.049  1.00  0.00    -0.282 OA 
BRANCH  23  25
HETATM   25  C   UNL     1      -7.433  14.484  68.180  1.00  0.00    -0.126 C  
BRANCH  25  26
HETATM   26  C   UNL     1      -7.187  15.699  67.309  1.00  0.00    -0.252 C  
HETATM   27  C   UNL     1      -6.817  16.926  68.105  1.00  0.00    -0.161 C  
HETATM   28  O   UNL     1      -5.638  16.831  68.752  1.00  0.00    -0.128 OA 
HETATM   29  O   UNL     1      -7.508  17.932  68.137  1.00  0.00    -0.233 OA 
ENDBRANCH  25  26
ENDBRANCH  23  25
ENDBRANCH  22  23
ENDBRANCH  21  22
ENDBRANCH  13  21
ENDBRANCH   2  13
TORSDOF 8
ENDMDL
MODEL      109
REMARK 921   NORMALIZED FREE ENERGY PREDICTED BY IDOCK:   -5.25 KCAL/MOL
REMARK 922        TOTAL FREE ENERGY PREDICTED BY IDOCK:   -9.18 KCAL/MOL
REMARK 923 INTER-LIGAND FREE ENERGY PREDICTED BY IDOCK:   -8.01 KCAL/MOL
REMARK 924 INTRA-LIGAND FREE ENERGY PREDICTED BY IDOCK:   -1.16 KCAL/MOL
REMARK 927      BINDING AFFINITY PREDICTED BY RF-SCORE:    0.00 PKD
ROOT
HETATM    1  O   UNL     1     -12.135  10.421  68.419  1.00  0.00    -0.769 OA 
HETATM    2  C   UNL     1     -11.041  11.252  68.005  1.00  0.00    -0.266 C  
HETATM    3  H   UNL     1     -11.900   9.507  68.320  1.00  0.00     0.000 HD 
ENDROOT
BRANCH   2   4
HETATM    4  C   UNL     1      -9.841  10.802  68.811  1.00  0.00    -0.200 A  
HETATM    5  C   UNL     1      -7.586   9.854  70.192  1.00  0.00    -0.175 A  
HETATM    6  C   UNL     1      -8.554  11.263  68.482  1.00  0.00    -0.156 A  
HETATM    7  O   UNL     1      -5.290   9.714  70.501  1.00  0.00    -0.034 OA 
HETATM    8  O   UNL     1      -6.585   8.505  71.794  1.00  0.00    -0.061 OA 
HETATM    9  C   UNL     1      -9.978   9.874  69.859  1.00  0.00    -0.292 A  
HETATM   10  C   UNL     1      -7.429  10.794  69.166  1.00  0.00    -0.123 A  
HETATM   11  N   UNL     1      -6.402   9.320  70.878  1.00  0.00    -0.068 N  
HETATM   12  C   UNL     1      -8.860   9.400  70.550  1.00  0.00    -0.287 A  
ENDBRANCH   2   4
BRANCH   2  13
HETATM   13  C   UNL     1     -11.425  12.749  68.168  1.00  0.00    -0.314 C  
BRANCH  13  14
HETATM   14  N   UNL     1     -12.181  12.922  69.431  1.00  0.00    -0.169 N  
HETATM   15  C   UNL     1     -12.880  14.095  71.520  1.00  0.00    -0.354 C  
HETATM   16  C   UNL     1     -11.944  13.966  70.309  1.00  0.00    -0.331 C  
HETATM   17  H   UNL     1     -12.907  12.243  69.664  1.00  0.00     0.000 HD 
HETATM   18  O   UNL     1     -11.039  14.779  70.114  1.00  0.00    -0.234 OA 
HETATM   19 CL   UNL     1     -13.639  12.543  71.934  1.00  0.00    -0.381 Cl 
HETATM   20 CL   UNL     1     -14.112  15.322  71.172  1.00  0.00    -0.508 Cl 
ENDBRANCH  13  14
BRANCH  13  21
HETATM   21  C   UNL     1     -12.230  13.242  66.944  1.00  0.00    -0.257 C  
BRANCH  21  22
HETATM   22  O   UNL     1     -11.533  13.014  65.703  1.00  0.00    -0.313 OA 
BRANCH  22  23
HETATM   23  C   UNL     1     -12.298  12.548  64.681  1.00  0.00    -0.474 C  
HETATM   24  O   UNL     1     -13.519  12.453  64.701  1.00  0.00    -0.671 OA 
BRANCH  23  25
HETATM   25  C   UNL     1     -11.449  12.171  63.497  1.00  0.00    -0.544 C  
BRANCH  25  26
HETATM   26  C   UNL     1      -9.972  12.200  63.835  1.00  0.00    -0.329 C  
HETATM   27  C   UNL     1      -9.376  10.822  63.979  1.00  0.00    -0.252 C  
HETATM   28  O   UNL     1      -9.364  10.102  62.839  1.00  0.00    -0.279 OA 
HETATM   29  O   UNL     1      -8.915  10.402  65.028  1.00  0.00    -0.173 OA 
ENDBRANCH  25  26
ENDBRANCH  23  25
ENDBRANCH  22  23
ENDBRANCH  21  22
ENDBRANCH  13  21
ENDBRANCH   2  13
TORSDOF 8
ENDMDL
MODEL      110
REMARK 921   NORMALIZED FREE ENERGY PREDICTED BY IDOCK:   -5.25 KCAL/MOL
REMARK 922        TOTAL FREE ENERGY PREDICTED BY IDOCK:   -9.18 KCAL/MOL
REMARK 923 INTER-LIGAND FREE ENERGY PREDICTED BY IDOCK:   -8.18 KCAL/MOL
REMARK 924 INTRA-LIGAND FREE ENERGY PREDICTED BY IDOCK:   -1.00 KCAL/MOL
REMARK 927      BINDING AFFINITY PREDICTED BY RF-SCORE:    0.00 PKD
ROOT
HETATM    1  O   UNL     1      -8.466  13.943  68.848  1.00  0.00    -0.339 OA 
HETATM    2  C   UNL     1      -9.748  13.691  68.255  1.00  0.00    -0.231 C  
HETATM    3  H   UNL     1      -8.359  13.406  69.624  1.00  0.00     0.000 HD 
ENDROOT
BRANCH   2   4
HETATM    4  C   UNL     1      -9.820  12.196  68.022  1.00  0.00    -0.202 A  
HETATM    5  C   UNL     1      -9.923   9.403  67.748  1.00  0.00    -0.184 A  
HETATM    6  C   UNL     1     -11.013  11.497  68.272  1.00  0.00    -0.272 A  
HETATM    7  O   UNL     1     -11.026   7.371  67.952  1.00  0.00    -0.118 OA 
HETATM    8  O   UNL     1      -8.935   7.354  67.289  1.00  0.00    -0.122 OA 
HETATM    9  C   UNL     1      -8.685  11.472  67.612  1.00  0.00    -0.142 A  
HETATM   10  C   UNL     1     -11.070  10.107  68.138  1.00  0.00    -0.290 A  
HETATM   11  N   UNL     1      -9.965   7.938  67.657  1.00  0.00    -0.168 N  
HETATM   12  C   UNL     1      -8.732  10.083  67.472  1.00  0.00    -0.125 A  
ENDBRANCH   2   4
BRANCH   2  13
HETATM   13  C   UNL     1      -9.924  14.569  66.985  1.00  0.00    -0.255 C  
BRANCH  13  14
HETATM   14  N   UNL     1      -8.840  15.580  66.940  1.00  0.00    -0.234 N  
HETATM   15  C   UNL     1      -7.765  17.732  66.277  1.00  0.00    -0.273 C  
HETATM   16  C   UNL     1      -8.899  16.706  66.138  1.00  0.00    -0.288 C  
HETATM   17  H   UNL     1      -8.015  15.440  67.525  1.00  0.00     0.000 HD 
HETATM   18  O   UNL     1      -9.838  16.897  65.363  1.00  0.00    -0.537 OA 
HETATM   19 CL   UNL     1      -6.283  16.992  66.918  1.00  0.00    -0.219 Cl 
HETATM   20 CL   UNL     1      -8.307  19.056  67.324  1.00  0.00    -0.290 Cl 
ENDBRANCH  13  14
BRANCH  13  21
HETATM   21  C   UNL     1     -11.323  15.224  66.964  1.00  0.00    -0.230 C  
BRANCH  21  22
HETATM   22  O   UNL     1     -12.356  14.297  66.579  1.00  0.00    -0.445 OA 
BRANCH  22  23
HETATM   23  C   UNL     1     -12.409  13.998  65.254  1.00  0.00    -0.465 C  
HETATM   24  O   UNL     1     -12.417  14.820  64.346  1.00  0.00    -0.599 OA 
BRANCH  23  25
HETATM   25  C   UNL     1     -12.442  12.509  65.036  1.00  0.00    -0.494 C  
BRANCH  25  26
HETATM   26  C   UNL     1     -11.906  12.131  63.669  1.00  0.00    -0.608 C  
HETATM   27  C   UNL     1     -10.505  11.575  63.723  1.00  0.00    -0.405 C  
HETATM   28  O   UNL     1     -10.402  10.398  64.373  1.00  0.00    -0.304 OA 
HETATM   29  O   UNL     1      -9.550  12.124  63.197  1.00  0.00    -0.339 OA 
ENDBRANCH  25  26
ENDBRANCH  23  25
ENDBRANCH  22  23
ENDBRANCH  21  22
ENDBRANCH  13  21
ENDBRANCH   2  13
TORSDOF 8
ENDMDL
MODEL      111
REMARK 921   NORMALIZED FREE ENERGY PREDICTED BY IDOCK:   -5.25 KCAL/MOL
REMARK 922        TOTAL FREE ENERGY PREDICTED BY IDOCK:   -9.17 KCAL/MOL
REMARK 923 INTER-LIGAND FREE ENERGY PREDICTED BY IDOCK:   -8.12 KCAL/MOL
REMARK 924 INTRA-LIGAND FREE ENERGY PREDICTED BY IDOCK:   -1.04 KCAL/MOL
REMARK 927      BINDING AFFINITY PREDICTED BY RF-SCORE:    0.00 PKD
ROOT
HETATM    1  O   UNL     1     -12.421  12.674  66.215  1.00  0.00    -0.483 OA 
HETATM    2  C   UNL     1     -11.369  11.726  65.988  1.00  0.00    -0.273 C  
HETATM    3  H   UNL     1     -13.195  12.227  66.534  1.00  0.00     0.000 HD 
ENDROOT
BRANCH   2   4
HETATM    4  C   UNL     1     -11.189  10.975  67.291  1.00  0.00    -0.330 A  
HETATM    5  C   UNL     1     -10.983   9.490  69.666  1.00  0.00    -0.212 A  
HETATM    6  C   UNL     1     -10.481   9.761  67.316  1.00  0.00    -0.324 A  
HETATM    7  O   UNL     1     -10.337   7.595  70.840  1.00  0.00    -0.200 OA 
HETATM    8  O   UNL     1     -11.452   9.150  71.914  1.00  0.00    -0.360 OA 
HETATM    9  C   UNL     1     -11.774  11.441  68.482  1.00  0.00    -0.386 A  
HETATM   10  C   UNL     1     -10.376   9.018  68.496  1.00  0.00    -0.233 A  
HETATM   11  N   UNL     1     -10.919   8.687  70.894  1.00  0.00    -0.244 N  
HETATM   12  C   UNL     1     -11.673  10.707  69.667  1.00  0.00    -0.368 A  
ENDBRANCH   2   4
BRANCH   2  13
HETATM   13  C   UNL     1     -10.102  12.457  65.465  1.00  0.00    -0.267 C  
BRANCH  13  14
HETATM   14  N   UNL     1      -9.056  11.453  65.154  1.00  0.00    -0.393 N  
HETATM   15  C   UNL     1      -7.883   9.750  63.758  1.00  0.00    -0.143 C  
HETATM   16  C   UNL     1      -9.090  10.662  64.018  1.00  0.00    -0.224 C  
HETATM   17  H   UNL     1      -8.277  11.341  65.804  1.00  0.00     0.000 HD 
HETATM   18  O   UNL     1     -10.036  10.707  63.231  1.00  0.00    -0.305 OA 
HETATM   19 CL   UNL     1      -7.003   9.378  65.256  1.00  0.00    -0.088 Cl 
HETATM   20 CL   UNL     1      -6.811  10.530  62.580  1.00  0.00    -0.141 Cl 
ENDBRANCH  13  14
BRANCH  13  21
HETATM   21  C   UNL     1      -9.611  13.500  66.493  1.00  0.00    -0.277 C  
BRANCH  21  22
HETATM   22  O   UNL     1     -10.117  14.821  66.217  1.00  0.00    -0.262 OA 
BRANCH  22  23
HETATM   23  C   UNL     1     -10.818  15.401  67.227  1.00  0.00    -0.316 C  
HETATM   24  O   UNL     1     -11.830  14.939  67.738  1.00  0.00    -0.345 OA 
BRANCH  23  25
HETATM   25  C   UNL     1     -10.179  16.695  67.657  1.00  0.00    -0.285 C  
BRANCH  25  26
HETATM   26  C   UNL     1      -9.609  17.457  66.477  1.00  0.00    -0.292 C  
HETATM   27  C   UNL     1     -10.440  18.657  66.098  1.00  0.00    -0.430 C  
HETATM   28  O   UNL     1     -10.474  19.625  67.037  1.00  0.00    -0.423 OA 
HETATM   29  O   UNL     1     -11.009  18.761  65.023  1.00  0.00    -0.520 OA 
ENDBRANCH  25  26
ENDBRANCH  23  25
ENDBRANCH  22  23
ENDBRANCH  21  22
ENDBRANCH  13  21
ENDBRANCH   2  13
TORSDOF 8
ENDMDL
MODEL      112
REMARK 921   NORMALIZED FREE ENERGY PREDICTED BY IDOCK:   -5.24 KCAL/MOL
REMARK 922        TOTAL FREE ENERGY PREDICTED BY IDOCK:   -9.16 KCAL/MOL
REMARK 923 INTER-LIGAND FREE ENERGY PREDICTED BY IDOCK:   -8.22 KCAL/MOL
REMARK 924 INTRA-LIGAND FREE ENERGY PREDICTED BY IDOCK:   -0.94 KCAL/MOL
REMARK 927      BINDING AFFINITY PREDICTED BY RF-SCORE:    0.00 PKD
ROOT
HETATM    1  O   UNL     1     -11.431  12.039  69.984  1.00  0.00    -0.490 OA 
HETATM    2  C   UNL     1     -11.276  12.888  68.839  1.00  0.00    -0.279 C  
HETATM    3  H   UNL     1     -11.763  11.191  69.714  1.00  0.00     0.000 HD 
ENDROOT
BRANCH   2   4
HETATM    4  C   UNL     1     -10.396  12.129  67.867  1.00  0.00    -0.216 A  
HETATM    5  C   UNL     1      -8.734  10.617  66.183  1.00  0.00    -0.170 A  
HETATM    6  C   UNL     1     -10.904  11.020  67.170  1.00  0.00    -0.336 A  
HETATM    7  O   UNL     1      -8.341   8.790  64.806  1.00  0.00    -0.154 OA 
HETATM    8  O   UNL     1      -6.672  10.151  65.223  1.00  0.00    -0.111 OA 
HETATM    9  C   UNL     1      -9.045  12.479  67.689  1.00  0.00    -0.187 A  
HETATM   10  C   UNL     1     -10.080  10.263  66.331  1.00  0.00    -0.296 A  
HETATM   11  N   UNL     1      -7.853   9.793  65.344  1.00  0.00    -0.117 N  
HETATM   12  C   UNL     1      -8.214  11.731  66.851  1.00  0.00    -0.166 A  
ENDBRANCH   2   4
BRANCH   2  13
HETATM   13  C   UNL     1     -10.733  14.275  69.280  1.00  0.00    -0.172 C  
BRANCH  13  14
HETATM   14  N   UNL     1     -11.234  14.582  70.641  1.00  0.00    -0.504 N  
HETATM   15  C   UNL     1     -12.947  15.205  72.346  1.00  0.00    -0.362 C  
HETATM   16  C   UNL     1     -12.518  15.041  70.880  1.00  0.00    -0.345 C  
HETATM   17  H   UNL     1     -10.607  14.449  71.435  1.00  0.00     0.000 HD 
HETATM   18  O   UNL     1     -13.299  15.282  69.958  1.00  0.00     0.089 OA 
HETATM   19 CL   UNL     1     -11.550  15.424  73.421  1.00  0.00    -0.331 Cl 
HETATM   20 CL   UNL     1     -13.896  13.788  72.833  1.00  0.00    -0.251 Cl 
ENDBRANCH  13  14
BRANCH  13  21
HETATM   21  C   UNL     1     -11.131  15.366  68.261  1.00  0.00    -0.309 C  
BRANCH  21  22
HETATM   22  O   UNL     1     -10.040  15.728  67.392  1.00  0.00    -0.239 OA 
BRANCH  22  23
HETATM   23  C   UNL     1     -10.364  15.887  66.082  1.00  0.00    -0.328 C  
HETATM   24  O   UNL     1      -9.958  16.789  65.360  1.00  0.00    -0.572 OA 
BRANCH  23  25
HETATM   25  C   UNL     1     -11.288  14.794  65.615  1.00  0.00    -0.343 C  
BRANCH  25  26
HETATM   26  C   UNL     1     -10.678  13.990  64.484  1.00  0.00    -0.355 C  
HETATM   27  C   UNL     1     -11.685  13.125  63.770  1.00  0.00    -0.461 C  
HETATM   28  O   UNL     1     -12.638  13.814  63.110  1.00  0.00    -0.793 OA 
HETATM   29  O   UNL     1     -11.629  11.905  63.761  1.00  0.00    -0.417 OA 
ENDBRANCH  25  26
ENDBRANCH  23  25
ENDBRANCH  22  23
ENDBRANCH  21  22
ENDBRANCH  13  21
ENDBRANCH   2  13
TORSDOF 8
ENDMDL
MODEL      113
REMARK 921   NORMALIZED FREE ENERGY PREDICTED BY IDOCK:   -5.23 KCAL/MOL
REMARK 922        TOTAL FREE ENERGY PREDICTED BY IDOCK:   -9.15 KCAL/MOL
REMARK 923 INTER-LIGAND FREE ENERGY PREDICTED BY IDOCK:   -8.16 KCAL/MOL
REMARK 924 INTRA-LIGAND FREE ENERGY PREDICTED BY IDOCK:   -0.99 KCAL/MOL
REMARK 927      BINDING AFFINITY PREDICTED BY RF-SCORE:    0.00 PKD
ROOT
HETATM    1  O   UNL     1     -12.002  11.556  67.905  1.00  0.00    -0.618 OA 
HETATM    2  C   UNL     1     -11.496  11.843  66.594  1.00  0.00    -0.314 C  
HETATM    3  H   UNL     1     -12.443  10.715  67.904  1.00  0.00     0.000 HD 
ENDROOT
BRANCH   2   4
HETATM    4  C   UNL     1     -10.632  10.662  66.207  1.00  0.00    -0.229 A  
HETATM    5  C   UNL     1      -9.158   8.406  65.414  1.00  0.00     0.010 A  
HETATM    6  C   UNL     1     -10.036  10.607  64.935  1.00  0.00    -0.402 A  
HETATM    7  O   UNL     1      -7.985   7.189  63.824  1.00  0.00    -0.128 OA 
HETATM    8  O   UNL     1      -8.310   6.279  65.793  1.00  0.00    -0.132 OA 
HETATM    9  C   UNL     1     -10.458   9.574  67.081  1.00  0.00    -0.322 A  
HETATM   10  C   UNL     1      -9.302   9.487  64.535  1.00  0.00    -0.164 A  
HETATM   11  N   UNL     1      -8.432   7.206  64.979  1.00  0.00    -0.038 N  
HETATM   12  C   UNL     1      -9.724   8.450  66.693  1.00  0.00    -0.320 A  
ENDBRANCH   2   4
BRANCH   2  13
HETATM   13  C   UNL     1     -10.774  13.220  66.597  1.00  0.00    -0.280 C  
BRANCH  13  14
HETATM   14  N   UNL     1     -11.011  13.889  67.899  1.00  0.00    -0.245 N  
HETATM   15  C   UNL     1     -10.403  15.257  69.895  1.00  0.00    -0.243 C  
HETATM   16  C   UNL     1     -10.000  14.497  68.623  1.00  0.00    -0.237 C  
HETATM   17  H   UNL     1     -11.959  13.903  68.277  1.00  0.00     0.000 HD 
HETATM   18  O   UNL     1      -8.826  14.456  68.250  1.00  0.00    -0.169 OA 
HETATM   19 CL   UNL     1     -11.942  14.666  70.556  1.00  0.00    -0.349 Cl 
HETATM   20 CL   UNL     1     -10.503  16.989  69.527  1.00  0.00    -0.259 Cl 
ENDBRANCH  13  14
BRANCH  13  21
HETATM   21  C   UNL     1     -11.250  14.087  65.410  1.00  0.00    -0.319 C  
BRANCH  21  22
HETATM   22  O   UNL     1     -10.333  15.158  65.113  1.00  0.00    -0.379 OA 
BRANCH  22  23
HETATM   23  C   UNL     1     -10.893  16.391  64.997  1.00  0.00    -0.273 C  
HETATM   24  O   UNL     1     -11.425  16.832  63.986  1.00  0.00    -1.198 OA 
BRANCH  23  25
HETATM   25  C   UNL     1     -10.790  17.156  66.290  1.00  0.00     0.048 C  
BRANCH  25  26
HETATM   26  C   UNL     1     -10.494  18.623  66.050  1.00  0.00    -0.456 C  
HETATM   27  C   UNL     1      -9.101  19.017  66.472  1.00  0.00    -0.334 C  
HETATM   28  O   UNL     1      -8.120  18.436  65.751  1.00  0.00    -0.502 OA 
HETATM   29  O   UNL     1      -8.876  19.816  67.367  1.00  0.00    -0.305 OA 
ENDBRANCH  25  26
ENDBRANCH  23  25
ENDBRANCH  22  23
ENDBRANCH  21  22
ENDBRANCH  13  21
ENDBRANCH   2  13
TORSDOF 8
ENDMDL
MODEL      114
REMARK 921   NORMALIZED FREE ENERGY PREDICTED BY IDOCK:   -5.21 KCAL/MOL
REMARK 922        TOTAL FREE ENERGY PREDICTED BY IDOCK:   -9.12 KCAL/MOL
REMARK 923 INTER-LIGAND FREE ENERGY PREDICTED BY IDOCK:   -8.10 KCAL/MOL
REMARK 924 INTRA-LIGAND FREE ENERGY PREDICTED BY IDOCK:   -1.02 KCAL/MOL
REMARK 927      BINDING AFFINITY PREDICTED BY RF-SCORE:    0.00 PKD
ROOT
HETATM    1  O   UNL     1     -10.545  17.589  65.178  1.00  0.00    -0.657 OA 
HETATM    2  C   UNL     1     -10.591  17.398  66.599  1.00  0.00    -0.182 C  
HETATM    3  H   UNL     1     -10.529  18.516  64.978  1.00  0.00     0.000 HD 
ENDROOT
BRANCH   2   4
HETATM    4  C   UNL     1      -9.411  18.160  67.165  1.00  0.00    -0.264 A  
HETATM    5  C   UNL     1      -7.313  19.710  68.206  1.00  0.00    -0.316 A  
HETATM    6  C   UNL     1      -9.349  18.449  68.540  1.00  0.00    -0.354 A  
HETATM    7  O   UNL     1      -6.279  20.839  69.951  1.00  0.00    -0.341 OA 
HETATM    8  O   UNL     1      -5.374  20.962  67.957  1.00  0.00    -0.233 OA 
HETATM    9  C   UNL     1      -8.392  18.645  66.326  1.00  0.00    -0.249 A  
HETATM   10  C   UNL     1      -8.307  19.221  69.063  1.00  0.00    -0.268 A  
HETATM   11  N   UNL     1      -6.246  20.565  68.744  1.00  0.00    -0.329 N  
HETATM   12  C   UNL     1      -7.345  19.416  66.839  1.00  0.00    -0.232 A  
ENDBRANCH   2   4
BRANCH   2  13
HETATM   13  C   UNL     1     -10.617  15.879  66.927  1.00  0.00    -0.309 C  
BRANCH  13  14
HETATM   14  N   UNL     1      -9.259  15.448  67.337  1.00  0.00    -0.194 N  
HETATM   15  C   UNL     1      -7.576  13.945  68.404  1.00  0.00    -0.130 C  
HETATM   16  C   UNL     1      -9.036  14.353  68.155  1.00  0.00    -0.185 C  
HETATM   17  H   UNL     1      -8.455  15.980  67.003  1.00  0.00     0.000 HD 
HETATM   18  O   UNL     1      -9.968  13.712  68.641  1.00  0.00    -0.224 OA 
HETATM   19 CL   UNL     1      -6.461  15.308  68.167  1.00  0.00    -0.118 Cl 
HETATM   20 CL   UNL     1      -7.159  12.600  67.326  1.00  0.00    -0.134 Cl 
ENDBRANCH  13  14
BRANCH  13  21
HETATM   21  C   UNL     1     -11.137  15.069  65.718  1.00  0.00    -0.346 C  
BRANCH  21  22
HETATM   22  O   UNL     1     -12.138  14.103  66.096  1.00  0.00    -0.405 OA 
BRANCH  22  23
HETATM   23  C   UNL     1     -12.192  12.986  65.325  1.00  0.00    -0.466 C  
HETATM   24  O   UNL     1     -12.789  12.893  64.260  1.00  0.00    -0.676 OA 
BRANCH  23  25
HETATM   25  C   UNL     1     -11.404  11.862  65.944  1.00  0.00    -0.365 C  
BRANCH  25  26
HETATM   26  C   UNL     1      -9.972  11.843  65.447  1.00  0.00    -0.281 C  
HETATM   27  C   UNL     1      -9.727  10.780  64.405  1.00  0.00    -0.301 C  
HETATM   28  O   UNL     1     -10.397  10.971  63.251  1.00  0.00    -0.345 OA 
HETATM   29  O   UNL     1      -8.965   9.842  64.577  1.00  0.00    -0.199 OA 
ENDBRANCH  25  26
ENDBRANCH  23  25
ENDBRANCH  22  23
ENDBRANCH  21  22
ENDBRANCH  13  21
ENDBRANCH   2  13
TORSDOF 8
ENDMDL
MODEL      115
REMARK 921   NORMALIZED FREE ENERGY PREDICTED BY IDOCK:   -5.21 KCAL/MOL
REMARK 922        TOTAL FREE ENERGY PREDICTED BY IDOCK:   -9.12 KCAL/MOL
REMARK 923 INTER-LIGAND FREE ENERGY PREDICTED BY IDOCK:   -8.25 KCAL/MOL
REMARK 924 INTRA-LIGAND FREE ENERGY PREDICTED BY IDOCK:   -0.87 KCAL/MOL
REMARK 927      BINDING AFFINITY PREDICTED BY RF-SCORE:    0.00 PKD
ROOT
HETATM    1  O   UNL     1     -12.384  14.268  66.592  1.00  0.00    -0.511 OA 
HETATM    2  C   UNL     1     -11.029  14.423  67.034  1.00  0.00    -0.304 C  
HETATM    3  H   UNL     1     -12.456  13.501  66.036  1.00  0.00     0.000 HD 
ENDROOT
BRANCH   2   4
HETATM    4  C   UNL     1     -10.645  13.113  67.690  1.00  0.00    -0.235 A  
HETATM    5  C   UNL     1      -9.968  10.750  69.048  1.00  0.00    -0.199 A  
HETATM    6  C   UNL     1     -11.635  12.175  68.031  1.00  0.00    -0.411 A  
HETATM    7  O   UNL     1     -10.546   8.782  70.134  1.00  0.00    -0.211 OA 
HETATM    8  O   UNL     1      -8.427   9.346  70.069  1.00  0.00    -0.150 OA 
HETATM    9  C   UNL     1      -9.307  12.835  68.023  1.00  0.00    -0.213 A  
HETATM   10  C   UNL     1     -11.304  10.998  68.707  1.00  0.00    -0.349 A  
HETATM   11  N   UNL     1      -9.622   9.539  69.805  1.00  0.00    -0.201 N  
HETATM   12  C   UNL     1      -8.964  11.660  68.698  1.00  0.00    -0.087 A  
ENDBRANCH   2   4
BRANCH   2  13
HETATM   13  C   UNL     1     -10.911  15.678  67.944  1.00  0.00    -0.306 C  
BRANCH  13  14
HETATM   14  N   UNL     1      -9.538  15.747  68.500  1.00  0.00    -0.199 N  
HETATM   15  C   UNL     1      -7.155  16.481  68.586  1.00  0.00    -0.175 C  
HETATM   16  C   UNL     1      -8.495  16.378  67.844  1.00  0.00    -0.169 C  
HETATM   17  H   UNL     1      -9.354  15.311  69.404  1.00  0.00     0.000 HD 
HETATM   18  O   UNL     1      -8.641  16.866  66.722  1.00  0.00    -0.195 OA 
HETATM   19 CL   UNL     1      -6.989  15.218  69.824  1.00  0.00    -0.186 Cl 
HETATM   20 CL   UNL     1      -7.017  18.092  69.313  1.00  0.00    -0.206 Cl 
ENDBRANCH  13  14
BRANCH  13  21
HETATM   21  C   UNL     1     -11.982  15.647  69.057  1.00  0.00    -0.304 C  
BRANCH  21  22
HETATM   22  O   UNL     1     -11.546  14.908  70.215  1.00  0.00    -0.259 OA 
BRANCH  22  23
HETATM   23  C   UNL     1     -12.525  14.254  70.894  1.00  0.00    -0.354 C  
HETATM   24  O   UNL     1     -12.460  13.093  71.279  1.00  0.00    -0.332 OA 
BRANCH  23  25
HETATM   25  C   UNL     1     -13.711  15.150  71.131  1.00  0.00    -0.510 C  
BRANCH  25  26
HETATM   26  C   UNL     1     -13.935  15.403  72.608  1.00  0.00    -0.590 C  
HETATM   27  C   UNL     1     -12.648  15.600  73.371  1.00  0.00    -0.533 C  
HETATM   28  O   UNL     1     -11.961  16.706  73.021  1.00  0.00    -0.506 OA 
HETATM   29  O   UNL     1     -12.273  14.841  74.250  1.00  0.00    -0.552 OA 
ENDBRANCH  25  26
ENDBRANCH  23  25
ENDBRANCH  22  23
ENDBRANCH  21  22
ENDBRANCH  13  21
ENDBRANCH   2  13
TORSDOF 8
ENDMDL
MODEL      116
REMARK 921   NORMALIZED FREE ENERGY PREDICTED BY IDOCK:   -5.21 KCAL/MOL
REMARK 922        TOTAL FREE ENERGY PREDICTED BY IDOCK:   -9.11 KCAL/MOL
REMARK 923 INTER-LIGAND FREE ENERGY PREDICTED BY IDOCK:   -7.66 KCAL/MOL
REMARK 924 INTRA-LIGAND FREE ENERGY PREDICTED BY IDOCK:   -1.45 KCAL/MOL
REMARK 927      BINDING AFFINITY PREDICTED BY RF-SCORE:    0.00 PKD
ROOT
HETATM    1  O   UNL     1     -12.196  10.889  68.220  1.00  0.00    -0.804 OA 
HETATM    2  C   UNL     1     -10.998  11.644  68.449  1.00  0.00    -0.220 C  
HETATM    3  H   UNL     1     -12.951  11.464  68.254  1.00  0.00     0.000 HD 
ENDROOT
BRANCH   2   4
HETATM    4  C   UNL     1     -11.003  12.763  67.429  1.00  0.00    -0.285 A  
HETATM    5  C   UNL     1     -11.115  14.919  65.632  1.00  0.00    -0.348 A  
HETATM    6  C   UNL     1     -10.171  13.883  67.603  1.00  0.00    -0.242 A  
HETATM    7  O   UNL     1     -10.500  17.056  64.965  1.00  0.00    -0.660 OA 
HETATM    8  O   UNL     1     -11.997  15.987  63.770  1.00  0.00    -0.844 OA 
HETATM    9  C   UNL     1     -11.877  12.735  66.327  1.00  0.00    -0.485 A  
HETATM   10  C   UNL     1     -10.224  14.959  66.712  1.00  0.00    -0.259 A  
HETATM   11  N   UNL     1     -11.211  16.070  64.724  1.00  0.00    -0.408 N  
HETATM   12  C   UNL     1     -11.935  13.804  65.429  1.00  0.00    -0.395 A  
ENDBRANCH   2   4
BRANCH   2  13
HETATM   13  C   UNL     1      -9.762  10.703  68.394  1.00  0.00    -0.166 C  
BRANCH  13  14
HETATM   14  N   UNL     1      -9.449  10.396  66.978  1.00  0.00    -0.161 N  
HETATM   15  C   UNL     1      -7.963  10.034  65.006  1.00  0.00    -0.143 C  
HETATM   16  C   UNL     1      -8.170  10.497  66.456  1.00  0.00    -0.133 C  
HETATM   17  H   UNL     1     -10.206  10.098  66.362  1.00  0.00     0.000 HD 
HETATM   18  O   UNL     1      -7.229  10.912  67.132  1.00  0.00    -0.093 OA 
HETATM   19 CL   UNL     1      -9.473  10.094  64.073  1.00  0.00    -0.338 Cl 
HETATM   20 CL   UNL     1      -7.296   8.391  65.012  1.00  0.00    -0.083 Cl 
ENDBRANCH  13  14
BRANCH  13  21
HETATM   21  C   UNL     1     -10.017   9.421  69.218  1.00  0.00    -0.181 C  
BRANCH  21  22
HETATM   22  O   UNL     1     -10.819   8.461  68.502  1.00  0.00    -0.078 OA 
BRANCH  22  23
HETATM   23  C   UNL     1     -10.304   7.206  68.430  1.00  0.00    -0.194 C  
HETATM   24  O   UNL     1      -9.980   6.521  69.392  1.00  0.00    -0.154 OA 
BRANCH  23  25
HETATM   25  C   UNL     1     -10.191   6.747  67.001  1.00  0.00    -0.304 C  
BRANCH  25  26
HETATM   26  C   UNL     1      -9.190   5.619  66.851  1.00  0.00    -0.120 C  
HETATM   27  C   UNL     1      -9.845   4.277  66.644  1.00  0.00    -0.214 C  
HETATM   28  O   UNL     1     -10.529   4.168  65.487  1.00  0.00    -0.185 OA 
HETATM   29  O   UNL     1      -9.743   3.356  67.438  1.00  0.00    -0.163 OA 
ENDBRANCH  25  26
ENDBRANCH  23  25
ENDBRANCH  22  23
ENDBRANCH  21  22
ENDBRANCH  13  21
ENDBRANCH   2  13
TORSDOF 8
ENDMDL
MODEL      117
REMARK 921   NORMALIZED FREE ENERGY PREDICTED BY IDOCK:   -5.21 KCAL/MOL
REMARK 922        TOTAL FREE ENERGY PREDICTED BY IDOCK:   -9.11 KCAL/MOL
REMARK 923 INTER-LIGAND FREE ENERGY PREDICTED BY IDOCK:   -8.02 KCAL/MOL
REMARK 924 INTRA-LIGAND FREE ENERGY PREDICTED BY IDOCK:   -1.09 KCAL/MOL
REMARK 927      BINDING AFFINITY PREDICTED BY RF-SCORE:    0.00 PKD
ROOT
HETATM    1  O   UNL     1     -12.228  12.219  70.082  1.00  0.00    -0.292 OA 
HETATM    2  C   UNL     1     -11.065  11.931  69.293  1.00  0.00    -0.203 C  
HETATM    3  H   UNL     1     -12.408  13.151  70.063  1.00  0.00     0.000 HD 
ENDROOT
BRANCH   2   4
HETATM    4  C   UNL     1     -11.334  12.509  67.919  1.00  0.00    -0.343 A  
HETATM    5  C   UNL     1     -11.990  13.560  65.398  1.00  0.00    -0.379 A  
HETATM    6  C   UNL     1     -11.663  13.868  67.774  1.00  0.00    -0.401 A  
HETATM    7  O   UNL     1     -12.728  15.288  64.036  1.00  0.00    -0.710 OA 
HETATM    8  O   UNL     1     -12.353  13.332  63.117  1.00  0.00    -0.682 OA 
HETATM    9  C   UNL     1     -11.320  11.691  66.774  1.00  0.00    -0.354 A  
HETATM   10  C   UNL     1     -11.991  14.396  66.522  1.00  0.00    -0.406 A  
HETATM   11  N   UNL     1     -12.385  14.099  64.090  1.00  0.00    -0.405 N  
HETATM   12  C   UNL     1     -11.644  12.210  65.517  1.00  0.00    -0.398 A  
ENDBRANCH   2   4
BRANCH   2  13
HETATM   13  C   UNL     1     -10.771  10.405  69.323  1.00  0.00    -0.237 C  
BRANCH  13  14
HETATM   14  N   UNL     1     -11.419   9.810  70.516  1.00  0.00    -0.281 N  
HETATM   15  C   UNL     1     -12.070   7.968  72.068  1.00  0.00    -0.331 C  
HETATM   16  C   UNL     1     -11.476   8.444  70.735  1.00  0.00    -0.255 C  
HETATM   17  H   UNL     1     -11.842  10.433  71.206  1.00  0.00     0.000 HD 
HETATM   18  O   UNL     1     -11.042   7.641  69.907  1.00  0.00    -0.237 OA 
HETATM   19 CL   UNL     1     -13.164   9.177  72.772  1.00  0.00    -0.363 Cl 
HETATM   20 CL   UNL     1     -10.749   7.591  73.189  1.00  0.00    -0.432 Cl 
ENDBRANCH  13  14
BRANCH  13  21
HETATM   21  C   UNL     1      -9.248  10.144  69.306  1.00  0.00    -0.208 C  
BRANCH  21  22
HETATM   22  O   UNL     1      -8.760   9.841  67.985  1.00  0.00    -0.119 OA 
BRANCH  22  23
HETATM   23  C   UNL     1      -7.667  10.546  67.589  1.00  0.00    -0.097 C  
HETATM   24  O   UNL     1      -6.622  10.639  68.221  1.00  0.00    -0.061 OA 
BRANCH  23  25
HETATM   25  C   UNL     1      -7.898  11.198  66.252  1.00  0.00    -0.109 C  
BRANCH  25  26
HETATM   26  C   UNL     1      -7.428  10.317  65.112  1.00  0.00    -0.130 C  
HETATM   27  C   UNL     1      -8.525   9.444  64.555  1.00  0.00    -0.177 C  
HETATM   28  O   UNL     1      -9.525  10.124  63.959  1.00  0.00    -0.271 OA 
HETATM   29  O   UNL     1      -8.498   8.225  64.610  1.00  0.00    -0.143 OA 
ENDBRANCH  25  26
ENDBRANCH  23  25
ENDBRANCH  22  23
ENDBRANCH  21  22
ENDBRANCH  13  21
ENDBRANCH   2  13
TORSDOF 8
ENDMDL
MODEL      118
REMARK 921   NORMALIZED FREE ENERGY PREDICTED BY IDOCK:   -5.21 KCAL/MOL
REMARK 922        TOTAL FREE ENERGY PREDICTED BY IDOCK:   -9.11 KCAL/MOL
REMARK 923 INTER-LIGAND FREE ENERGY PREDICTED BY IDOCK:   -7.91 KCAL/MOL
REMARK 924 INTRA-LIGAND FREE ENERGY PREDICTED BY IDOCK:   -1.20 KCAL/MOL
REMARK 927      BINDING AFFINITY PREDICTED BY RF-SCORE:    0.00 PKD
ROOT
HETATM    1  O   UNL     1      -9.963   9.676  65.286  1.00  0.00    -0.396 OA 
HETATM    2  C   UNL     1     -10.632  10.418  66.315  1.00  0.00    -0.109 C  
HETATM    3  H   UNL     1     -10.425   9.778  64.463  1.00  0.00     0.000 HD 
ENDROOT
BRANCH   2   4
HETATM    4  C   UNL     1     -10.740  11.841  65.807  1.00  0.00    -0.328 A  
HETATM    5  C   UNL     1     -11.038  14.512  64.991  1.00  0.00    -0.387 A  
HETATM    6  C   UNL     1      -9.914  12.847  66.337  1.00  0.00    -0.267 A  
HETATM    7  O   UNL     1     -10.515  16.767  65.153  1.00  0.00    -0.658 OA 
HETATM    8  O   UNL     1     -12.091  16.168  63.751  1.00  0.00    -0.946 OA 
HETATM    9  C   UNL     1     -11.704  12.195  64.845  1.00  0.00    -0.373 A  
HETATM   10  C   UNL     1     -10.059  14.178  65.935  1.00  0.00    -0.337 A  
HETATM   11  N   UNL     1     -11.228  15.916  64.604  1.00  0.00    -0.427 N  
HETATM   12  C   UNL     1     -11.855  13.522  64.434  1.00  0.00    -0.455 A  
ENDBRANCH   2   4
BRANCH   2  13
HETATM   13  C   UNL     1      -9.876  10.252  67.663  1.00  0.00    -0.171 C  
BRANCH  13  14
HETATM   14  N   UNL     1      -8.601   9.535  67.419  1.00  0.00    -0.125 N  
HETATM   15  C   UNL     1      -6.140   9.158  67.575  1.00  0.00    -0.050 C  
HETATM   16  C   UNL     1      -7.369  10.056  67.775  1.00  0.00    -0.089 C  
HETATM   17  H   UNL     1      -8.633   8.619  66.969  1.00  0.00     0.000 HD 
HETATM   18  O   UNL     1      -7.262  11.183  68.262  1.00  0.00    -0.076 OA 
HETATM   19 CL   UNL     1      -6.423   7.920  66.332  1.00  0.00    -0.046 Cl 
HETATM   20 CL   UNL     1      -5.714   8.405  69.123  1.00  0.00    -0.038 Cl 
ENDBRANCH  13  14
BRANCH  13  21
HETATM   21  C   UNL     1     -10.759   9.518  68.696  1.00  0.00    -0.184 C  
BRANCH  21  22
HETATM   22  O   UNL     1     -10.169   9.506  70.011  1.00  0.00    -0.210 OA 
BRANCH  22  23
HETATM   23  C   UNL     1      -9.936   8.274  70.535  1.00  0.00    -0.184 C  
HETATM   24  O   UNL     1      -8.868   7.677  70.488  1.00  0.00    -0.146 OA 
BRANCH  23  25
HETATM   25  C   UNL     1     -11.169   7.730  71.207  1.00  0.00    -0.280 C  
BRANCH  25  26
HETATM   26  C   UNL     1     -11.717   8.695  72.239  1.00  0.00    -0.428 C  
HETATM   27  C   UNL     1     -13.077   9.235  71.873  1.00  0.00    -0.415 C  
HETATM   28  O   UNL     1     -14.053   8.305  71.847  1.00  0.00    -0.387 OA 
HETATM   29  O   UNL     1     -13.285  10.417  71.648  1.00  0.00    -0.399 OA 
ENDBRANCH  25  26
ENDBRANCH  23  25
ENDBRANCH  22  23
ENDBRANCH  21  22
ENDBRANCH  13  21
ENDBRANCH   2  13
TORSDOF 8
ENDMDL
MODEL      119
REMARK 921   NORMALIZED FREE ENERGY PREDICTED BY IDOCK:   -5.20 KCAL/MOL
REMARK 922        TOTAL FREE ENERGY PREDICTED BY IDOCK:   -9.10 KCAL/MOL
REMARK 923 INTER-LIGAND FREE ENERGY PREDICTED BY IDOCK:   -8.26 KCAL/MOL
REMARK 924 INTRA-LIGAND FREE ENERGY PREDICTED BY IDOCK:   -0.84 KCAL/MOL
REMARK 927      BINDING AFFINITY PREDICTED BY RF-SCORE:    0.00 PKD
ROOT
HETATM    1  O   UNL     1     -11.984  11.817  67.041  1.00  0.00    -0.610 OA 
HETATM    2  C   UNL     1     -10.763  11.722  67.788  1.00  0.00    -0.205 C  
HETATM    3  H   UNL     1     -12.357  10.953  66.921  1.00  0.00     0.000 HD 
ENDROOT
BRANCH   2   4
HETATM    4  C   UNL     1     -11.106  10.984  69.065  1.00  0.00    -0.301 A  
HETATM    5  C   UNL     1     -11.776   9.486  71.345  1.00  0.00    -0.393 A  
HETATM    6  C   UNL     1     -10.149  10.166  69.690  1.00  0.00    -0.265 A  
HETATM    7  O   UNL     1     -11.272   7.910  72.973  1.00  0.00    -0.411 OA 
HETATM    8  O   UNL     1     -13.292   8.765  72.948  1.00  0.00    -0.296 OA 
HETATM    9  C   UNL     1     -12.399  11.054  69.616  1.00  0.00    -0.303 A  
HETATM   10  C   UNL     1     -10.477   9.418  70.824  1.00  0.00    -0.372 A  
HETATM   11  N   UNL     1     -12.139   8.661  72.505  1.00  0.00    -0.349 N  
HETATM   12  C   UNL     1     -12.737  10.312  70.751  1.00  0.00    -0.434 A  
ENDBRANCH   2   4
BRANCH   2  13
HETATM   13  C   UNL     1     -10.152  13.137  67.984  1.00  0.00    -0.232 C  
BRANCH  13  14
HETATM   14  N   UNL     1      -8.807  13.004  68.596  1.00  0.00    -0.374 N  
HETATM   15  C   UNL     1      -6.422  13.616  68.996  1.00  0.00    -0.106 C  
HETATM   16  C   UNL     1      -7.725  13.769  68.198  1.00  0.00    -0.140 C  
HETATM   17  H   UNL     1      -8.675  12.320  69.342  1.00  0.00     0.000 HD 
HETATM   18  O   UNL     1      -7.807  14.564  67.260  1.00  0.00    -0.192 OA 
HETATM   19 CL   UNL     1      -6.335  12.045  69.821  1.00  0.00    -0.131 Cl 
HETATM   20 CL   UNL     1      -6.298  14.944  70.164  1.00  0.00    -0.166 Cl 
ENDBRANCH  13  14
BRANCH  13  21
HETATM   21  C   UNL     1     -11.087  14.022  68.838  1.00  0.00    -0.268 C  
BRANCH  21  22
HETATM   22  O   UNL     1     -11.558  15.177  68.116  1.00  0.00    -0.333 OA 
BRANCH  22  23
HETATM   23  C   UNL     1     -10.962  16.353  68.443  1.00  0.00    -0.353 C  
HETATM   24  O   UNL     1     -10.892  16.817  69.574  1.00  0.00    -0.317 OA 
BRANCH  23  25
HETATM   25  C   UNL     1     -10.376  17.021  67.227  1.00  0.00    -0.311 C  
BRANCH  25  26
HETATM   26  C   UNL     1      -9.168  17.865  67.580  1.00  0.00    -0.249 C  
HETATM   27  C   UNL     1      -8.762  18.801  66.468  1.00  0.00    -0.312 C  
HETATM   28  O   UNL     1      -9.671  19.757  66.191  1.00  0.00    -0.397 OA 
HETATM   29  O   UNL     1      -7.691  18.721  65.889  1.00  0.00    -0.439 OA 
ENDBRANCH  25  26
ENDBRANCH  23  25
ENDBRANCH  22  23
ENDBRANCH  21  22
ENDBRANCH  13  21
ENDBRANCH   2  13
TORSDOF 8
ENDMDL
MODEL      120
REMARK 921   NORMALIZED FREE ENERGY PREDICTED BY IDOCK:   -5.20 KCAL/MOL
REMARK 922        TOTAL FREE ENERGY PREDICTED BY IDOCK:   -9.10 KCAL/MOL
REMARK 923 INTER-LIGAND FREE ENERGY PREDICTED BY IDOCK:   -7.60 KCAL/MOL
REMARK 924 INTRA-LIGAND FREE ENERGY PREDICTED BY IDOCK:   -1.50 KCAL/MOL
REMARK 927      BINDING AFFINITY PREDICTED BY RF-SCORE:    0.00 PKD
ROOT
HETATM    1  O   UNL     1     -12.979  13.743  65.066  1.00  0.00    -0.732 OA 
HETATM    2  C   UNL     1     -12.285  13.484  66.295  1.00  0.00    -0.416 C  
HETATM    3  H   UNL     1     -13.537  14.505  65.166  1.00  0.00     0.000 HD 
ENDROOT
BRANCH   2   4
HETATM    4  C   UNL     1     -11.566  14.768  66.654  1.00  0.00    -0.319 A  
HETATM    5  C   UNL     1     -10.376  17.227  67.302  1.00  0.00    -0.331 A  
HETATM    6  C   UNL     1     -11.602  15.254  67.972  1.00  0.00    -0.325 A  
HETATM    7  O   UNL     1      -9.918  18.944  68.796  1.00  0.00    -0.391 OA 
HETATM    8  O   UNL     1      -9.228  19.161  66.725  1.00  0.00    -0.296 OA 
HETATM    9  C   UNL     1     -10.906  15.527  65.671  1.00  0.00    -0.354 A  
HETATM   10  C   UNL     1     -11.011  16.478  68.300  1.00  0.00    -0.346 A  
HETATM   11  N   UNL     1      -9.800  18.538  67.632  1.00  0.00    -0.303 N  
HETATM   12  C   UNL     1     -10.310  16.750  65.988  1.00  0.00    -0.346 A  
ENDBRANCH   2   4
BRANCH   2  13
HETATM   13  C   UNL     1     -11.371  12.237  66.132  1.00  0.00    -0.353 C  
BRANCH  13  14
HETATM   14  N   UNL     1     -10.025  12.549  66.668  1.00  0.00    -0.231 N  
HETATM   15  C   UNL     1      -8.112  12.360  68.260  1.00  0.00    -0.166 C  
HETATM   16  C   UNL     1      -9.569  12.058  67.880  1.00  0.00    -0.196 C  
HETATM   17  H   UNL     1      -9.407  13.150  66.122  1.00  0.00     0.000 HD 
HETATM   18  O   UNL     1     -10.292  11.381  68.613  1.00  0.00    -0.192 OA 
HETATM   19 CL   UNL     1      -7.501  13.807  67.432  1.00  0.00    -0.175 Cl 
HETATM   20 CL   UNL     1      -7.110  10.949  67.877  1.00  0.00    -0.080 Cl 
ENDBRANCH  13  14
BRANCH  13  21
HETATM   21  C   UNL     1     -11.312  11.794  64.653  1.00  0.00    -0.256 C  
BRANCH  21  22
HETATM   22  O   UNL     1      -9.991  11.931  64.093  1.00  0.00    -0.275 OA 
BRANCH  22  23
HETATM   23  C   UNL     1      -9.421  10.779  63.651  1.00  0.00    -0.291 C  
HETATM   24  O   UNL     1      -9.644  10.252  62.569  1.00  0.00    -0.302 OA 
BRANCH  23  25
HETATM   25  C   UNL     1      -8.455  10.229  64.667  1.00  0.00    -0.179 C  
BRANCH  25  26
HETATM   26  C   UNL     1      -8.644   8.738  64.868  1.00  0.00    -0.177 C  
HETATM   27  C   UNL     1      -9.186   8.395  66.233  1.00  0.00    -0.208 C  
HETATM   28  O   UNL     1     -10.437   8.846  66.461  1.00  0.00    -0.238 OA 
HETATM   29  O   UNL     1      -8.562   7.741  67.053  1.00  0.00    -0.124 OA 
ENDBRANCH  25  26
ENDBRANCH  23  25
ENDBRANCH  22  23
ENDBRANCH  21  22
ENDBRANCH  13  21
ENDBRANCH   2  13
TORSDOF 8
ENDMDL
MODEL      121
REMARK 921   NORMALIZED FREE ENERGY PREDICTED BY IDOCK:   -5.19 KCAL/MOL
REMARK 922        TOTAL FREE ENERGY PREDICTED BY IDOCK:   -9.09 KCAL/MOL
REMARK 923 INTER-LIGAND FREE ENERGY PREDICTED BY IDOCK:   -7.90 KCAL/MOL
REMARK 924 INTRA-LIGAND FREE ENERGY PREDICTED BY IDOCK:   -1.19 KCAL/MOL
REMARK 927      BINDING AFFINITY PREDICTED BY RF-SCORE:    0.00 PKD
ROOT
HETATM    1  O   UNL     1     -12.222  10.799  68.469  1.00  0.00    -0.824 OA 
HETATM    2  C   UNL     1     -10.918  10.917  67.882  1.00  0.00    -0.271 C  
HETATM    3  H   UNL     1     -12.457  11.612  68.898  1.00  0.00     0.000 HD 
ENDROOT
BRANCH   2   4
HETATM    4  C   UNL     1     -10.971  12.132  66.979  1.00  0.00    -0.319 A  
HETATM    5  C   UNL     1     -11.153  14.460  65.419  1.00  0.00    -0.331 A  
HETATM    6  C   UNL     1     -10.049  13.180  67.147  1.00  0.00    -0.242 A  
HETATM    7  O   UNL     1     -10.479  16.614  64.878  1.00  0.00    -0.657 OA 
HETATM    8  O   UNL     1     -12.181  15.758  63.791  1.00  0.00    -0.699 OA 
HETATM    9  C   UNL     1     -11.972  12.264  66.000  1.00  0.00    -0.342 A  
HETATM   10  C   UNL     1     -10.136  14.341  66.374  1.00  0.00    -0.295 A  
HETATM   11  N   UNL     1     -11.280  15.699  64.641  1.00  0.00    -0.419 N  
HETATM   12  C   UNL     1     -12.067  13.419  65.220  1.00  0.00    -0.446 A  
ENDBRANCH   2   4
BRANCH   2  13
HETATM   13  C   UNL     1     -10.532   9.586  67.180  1.00  0.00    -0.253 C  
BRANCH  13  14
HETATM   14  N   UNL     1     -10.647   8.473  68.153  1.00  0.00    -0.397 N  
HETATM   15  C   UNL     1     -10.667   6.088  68.887  1.00  0.00    -0.317 C  
HETATM   16  C   UNL     1     -10.666   7.142  67.770  1.00  0.00    -0.212 C  
HETATM   17  H   UNL     1     -10.716   8.697  69.146  1.00  0.00     0.000 HD 
HETATM   18  O   UNL     1     -10.651   6.813  66.583  1.00  0.00    -0.226 OA 
HETATM   19 CL   UNL     1     -11.314   6.740  70.408  1.00  0.00    -0.371 Cl 
HETATM   20 CL   UNL     1      -9.016   5.485  69.116  1.00  0.00    -0.113 Cl 
ENDBRANCH  13  14
BRANCH  13  21
HETATM   21  C   UNL     1      -9.112   9.678  66.578  1.00  0.00    -0.154 C  
BRANCH  21  22
HETATM   22  O   UNL     1      -8.084   9.467  67.565  1.00  0.00    -0.109 OA 
BRANCH  22  23
HETATM   23  C   UNL     1      -7.491  10.594  68.042  1.00  0.00    -0.090 C  
HETATM   24  O   UNL     1      -6.997  11.476  67.351  1.00  0.00    -0.093 OA 
BRANCH  23  25
HETATM   25  C   UNL     1      -7.531  10.632  69.546  1.00  0.00    -0.132 C  
BRANCH  25  26
HETATM   26  C   UNL     1      -7.365   9.250  70.146  1.00  0.00    -0.096 C  
HETATM   27  C   UNL     1      -8.030   9.112  71.493  1.00  0.00     0.140 C  
HETATM   28  O   UNL     1      -9.374   9.218  71.461  1.00  0.00    -0.287 OA 
HETATM   29  O   UNL     1      -7.410   8.892  72.522  1.00  0.00    -0.341 OA 
ENDBRANCH  25  26
ENDBRANCH  23  25
ENDBRANCH  22  23
ENDBRANCH  21  22
ENDBRANCH  13  21
ENDBRANCH   2  13
TORSDOF 8
ENDMDL
MODEL      122
REMARK 921   NORMALIZED FREE ENERGY PREDICTED BY IDOCK:   -5.14 KCAL/MOL
REMARK 922        TOTAL FREE ENERGY PREDICTED BY IDOCK:   -9.01 KCAL/MOL
REMARK 923 INTER-LIGAND FREE ENERGY PREDICTED BY IDOCK:   -8.16 KCAL/MOL
REMARK 924 INTRA-LIGAND FREE ENERGY PREDICTED BY IDOCK:   -0.85 KCAL/MOL
REMARK 927      BINDING AFFINITY PREDICTED BY RF-SCORE:    0.00 PKD
ROOT
HETATM    1  O   UNL     1      -7.561  11.951  67.350  1.00  0.00    -0.132 OA 
HETATM    2  C   UNL     1      -8.904  11.507  67.111  1.00  0.00    -0.168 C  
HETATM    3  H   UNL     1      -7.176  12.265  66.541  1.00  0.00     0.000 HD 
ENDROOT
BRANCH   2   4
HETATM    4  C   UNL     1      -9.624  12.671  66.463  1.00  0.00    -0.248 A  
HETATM    5  C   UNL     1     -10.886  14.792  65.122  1.00  0.00    -0.404 A  
HETATM    6  C   UNL     1     -10.814  12.457  65.746  1.00  0.00    -0.312 A  
HETATM    7  O   UNL     1     -12.529  15.626  63.710  1.00  0.00    -0.642 OA 
HETATM    8  O   UNL     1     -11.004  17.013  64.459  1.00  0.00    -1.031 OA 
HETATM    9  C   UNL     1      -9.090  13.972  66.513  1.00  0.00    -0.173 A  
HETATM   10  C   UNL     1     -11.446  13.509  65.077  1.00  0.00    -0.334 A  
HETATM   11  N   UNL     1     -11.518  15.889  64.377  1.00  0.00    -0.366 N  
HETATM   12  C   UNL     1      -9.715  15.031  65.849  1.00  0.00    -0.376 A  
ENDBRANCH   2   4
BRANCH   2  13
HETATM   13  C   UNL     1      -9.533  10.993  68.435  1.00  0.00    -0.182 C  
BRANCH  13  14
HETATM   14  N   UNL     1     -10.273  12.102  69.084  1.00  0.00    -0.420 N  
HETATM   15  C   UNL     1     -12.286  13.278  69.973  1.00  0.00    -0.275 C  
HETATM   16  C   UNL     1     -11.654  12.132  69.170  1.00  0.00    -0.319 C  
HETATM   17  H   UNL     1      -9.742  12.876  69.484  1.00  0.00     0.000 HD 
HETATM   18  O   UNL     1     -12.351  11.259  68.650  1.00  0.00    -0.534 OA 
HETATM   19 CL   UNL     1     -11.210  14.689  70.066  1.00  0.00    -0.274 Cl 
HETATM   20 CL   UNL     1     -12.693  12.693  71.597  1.00  0.00    -0.346 Cl 
ENDBRANCH  13  14
BRANCH  13  21
HETATM   21  C   UNL     1      -8.447  10.406  69.364  1.00  0.00    -0.134 C  
BRANCH  21  22
HETATM   22  O   UNL     1      -8.361   8.971  69.267  1.00  0.00    -0.117 OA 
BRANCH  22  23
HETATM   23  C   UNL     1      -7.875   8.338  70.368  1.00  0.00    -0.089 C  
HETATM   24  O   UNL     1      -6.745   8.477  70.818  1.00  0.00    -0.037 OA 
BRANCH  23  25
HETATM   25  C   UNL     1      -8.918   7.444  70.984  1.00  0.00    -0.151 C  
BRANCH  25  26
HETATM   26  C   UNL     1      -9.745   8.180  72.019  1.00  0.00    -0.292 C  
HETATM   27  C   UNL     1      -9.451   7.734  73.429  1.00  0.00    -0.287 C  
HETATM   28  O   UNL     1      -8.201   8.018  73.850  1.00  0.00    -0.205 OA 
HETATM   29  O   UNL     1     -10.279   7.190  74.142  1.00  0.00    -0.309 OA 
ENDBRANCH  25  26
ENDBRANCH  23  25
ENDBRANCH  22  23
ENDBRANCH  21  22
ENDBRANCH  13  21
ENDBRANCH   2  13
TORSDOF 8
ENDMDL
MODEL      123
REMARK 921   NORMALIZED FREE ENERGY PREDICTED BY IDOCK:   -5.13 KCAL/MOL
REMARK 922        TOTAL FREE ENERGY PREDICTED BY IDOCK:   -9.00 KCAL/MOL
REMARK 923 INTER-LIGAND FREE ENERGY PREDICTED BY IDOCK:   -7.58 KCAL/MOL
REMARK 924 INTRA-LIGAND FREE ENERGY PREDICTED BY IDOCK:   -1.42 KCAL/MOL
REMARK 927      BINDING AFFINITY PREDICTED BY RF-SCORE:    0.00 PKD
ROOT
HETATM    1  O   UNL     1      -7.583  14.689  68.766  1.00  0.00    -0.124 OA 
HETATM    2  C   UNL     1      -8.953  14.512  68.379  1.00  0.00    -0.186 C  
HETATM    3  H   UNL     1      -7.361  14.073  69.454  1.00  0.00     0.000 HD 
ENDROOT
BRANCH   2   4
HETATM    4  C   UNL     1      -9.103  13.051  68.010  1.00  0.00    -0.210 A  
HETATM    5  C   UNL     1      -9.428  10.388  67.180  1.00  0.00    -0.159 A  
HETATM    6  C   UNL     1      -8.070  12.383  67.329  1.00  0.00    -0.182 A  
HETATM    7  O   UNL     1      -8.698   8.498  66.048  1.00  0.00    -0.142 OA 
HETATM    8  O   UNL     1     -10.686   8.448  66.972  1.00  0.00    -0.289 OA 
HETATM    9  C   UNL     1     -10.293  12.353  68.286  1.00  0.00    -0.232 A  
HETATM   10  C   UNL     1      -8.227  11.057  66.913  1.00  0.00    -0.140 A  
HETATM   11  N   UNL     1      -9.617   9.013  66.699  1.00  0.00    -0.193 N  
HETATM   12  C   UNL     1     -10.460  11.027  67.876  1.00  0.00    -0.223 A  
ENDBRANCH   2   4
BRANCH   2  13
HETATM   13  C   UNL     1      -9.318  15.520  67.253  1.00  0.00    -0.212 C  
BRANCH  13  14
HETATM   14  N   UNL     1      -8.949  16.888  67.689  1.00  0.00    -0.217 N  
HETATM   15  C   UNL     1      -8.134  19.227  67.389  1.00  0.00    -0.277 C  
HETATM   16  C   UNL     1      -8.352  17.808  66.844  1.00  0.00    -0.238 C  
HETATM   17  H   UNL     1      -9.144  17.164  68.653  1.00  0.00     0.000 HD 
HETATM   18  O   UNL     1      -8.034  17.512  65.691  1.00  0.00    -0.512 OA 
HETATM   19 CL   UNL     1      -8.060  19.248  69.163  1.00  0.00    -0.278 Cl 
HETATM   20 CL   UNL     1      -9.436  20.279  66.804  1.00  0.00    -0.520 Cl 
ENDBRANCH  13  14
BRANCH  13  21
HETATM   21  C   UNL     1     -10.816  15.415  66.893  1.00  0.00    -0.313 C  
BRANCH  21  22
HETATM   22  O   UNL     1     -11.138  16.120  65.678  1.00  0.00    -0.173 OA 
BRANCH  22  23
HETATM   23  C   UNL     1     -11.678  15.363  64.687  1.00  0.00    -0.267 C  
HETATM   24  O   UNL     1     -12.169  15.800  63.654  1.00  0.00    -0.587 OA 
BRANCH  23  25
HETATM   25  C   UNL     1     -11.583  13.896  65.014  1.00  0.00    -0.350 C  
BRANCH  25  26
HETATM   26  C   UNL     1     -10.797  13.138  63.963  1.00  0.00    -0.348 C  
HETATM   27  C   UNL     1     -11.355  11.763  63.692  1.00  0.00    -0.436 C  
HETATM   28  O   UNL     1     -12.586  11.764  63.141  1.00  0.00    -0.514 OA 
HETATM   29  O   UNL     1     -10.736  10.736  63.922  1.00  0.00    -0.259 OA 
ENDBRANCH  25  26
ENDBRANCH  23  25
ENDBRANCH  22  23
ENDBRANCH  21  22
ENDBRANCH  13  21
ENDBRANCH   2  13
TORSDOF 8
ENDMDL
MODEL      124
REMARK 921   NORMALIZED FREE ENERGY PREDICTED BY IDOCK:   -5.11 KCAL/MOL
REMARK 922        TOTAL FREE ENERGY PREDICTED BY IDOCK:   -8.96 KCAL/MOL
REMARK 923 INTER-LIGAND FREE ENERGY PREDICTED BY IDOCK:   -9.59 KCAL/MOL
REMARK 924 INTRA-LIGAND FREE ENERGY PREDICTED BY IDOCK:    0.63 KCAL/MOL
REMARK 927      BINDING AFFINITY PREDICTED BY RF-SCORE:    0.00 PKD
ROOT
HETATM    1  O   UNL     1     -13.400  13.729  65.238  1.00  0.00    -0.710 OA 
HETATM    2  C   UNL     1     -11.995  13.991  65.361  1.00  0.00    -0.380 C  
HETATM    3  H   UNL     1     -13.602  13.464  64.349  1.00  0.00     0.000 HD 
ENDROOT
BRANCH   2   4
HETATM    4  C   UNL     1     -11.289  12.739  64.884  1.00  0.00    -0.341 A  
HETATM    5  C   UNL     1      -9.838  10.493  64.024  1.00  0.00    -0.324 A  
HETATM    6  C   UNL     1     -10.800  11.805  65.814  1.00  0.00    -0.341 A  
HETATM    7  O   UNL     1      -8.574   8.593  64.449  1.00  0.00    -0.144 OA 
HETATM    8  O   UNL     1      -8.862   9.201  62.361  1.00  0.00    -0.232 OA 
HETATM    9  C   UNL     1     -11.055  12.516  63.515  1.00  0.00    -0.497 A  
HETATM   10  C   UNL     1     -10.076  10.685  65.391  1.00  0.00    -0.356 A  
HETATM   11  N   UNL     1      -9.034   9.347  63.580  1.00  0.00    -0.183 N  
HETATM   12  C   UNL     1     -10.335  11.400  63.082  1.00  0.00    -0.357 A  
ENDBRANCH   2   4
BRANCH   2  13
HETATM   13  C   UNL     1     -11.664  14.425  66.816  1.00  0.00    -0.397 C  
BRANCH  13  14
HETATM   14  N   UNL     1     -10.452  15.279  66.803  1.00  0.00    -0.287 N  
HETATM   15  C   UNL     1      -8.946  17.101  67.604  1.00  0.00    -0.226 C  
HETATM   16  C   UNL     1     -10.300  16.376  67.634  1.00  0.00    -0.284 C  
HETATM   17  H   UNL     1      -9.697  15.048  66.156  1.00  0.00     0.000 HD 
HETATM   18  O   UNL     1     -11.202  16.742  68.390  1.00  0.00    -0.332 OA 
HETATM   19 CL   UNL     1      -8.089  16.833  66.071  1.00  0.00    -0.277 Cl 
HETATM   20 CL   UNL     1      -7.965  16.551  68.974  1.00  0.00    -0.241 Cl 
ENDBRANCH  13  14
BRANCH  13  21
HETATM   21  C   UNL     1     -11.489  13.190  67.727  1.00  0.00    -0.313 C  
BRANCH  21  22
HETATM   22  O   UNL     1     -11.222  13.553  69.096  1.00  0.00    -0.260 OA 
BRANCH  22  23
HETATM   23  C   UNL     1     -12.114  13.086  70.009  1.00  0.00    -0.297 C  
HETATM   24  O   UNL     1     -12.388  11.906  70.187  1.00  0.00    -0.248 OA 
BRANCH  23  25
HETATM   25  C   UNL     1     -12.724  14.215  70.797  1.00  0.00    -0.414 C  
BRANCH  25  26
HETATM   26  C   UNL     1     -13.122  13.773  72.191  1.00  0.00    -0.497 C  
HETATM   27  C   UNL     1     -13.145  14.910  73.182  1.00  0.00    -0.507 C  
HETATM   28  O   UNL     1     -14.085  15.844  72.930  1.00  0.00    -0.561 OA 
HETATM   29  O   UNL     1     -12.400  14.967  74.147  1.00  0.00    -0.587 OA 
ENDBRANCH  25  26
ENDBRANCH  23  25
ENDBRANCH  22  23
ENDBRANCH  21  22
ENDBRANCH  13  21
ENDBRANCH   2  13
TORSDOF 8
ENDMDL
MODEL      125
REMARK 921   NORMALIZED FREE ENERGY PREDICTED BY IDOCK:   -5.11 KCAL/MOL
REMARK 922        TOTAL FREE ENERGY PREDICTED BY IDOCK:   -8.96 KCAL/MOL
REMARK 923 INTER-LIGAND FREE ENERGY PREDICTED BY IDOCK:   -7.92 KCAL/MOL
REMARK 924 INTRA-LIGAND FREE ENERGY PREDICTED BY IDOCK:   -1.05 KCAL/MOL
REMARK 927      BINDING AFFINITY PREDICTED BY RF-SCORE:    0.00 PKD
ROOT
HETATM    1  O   UNL     1     -12.015  12.691  65.477  1.00  0.00    -0.413 OA 
HETATM    2  C   UNL     1     -10.693  12.839  66.012  1.00  0.00    -0.272 C  
HETATM    3  H   UNL     1     -12.200  11.773  65.322  1.00  0.00     0.000 HD 
ENDROOT
BRANCH   2   4
HETATM    4  C   UNL     1     -10.632  11.952  67.239  1.00  0.00    -0.261 A  
HETATM    5  C   UNL     1     -10.499  10.442  69.603  1.00  0.00    -0.243 A  
HETATM    6  C   UNL     1     -11.780  11.752  68.025  1.00  0.00    -0.363 A  
HETATM    7  O   UNL     1     -11.448   9.608  71.550  1.00  0.00    -0.377 OA 
HETATM    8  O   UNL     1      -9.326   9.200  71.175  1.00  0.00    -0.253 OA 
HETATM    9  C   UNL     1      -9.421  11.365  67.648  1.00  0.00    -0.165 A  
HETATM   10  C   UNL     1     -11.719  11.001  69.203  1.00  0.00    -0.403 A  
HETATM   11  N   UNL     1     -10.419   9.697  70.866  1.00  0.00    -0.306 N  
HETATM   12  C   UNL     1      -9.349  10.611  68.822  1.00  0.00    -0.183 A  
ENDBRANCH   2   4
BRANCH   2  13
HETATM   13  C   UNL     1     -10.390  14.342  66.266  1.00  0.00    -0.294 C  
BRANCH  13  14
HETATM   14  N   UNL     1      -9.017  14.475  66.810  1.00  0.00    -0.304 N  
HETATM   15  C   UNL     1      -6.885  15.661  67.333  1.00  0.00    -0.197 C  
HETATM   16  C   UNL     1      -8.241  15.605  66.614  1.00  0.00    -0.249 C  
HETATM   17  H   UNL     1      -8.628  13.702  67.351  1.00  0.00     0.000 HD 
HETATM   18  O   UNL     1      -8.631  16.542  65.916  1.00  0.00    -0.441 OA 
HETATM   19 CL   UNL     1      -6.276  14.037  67.720  1.00  0.00    -0.165 Cl 
HETATM   20 CL   UNL     1      -7.050  16.635  68.805  1.00  0.00    -0.182 Cl 
ENDBRANCH  13  14
BRANCH  13  21
HETATM   21  C   UNL     1     -11.445  14.959  67.211  1.00  0.00    -0.340 C  
BRANCH  21  22
HETATM   22  O   UNL     1     -10.987  15.022  68.576  1.00  0.00    -0.239 OA 
BRANCH  22  23
HETATM   23  C   UNL     1     -11.128  16.229  69.184  1.00  0.00    -0.322 C  
HETATM   24  O   UNL     1     -11.359  16.396  70.375  1.00  0.00    -0.349 OA 
BRANCH  23  25
HETATM   25  C   UNL     1     -10.946  17.356  68.202  1.00  0.00    -0.160 C  
BRANCH  25  26
HETATM   26  C   UNL     1     -10.150  18.498  68.801  1.00  0.00    -0.394 C  
HETATM   27  C   UNL     1      -9.579  19.426  67.758  1.00  0.00    -0.335 C  
HETATM   28  O   UNL     1     -10.508  20.102  67.051  1.00  0.00    -0.418 OA 
HETATM   29  O   UNL     1      -8.380  19.577  67.586  1.00  0.00    -0.290 OA 
ENDBRANCH  25  26
ENDBRANCH  23  25
ENDBRANCH  22  23
ENDBRANCH  21  22
ENDBRANCH  13  21
ENDBRANCH   2  13
TORSDOF 8
ENDMDL
MODEL      126
REMARK 921   NORMALIZED FREE ENERGY PREDICTED BY IDOCK:   -5.11 KCAL/MOL
REMARK 922        TOTAL FREE ENERGY PREDICTED BY IDOCK:   -8.96 KCAL/MOL
REMARK 923 INTER-LIGAND FREE ENERGY PREDICTED BY IDOCK:   -7.70 KCAL/MOL
REMARK 924 INTRA-LIGAND FREE ENERGY PREDICTED BY IDOCK:   -1.26 KCAL/MOL
REMARK 927      BINDING AFFINITY PREDICTED BY RF-SCORE:    0.00 PKD
ROOT
HETATM    1  O   UNL     1     -12.228  11.085  68.450  1.00  0.00    -0.770 OA 
HETATM    2  C   UNL     1     -11.108  11.971  68.588  1.00  0.00    -0.250 C  
HETATM    3  H   UNL     1     -13.038  11.573  68.538  1.00  0.00     0.000 HD 
ENDROOT
BRANCH   2   4
HETATM    4  C   UNL     1     -11.312  13.072  67.568  1.00  0.00    -0.346 A  
HETATM    5  C   UNL     1     -11.577  15.044  65.586  1.00  0.00    -0.188 A  
HETATM    6  C   UNL     1     -12.158  12.867  66.464  1.00  0.00    -0.375 A  
HETATM    7  O   UNL     1     -12.386  15.788  63.541  1.00  0.00    -0.376 OA 
HETATM    8  O   UNL     1     -11.043  17.107  64.667  1.00  0.00    -1.036 OA 
HETATM    9  C   UNL     1     -10.619  14.291  67.671  1.00  0.00    -0.253 A  
HETATM   10  C   UNL     1     -12.293  13.845  65.474  1.00  0.00    -0.506 A  
HETATM   11  N   UNL     1     -11.676  16.052  64.522  1.00  0.00    -0.245 N  
HETATM   12  C   UNL     1     -10.748  15.277  66.688  1.00  0.00    -0.309 A  
ENDBRANCH   2   4
BRANCH   2  13
HETATM   13  C   UNL     1      -9.783  11.173  68.445  1.00  0.00    -0.191 C  
BRANCH  13  14
HETATM   14  N   UNL     1      -8.642  12.120  68.454  1.00  0.00    -0.249 N  
HETATM   15  C   UNL     1      -6.262  12.810  68.747  1.00  0.00    -0.075 C  
HETATM   16  C   UNL     1      -7.381  11.770  68.905  1.00  0.00    -0.093 C  
HETATM   17  H   UNL     1      -8.793  13.071  68.112  1.00  0.00     0.000 HD 
HETATM   18  O   UNL     1      -7.155  10.660  69.388  1.00  0.00    -0.092 OA 
HETATM   19 CL   UNL     1      -6.907  14.462  68.648  1.00  0.00    -0.090 Cl 
HETATM   20 CL   UNL     1      -5.310  12.421  67.303  1.00  0.00    -0.104 Cl 
ENDBRANCH  13  14
BRANCH  13  21
HETATM   21  C   UNL     1      -9.802  10.309  67.164  1.00  0.00    -0.185 C  
BRANCH  21  22
HETATM   22  O   UNL     1     -10.753   9.229  67.246  1.00  0.00    -0.268 OA 
BRANCH  22  23
HETATM   23  C   UNL     1     -10.225   7.979  67.175  1.00  0.00    -0.292 C  
HETATM   24  O   UNL     1      -9.458   7.586  66.305  1.00  0.00    -0.169 OA 
BRANCH  23  25
HETATM   25  C   UNL     1     -10.696   7.126  68.323  1.00  0.00    -0.202 C  
BRANCH  25  26
HETATM   26  C   UNL     1     -10.222   7.671  69.656  1.00  0.00    -0.204 C  
HETATM   27  C   UNL     1     -11.357   8.116  70.544  1.00  0.00    -0.221 C  
HETATM   28  O   UNL     1     -12.168   7.118  70.948  1.00  0.00    -0.344 OA 
HETATM   29  O   UNL     1     -11.513   9.275  70.894  1.00  0.00    -0.269 OA 
ENDBRANCH  25  26
ENDBRANCH  23  25
ENDBRANCH  22  23
ENDBRANCH  21  22
ENDBRANCH  13  21
ENDBRANCH   2  13
TORSDOF 8
ENDMDL
MODEL      127
REMARK 921   NORMALIZED FREE ENERGY PREDICTED BY IDOCK:   -5.11 KCAL/MOL
REMARK 922        TOTAL FREE ENERGY PREDICTED BY IDOCK:   -8.96 KCAL/MOL
REMARK 923 INTER-LIGAND FREE ENERGY PREDICTED BY IDOCK:   -7.85 KCAL/MOL
REMARK 924 INTRA-LIGAND FREE ENERGY PREDICTED BY IDOCK:   -1.11 KCAL/MOL
REMARK 927      BINDING AFFINITY PREDICTED BY RF-SCORE:    0.00 PKD
ROOT
HETATM    1  O   UNL     1     -10.029  12.554  63.763  1.00  0.00    -0.567 OA 
HETATM    2  C   UNL     1     -10.590  12.672  65.077  1.00  0.00    -0.303 C  
HETATM    3  H   UNL     1     -10.522  13.089  63.153  1.00  0.00     0.000 HD 
ENDROOT
BRANCH   2   4
HETATM    4  C   UNL     1     -10.618  14.152  65.394  1.00  0.00    -0.358 A  
HETATM    5  C   UNL     1     -10.535  16.915  65.892  1.00  0.00    -0.285 A  
HETATM    6  C   UNL     1     -11.178  15.061  64.479  1.00  0.00    -0.276 A  
HETATM    7  O   UNL     1     -10.898  19.117  65.254  1.00  0.00    -0.528 OA 
HETATM    8  O   UNL     1      -9.921  18.744  67.182  1.00  0.00    -0.310 OA 
HETATM    9  C   UNL     1     -10.034  14.652  66.572  1.00  0.00    -0.292 A  
HETATM   10  C   UNL     1     -11.139  16.437  64.722  1.00  0.00    -0.246 A  
HETATM   11  N   UNL     1     -10.445  18.362  66.126  1.00  0.00    -0.428 N  
HETATM   12  C   UNL     1      -9.991  16.026  66.826  1.00  0.00    -0.265 A  
ENDBRANCH   2   4
BRANCH   2  13
HETATM   13  C   UNL     1      -9.783  11.796  66.076  1.00  0.00    -0.232 C  
BRANCH  13  14
HETATM   14  N   UNL     1      -8.704  11.092  65.342  1.00  0.00    -0.353 N  
HETATM   15  C   UNL     1      -6.438  10.091  65.042  1.00  0.00    -0.117 C  
HETATM   16  C   UNL     1      -7.425  10.945  65.851  1.00  0.00    -0.048 C  
HETATM   17  H   UNL     1      -8.913  10.699  64.424  1.00  0.00     0.000 HD 
HETATM   18  O   UNL     1      -7.096  11.452  66.925  1.00  0.00    -0.128 OA 
HETATM   19 CL   UNL     1      -6.887  10.015  63.325  1.00  0.00    -0.129 Cl 
HETATM   20 CL   UNL     1      -6.370   8.464  65.743  1.00  0.00    -0.052 Cl 
ENDBRANCH  13  14
BRANCH  13  21
HETATM   21  C   UNL     1     -10.716  10.809  66.813  1.00  0.00    -0.231 C  
BRANCH  21  22
HETATM   22  O   UNL     1     -11.887  11.457  67.347  1.00  0.00    -0.609 OA 
BRANCH  22  23
HETATM   23  C   UNL     1     -11.840  11.749  68.673  1.00  0.00    -0.310 C  
HETATM   24  O   UNL     1     -11.321  12.747  69.157  1.00  0.00    -0.267 OA 
BRANCH  23  25
HETATM   25  C   UNL     1     -12.527  10.685  69.487  1.00  0.00    -0.036 C  
BRANCH  25  26
HETATM   26  C   UNL     1     -12.211  10.818  70.963  1.00  0.00    -0.485 C  
HETATM   27  C   UNL     1     -11.437   9.642  71.505  1.00  0.00    -0.369 C  
HETATM   28  O   UNL     1     -10.199   9.509  70.988  1.00  0.00    -0.297 OA 
HETATM   29  O   UNL     1     -11.878   8.891  72.360  1.00  0.00    -0.334 OA 
ENDBRANCH  25  26
ENDBRANCH  23  25
ENDBRANCH  22  23
ENDBRANCH  21  22
ENDBRANCH  13  21
ENDBRANCH   2  13
TORSDOF 8
ENDMDL
MODEL      128
REMARK 921   NORMALIZED FREE ENERGY PREDICTED BY IDOCK:   -5.10 KCAL/MOL
REMARK 922        TOTAL FREE ENERGY PREDICTED BY IDOCK:   -8.96 KCAL/MOL
REMARK 923 INTER-LIGAND FREE ENERGY PREDICTED BY IDOCK:   -8.28 KCAL/MOL
REMARK 924 INTRA-LIGAND FREE ENERGY PREDICTED BY IDOCK:   -0.67 KCAL/MOL
REMARK 927      BINDING AFFINITY PREDICTED BY RF-SCORE:    0.00 PKD
ROOT
HETATM    1  O   UNL     1      -9.405  11.130  69.466  1.00  0.00    -0.378 OA 
HETATM    2  C   UNL     1     -10.710  10.766  69.936  1.00  0.00    -0.144 C  
HETATM    3  H   UNL     1      -8.831  11.296  70.205  1.00  0.00     0.000 HD 
ENDROOT
BRANCH   2   4
HETATM    4  C   UNL     1     -10.510   9.594  70.874  1.00  0.00    -0.359 A  
HETATM    5  C   UNL     1     -10.164   7.321  72.488  1.00  0.00    -0.200 A  
HETATM    6  C   UNL     1      -9.259   8.957  70.954  1.00  0.00    -0.286 A  
HETATM    7  O   UNL     1      -8.888   5.547  73.271  1.00  0.00    -0.122 OA 
HETATM    8  O   UNL     1     -10.972   5.700  73.939  1.00  0.00    -0.195 OA 
HETATM    9  C   UNL     1     -11.578   9.083  71.633  1.00  0.00    -0.426 A  
HETATM   10  C   UNL     1      -9.082   7.825  71.756  1.00  0.00    -0.171 A  
HETATM   11  N   UNL     1      -9.996   6.102  73.290  1.00  0.00    -0.173 N  
HETATM   12  C   UNL     1     -11.411   7.954  72.439  1.00  0.00    -0.433 A  
ENDBRANCH   2   4
BRANCH   2  13
HETATM   13  C   UNL     1     -11.649  10.494  68.728  1.00  0.00    -0.182 C  
BRANCH  13  14
HETATM   14  N   UNL     1     -11.275   9.202  68.103  1.00  0.00    -0.402 N  
HETATM   15  C   UNL     1      -9.840   7.649  66.779  1.00  0.00    -0.237 C  
HETATM   16  C   UNL     1     -10.185   9.065  67.260  1.00  0.00    -0.256 C  
HETATM   17  H   UNL     1     -11.844   8.379  68.304  1.00  0.00     0.000 HD 
HETATM   18  O   UNL     1      -9.500  10.035  66.931  1.00  0.00    -0.158 OA 
HETATM   19 CL   UNL     1     -11.252   6.572  66.833  1.00  0.00    -0.378 Cl 
HETATM   20 CL   UNL     1      -8.522   7.004  67.775  1.00  0.00    -0.120 Cl 
ENDBRANCH  13  14
BRANCH  13  21
HETATM   21  C   UNL     1     -11.587  11.661  67.716  1.00  0.00    -0.289 C  
BRANCH  21  22
HETATM   22  O   UNL     1     -11.976  12.917  68.305  1.00  0.00    -0.332 OA 
BRANCH  22  23
HETATM   23  C   UNL     1     -11.191  13.979  67.987  1.00  0.00    -0.279 C  
HETATM   24  O   UNL     1     -10.059  14.171  68.413  1.00  0.00    -0.227 OA 
BRANCH  23  25
HETATM   25  C   UNL     1     -11.888  14.899  67.020  1.00  0.00    -0.216 C  
BRANCH  25  26
HETATM   26  C   UNL     1     -11.433  14.660  65.594  1.00  0.00    -0.340 C  
HETATM   27  C   UNL     1     -10.914  15.909  64.927  1.00  0.00    -0.411 C  
HETATM   28  O   UNL     1      -9.785  16.402  65.478  1.00  0.00    -0.505 OA 
HETATM   29  O   UNL     1     -11.448  16.417  63.954  1.00  0.00    -1.063 OA 
ENDBRANCH  25  26
ENDBRANCH  23  25
ENDBRANCH  22  23
ENDBRANCH  21  22
ENDBRANCH  13  21
ENDBRANCH   2  13
TORSDOF 8
ENDMDL
MODEL      129
REMARK 921   NORMALIZED FREE ENERGY PREDICTED BY IDOCK:   -5.10 KCAL/MOL
REMARK 922        TOTAL FREE ENERGY PREDICTED BY IDOCK:   -8.95 KCAL/MOL
REMARK 923 INTER-LIGAND FREE ENERGY PREDICTED BY IDOCK:   -7.90 KCAL/MOL
REMARK 924 INTRA-LIGAND FREE ENERGY PREDICTED BY IDOCK:   -1.04 KCAL/MOL
REMARK 927      BINDING AFFINITY PREDICTED BY RF-SCORE:    0.00 PKD
ROOT
HETATM    1  O   UNL     1      -9.830  11.013  66.459  1.00  0.00    -0.193 OA 
HETATM    2  C   UNL     1      -9.037  10.927  67.651  1.00  0.00    -0.148 C  
HETATM    3  H   UNL     1     -10.245  10.177  66.287  1.00  0.00     0.000 HD 
ENDROOT
BRANCH   2   4
HETATM    4  C   UNL     1      -9.964  10.430  68.740  1.00  0.00    -0.196 A  
HETATM    5  C   UNL     1     -11.641   9.638  70.849  1.00  0.00    -0.344 A  
HETATM    6  C   UNL     1     -11.270  10.937  68.844  1.00  0.00    -0.327 A  
HETATM    7  O   UNL     1     -13.617   9.794  72.056  1.00  0.00    -0.399 OA 
HETATM    8  O   UNL     1     -12.056   8.443  72.795  1.00  0.00    -0.354 OA 
HETATM    9  C   UNL     1      -9.520   9.503  69.701  1.00  0.00    -0.213 A  
HETATM   10  C   UNL     1     -12.109  10.547  69.892  1.00  0.00    -0.318 A  
HETATM   11  N   UNL     1     -12.500   9.265  71.981  1.00  0.00    -0.378 N  
HETATM   12  C   UNL     1     -10.351   9.104  70.751  1.00  0.00    -0.323 A  
ENDBRANCH   2   4
BRANCH   2  13
HETATM   13  C   UNL     1      -8.357  12.295  67.932  1.00  0.00    -0.163 C  
BRANCH  13  14
HETATM   14  N   UNL     1      -7.361  12.128  69.018  1.00  0.00    -0.282 N  
HETATM   15  C   UNL     1      -5.373  12.746  70.395  1.00  0.00    -0.134 C  
HETATM   16  C   UNL     1      -6.259  12.955  69.158  1.00  0.00    -0.101 C  
HETATM   17  H   UNL     1      -7.493  11.372  69.691  1.00  0.00     0.000 HD 
HETATM   18  O   UNL     1      -6.012  13.843  68.340  1.00  0.00    -0.084 OA 
HETATM   19 CL   UNL     1      -5.523  11.098  71.042  1.00  0.00    -0.101 Cl 
HETATM   20 CL   UNL     1      -5.808  13.944  71.627  1.00  0.00    -0.201 Cl 
ENDBRANCH  13  14
BRANCH  13  21
HETATM   21  C   UNL     1      -9.413  13.368  68.282  1.00  0.00    -0.209 C  
BRANCH  21  22
HETATM   22  O   UNL     1      -9.285  14.549  67.466  1.00  0.00    -0.185 OA 
BRANCH  22  23
HETATM   23  C   UNL     1     -10.454  15.140  67.105  1.00  0.00    -0.280 C  
HETATM   24  O   UNL     1     -11.324  15.511  67.882  1.00  0.00    -0.331 OA 
BRANCH  23  25
HETATM   25  C   UNL     1     -10.543  15.298  65.611  1.00  0.00    -0.377 C  
BRANCH  25  26
HETATM   26  C   UNL     1     -10.894  13.990  64.930  1.00  0.00    -0.421 C  
HETATM   27  C   UNL     1     -12.190  13.399  65.428  1.00  0.00    -0.452 C  
HETATM   28  O   UNL     1     -13.281  14.139  65.142  1.00  0.00    -0.743 OA 
HETATM   29  O   UNL     1     -12.253  12.329  66.012  1.00  0.00    -0.646 OA 
ENDBRANCH  25  26
ENDBRANCH  23  25
ENDBRANCH  22  23
ENDBRANCH  21  22
ENDBRANCH  13  21
ENDBRANCH   2  13
TORSDOF 8
ENDMDL
MODEL      130
REMARK 921   NORMALIZED FREE ENERGY PREDICTED BY IDOCK:   -5.09 KCAL/MOL
REMARK 922        TOTAL FREE ENERGY PREDICTED BY IDOCK:   -8.94 KCAL/MOL
REMARK 923 INTER-LIGAND FREE ENERGY PREDICTED BY IDOCK:   -7.94 KCAL/MOL
REMARK 924 INTRA-LIGAND FREE ENERGY PREDICTED BY IDOCK:   -1.00 KCAL/MOL
REMARK 927      BINDING AFFINITY PREDICTED BY RF-SCORE:    0.00 PKD
ROOT
HETATM    1  O   UNL     1      -8.166  13.471  69.063  1.00  0.00    -0.339 OA 
HETATM    2  C   UNL     1      -8.393  13.619  67.654  1.00  0.00    -0.182 C  
HETATM    3  H   UNL     1      -7.559  14.137  69.363  1.00  0.00     0.000 HD 
ENDROOT
BRANCH   2   4
HETATM    4  C   UNL     1      -8.847  15.048  67.446  1.00  0.00    -0.202 A  
HETATM    5  C   UNL     1      -9.797  17.645  66.953  1.00  0.00    -0.306 A  
HETATM    6  C   UNL     1      -9.975  15.538  68.127  1.00  0.00    -0.217 A  
HETATM    7  O   UNL     1     -11.361  19.336  67.240  1.00  0.00    -0.181 OA 
HETATM    8  O   UNL     1      -9.707  19.680  65.841  1.00  0.00    -0.362 OA 
HETATM    9  C   UNL     1      -8.192  15.890  66.529  1.00  0.00    -0.307 A  
HETATM   10  C   UNL     1     -10.453  16.830  67.885  1.00  0.00    -0.335 A  
HETATM   11  N   UNL     1     -10.327  18.983  66.657  1.00  0.00    -0.398 N  
HETATM   12  C   UNL     1      -8.660  17.184  66.281  1.00  0.00    -0.276 A  
ENDBRANCH   2   4
BRANCH   2  13
HETATM   13  C   UNL     1      -9.386  12.530  67.161  1.00  0.00    -0.201 C  
BRANCH  13  14
HETATM   14  N   UNL     1     -10.291  13.122  66.148  1.00  0.00    -0.278 N  
HETATM   15  C   UNL     1     -11.451  13.266  63.943  1.00  0.00    -0.362 C  
HETATM   16  C   UNL     1     -10.386  12.637  64.854  1.00  0.00    -0.308 C  
HETATM   17  H   UNL     1     -10.870  13.919  66.415  1.00  0.00     0.000 HD 
HETATM   18  O   UNL     1      -9.668  11.719  64.456  1.00  0.00    -0.223 OA 
HETATM   19 CL   UNL     1     -11.888  14.904  64.472  1.00  0.00    -0.431 Cl 
HETATM   20 CL   UNL     1     -12.879  12.216  63.912  1.00  0.00    -0.499 Cl 
ENDBRANCH  13  14
BRANCH  13  21
HETATM   21  C   UNL     1     -10.168  11.928  68.350  1.00  0.00    -0.204 C  
BRANCH  21  22
HETATM   22  O   UNL     1      -9.499  10.788  68.925  1.00  0.00    -0.179 OA 
BRANCH  22  23
HETATM   23  C   UNL     1     -10.308   9.763  69.300  1.00  0.00    -0.215 C  
HETATM   24  O   UNL     1     -10.622   8.816  68.590  1.00  0.00    -0.208 OA 
BRANCH  23  25
HETATM   25  C   UNL     1     -10.768   9.929  70.724  1.00  0.00    -0.350 C  
BRANCH  25  26
HETATM   26  C   UNL     1     -12.142   9.327  70.943  1.00  0.00    -0.297 C  
HETATM   27  C   UNL     1     -12.089   7.967  71.594  1.00  0.00    -0.303 C  
HETATM   28  O   UNL     1     -11.609   7.975  72.854  1.00  0.00    -0.397 OA 
HETATM   29  O   UNL     1     -12.476   6.950  71.042  1.00  0.00    -0.382 OA 
ENDBRANCH  25  26
ENDBRANCH  23  25
ENDBRANCH  22  23
ENDBRANCH  21  22
ENDBRANCH  13  21
ENDBRANCH   2  13
TORSDOF 8
ENDMDL
MODEL      131
REMARK 921   NORMALIZED FREE ENERGY PREDICTED BY IDOCK:   -5.09 KCAL/MOL
REMARK 922        TOTAL FREE ENERGY PREDICTED BY IDOCK:   -8.93 KCAL/MOL
REMARK 923 INTER-LIGAND FREE ENERGY PREDICTED BY IDOCK:   -7.57 KCAL/MOL
REMARK 924 INTRA-LIGAND FREE ENERGY PREDICTED BY IDOCK:   -1.36 KCAL/MOL
REMARK 927      BINDING AFFINITY PREDICTED BY RF-SCORE:    0.00 PKD
ROOT
HETATM    1  O   UNL     1      -9.231  10.445  70.153  1.00  0.00    -0.338 OA 
HETATM    2  C   UNL     1     -10.599  10.032  70.026  1.00  0.00    -0.293 C  
HETATM    3  H   UNL     1      -9.034  10.632  71.062  1.00  0.00     0.000 HD 
ENDROOT
BRANCH   2   4
HETATM    4  C   UNL     1     -10.780   8.869  70.979  1.00  0.00    -0.315 A  
HETATM    5  C   UNL     1     -10.993   6.637  72.670  1.00  0.00    -0.255 A  
HETATM    6  C   UNL     1      -9.970   8.758  72.123  1.00  0.00    -0.359 A  
HETATM    7  O   UNL     1     -10.283   5.373  74.483  1.00  0.00    -0.243 OA 
HETATM    8  O   UNL     1     -11.909   4.582  73.241  1.00  0.00    -0.218 OA 
HETATM    9  C   UNL     1     -11.713   7.851  70.710  1.00  0.00    -0.230 A  
HETATM   10  C   UNL     1     -10.072   7.649  72.967  1.00  0.00    -0.362 A  
HETATM   11  N   UNL     1     -11.067   5.445  73.526  1.00  0.00    -0.275 N  
HETATM   12  C   UNL     1     -11.824   6.739  71.549  1.00  0.00    -0.378 A  
ENDBRANCH   2   4
BRANCH   2  13
HETATM   13  C   UNL     1     -10.923   9.726  68.538  1.00  0.00    -0.149 C  
BRANCH  13  14
HETATM   14  N   UNL     1      -9.771   9.019  67.927  1.00  0.00    -0.151 N  
HETATM   15  C   UNL     1      -8.643   7.212  66.627  1.00  0.00    -0.124 C  
HETATM   16  C   UNL     1      -9.888   7.777  67.326  1.00  0.00    -0.189 C  
HETATM   17  H   UNL     1      -8.855   9.466  67.949  1.00  0.00     0.000 HD 
HETATM   18  O   UNL     1     -10.954   7.159  67.325  1.00  0.00    -0.310 OA 
HETATM   19 CL   UNL     1      -7.146   7.913  67.278  1.00  0.00    -0.081 Cl 
HETATM   20 CL   UNL     1      -8.770   7.515  64.885  1.00  0.00     0.123 Cl 
ENDBRANCH  13  14
BRANCH  13  21
HETATM   21  C   UNL     1     -11.270  11.024  67.776  1.00  0.00    -0.308 C  
BRANCH  21  22
HETATM   22  O   UNL     1     -10.112  11.852  67.549  1.00  0.00    -0.191 OA 
BRANCH  22  23
HETATM   23  C   UNL     1      -9.690  11.925  66.260  1.00  0.00    -0.229 C  
HETATM   24  O   UNL     1      -8.810  11.230  65.766  1.00  0.00    -0.196 OA 
BRANCH  23  25
HETATM   25  C   UNL     1     -10.457  12.971  65.496  1.00  0.00    -0.297 C  
BRANCH  25  26
HETATM   26  C   UNL     1     -11.040  12.413  64.213  1.00  0.00    -0.399 C  
HETATM   27  C   UNL     1     -12.461  12.858  63.973  1.00  0.00    -0.326 C  
HETATM   28  O   UNL     1     -12.597  14.183  63.762  1.00  0.00    -0.804 OA 
HETATM   29  O   UNL     1     -13.405  12.085  63.940  1.00  0.00    -0.669 OA 
ENDBRANCH  25  26
ENDBRANCH  23  25
ENDBRANCH  22  23
ENDBRANCH  21  22
ENDBRANCH  13  21
ENDBRANCH   2  13
TORSDOF 8
ENDMDL
MODEL      132
REMARK 921   NORMALIZED FREE ENERGY PREDICTED BY IDOCK:   -5.08 KCAL/MOL
REMARK 922        TOTAL FREE ENERGY PREDICTED BY IDOCK:   -8.93 KCAL/MOL
REMARK 923 INTER-LIGAND FREE ENERGY PREDICTED BY IDOCK:   -7.33 KCAL/MOL
REMARK 924 INTRA-LIGAND FREE ENERGY PREDICTED BY IDOCK:   -1.60 KCAL/MOL
REMARK 927      BINDING AFFINITY PREDICTED BY RF-SCORE:    0.00 PKD
ROOT
HETATM    1  O   UNL     1     -10.515  10.756  70.171  1.00  0.00    -0.441 OA 
HETATM    2  C   UNL     1     -10.970   9.741  69.265  1.00  0.00    -0.193 C  
HETATM    3  H   UNL     1     -11.058  10.759  70.950  1.00  0.00     0.000 HD 
ENDROOT
BRANCH   2   4
HETATM    4  C   UNL     1     -10.980   8.447  70.051  1.00  0.00    -0.194 A  
HETATM    5  C   UNL     1     -10.878   6.105  71.599  1.00  0.00    -0.258 A  
HETATM    6  C   UNL     1     -11.676   8.364  71.270  1.00  0.00    -0.325 A  
HETATM    7  O   UNL     1     -11.363   4.910  73.529  1.00  0.00    -0.329 OA 
HETATM    8  O   UNL     1     -10.125   3.945  71.996  1.00  0.00    -0.179 OA 
HETATM    9  C   UNL     1     -10.250   7.327  69.612  1.00  0.00    -0.214 A  
HETATM   10  C   UNL     1     -11.627   7.201  72.045  1.00  0.00    -0.317 A  
HETATM   11  N   UNL     1     -10.782   4.901  72.434  1.00  0.00    -0.201 N  
HETATM   12  C   UNL     1     -10.197   6.159  70.378  1.00  0.00    -0.256 A  
ENDBRANCH   2   4
BRANCH   2  13
HETATM   13  C   UNL     1     -10.082   9.734  67.990  1.00  0.00    -0.171 C  
BRANCH  13  14
HETATM   14  N   UNL     1      -8.795  10.406  68.291  1.00  0.00    -0.131 N  
HETATM   15  C   UNL     1      -6.315  10.673  68.286  1.00  0.00    -0.054 C  
HETATM   16  C   UNL     1      -7.567   9.820  68.038  1.00  0.00    -0.082 C  
HETATM   17  H   UNL     1      -8.816  11.341  68.702  1.00  0.00     0.000 HD 
HETATM   18  O   UNL     1      -7.479   8.670  67.604  1.00  0.00    -0.088 OA 
HETATM   19 CL   UNL     1      -6.623  11.972  69.459  1.00  0.00    -0.106 Cl 
HETATM   20 CL   UNL     1      -5.755  11.343  66.743  1.00  0.00    -0.118 Cl 
ENDBRANCH  13  14
BRANCH  13  21
HETATM   21  C   UNL     1     -10.819  10.406  66.809  1.00  0.00    -0.116 C  
BRANCH  21  22
HETATM   22  O   UNL     1     -11.807  11.357  67.250  1.00  0.00    -0.594 OA 
BRANCH  22  23
HETATM   23  C   UNL     1     -11.397  12.652  67.287  1.00  0.00    -0.318 C  
HETATM   24  O   UNL     1     -10.594  13.114  68.087  1.00  0.00    -0.231 OA 
BRANCH  23  25
HETATM   25  C   UNL     1     -12.051  13.459  66.197  1.00  0.00    -0.481 C  
BRANCH  25  26
HETATM   26  C   UNL     1     -11.091  13.746  65.061  1.00  0.00    -0.348 C  
HETATM   27  C   UNL     1     -11.386  12.935  63.824  1.00  0.00    -0.435 C  
HETATM   28  O   UNL     1     -12.567  13.223  63.241  1.00  0.00    -0.711 OA 
HETATM   29  O   UNL     1     -10.611  12.108  63.370  1.00  0.00    -0.436 OA 
ENDBRANCH  25  26
ENDBRANCH  23  25
ENDBRANCH  22  23
ENDBRANCH  21  22
ENDBRANCH  13  21
ENDBRANCH   2  13
TORSDOF 8
ENDMDL
MODEL      133
REMARK 921   NORMALIZED FREE ENERGY PREDICTED BY IDOCK:   -5.08 KCAL/MOL
REMARK 922        TOTAL FREE ENERGY PREDICTED BY IDOCK:   -8.92 KCAL/MOL
REMARK 923 INTER-LIGAND FREE ENERGY PREDICTED BY IDOCK:   -7.88 KCAL/MOL
REMARK 924 INTRA-LIGAND FREE ENERGY PREDICTED BY IDOCK:   -1.04 KCAL/MOL
REMARK 927      BINDING AFFINITY PREDICTED BY RF-SCORE:    0.00 PKD
ROOT
HETATM    1  O   UNL     1     -11.537   6.665  67.657  1.00  0.00    -0.664 OA 
HETATM    2  C   UNL     1     -10.173   6.906  68.029  1.00  0.00    -0.176 C  
HETATM    3  H   UNL     1     -11.773   5.769  67.861  1.00  0.00     0.000 HD 
ENDROOT
BRANCH   2   4
HETATM    4  C   UNL     1     -10.060   6.525  69.491  1.00  0.00    -0.203 A  
HETATM    5  C   UNL     1      -9.904   5.968  72.239  1.00  0.00    -0.160 A  
HETATM    6  C   UNL     1     -11.190   6.073  70.194  1.00  0.00    -0.412 A  
HETATM    7  O   UNL     1     -10.881   5.392  74.265  1.00  0.00    -0.251 OA 
HETATM    8  O   UNL     1      -8.741   5.872  74.245  1.00  0.00    -0.121 OA 
HETATM    9  C   UNL     1      -8.846   6.673  70.186  1.00  0.00    -0.141 A  
HETATM   10  C   UNL     1     -11.118   5.794  71.562  1.00  0.00    -0.281 A  
HETATM   11  N   UNL     1      -9.837   5.727  73.686  1.00  0.00    -0.162 N  
HETATM   12  C   UNL     1      -8.762   6.395  71.553  1.00  0.00    -0.134 A  
ENDBRANCH   2   4
BRANCH   2  13
HETATM   13  C   UNL     1      -9.785   8.373  67.695  1.00  0.00    -0.160 C  
BRANCH  13  14
HETATM   14  N   UNL     1     -10.709   9.292  68.401  1.00  0.00    -0.389 N  
HETATM   15  C   UNL     1     -11.365  11.386  69.589  1.00  0.00    -0.275 C  
HETATM   16  C   UNL     1     -10.286  10.469  68.996  1.00  0.00    -0.213 C  
HETATM   17  H   UNL     1     -11.699   9.048  68.451  1.00  0.00     0.000 HD 
HETATM   18  O   UNL     1      -9.095  10.784  69.024  1.00  0.00    -0.179 OA 
HETATM   19 CL   UNL     1     -12.841  10.488  70.001  1.00  0.00    -0.170 Cl 
HETATM   20 CL   UNL     1     -11.723  12.682  68.432  1.00  0.00    -0.358 Cl 
ENDBRANCH  13  14
BRANCH  13  21
HETATM   21  C   UNL     1      -9.798   8.606  66.167  1.00  0.00    -0.198 C  
BRANCH  21  22
HETATM   22  O   UNL     1     -10.376   9.877  65.813  1.00  0.00    -0.221 OA 
BRANCH  22  23
HETATM   23  C   UNL     1      -9.596  10.680  65.042  1.00  0.00    -0.265 C  
HETATM   24  O   UNL     1      -8.532  10.350  64.533  1.00  0.00    -0.174 OA 
BRANCH  23  25
HETATM   25  C   UNL     1     -10.216  12.042  64.877  1.00  0.00    -0.302 C  
BRANCH  25  26
HETATM   26  C   UNL     1     -10.813  12.221  63.495  1.00  0.00    -0.508 C  
HETATM   27  C   UNL     1     -12.264  12.631  63.533  1.00  0.00    -0.547 C  
HETATM   28  O   UNL     1     -12.481  13.850  64.066  1.00  0.00    -0.679 OA 
HETATM   29  O   UNL     1     -13.164  11.935  63.091  1.00  0.00    -0.539 OA 
ENDBRANCH  25  26
ENDBRANCH  23  25
ENDBRANCH  22  23
ENDBRANCH  21  22
ENDBRANCH  13  21
ENDBRANCH   2  13
TORSDOF 8
ENDMDL
MODEL      134
REMARK 921   NORMALIZED FREE ENERGY PREDICTED BY IDOCK:   -5.08 KCAL/MOL
REMARK 922        TOTAL FREE ENERGY PREDICTED BY IDOCK:   -8.92 KCAL/MOL
REMARK 923 INTER-LIGAND FREE ENERGY PREDICTED BY IDOCK:   -7.85 KCAL/MOL
REMARK 924 INTRA-LIGAND FREE ENERGY PREDICTED BY IDOCK:   -1.07 KCAL/MOL
REMARK 927      BINDING AFFINITY PREDICTED BY RF-SCORE:    0.00 PKD
ROOT
HETATM    1  O   UNL     1      -8.114  11.733  69.266  1.00  0.00    -0.353 OA 
HETATM    2  C   UNL     1      -8.618  10.679  68.434  1.00  0.00    -0.134 C  
HETATM    3  H   UNL     1      -7.758  12.428  68.726  1.00  0.00     0.000 HD 
ENDROOT
BRANCH   2   4
HETATM    4  C   UNL     1      -9.603  11.326  67.483  1.00  0.00    -0.181 A  
HETATM    5  C   UNL     1     -11.549  12.451  65.799  1.00  0.00    -0.398 A  
HETATM    6  C   UNL     1     -10.272  12.506  67.851  1.00  0.00    -0.219 A  
HETATM    7  O   UNL     1     -13.205  14.015  65.351  1.00  0.00    -0.761 OA 
HETATM    8  O   UNL     1     -12.833  12.445  63.866  1.00  0.00    -0.718 OA 
HETATM    9  C   UNL     1      -9.913  10.732  66.246  1.00  0.00    -0.272 A  
HETATM   10  C   UNL     1     -11.242  13.070  67.017  1.00  0.00    -0.325 A  
HETATM   11  N   UNL     1     -12.605  13.010  64.945  1.00  0.00    -0.451 N  
HETATM   12  C   UNL     1     -10.879  11.288  65.404  1.00  0.00    -0.255 A  
ENDBRANCH   2   4
BRANCH   2  13
HETATM   13  C   UNL     1      -9.200   9.541  69.317  1.00  0.00    -0.169 C  
BRANCH  13  14
HETATM   14  N   UNL     1      -9.230   8.284  68.531  1.00  0.00    -0.136 N  
HETATM   15  C   UNL     1      -8.637   5.919  68.002  1.00  0.00    -0.113 C  
HETATM   16  C   UNL     1      -8.418   7.200  68.819  1.00  0.00    -0.126 C  
HETATM   17  H   UNL     1      -9.877   8.214  67.745  1.00  0.00     0.000 HD 
HETATM   18  O   UNL     1      -7.573   7.248  69.715  1.00  0.00    -0.094 OA 
HETATM   19 CL   UNL     1      -9.393   6.260  66.431  1.00  0.00    -0.177 Cl 
HETATM   20 CL   UNL     1      -9.631   4.793  68.944  1.00  0.00    -0.213 Cl 
ENDBRANCH  13  14
BRANCH  13  21
HETATM   21  C   UNL     1     -10.600   9.922  69.846  1.00  0.00    -0.273 C  
BRANCH  21  22
HETATM   22  O   UNL     1     -10.763   9.607  71.242  1.00  0.00    -0.335 OA 
BRANCH  22  23
HETATM   23  C   UNL     1     -11.870   8.881  71.552  1.00  0.00    -0.332 C  
HETATM   24  O   UNL     1     -12.883   9.329  72.074  1.00  0.00    -0.361 OA 
BRANCH  23  25
HETATM   25  C   UNL     1     -11.701   7.439  71.155  1.00  0.00    -0.322 C  
BRANCH  25  26
HETATM   26  C   UNL     1     -10.500   6.809  71.830  1.00  0.00    -0.221 C  
HETATM   27  C   UNL     1     -10.823   6.236  73.188  1.00  0.00    -0.254 C  
HETATM   28  O   UNL     1     -11.678   5.193  73.159  1.00  0.00    -0.298 OA 
HETATM   29  O   UNL     1     -10.332   6.658  74.222  1.00  0.00    -0.361 OA 
ENDBRANCH  25  26
ENDBRANCH  23  25
ENDBRANCH  22  23
ENDBRANCH  21  22
ENDBRANCH  13  21
ENDBRANCH   2  13
TORSDOF 8
ENDMDL
MODEL      135
REMARK 921   NORMALIZED FREE ENERGY PREDICTED BY IDOCK:   -5.07 KCAL/MOL
REMARK 922        TOTAL FREE ENERGY PREDICTED BY IDOCK:   -8.91 KCAL/MOL
REMARK 923 INTER-LIGAND FREE ENERGY PREDICTED BY IDOCK:   -8.13 KCAL/MOL
REMARK 924 INTRA-LIGAND FREE ENERGY PREDICTED BY IDOCK:   -0.78 KCAL/MOL
REMARK 927      BINDING AFFINITY PREDICTED BY RF-SCORE:    0.00 PKD
ROOT
HETATM    1  O   UNL     1     -12.157  10.515  67.724  1.00  0.00    -0.413 OA 
HETATM    2  C   UNL     1     -10.806  10.996  67.739  1.00  0.00    -0.249 C  
HETATM    3  H   UNL     1     -12.361  10.153  66.871  1.00  0.00     0.000 HD 
ENDROOT
BRANCH   2   4
HETATM    4  C   UNL     1      -9.938   9.833  67.306  1.00  0.00    -0.242 A  
HETATM    5  C   UNL     1      -8.360   7.715  66.351  1.00  0.00    -0.129 A  
HETATM    6  C   UNL     1      -8.594  10.045  66.952  1.00  0.00    -0.128 A  
HETATM    7  O   UNL     1      -6.393   6.881  65.446  1.00  0.00    -0.041 OA 
HETATM    8  O   UNL     1      -8.072   5.498  65.726  1.00  0.00    -0.104 OA 
HETATM    9  C   UNL     1     -10.470   8.536  67.192  1.00  0.00    -0.370 A  
HETATM   10  C   UNL     1      -7.805   8.994  66.476  1.00  0.00    -0.100 A  
HETATM   11  N   UNL     1      -7.550   6.620  65.802  1.00  0.00    -0.082 N  
HETATM   12  C   UNL     1      -9.689   7.478  66.719  1.00  0.00    -0.283 A  
ENDBRANCH   2   4
BRANCH   2  13
HETATM   13  C   UNL     1     -10.471  11.589  69.135  1.00  0.00    -0.101 C  
BRANCH  13  14
HETATM   14  N   UNL     1     -10.421  10.491  70.130  1.00  0.00    -0.449 N  
HETATM   15  C   UNL     1     -11.374   8.771  71.667  1.00  0.00    -0.320 C  
HETATM   16  C   UNL     1     -11.554   9.989  70.748  1.00  0.00    -0.360 C  
HETATM   17  H   UNL     1      -9.515  10.087  70.368  1.00  0.00     0.000 HD 
HETATM   18  O   UNL     1     -12.667  10.478  70.550  1.00  0.00    -0.338 OA 
HETATM   19 CL   UNL     1      -9.714   8.653  72.288  1.00  0.00    -0.377 Cl 
HETATM   20 CL   UNL     1     -11.815   7.303  70.775  1.00  0.00    -0.337 Cl 
ENDBRANCH  13  14
BRANCH  13  21
HETATM   21  C   UNL     1     -11.499  12.674  69.528  1.00  0.00    -0.225 C  
BRANCH  21  22
HETATM   22  O   UNL     1     -12.189  13.214  68.384  1.00  0.00    -0.248 OA 
BRANCH  22  23
HETATM   23  C   UNL     1     -11.884  14.501  68.071  1.00  0.00    -0.315 C  
HETATM   24  O   UNL     1     -11.865  15.433  68.864  1.00  0.00    -0.349 OA 
BRANCH  23  25
HETATM   25  C   UNL     1     -11.553  14.639  66.609  1.00  0.00    -0.359 C  
BRANCH  25  26
HETATM   26  C   UNL     1     -12.324  13.645  65.763  1.00  0.00    -0.524 C  
HETATM   27  C   UNL     1     -11.880  13.632  64.322  1.00  0.00    -0.425 C  
HETATM   28  O   UNL     1     -10.616  13.201  64.136  1.00  0.00    -0.414 OA 
HETATM   29  O   UNL     1     -12.609  13.955  63.398  1.00  0.00    -0.853 OA 
ENDBRANCH  25  26
ENDBRANCH  23  25
ENDBRANCH  22  23
ENDBRANCH  21  22
ENDBRANCH  13  21
ENDBRANCH   2  13
TORSDOF 8
ENDMDL
MODEL      136
REMARK 921   NORMALIZED FREE ENERGY PREDICTED BY IDOCK:   -5.04 KCAL/MOL
REMARK 922        TOTAL FREE ENERGY PREDICTED BY IDOCK:   -8.86 KCAL/MOL
REMARK 923 INTER-LIGAND FREE ENERGY PREDICTED BY IDOCK:   -8.80 KCAL/MOL
REMARK 924 INTRA-LIGAND FREE ENERGY PREDICTED BY IDOCK:   -0.05 KCAL/MOL
REMARK 927      BINDING AFFINITY PREDICTED BY RF-SCORE:    0.00 PKD
ROOT
HETATM    1  O   UNL     1      -9.996  15.794  67.002  1.00  0.00    -0.232 OA 
HETATM    2  C   UNL     1     -10.628  14.551  67.340  1.00  0.00    -0.271 C  
HETATM    3  H   UNL     1     -10.594  16.514  67.163  1.00  0.00     0.000 HD 
ENDROOT
BRANCH   2   4
HETATM    4  C   UNL     1     -11.098  14.692  68.772  1.00  0.00    -0.274 A  
HETATM    5  C   UNL     1     -12.100  15.035  71.374  1.00  0.00    -0.339 A  
HETATM    6  C   UNL     1     -12.043  13.794  69.299  1.00  0.00    -0.374 A  
HETATM    7  O   UNL     1     -13.541  14.457  73.100  1.00  0.00    -0.602 OA 
HETATM    8  O   UNL     1     -12.230  16.193  73.381  1.00  0.00    -0.476 OA 
HETATM    9  C   UNL     1     -10.650  15.753  69.580  1.00  0.00    -0.295 A  
HETATM   10  C   UNL     1     -12.545  13.960  70.593  1.00  0.00    -0.405 A  
HETATM   11  N   UNL     1     -12.664  15.243  72.714  1.00  0.00    -0.361 N  
HETATM   12  C   UNL     1     -11.144  15.927  70.876  1.00  0.00    -0.317 A  
ENDBRANCH   2   4
BRANCH   2  13
HETATM   13  C   UNL     1      -9.649  13.373  67.077  1.00  0.00    -0.244 C  
BRANCH  13  14
HETATM   14  N   UNL     1      -9.971  12.758  65.766  1.00  0.00    -0.291 N  
HETATM   15  C   UNL     1     -11.458  11.770  64.023  1.00  0.00    -0.359 C  
HETATM   16  C   UNL     1     -11.229  12.270  65.457  1.00  0.00    -0.332 C  
HETATM   17  H   UNL     1      -9.235  12.692  65.063  1.00  0.00     0.000 HD 
HETATM   18  O   UNL     1     -12.140  12.263  66.287  1.00  0.00    -0.626 OA 
HETATM   19 CL   UNL     1      -9.937  11.287  63.243  1.00  0.00    -0.397 Cl 
HETATM   20 CL   UNL     1     -12.265  13.041  63.088  1.00  0.00    -0.503 Cl 
ENDBRANCH  13  14
BRANCH  13  21
HETATM   21  C   UNL     1      -9.715  12.342  68.227  1.00  0.00    -0.218 C  
BRANCH  21  22
HETATM   22  O   UNL     1      -9.533  10.991  67.761  1.00  0.00    -0.158 OA 
BRANCH  22  23
HETATM   23  C   UNL     1     -10.394  10.074  68.278  1.00  0.00    -0.193 C  
HETATM   24  O   UNL     1     -10.858   9.120  67.666  1.00  0.00    -0.234 OA 
BRANCH  23  25
HETATM   25  C   UNL     1     -10.700  10.371  69.721  1.00  0.00    -0.325 C  
BRANCH  25  26
HETATM   26  C   UNL     1     -11.590   9.309  70.335  1.00  0.00    -0.215 C  
HETATM   27  C   UNL     1     -10.811   8.235  71.053  1.00  0.00    -0.233 C  
HETATM   28  O   UNL     1     -10.143   8.670  72.141  1.00  0.00    -0.300 OA 
HETATM   29  O   UNL     1     -10.809   7.067  70.701  1.00  0.00    -0.232 OA 
ENDBRANCH  25  26
ENDBRANCH  23  25
ENDBRANCH  22  23
ENDBRANCH  21  22
ENDBRANCH  13  21
ENDBRANCH   2  13
TORSDOF 8
ENDMDL
MODEL      137
REMARK 921   NORMALIZED FREE ENERGY PREDICTED BY IDOCK:   -5.01 KCAL/MOL
REMARK 922        TOTAL FREE ENERGY PREDICTED BY IDOCK:   -8.82 KCAL/MOL
REMARK 923 INTER-LIGAND FREE ENERGY PREDICTED BY IDOCK:   -7.88 KCAL/MOL
REMARK 924 INTRA-LIGAND FREE ENERGY PREDICTED BY IDOCK:   -0.93 KCAL/MOL
REMARK 927      BINDING AFFINITY PREDICTED BY RF-SCORE:    0.00 PKD
ROOT
HETATM    1  O   UNL     1      -7.915  13.265  68.885  1.00  0.00    -0.321 OA 
HETATM    2  C   UNL     1      -8.991  14.213  68.913  1.00  0.00     0.019 C  
HETATM    3  H   UNL     1      -8.264  12.383  68.847  1.00  0.00     0.000 HD 
ENDROOT
BRANCH   2   4
HETATM    4  C   UNL     1      -9.852  13.910  67.704  1.00  0.00    -0.236 A  
HETATM    5  C   UNL     1     -11.422  13.191  65.489  1.00  0.00    -0.315 A  
HETATM    6  C   UNL     1     -11.211  13.592  67.864  1.00  0.00    -0.300 A  
HETATM    7  O   UNL     1     -13.405  12.433  64.552  1.00  0.00    -0.800 OA 
HETATM    8  O   UNL     1     -11.690  12.760  63.224  1.00  0.00    -0.515 OA 
HETATM    9  C   UNL     1      -9.299  13.882  66.410  1.00  0.00    -0.226 A  
HETATM   10  C   UNL     1     -11.997  13.233  66.765  1.00  0.00    -0.438 A  
HETATM   11  N   UNL     1     -12.230  12.764  64.339  1.00  0.00    -0.408 N  
HETATM   12  C   UNL     1     -10.076  13.526  65.305  1.00  0.00    -0.277 A  
ENDBRANCH   2   4
BRANCH   2  13
HETATM   13  C   UNL     1      -8.421  15.657  68.975  1.00  0.00    -0.231 C  
BRANCH  13  14
HETATM   14  N   UNL     1      -9.193  16.524  68.052  1.00  0.00    -0.211 N  
HETATM   15  C   UNL     1     -10.977  18.149  67.417  1.00  0.00    -0.087 C  
HETATM   16  C   UNL     1     -10.343  17.190  68.436  1.00  0.00    -0.362 C  
HETATM   17  H   UNL     1      -8.862  16.634  67.093  1.00  0.00     0.000 HD 
HETATM   18  O   UNL     1     -10.827  17.046  69.560  1.00  0.00    -0.264 OA 
HETATM   19 CL   UNL     1     -10.529  17.729  65.750  1.00  0.00    -0.291 Cl 
HETATM   20 CL   UNL     1     -10.482  19.809  67.799  1.00  0.00    -0.565 Cl 
ENDBRANCH  13  14
BRANCH  13  21
HETATM   21  C   UNL     1      -6.912  15.663  68.643  1.00  0.00    -0.125 C  
BRANCH  21  22
HETATM   22  O   UNL     1      -6.491  16.899  68.034  1.00  0.00    -0.137 OA 
BRANCH  22  23
HETATM   23  C   UNL     1      -6.328  17.945  68.886  1.00  0.00    -0.219 C  
HETATM   24  O   UNL     1      -5.844  17.871  70.009  1.00  0.00    -0.245 OA 
BRANCH  23  25
HETATM   25  C   UNL     1      -6.809  19.230  68.266  1.00  0.00    -0.296 C  
BRANCH  25  26
HETATM   26  C   UNL     1      -5.931  19.654  67.106  1.00  0.00    -0.185 C  
HETATM   27  C   UNL     1      -6.487  19.239  65.766  1.00  0.00    -0.234 C  
HETATM   28  O   UNL     1      -7.651  19.838  65.441  1.00  0.00    -0.388 OA 
HETATM   29  O   UNL     1      -5.921  18.452  65.025  1.00  0.00    -0.222 OA 
ENDBRANCH  25  26
ENDBRANCH  23  25
ENDBRANCH  22  23
ENDBRANCH  21  22
ENDBRANCH  13  21
ENDBRANCH   2  13
TORSDOF 8
ENDMDL
MODEL      138
REMARK 921   NORMALIZED FREE ENERGY PREDICTED BY IDOCK:   -4.99 KCAL/MOL
REMARK 922        TOTAL FREE ENERGY PREDICTED BY IDOCK:   -8.79 KCAL/MOL
REMARK 923 INTER-LIGAND FREE ENERGY PREDICTED BY IDOCK:   -8.54 KCAL/MOL
REMARK 924 INTRA-LIGAND FREE ENERGY PREDICTED BY IDOCK:   -0.25 KCAL/MOL
REMARK 927      BINDING AFFINITY PREDICTED BY RF-SCORE:    0.00 PKD
ROOT
HETATM    1  O   UNL     1      -8.798  13.599  68.779  1.00  0.00    -0.355 OA 
HETATM    2  C   UNL     1      -9.510  14.749  68.302  1.00  0.00    -0.207 C  
HETATM    3  H   UNL     1      -9.391  12.862  68.859  1.00  0.00     0.000 HD 
ENDROOT
BRANCH   2   4
HETATM    4  C   UNL     1     -10.186  14.323  67.016  1.00  0.00    -0.260 A  
HETATM    5  C   UNL     1     -11.583  13.563  64.701  1.00  0.00    -0.368 A  
HETATM    6  C   UNL     1     -10.583  15.285  66.072  1.00  0.00    -0.327 A  
HETATM    7  O   UNL     1     -12.738  14.073  62.753  1.00  0.00    -0.230 OA 
HETATM    8  O   UNL     1     -12.591  11.968  63.349  1.00  0.00    -0.627 OA 
HETATM    9  C   UNL     1     -10.484  12.970  66.768  1.00  0.00    -0.264 A  
HETATM   10  C   UNL     1     -11.279  14.913  64.918  1.00  0.00    -0.415 A  
HETATM   11  N   UNL     1     -12.359  13.174  63.516  1.00  0.00    -0.458 N  
HETATM   12  C   UNL     1     -11.177  12.587  65.617  1.00  0.00    -0.352 A  
ENDBRANCH   2   4
BRANCH   2  13
HETATM   13  C   UNL     1      -8.539  15.955  68.172  1.00  0.00    -0.169 C  
BRANCH  13  14
HETATM   14  N   UNL     1      -9.237  17.068  67.484  1.00  0.00    -0.230 N  
HETATM   15  C   UNL     1     -10.600  19.152  67.339  1.00  0.00    -0.481 C  
HETATM   16  C   UNL     1     -10.034  17.980  68.154  1.00  0.00    -0.353 C  
HETATM   17  H   UNL     1      -9.125  17.165  66.474  1.00  0.00     0.000 HD 
HETATM   18  O   UNL     1     -10.258  17.875  69.360  1.00  0.00    -0.241 OA 
HETATM   19 CL   UNL     1     -10.693  18.768  65.608  1.00  0.00    -0.353 Cl 
HETATM   20 CL   UNL     1      -9.591  20.585  67.610  1.00  0.00    -0.520 Cl 
ENDBRANCH  13  14
BRANCH  13  21
HETATM   21  C   UNL     1      -7.249  15.539  67.430  1.00  0.00    -0.209 C  
BRANCH  21  22
HETATM   22  O   UNL     1      -6.356  16.650  67.220  1.00  0.00    -0.148 OA 
BRANCH  22  23
HETATM   23  C   UNL     1      -5.936  17.284  68.347  1.00  0.00    -0.150 C  
HETATM   24  O   UNL     1      -5.514  16.727  69.353  1.00  0.00    -0.136 OA 
BRANCH  23  25
HETATM   25  C   UNL     1      -6.041  18.778  68.200  1.00  0.00    -0.217 C  
BRANCH  25  26
HETATM   26  C   UNL     1      -6.803  19.402  69.352  1.00  0.00    -0.342 C  
HETATM   27  C   UNL     1      -5.915  20.183  70.288  1.00  0.00    -0.349 C  
HETATM   28  O   UNL     1      -5.350  21.274  69.733  1.00  0.00    -0.456 OA 
HETATM   29  O   UNL     1      -5.745  19.874  71.456  1.00  0.00    -0.328 OA 
ENDBRANCH  25  26
ENDBRANCH  23  25
ENDBRANCH  22  23
ENDBRANCH  21  22
ENDBRANCH  13  21
ENDBRANCH   2  13
TORSDOF 8
ENDMDL
MODEL      139
REMARK 921   NORMALIZED FREE ENERGY PREDICTED BY IDOCK:   -4.99 KCAL/MOL
REMARK 922        TOTAL FREE ENERGY PREDICTED BY IDOCK:   -8.79 KCAL/MOL
REMARK 923 INTER-LIGAND FREE ENERGY PREDICTED BY IDOCK:   -7.60 KCAL/MOL
REMARK 924 INTRA-LIGAND FREE ENERGY PREDICTED BY IDOCK:   -1.19 KCAL/MOL
REMARK 927      BINDING AFFINITY PREDICTED BY RF-SCORE:    0.00 PKD
ROOT
HETATM    1  O   UNL     1     -12.569  12.658  65.669  1.00  0.00    -0.611 OA 
HETATM    2  C   UNL     1     -11.929  12.889  66.931  1.00  0.00    -0.335 C  
HETATM    3  H   UNL     1     -13.245  13.309  65.527  1.00  0.00     0.000 HD 
ENDROOT
BRANCH   2   4
HETATM    4  C   UNL     1     -11.448  14.325  66.905  1.00  0.00    -0.377 A  
HETATM    5  C   UNL     1     -10.709  17.034  66.828  1.00  0.00    -0.102 A  
HETATM    6  C   UNL     1     -11.542  15.125  68.057  1.00  0.00    -0.345 A  
HETATM    7  O   UNL     1     -10.538  19.132  67.805  1.00  0.00    -0.415 OA 
HETATM    8  O   UNL     1      -9.946  18.916  65.704  1.00  0.00    -0.425 OA 
HETATM    9  C   UNL     1     -10.958  14.903  65.719  1.00  0.00    -0.345 A  
HETATM   10  C   UNL     1     -11.176  16.474  68.024  1.00  0.00    -0.202 A  
HETATM   11  N   UNL     1     -10.374  18.463  66.776  1.00  0.00    -0.378 N  
HETATM   12  C   UNL     1     -10.587  16.249  65.676  1.00  0.00    -0.360 A  
ENDBRANCH   2   4
BRANCH   2  13
HETATM   13  C   UNL     1     -10.821  11.824  67.165  1.00  0.00    -0.258 C  
BRANCH  13  14
HETATM   14  N   UNL     1     -10.326  11.344  65.852  1.00  0.00    -0.243 N  
HETATM   15  C   UNL     1      -8.620  10.511  64.233  1.00  0.00    -0.152 C  
HETATM   16  C   UNL     1      -8.984  11.122  65.594  1.00  0.00    -0.184 C  
HETATM   17  H   UNL     1     -11.002  11.169  65.108  1.00  0.00     0.000 HD 
HETATM   18  O   UNL     1      -8.116  11.377  66.431  1.00  0.00    -0.162 OA 
HETATM   19 CL   UNL     1      -9.873  10.822  63.014  1.00  0.00    -0.364 Cl 
HETATM   20 CL   UNL     1      -8.359   8.768  64.433  1.00  0.00    -0.170 Cl 
ENDBRANCH  13  14
BRANCH  13  21
HETATM   21  C   UNL     1     -11.355  10.666  68.037  1.00  0.00    -0.278 C  
BRANCH  21  22
HETATM   22  O   UNL     1     -10.318  10.057  68.832  1.00  0.00    -0.182 OA 
BRANCH  22  23
HETATM   23  C   UNL     1     -10.355   8.700  68.901  1.00  0.00    -0.211 C  
HETATM   24  O   UNL     1     -10.768   8.055  69.857  1.00  0.00    -0.244 OA 
BRANCH  23  25
HETATM   25  C   UNL     1      -9.833   8.078  67.634  1.00  0.00    -0.214 C  
BRANCH  25  26
HETATM   26  C   UNL     1     -10.877   7.205  66.968  1.00  0.00    -0.382 C  
HETATM   27  C   UNL     1     -10.559   5.733  67.064  1.00  0.00    -0.300 C  
HETATM   28  O   UNL     1     -10.579   5.244  68.321  1.00  0.00    -0.120 OA 
HETATM   29  O   UNL     1     -10.333   5.036  66.089  1.00  0.00    -0.243 OA 
ENDBRANCH  25  26
ENDBRANCH  23  25
ENDBRANCH  22  23
ENDBRANCH  21  22
ENDBRANCH  13  21
ENDBRANCH   2  13
TORSDOF 8
ENDMDL
MODEL      140
REMARK 921   NORMALIZED FREE ENERGY PREDICTED BY IDOCK:   -4.99 KCAL/MOL
REMARK 922        TOTAL FREE ENERGY PREDICTED BY IDOCK:   -8.79 KCAL/MOL
REMARK 923 INTER-LIGAND FREE ENERGY PREDICTED BY IDOCK:   -7.83 KCAL/MOL
REMARK 924 INTRA-LIGAND FREE ENERGY PREDICTED BY IDOCK:   -0.96 KCAL/MOL
REMARK 927      BINDING AFFINITY PREDICTED BY RF-SCORE:    0.00 PKD
ROOT
HETATM    1  O   UNL     1     -12.422  11.027  68.488  1.00  0.00    -0.713 OA 
HETATM    2  C   UNL     1     -11.063  11.221  68.070  1.00  0.00    -0.266 C  
HETATM    3  H   UNL     1     -12.759  11.828  68.870  1.00  0.00     0.000 HD 
ENDROOT
BRANCH   2   4
HETATM    4  C   UNL     1     -11.073  12.422  67.147  1.00  0.00    -0.328 A  
HETATM    5  C   UNL     1     -11.194  14.720  65.537  1.00  0.00    -0.346 A  
HETATM    6  C   UNL     1     -10.244  13.525  67.412  1.00  0.00    -0.237 A  
HETATM    7  O   UNL     1     -10.585  16.906  65.050  1.00  0.00    -0.700 OA 
HETATM    8  O   UNL     1     -12.083  15.938  63.773  1.00  0.00    -0.780 OA 
HETATM    9  C   UNL     1     -11.949  12.483  66.048  1.00  0.00    -0.456 A  
HETATM   10  C   UNL     1     -10.300  14.672  66.614  1.00  0.00    -0.273 A  
HETATM   11  N   UNL     1     -11.294  15.942  64.729  1.00  0.00    -0.367 N  
HETATM   12  C   UNL     1     -12.012  13.623  65.243  1.00  0.00    -0.395 A  
ENDBRANCH   2   4
BRANCH   2  13
HETATM   13  C   UNL     1     -10.511   9.909  67.445  1.00  0.00    -0.267 C  
BRANCH  13  14
HETATM   14  N   UNL     1     -10.665   8.805  68.422  1.00  0.00    -0.425 N  
HETATM   15  C   UNL     1     -10.701   6.427  69.177  1.00  0.00    -0.284 C  
HETATM   16  C   UNL     1     -10.653   7.471  68.052  1.00  0.00    -0.155 C  
HETATM   17  H   UNL     1     -10.784   9.037  69.409  1.00  0.00     0.000 HD 
HETATM   18  O   UNL     1     -10.578   7.131  66.870  1.00  0.00    -0.305 OA 
HETATM   19 CL   UNL     1     -11.428   7.086  70.658  1.00  0.00    -0.346 Cl 
HETATM   20 CL   UNL     1      -9.058   5.840  69.493  1.00  0.00    -0.135 Cl 
ENDBRANCH  13  14
BRANCH  13  21
HETATM   21  C   UNL     1      -9.040  10.091  67.009  1.00  0.00    -0.142 C  
BRANCH  21  22
HETATM   22  O   UNL     1      -8.787   9.549  65.698  1.00  0.00    -0.142 OA 
BRANCH  22  23
HETATM   23  C   UNL     1      -7.732  10.092  65.035  1.00  0.00    -0.138 C  
HETATM   24  O   UNL     1      -6.694  10.477  65.558  1.00  0.00    -0.126 OA 
BRANCH  23  25
HETATM   25  C   UNL     1      -7.994  10.148  63.554  1.00  0.00    -0.161 C  
BRANCH  25  26
HETATM   26  C   UNL     1      -6.936   9.398  62.769  1.00  0.00    -0.095 C  
HETATM   27  C   UNL     1      -6.812   7.954  63.185  1.00  0.00    -0.080 C  
HETATM   28  O   UNL     1      -7.903   7.207  62.924  1.00  0.00    -0.116 OA 
HETATM   29  O   UNL     1      -5.800   7.491  63.687  1.00  0.00    -0.047 OA 
ENDBRANCH  25  26
ENDBRANCH  23  25
ENDBRANCH  22  23
ENDBRANCH  21  22
ENDBRANCH  13  21
ENDBRANCH   2  13
TORSDOF 8
ENDMDL
MODEL      141
REMARK 921   NORMALIZED FREE ENERGY PREDICTED BY IDOCK:   -4.96 KCAL/MOL
REMARK 922        TOTAL FREE ENERGY PREDICTED BY IDOCK:   -8.75 KCAL/MOL
REMARK 923 INTER-LIGAND FREE ENERGY PREDICTED BY IDOCK:   -7.42 KCAL/MOL
REMARK 924 INTRA-LIGAND FREE ENERGY PREDICTED BY IDOCK:   -1.33 KCAL/MOL
REMARK 927      BINDING AFFINITY PREDICTED BY RF-SCORE:    0.00 PKD
ROOT
HETATM    1  O   UNL     1     -12.457  12.261  71.130  1.00  0.00    -0.343 OA 
HETATM    2  C   UNL     1     -12.100  11.365  70.068  1.00  0.00    -0.340 C  
HETATM    3  H   UNL     1     -13.080  11.840  71.710  1.00  0.00     0.000 HD 
ENDROOT
BRANCH   2   4
HETATM    4  C   UNL     1     -11.607  10.097  70.733  1.00  0.00    -0.445 A  
HETATM    5  C   UNL     1     -10.702   7.671  71.822  1.00  0.00    -0.216 A  
HETATM    6  C   UNL     1     -10.244   9.756  70.686  1.00  0.00    -0.290 A  
HETATM    7  O   UNL     1      -9.034   6.106  72.216  1.00  0.00    -0.138 OA 
HETATM    8  O   UNL     1     -11.072   5.639  72.881  1.00  0.00    -0.259 OA 
HETATM    9  C   UNL     1     -12.505   9.209  71.353  1.00  0.00    -0.396 A  
HETATM   10  C   UNL     1      -9.788   8.550  71.226  1.00  0.00    -0.279 A  
HETATM   11  N   UNL     1     -10.236   6.380  72.344  1.00  0.00    -0.184 N  
HETATM   12  C   UNL     1     -12.060   8.002  71.899  1.00  0.00    -0.359 A  
ENDBRANCH   2   4
BRANCH   2  13
HETATM   13  C   UNL     1     -11.081  12.053  69.117  1.00  0.00    -0.215 C  
BRANCH  13  14
HETATM   14  N   UNL     1     -11.078  13.512  69.383  1.00  0.00    -0.425 N  
HETATM   15  C   UNL     1     -10.261  15.860  69.169  1.00  0.00    -0.234 C  
HETATM   16  C   UNL     1     -10.079  14.355  68.926  1.00  0.00    -0.200 C  
HETATM   17  H   UNL     1     -11.844  13.912  69.926  1.00  0.00     0.000 HD 
HETATM   18  O   UNL     1      -9.097  13.921  68.322  1.00  0.00    -0.184 OA 
HETATM   19 CL   UNL     1     -11.340  16.180  70.544  1.00  0.00    -0.402 Cl 
HETATM   20 CL   UNL     1     -10.888  16.614  67.692  1.00  0.00    -0.300 Cl 
ENDBRANCH  13  14
BRANCH  13  21
HETATM   21  C   UNL     1     -11.414  11.739  67.641  1.00  0.00    -0.300 C  
BRANCH  21  22
HETATM   22  O   UNL     1     -11.212  10.349  67.319  1.00  0.00    -0.284 OA 
BRANCH  22  23
HETATM   23  C   UNL     1     -10.101  10.075  66.586  1.00  0.00    -0.227 C  
HETATM   24  O   UNL     1      -9.538  10.863  65.837  1.00  0.00    -0.198 OA 
BRANCH  23  25
HETATM   25  C   UNL     1      -9.630   8.664  66.823  1.00  0.00    -0.269 C  
BRANCH  25  26
HETATM   26  C   UNL     1     -10.765   7.763  67.269  1.00  0.00    -0.326 C  
HETATM   27  C   UNL     1     -10.335   6.330  67.459  1.00  0.00    -0.200 C  
HETATM   28  O   UNL     1      -9.451   6.145  68.460  1.00  0.00    -0.120 OA 
HETATM   29  O   UNL     1     -10.771   5.410  66.785  1.00  0.00    -0.284 OA 
ENDBRANCH  25  26
ENDBRANCH  23  25
ENDBRANCH  22  23
ENDBRANCH  21  22
ENDBRANCH  13  21
ENDBRANCH   2  13
TORSDOF 8
ENDMDL
MODEL      142
REMARK 921   NORMALIZED FREE ENERGY PREDICTED BY IDOCK:   -4.95 KCAL/MOL
REMARK 922        TOTAL FREE ENERGY PREDICTED BY IDOCK:   -8.74 KCAL/MOL
REMARK 923 INTER-LIGAND FREE ENERGY PREDICTED BY IDOCK:   -7.78 KCAL/MOL
REMARK 924 INTRA-LIGAND FREE ENERGY PREDICTED BY IDOCK:   -0.95 KCAL/MOL
REMARK 927      BINDING AFFINITY PREDICTED BY RF-SCORE:    0.00 PKD
ROOT
HETATM    1  O   UNL     1      -7.812  13.842  69.235  1.00  0.00    -0.339 OA 
HETATM    2  C   UNL     1      -8.372  13.694  67.923  1.00  0.00    -0.174 C  
HETATM    3  H   UNL     1      -7.201  14.570  69.245  1.00  0.00     0.000 HD 
ENDROOT
BRANCH   2   4
HETATM    4  C   UNL     1      -8.965  15.040  67.563  1.00  0.00    -0.189 A  
HETATM    5  C   UNL     1      -9.919  17.584  66.850  1.00  0.00    -0.313 A  
HETATM    6  C   UNL     1      -9.333  15.320  66.236  1.00  0.00    -0.345 A  
HETATM    7  O   UNL     1     -10.615  19.135  65.269  1.00  0.00    -0.414 OA 
HETATM    8  O   UNL     1     -10.471  19.780  67.361  1.00  0.00    -0.427 OA 
HETATM    9  C   UNL     1      -9.104  16.052  68.530  1.00  0.00    -0.203 A  
HETATM   10  C   UNL     1      -9.808  16.585  65.875  1.00  0.00    -0.324 A  
HETATM   11  N   UNL     1     -10.367  18.929  66.465  1.00  0.00    -0.405 N  
HETATM   12  C   UNL     1      -9.579  17.319  68.181  1.00  0.00    -0.283 A  
ENDBRANCH   2   4
BRANCH   2  13
HETATM   13  C   UNL     1      -9.370  12.504  67.906  1.00  0.00    -0.200 C  
BRANCH  13  14
HETATM   14  N   UNL     1     -10.356  12.682  68.999  1.00  0.00    -0.436 N  
HETATM   15  C   UNL     1     -12.468  12.234  70.250  1.00  0.00    -0.084 C  
HETATM   16  C   UNL     1     -11.593  12.059  69.001  1.00  0.00    -0.313 C  
HETATM   17  H   UNL     1     -10.113  13.289  69.783  1.00  0.00     0.000 HD 
HETATM   18  O   UNL     1     -11.967  11.368  68.052  1.00  0.00    -0.613 OA 
HETATM   19 CL   UNL     1     -12.046  13.707  71.149  1.00  0.00    -0.315 Cl 
HETATM   20 CL   UNL     1     -12.298  10.801  71.281  1.00  0.00    -0.476 Cl 
ENDBRANCH  13  14
BRANCH  13  21
HETATM   21  C   UNL     1      -8.618  11.159  68.024  1.00  0.00    -0.140 C  
BRANCH  21  22
HETATM   22  O   UNL     1      -9.062  10.196  67.048  1.00  0.00    -0.138 OA 
BRANCH  22  23
HETATM   23  C   UNL     1      -9.618   9.065  67.555  1.00  0.00    -0.144 C  
HETATM   24  O   UNL     1      -9.802   8.842  68.745  1.00  0.00    -0.165 OA 
BRANCH  23  25
HETATM   25  C   UNL     1     -10.000   8.109  66.456  1.00  0.00    -0.302 C  
BRANCH  25  26
HETATM   26  C   UNL     1     -10.738   6.900  66.997  1.00  0.00    -0.432 C  
HETATM   27  C   UNL     1     -10.058   5.598  66.656  1.00  0.00    -0.198 C  
HETATM   28  O   UNL     1      -8.848   5.439  67.231  1.00  0.00    -0.108 OA 
HETATM   29  O   UNL     1     -10.569   4.746  65.947  1.00  0.00    -0.303 OA 
ENDBRANCH  25  26
ENDBRANCH  23  25
ENDBRANCH  22  23
ENDBRANCH  21  22
ENDBRANCH  13  21
ENDBRANCH   2  13
TORSDOF 8
ENDMDL
MODEL      143
REMARK 921   NORMALIZED FREE ENERGY PREDICTED BY IDOCK:   -4.95 KCAL/MOL
REMARK 922        TOTAL FREE ENERGY PREDICTED BY IDOCK:   -8.73 KCAL/MOL
REMARK 923 INTER-LIGAND FREE ENERGY PREDICTED BY IDOCK:   -7.54 KCAL/MOL
REMARK 924 INTRA-LIGAND FREE ENERGY PREDICTED BY IDOCK:   -1.19 KCAL/MOL
REMARK 927      BINDING AFFINITY PREDICTED BY RF-SCORE:    0.00 PKD
ROOT
HETATM    1  O   UNL     1     -12.261  10.800  68.460  1.00  0.00    -0.824 OA 
HETATM    2  C   UNL     1     -10.945  10.959  67.912  1.00  0.00    -0.271 C  
HETATM    3  H   UNL     1     -12.540  11.610  68.868  1.00  0.00     0.000 HD 
ENDROOT
BRANCH   2   4
HETATM    4  C   UNL     1     -11.013  12.157  66.989  1.00  0.00    -0.319 A  
HETATM    5  C   UNL     1     -11.224  14.458  65.392  1.00  0.00    -0.335 A  
HETATM    6  C   UNL     1     -10.094  13.211  67.128  1.00  0.00    -0.242 A  
HETATM    7  O   UNL     1     -10.564  16.605  64.806  1.00  0.00    -0.685 OA 
HETATM    8  O   UNL     1     -12.276  15.724  63.755  1.00  0.00    -0.699 OA 
HETATM    9  C   UNL     1     -12.027  12.269  66.021  1.00  0.00    -0.342 A  
HETATM   10  C   UNL     1     -10.194  14.359  66.336  1.00  0.00    -0.294 A  
HETATM   11  N   UNL     1     -11.365  15.683  64.594  1.00  0.00    -0.406 N  
HETATM   12  C   UNL     1     -12.136  13.410  65.222  1.00  0.00    -0.446 A  
ENDBRANCH   2   4
BRANCH   2  13
HETATM   13  C   UNL     1     -10.488   9.632  67.243  1.00  0.00    -0.258 C  
BRANCH  13  14
HETATM   14  N   UNL     1     -10.544   8.540  68.244  1.00  0.00    -0.393 N  
HETATM   15  C   UNL     1     -10.803   6.184  69.026  1.00  0.00    -0.350 C  
HETATM   16  C   UNL     1     -10.902   7.243  67.918  1.00  0.00    -0.114 C  
HETATM   17  H   UNL     1     -10.309   8.752  69.214  1.00  0.00     0.000 HD 
HETATM   18  O   UNL     1     -11.259   6.940  66.778  1.00  0.00    -0.279 OA 
HETATM   19 CL   UNL     1     -10.901   6.912  70.643  1.00  0.00    -0.264 Cl 
HETATM   20 CL   UNL     1      -9.286   5.286  68.834  1.00  0.00    -0.139 Cl 
ENDBRANCH  13  14
BRANCH  13  21
HETATM   21  C   UNL     1      -9.075   9.786  66.638  1.00  0.00    -0.147 C  
BRANCH  21  22
HETATM   22  O   UNL     1      -8.105  10.215  67.614  1.00  0.00    -0.109 OA 
BRANCH  22  23
HETATM   23  C   UNL     1      -6.811  10.192  67.201  1.00  0.00    -0.082 C  
HETATM   24  O   UNL     1      -6.353   9.427  66.361  1.00  0.00    -0.064 OA 
BRANCH  23  25
HETATM   25  C   UNL     1      -5.999  11.248  67.902  1.00  0.00    -0.046 C  
BRANCH  25  26
HETATM   26  C   UNL     1      -6.737  11.820  69.096  1.00  0.00    -0.110 C  
HETATM   27  C   UNL     1      -6.458  13.287  69.309  1.00  0.00    -0.107 C  
HETATM   28  O   UNL     1      -6.911  14.085  68.321  1.00  0.00    -0.086 OA 
HETATM   29  O   UNL     1      -5.900  13.721  70.304  1.00  0.00    -0.129 OA 
ENDBRANCH  25  26
ENDBRANCH  23  25
ENDBRANCH  22  23
ENDBRANCH  21  22
ENDBRANCH  13  21
ENDBRANCH   2  13
TORSDOF 8
ENDMDL
MODEL      144
REMARK 921   NORMALIZED FREE ENERGY PREDICTED BY IDOCK:   -4.94 KCAL/MOL
REMARK 922        TOTAL FREE ENERGY PREDICTED BY IDOCK:   -8.72 KCAL/MOL
REMARK 923 INTER-LIGAND FREE ENERGY PREDICTED BY IDOCK:   -7.27 KCAL/MOL
REMARK 924 INTRA-LIGAND FREE ENERGY PREDICTED BY IDOCK:   -1.45 KCAL/MOL
REMARK 927      BINDING AFFINITY PREDICTED BY RF-SCORE:    0.00 PKD
ROOT
HETATM    1  O   UNL     1     -12.515  10.435  69.602  1.00  0.00    -0.558 OA 
HETATM    2  C   UNL     1     -11.200  10.843  69.198  1.00  0.00    -0.256 C  
HETATM    3  H   UNL     1     -13.095  11.186  69.620  1.00  0.00     0.000 HD 
ENDROOT
BRANCH   2   4
HETATM    4  C   UNL     1     -11.369  11.559  67.874  1.00  0.00    -0.372 A  
HETATM    5  C   UNL     1     -11.829  12.821  65.408  1.00  0.00    -0.415 A  
HETATM    6  C   UNL     1     -12.046  12.789  67.816  1.00  0.00    -0.191 A  
HETATM    7  O   UNL     1     -12.774  14.505  64.121  1.00  0.00    -0.711 OA 
HETATM    8  O   UNL     1     -11.684  12.903  63.093  1.00  0.00    -0.472 OA 
HETATM    9  C   UNL     1     -10.908  10.983  66.676  1.00  0.00    -0.284 A  
HETATM   10  C   UNL     1     -12.278  13.421  66.591  1.00  0.00    -0.391 A  
HETATM   11  N   UNL     1     -12.116  13.456  64.115  1.00  0.00    -0.429 N  
HETATM   12  C   UNL     1     -11.132  11.608  65.447  1.00  0.00    -0.299 A  
ENDBRANCH   2   4
BRANCH   2  13
HETATM   13  C   UNL     1     -10.251   9.613  69.170  1.00  0.00    -0.202 C  
BRANCH  13  14
HETATM   14  N   UNL     1     -10.899   8.484  69.879  1.00  0.00    -0.295 N  
HETATM   15  C   UNL     1     -11.499   6.095  70.278  1.00  0.00    -0.287 C  
HETATM   16  C   UNL     1     -10.897   7.190  69.386  1.00  0.00    -0.206 C  
HETATM   17  H   UNL     1     -11.366   8.667  70.768  1.00  0.00     0.000 HD 
HETATM   18  O   UNL     1     -10.406   6.920  68.288  1.00  0.00    -0.174 OA 
HETATM   19 CL   UNL     1     -12.664   6.759  71.442  1.00  0.00    -0.367 Cl 
HETATM   20 CL   UNL     1     -10.188   5.247  71.119  1.00  0.00    -0.281 Cl 
ENDBRANCH  13  14
BRANCH  13  21
HETATM   21  C   UNL     1      -8.880   9.969  69.788  1.00  0.00    -0.183 C  
BRANCH  21  22
HETATM   22  O   UNL     1      -7.804   9.206  69.208  1.00  0.00    -0.090 OA 
BRANCH  22  23
HETATM   23  C   UNL     1      -6.640   9.884  69.024  1.00  0.00    -0.052 C  
HETATM   24  O   UNL     1      -5.993  10.427  69.910  1.00  0.00    -0.046 OA 
BRANCH  23  25
HETATM   25  C   UNL     1      -6.228   9.871  67.576  1.00  0.00    -0.059 C  
BRANCH  25  26
HETATM   26  C   UNL     1      -7.029  10.864  66.758  1.00  0.00    -0.126 C  
HETATM   27  C   UNL     1      -7.023  12.251  67.351  1.00  0.00    -0.151 C  
HETATM   28  O   UNL     1      -5.812  12.844  67.361  1.00  0.00    -0.248 OA 
HETATM   29  O   UNL     1      -8.031  12.805  67.759  1.00  0.00    -0.131 OA 
ENDBRANCH  25  26
ENDBRANCH  23  25
ENDBRANCH  22  23
ENDBRANCH  21  22
ENDBRANCH  13  21
ENDBRANCH   2  13
TORSDOF 8
ENDMDL
MODEL      145
REMARK 921   NORMALIZED FREE ENERGY PREDICTED BY IDOCK:   -4.93 KCAL/MOL
REMARK 922        TOTAL FREE ENERGY PREDICTED BY IDOCK:   -8.71 KCAL/MOL
REMARK 923 INTER-LIGAND FREE ENERGY PREDICTED BY IDOCK:   -7.54 KCAL/MOL
REMARK 924 INTRA-LIGAND FREE ENERGY PREDICTED BY IDOCK:   -1.17 KCAL/MOL
REMARK 927      BINDING AFFINITY PREDICTED BY RF-SCORE:    0.00 PKD
ROOT
HETATM    1  O   UNL     1      -8.663  10.807  69.416  1.00  0.00    -0.357 OA 
HETATM    2  C   UNL     1     -10.057  10.473  69.475  1.00  0.00    -0.178 C  
HETATM    3  H   UNL     1      -8.295  10.806  70.291  1.00  0.00     0.000 HD 
ENDROOT
BRANCH   2   4
HETATM    4  C   UNL     1     -10.145   9.153  70.211  1.00  0.00    -0.244 A  
HETATM    5  C   UNL     1     -10.254   6.780  71.710  1.00  0.00    -0.190 A  
HETATM    6  C   UNL     1     -11.273   8.852  70.994  1.00  0.00    -0.342 A  
HETATM    7  O   UNL     1     -11.282   5.385  73.254  1.00  0.00    -0.296 OA 
HETATM    8  O   UNL     1      -9.324   4.791  72.463  1.00  0.00    -0.130 OA 
HETATM    9  C   UNL     1      -9.081   8.233  70.178  1.00  0.00    -0.147 A  
HETATM   10  C   UNL     1     -11.332   7.673  71.742  1.00  0.00    -0.293 A  
HETATM   11  N   UNL     1     -10.290   5.565  72.535  1.00  0.00    -0.196 N  
HETATM   12  C   UNL     1      -9.131   7.050  70.920  1.00  0.00    -0.153 A  
ENDBRANCH   2   4
BRANCH   2  13
HETATM   13  C   UNL     1     -10.661  10.475  68.043  1.00  0.00    -0.245 C  
BRANCH  13  14
HETATM   14  N   UNL     1      -9.576  10.249  67.058  1.00  0.00    -0.167 N  
HETATM   15  C   UNL     1      -8.397   9.064  65.206  1.00  0.00    -0.149 C  
HETATM   16  C   UNL     1      -9.505   9.115  66.268  1.00  0.00    -0.237 C  
HETATM   17  H   UNL     1      -8.850  10.960  66.959  1.00  0.00     0.000 HD 
HETATM   18  O   UNL     1     -10.314   8.194  66.389  1.00  0.00    -0.210 OA 
HETATM   19 CL   UNL     1      -7.034  10.124  65.623  1.00  0.00    -0.118 Cl 
HETATM   20 CL   UNL     1      -9.081   9.513  63.633  1.00  0.00    -0.218 Cl 
ENDBRANCH  13  14
BRANCH  13  21
HETATM   21  C   UNL     1     -11.419  11.794  67.772  1.00  0.00    -0.311 C  
BRANCH  21  22
HETATM   22  O   UNL     1     -10.878  12.514  66.647  1.00  0.00    -0.237 OA 
BRANCH  22  23
HETATM   23  C   UNL     1      -9.931  13.441  66.947  1.00  0.00    -0.252 C  
HETATM   24  O   UNL     1      -9.268  13.464  67.976  1.00  0.00    -0.195 OA 
BRANCH  23  25
HETATM   25  C   UNL     1      -9.784  14.445  65.834  1.00  0.00    -0.305 C  
BRANCH  25  26
HETATM   26  C   UNL     1     -10.860  15.511  65.896  1.00  0.00    -0.317 C  
HETATM   27  C   UNL     1     -11.627  15.645  64.603  1.00  0.00    -0.249 C  
HETATM   28  O   UNL     1     -12.358  14.560  64.278  1.00  0.00    -0.597 OA 
HETATM   29  O   UNL     1     -11.613  16.659  63.923  1.00  0.00    -1.204 OA 
ENDBRANCH  25  26
ENDBRANCH  23  25
ENDBRANCH  22  23
ENDBRANCH  21  22
ENDBRANCH  13  21
ENDBRANCH   2  13
TORSDOF 8
ENDMDL
MODEL      146
REMARK 921   NORMALIZED FREE ENERGY PREDICTED BY IDOCK:   -4.93 KCAL/MOL
REMARK 922        TOTAL FREE ENERGY PREDICTED BY IDOCK:   -8.71 KCAL/MOL
REMARK 923 INTER-LIGAND FREE ENERGY PREDICTED BY IDOCK:   -7.65 KCAL/MOL
REMARK 924 INTRA-LIGAND FREE ENERGY PREDICTED BY IDOCK:   -1.06 KCAL/MOL
REMARK 927      BINDING AFFINITY PREDICTED BY RF-SCORE:    0.00 PKD
ROOT
HETATM    1  O   UNL     1      -9.251  10.083  70.255  1.00  0.00    -0.373 OA 
HETATM    2  C   UNL     1     -10.424  10.065  69.430  1.00  0.00    -0.232 C  
HETATM    3  H   UNL     1      -8.879  10.956  70.267  1.00  0.00     0.000 HD 
ENDROOT
BRANCH   2   4
HETATM    4  C   UNL     1     -11.336  11.149  69.968  1.00  0.00    -0.326 A  
HETATM    5  C   UNL     1     -12.901  13.211  71.055  1.00  0.00    -0.214 A  
HETATM    6  C   UNL     1     -11.323  12.433  69.397  1.00  0.00    -0.286 A  
HETATM    7  O   UNL     1     -13.578  15.430  71.147  1.00  0.00    -0.497 OA 
HETATM    8  O   UNL     1     -14.390  14.036  72.633  1.00  0.00    -0.596 OA 
HETATM    9  C   UNL     1     -12.162  10.912  71.082  1.00  0.00    -0.441 A  
HETATM   10  C   UNL     1     -12.100  13.463  69.934  1.00  0.00    -0.389 A  
HETATM   11  N   UNL     1     -13.678  14.304  71.654  1.00  0.00    -0.379 N  
HETATM   12  C   UNL     1     -12.945  11.934  71.625  1.00  0.00    -0.447 A  
ENDBRANCH   2   4
BRANCH   2  13
HETATM   13  C   UNL     1     -11.034   8.636  69.410  1.00  0.00    -0.019 C  
BRANCH  13  14
HETATM   14  N   UNL     1     -10.835   8.005  70.737  1.00  0.00    -0.228 N  
HETATM   15  C   UNL     1     -11.257   6.344  72.550  1.00  0.00    -0.272 C  
HETATM   16  C   UNL     1     -11.648   6.990  71.213  1.00  0.00    -0.303 C  
HETATM   17  H   UNL     1     -10.067   8.332  71.324  1.00  0.00     0.000 HD 
HETATM   18  O   UNL     1     -12.628   6.599  70.579  1.00  0.00    -0.171 OA 
HETATM   19 CL   UNL     1     -10.266   7.432  73.544  1.00  0.00    -0.393 Cl 
HETATM   20 CL   UNL     1     -10.394   4.828  72.231  1.00  0.00    -0.260 Cl 
ENDBRANCH  13  14
BRANCH  13  21
HETATM   21  C   UNL     1     -10.413   7.794  68.274  1.00  0.00    -0.168 C  
BRANCH  21  22
HETATM   22  O   UNL     1      -8.972   7.827  68.293  1.00  0.00    -0.132 OA 
BRANCH  22  23
HETATM   23  C   UNL     1      -8.385   8.330  67.175  1.00  0.00    -0.123 C  
HETATM   24  O   UNL     1      -7.245   8.774  67.117  1.00  0.00    -0.078 OA 
BRANCH  23  25
HETATM   25  C   UNL     1      -9.316   8.259  65.994  1.00  0.00    -0.217 C  
BRANCH  25  26
HETATM   26  C   UNL     1      -8.927   9.249  64.914  1.00  0.00    -0.229 C  
HETATM   27  C   UNL     1      -9.821  10.463  64.881  1.00  0.00    -0.334 C  
HETATM   28  O   UNL     1      -9.742  11.239  65.982  1.00  0.00    -0.205 OA 
HETATM   29  O   UNL     1     -10.534  10.739  63.930  1.00  0.00    -0.338 OA 
ENDBRANCH  25  26
ENDBRANCH  23  25
ENDBRANCH  22  23
ENDBRANCH  21  22
ENDBRANCH  13  21
ENDBRANCH   2  13
TORSDOF 8
ENDMDL
MODEL      147
REMARK 921   NORMALIZED FREE ENERGY PREDICTED BY IDOCK:   -4.93 KCAL/MOL
REMARK 922        TOTAL FREE ENERGY PREDICTED BY IDOCK:   -8.70 KCAL/MOL
REMARK 923 INTER-LIGAND FREE ENERGY PREDICTED BY IDOCK:   -7.93 KCAL/MOL
REMARK 924 INTRA-LIGAND FREE ENERGY PREDICTED BY IDOCK:   -0.77 KCAL/MOL
REMARK 927      BINDING AFFINITY PREDICTED BY RF-SCORE:    0.00 PKD
ROOT
HETATM    1  O   UNL     1     -12.314  12.036  66.160  1.00  0.00    -0.449 OA 
HETATM    2  C   UNL     1     -11.240  12.964  66.369  1.00  0.00    -0.300 C  
HETATM    3  H   UNL     1     -12.006  11.295  65.652  1.00  0.00     0.000 HD 
ENDROOT
BRANCH   2   4
HETATM    4  C   UNL     1     -10.114  12.171  67.000  1.00  0.00    -0.219 A  
HETATM    5  C   UNL     1      -7.983  10.654  68.022  1.00  0.00    -0.107 A  
HETATM    6  C   UNL     1      -8.819  12.713  67.069  1.00  0.00    -0.212 A  
HETATM    7  O   UNL     1      -5.728  10.352  68.483  1.00  0.00    -0.038 OA 
HETATM    8  O   UNL     1      -7.105   8.698  68.911  1.00  0.00    -0.064 OA 
HETATM    9  C   UNL     1     -10.325  10.863  67.471  1.00  0.00    -0.237 A  
HETATM   10  C   UNL     1      -7.754  11.962  67.576  1.00  0.00    -0.151 A  
HETATM   11  N   UNL     1      -6.858   9.844  68.506  1.00  0.00    -0.058 N  
HETATM   12  C   UNL     1      -9.269  10.104  67.982  1.00  0.00    -0.142 A  
ENDBRANCH   2   4
BRANCH   2  13
HETATM   13  C   UNL     1     -11.743  14.177  67.199  1.00  0.00    -0.403 C  
BRANCH  13  14
HETATM   14  N   UNL     1     -10.808  15.313  67.014  1.00  0.00    -0.318 N  
HETATM   15  C   UNL     1      -9.746  17.205  65.783  1.00  0.00    -0.014 C  
HETATM   16  C   UNL     1     -10.658  15.970  65.805  1.00  0.00    -0.353 C  
HETATM   17  H   UNL     1     -10.253  15.624  67.812  1.00  0.00     0.000 HD 
HETATM   18  O   UNL     1     -11.253  15.599  64.792  1.00  0.00    -0.430 OA 
HETATM   19 CL   UNL     1      -8.554  17.168  67.098  1.00  0.00    -0.213 Cl 
HETATM   20 CL   UNL     1     -10.747  18.665  65.885  1.00  0.00    -0.393 Cl 
ENDBRANCH  13  14
BRANCH  13  21
HETATM   21  C   UNL     1     -11.894  13.793  68.688  1.00  0.00    -0.374 C  
BRANCH  21  22
HETATM   22  O   UNL     1     -12.360  14.894  69.493  1.00  0.00    -0.254 OA 
BRANCH  22  23
HETATM   23  C   UNL     1     -11.418  15.489  70.271  1.00  0.00    -0.334 C  
HETATM   24  O   UNL     1     -10.219  15.526  70.022  1.00  0.00    -0.301 OA 
BRANCH  23  25
HETATM   25  C   UNL     1     -12.040  16.119  71.489  1.00  0.00    -0.438 C  
BRANCH  25  26
HETATM   26  C   UNL     1     -13.392  15.512  71.804  1.00  0.00    -0.577 C  
HETATM   27  C   UNL     1     -13.298  14.310  72.711  1.00  0.00    -0.525 C  
HETATM   28  O   UNL     1     -12.845  14.586  73.951  1.00  0.00    -0.450 OA 
HETATM   29  O   UNL     1     -13.632  13.188  72.366  1.00  0.00    -0.574 OA 
ENDBRANCH  25  26
ENDBRANCH  23  25
ENDBRANCH  22  23
ENDBRANCH  21  22
ENDBRANCH  13  21
ENDBRANCH   2  13
TORSDOF 8
ENDMDL
MODEL      148
REMARK 921   NORMALIZED FREE ENERGY PREDICTED BY IDOCK:   -4.92 KCAL/MOL
REMARK 922        TOTAL FREE ENERGY PREDICTED BY IDOCK:   -8.69 KCAL/MOL
REMARK 923 INTER-LIGAND FREE ENERGY PREDICTED BY IDOCK:   -7.75 KCAL/MOL
REMARK 924 INTRA-LIGAND FREE ENERGY PREDICTED BY IDOCK:   -0.95 KCAL/MOL
REMARK 927      BINDING AFFINITY PREDICTED BY RF-SCORE:    0.00 PKD
ROOT
HETATM    1  O   UNL     1     -12.368  11.174  68.349  1.00  0.00    -0.697 OA 
HETATM    2  C   UNL     1     -11.681  12.214  67.640  1.00  0.00    -0.316 C  
HETATM    3  H   UNL     1     -12.738  10.553  67.733  1.00  0.00     0.000 HD 
ENDROOT
BRANCH   2   4
HETATM    4  C   UNL     1     -10.679  11.521  66.740  1.00  0.00    -0.311 A  
HETATM    5  C   UNL     1      -8.943  10.152  65.008  1.00  0.00    -0.195 A  
HETATM    6  C   UNL     1     -10.468  11.980  65.429  1.00  0.00    -0.313 A  
HETATM    7  O   UNL     1      -7.980   9.822  62.922  1.00  0.00    -0.122 OA 
HETATM    8  O   UNL     1      -7.492   8.406  64.524  1.00  0.00    -0.090 OA 
HETATM    9  C   UNL     1      -9.987  10.375  67.174  1.00  0.00    -0.239 A  
HETATM   10  C   UNL     1      -9.605  11.302  64.562  1.00  0.00    -0.260 A  
HETATM   11  N   UNL     1      -8.076   9.407  64.085  1.00  0.00    -0.136 N  
HETATM   12  C   UNL     1      -9.121   9.691  66.317  1.00  0.00    -0.197 A  
ENDBRANCH   2   4
BRANCH   2  13
HETATM   13  C   UNL     1     -11.075  13.230  68.647  1.00  0.00    -0.268 C  
BRANCH  13  14
HETATM   14  N   UNL     1      -9.596  13.165  68.571  1.00  0.00    -0.368 N  
HETATM   15  C   UNL     1      -7.297  14.067  68.215  1.00  0.00    -0.115 C  
HETATM   16  C   UNL     1      -8.822  14.225  68.130  1.00  0.00    -0.183 C  
HETATM   17  H   UNL     1      -9.128  12.304  68.856  1.00  0.00     0.000 HD 
HETATM   18  O   UNL     1      -9.332  15.266  67.712  1.00  0.00    -0.194 OA 
HETATM   19 CL   UNL     1      -6.810  12.359  68.221  1.00  0.00    -0.073 Cl 
HETATM   20 CL   UNL     1      -6.710  14.891  69.671  1.00  0.00    -0.161 Cl 
ENDBRANCH  13  14
BRANCH  13  21
HETATM   21  C   UNL     1     -11.590  12.952  70.078  1.00  0.00    -0.116 C  
BRANCH  21  22
HETATM   22  O   UNL     1     -12.759  13.730  70.399  1.00  0.00    -0.276 OA 
BRANCH  22  23
HETATM   23  C   UNL     1     -13.300  13.493  71.623  1.00  0.00    -0.340 C  
HETATM   24  O   UNL     1     -13.318  12.407  72.187  1.00  0.00    -0.528 OA 
BRANCH  23  25
HETATM   25  C   UNL     1     -13.871  14.754  72.217  1.00  0.00    -0.590 C  
BRANCH  25  26
HETATM   26  C   UNL     1     -12.831  15.854  72.301  1.00  0.00    -0.503 C  
HETATM   27  C   UNL     1     -12.273  16.027  73.691  1.00  0.00    -0.523 C  
HETATM   28  O   UNL     1     -11.565  14.970  74.139  1.00  0.00    -0.072 OA 
HETATM   29  O   UNL     1     -12.420  17.047  74.345  1.00  0.00    -0.562 OA 
ENDBRANCH  25  26
ENDBRANCH  23  25
ENDBRANCH  22  23
ENDBRANCH  21  22
ENDBRANCH  13  21
ENDBRANCH   2  13
TORSDOF 8
ENDMDL
MODEL      149
REMARK 921   NORMALIZED FREE ENERGY PREDICTED BY IDOCK:   -4.91 KCAL/MOL
REMARK 922        TOTAL FREE ENERGY PREDICTED BY IDOCK:   -8.67 KCAL/MOL
REMARK 923 INTER-LIGAND FREE ENERGY PREDICTED BY IDOCK:   -7.29 KCAL/MOL
REMARK 924 INTRA-LIGAND FREE ENERGY PREDICTED BY IDOCK:   -1.38 KCAL/MOL
REMARK 927      BINDING AFFINITY PREDICTED BY RF-SCORE:    0.00 PKD
ROOT
HETATM    1  O   UNL     1      -8.620  11.567  67.539  1.00  0.00    -0.136 OA 
HETATM    2  C   UNL     1      -9.688  10.838  68.160  1.00  0.00    -0.159 C  
HETATM    3  H   UNL     1      -7.791  11.144  67.724  1.00  0.00     0.000 HD 
ENDROOT
BRANCH   2   4
HETATM    4  C   UNL     1      -9.568   9.411  67.668  1.00  0.00    -0.163 A  
HETATM    5  C   UNL     1      -9.349   6.821  66.604  1.00  0.00    -0.165 A  
HETATM    6  C   UNL     1      -8.314   8.893  67.298  1.00  0.00    -0.104 A  
HETATM    7  O   UNL     1      -8.119   5.109  65.632  1.00  0.00    -0.109 OA 
HETATM    8  O   UNL     1     -10.277   4.817  65.889  1.00  0.00    -0.231 OA 
HETATM    9  C   UNL     1     -10.706   8.600  67.513  1.00  0.00    -0.209 A  
HETATM   10  C   UNL     1      -8.200   7.604  66.768  1.00  0.00    -0.124 A  
HETATM   11  N   UNL     1      -9.240   5.487  65.998  1.00  0.00    -0.159 N  
HETATM   12  C   UNL     1     -10.603   7.310  66.986  1.00  0.00    -0.415 A  
ENDBRANCH   2   4
BRANCH   2  13
HETATM   13  C   UNL     1     -11.046  11.531  67.857  1.00  0.00    -0.256 C  
BRANCH  13  14
HETATM   14  N   UNL     1     -10.806  12.713  66.995  1.00  0.00    -0.249 N  
HETATM   15  C   UNL     1     -10.764  13.994  64.854  1.00  0.00    -0.418 C  
HETATM   16  C   UNL     1     -10.922  12.670  65.616  1.00  0.00    -0.280 C  
HETATM   17  H   UNL     1     -10.545  13.596  67.436  1.00  0.00     0.000 HD 
HETATM   18  O   UNL     1     -11.170  11.619  65.022  1.00  0.00    -0.283 OA 
HETATM   19 CL   UNL     1      -9.817  15.179  65.780  1.00  0.00    -0.364 Cl 
HETATM   20 CL   UNL     1     -12.371  14.637  64.472  1.00  0.00    -0.473 Cl 
ENDBRANCH  13  14
BRANCH  13  21
HETATM   21  C   UNL     1     -11.768  11.913  69.169  1.00  0.00    -0.319 C  
BRANCH  21  22
HETATM   22  O   UNL     1     -11.243  11.204  70.308  1.00  0.00    -0.226 OA 
BRANCH  22  23
HETATM   23  C   UNL     1     -12.104  10.340  70.907  1.00  0.00    -0.368 C  
HETATM   24  O   UNL     1     -13.323  10.363  70.786  1.00  0.00    -0.322 OA 
BRANCH  23  25
HETATM   25  C   UNL     1     -11.364   9.327  71.740  1.00  0.00    -0.437 C  
BRANCH  25  26
HETATM   26  C   UNL     1     -11.291   7.981  71.048  1.00  0.00    -0.294 C  
HETATM   27  C   UNL     1     -12.150   6.933  71.710  1.00  0.00    -0.346 C  
HETATM   28  O   UNL     1     -13.474   7.183  71.646  1.00  0.00    -0.379 OA 
HETATM   29  O   UNL     1     -11.693   5.930  72.233  1.00  0.00    -0.307 OA 
ENDBRANCH  25  26
ENDBRANCH  23  25
ENDBRANCH  22  23
ENDBRANCH  21  22
ENDBRANCH  13  21
ENDBRANCH   2  13
TORSDOF 8
ENDMDL
MODEL      150
REMARK 921   NORMALIZED FREE ENERGY PREDICTED BY IDOCK:   -4.88 KCAL/MOL
REMARK 922        TOTAL FREE ENERGY PREDICTED BY IDOCK:   -8.63 KCAL/MOL
REMARK 923 INTER-LIGAND FREE ENERGY PREDICTED BY IDOCK:   -7.56 KCAL/MOL
REMARK 924 INTRA-LIGAND FREE ENERGY PREDICTED BY IDOCK:   -1.07 KCAL/MOL
REMARK 927      BINDING AFFINITY PREDICTED BY RF-SCORE:    0.00 PKD
ROOT
HETATM    1  O   UNL     1     -11.359  12.569  69.706  1.00  0.00    -0.463 OA 
HETATM    2  C   UNL     1     -11.594  11.266  69.152  1.00  0.00    -0.319 C  
HETATM    3  H   UNL     1     -11.790  12.643  70.549  1.00  0.00     0.000 HD 
ENDROOT
BRANCH   2   4
HETATM    4  C   UNL     1     -11.138  10.273  70.201  1.00  0.00    -0.385 A  
HETATM    5  C   UNL     1     -10.305   8.315  72.034  1.00  0.00    -0.279 A  
HETATM    6  C   UNL     1      -9.788   9.887  70.271  1.00  0.00    -0.236 A  
HETATM    7  O   UNL     1      -8.688   6.909  72.926  1.00  0.00    -0.123 OA 
HETATM    8  O   UNL     1     -10.733   6.763  73.707  1.00  0.00    -0.325 OA 
HETATM    9  C   UNL     1     -12.059   9.675  71.080  1.00  0.00    -0.448 A  
HETATM   10  C   UNL     1      -9.368   8.913  71.181  1.00  0.00    -0.326 A  
HETATM   11  N   UNL     1      -9.878   7.253  72.955  1.00  0.00    -0.180 N  
HETATM   12  C   UNL     1     -11.650   8.701  71.995  1.00  0.00    -0.440 A  
ENDBRANCH   2   4
BRANCH   2  13
HETATM   13  C   UNL     1     -10.889  11.144  67.773  1.00  0.00    -0.239 C  
BRANCH  13  14
HETATM   14  N   UNL     1     -11.457  12.153  66.847  1.00  0.00    -0.345 N  
HETATM   15  C   UNL     1     -11.515  13.588  64.806  1.00  0.00    -0.346 C  
HETATM   16  C   UNL     1     -10.764  12.637  65.750  1.00  0.00    -0.268 C  
HETATM   17  H   UNL     1     -12.399  12.505  67.024  1.00  0.00     0.000 HD 
HETATM   18  O   UNL     1      -9.602  12.299  65.522  1.00  0.00    -0.205 OA 
HETATM   19 CL   UNL     1     -12.860  14.406  65.627  1.00  0.00    -0.352 Cl 
HETATM   20 CL   UNL     1     -12.100  12.670  63.406  1.00  0.00    -0.616 Cl 
ENDBRANCH  13  14
BRANCH  13  21
HETATM   21  C   UNL     1     -11.026   9.710  67.216  1.00  0.00    -0.037 C  
BRANCH  21  22
HETATM   22  O   UNL     1      -9.829   9.264  66.549  1.00  0.00    -0.220 OA 
BRANCH  22  23
HETATM   23  C   UNL     1      -9.373   8.039  66.922  1.00  0.00    -0.164 C  
HETATM   24  O   UNL     1      -8.276   7.578  66.636  1.00  0.00    -0.118 OA 
BRANCH  23  25
HETATM   25  C   UNL     1     -10.394   7.313  67.757  1.00  0.00    -0.267 C  
BRANCH  25  26
HETATM   26  C   UNL     1     -10.821   6.010  67.110  1.00  0.00    -0.414 C  
HETATM   27  C   UNL     1      -9.908   4.859  67.453  1.00  0.00    -0.178 C  
HETATM   28  O   UNL     1      -9.918   4.514  68.757  1.00  0.00    -0.139 OA 
HETATM   29  O   UNL     1      -9.240   4.268  66.620  1.00  0.00    -0.125 OA 
ENDBRANCH  25  26
ENDBRANCH  23  25
ENDBRANCH  22  23
ENDBRANCH  21  22
ENDBRANCH  13  21
ENDBRANCH   2  13
TORSDOF 8
ENDMDL
MODEL      151
REMARK 921   NORMALIZED FREE ENERGY PREDICTED BY IDOCK:   -4.88 KCAL/MOL
REMARK 922        TOTAL FREE ENERGY PREDICTED BY IDOCK:   -8.63 KCAL/MOL
REMARK 923 INTER-LIGAND FREE ENERGY PREDICTED BY IDOCK:   -7.97 KCAL/MOL
REMARK 924 INTRA-LIGAND FREE ENERGY PREDICTED BY IDOCK:   -0.66 KCAL/MOL
REMARK 927      BINDING AFFINITY PREDICTED BY RF-SCORE:    0.00 PKD
ROOT
HETATM    1  O   UNL     1      -8.837  10.829  68.095  1.00  0.00    -0.125 OA 
HETATM    2  C   UNL     1      -9.826  10.781  69.132  1.00  0.00    -0.175 C  
HETATM    3  H   UNL     1      -7.973  10.696  68.467  1.00  0.00     0.000 HD 
ENDROOT
BRANCH   2   4
HETATM    4  C   UNL     1      -9.626   9.461  69.847  1.00  0.00    -0.234 A  
HETATM    5  C   UNL     1      -9.393   6.960  71.103  1.00  0.00    -0.162 A  
HETATM    6  C   UNL     1      -9.029   8.378  69.179  1.00  0.00    -0.147 A  
HETATM    7  O   UNL     1      -8.841   4.705  71.078  1.00  0.00    -0.111 OA 
HETATM    8  O   UNL     1      -9.738   5.532  72.901  1.00  0.00    -0.154 OA 
HETATM    9  C   UNL     1     -10.086   9.273  71.163  1.00  0.00    -0.374 A  
HETATM   10  C   UNL     1      -8.911   7.130  69.799  1.00  0.00    -0.142 A  
HETATM   11  N   UNL     1      -9.319   5.638  71.739  1.00  0.00    -0.145 N  
HETATM   12  C   UNL     1      -9.971   8.031  71.793  1.00  0.00    -0.245 A  
ENDBRANCH   2   4
BRANCH   2  13
HETATM   13  C   UNL     1     -11.240  10.998  68.524  1.00  0.00    -0.268 C  
BRANCH  13  14
HETATM   14  N   UNL     1     -11.293  12.335  67.885  1.00  0.00    -0.276 N  
HETATM   15  C   UNL     1     -11.307  13.943  65.977  1.00  0.00    -0.324 C  
HETATM   16  C   UNL     1     -11.107  12.523  66.526  1.00  0.00    -0.287 C  
HETATM   17  H   UNL     1     -11.474  13.151  68.471  1.00  0.00     0.000 HD 
HETATM   18  O   UNL     1     -10.821  11.586  65.779  1.00  0.00    -0.280 OA 
HETATM   19 CL   UNL     1     -11.077  15.175  67.236  1.00  0.00    -0.328 Cl 
HETATM   20 CL   UNL     1     -12.928  14.067  65.269  1.00  0.00    -0.422 Cl 
ENDBRANCH  13  14
BRANCH  13  21
HETATM   21  C   UNL     1     -12.330  10.835  69.607  1.00  0.00    -0.192 C  
BRANCH  21  22
HETATM   22  O   UNL     1     -12.229  11.835  70.640  1.00  0.00    -0.371 OA 
BRANCH  22  23
HETATM   23  C   UNL     1     -12.925  11.572  71.778  1.00  0.00    -0.394 C  
HETATM   24  O   UNL     1     -13.003  10.476  72.318  1.00  0.00    -0.370 OA 
BRANCH  23  25
HETATM   25  C   UNL     1     -13.584  12.817  72.310  1.00  0.00    -0.563 C  
BRANCH  25  26
HETATM   26  C   UNL     1     -12.757  14.054  72.026  1.00  0.00    -0.367 C  
HETATM   27  C   UNL     1     -12.884  15.104  73.101  1.00  0.00    -0.497 C  
HETATM   28  O   UNL     1     -12.388  14.733  74.299  1.00  0.00    -0.535 OA 
HETATM   29  O   UNL     1     -13.366  16.207  72.900  1.00  0.00    -0.479 OA 
ENDBRANCH  25  26
ENDBRANCH  23  25
ENDBRANCH  22  23
ENDBRANCH  21  22
ENDBRANCH  13  21
ENDBRANCH   2  13
TORSDOF 8
ENDMDL
MODEL      152
REMARK 921   NORMALIZED FREE ENERGY PREDICTED BY IDOCK:   -4.86 KCAL/MOL
REMARK 922        TOTAL FREE ENERGY PREDICTED BY IDOCK:   -8.60 KCAL/MOL
REMARK 923 INTER-LIGAND FREE ENERGY PREDICTED BY IDOCK:   -7.58 KCAL/MOL
REMARK 924 INTRA-LIGAND FREE ENERGY PREDICTED BY IDOCK:   -1.02 KCAL/MOL
REMARK 927      BINDING AFFINITY PREDICTED BY RF-SCORE:    0.00 PKD
ROOT
HETATM    1  O   UNL     1     -11.836  12.784  70.690  1.00  0.00    -0.518 OA 
HETATM    2  C   UNL     1     -12.063  11.864  69.614  1.00  0.00    -0.239 C  
HETATM    3  H   UNL     1     -12.358  12.535  71.443  1.00  0.00     0.000 HD 
ENDROOT
BRANCH   2   4
HETATM    4  C   UNL     1     -11.777  10.485  70.170  1.00  0.00    -0.410 A  
HETATM    5  C   UNL     1     -11.133   7.993  71.295  1.00  0.00    -0.247 A  
HETATM    6  C   UNL     1     -12.359  10.076  71.382  1.00  0.00    -0.512 A  
HETATM    7  O   UNL     1     -11.252   6.436  73.012  1.00  0.00    -0.229 OA 
HETATM    8  O   UNL     1      -9.965   5.987  71.293  1.00  0.00    -0.179 OA 
HETATM    9  C   UNL     1     -10.883   9.614  69.522  1.00  0.00    -0.253 A  
HETATM   10  C   UNL     1     -12.041   8.836  71.947  1.00  0.00    -0.433 A  
HETATM   11  N   UNL     1     -10.757   6.714  71.911  1.00  0.00    -0.219 N  
HETATM   12  C   UNL     1     -10.560   8.372  70.076  1.00  0.00    -0.235 A  
ENDBRANCH   2   4
BRANCH   2  13
HETATM   13  C   UNL     1     -11.209  12.271  68.381  1.00  0.00    -0.266 C  
BRANCH  13  14
HETATM   14  N   UNL     1     -10.398  13.465  68.726  1.00  0.00    -0.379 N  
HETATM   15  C   UNL     1      -8.409  14.967  68.626  1.00  0.00    -0.164 C  
HETATM   16  C   UNL     1      -9.092  13.631  68.299  1.00  0.00    -0.193 C  
HETATM   17  H   UNL     1     -10.822  14.194  69.300  1.00  0.00     0.000 HD 
HETATM   18  O   UNL     1      -8.507  12.756  67.658  1.00  0.00    -0.154 OA 
HETATM   19 CL   UNL     1      -9.151  15.760  70.031  1.00  0.00     0.187 Cl 
HETATM   20 CL   UNL     1      -8.483  16.019  67.201  1.00  0.00    -0.205 Cl 
ENDBRANCH  13  14
BRANCH  13  21
HETATM   21  C   UNL     1     -12.110  12.524  67.152  1.00  0.00    -0.065 C  
BRANCH  21  22
HETATM   22  O   UNL     1     -11.550  11.980  65.941  1.00  0.00    -0.362 OA 
BRANCH  22  23
HETATM   23  C   UNL     1     -12.154  12.373  64.789  1.00  0.00    -0.416 C  
HETATM   24  O   UNL     1     -13.356  12.567  64.655  1.00  0.00    -0.804 OA 
BRANCH  23  25
HETATM   25  C   UNL     1     -11.148  12.558  63.685  1.00  0.00    -0.523 C  
BRANCH  25  26
HETATM   26  C   UNL     1     -10.622  11.230  63.179  1.00  0.00    -0.233 C  
HETATM   27  C   UNL     1      -9.129  11.089  63.343  1.00  0.00    -0.194 C  
HETATM   28  O   UNL     1      -8.714  11.058  64.625  1.00  0.00    -0.092 OA 
HETATM   29  O   UNL     1      -8.363  10.982  62.399  1.00  0.00    -0.247 OA 
ENDBRANCH  25  26
ENDBRANCH  23  25
ENDBRANCH  22  23
ENDBRANCH  21  22
ENDBRANCH  13  21
ENDBRANCH   2  13
TORSDOF 8
ENDMDL
MODEL      153
REMARK 921   NORMALIZED FREE ENERGY PREDICTED BY IDOCK:   -4.83 KCAL/MOL
REMARK 922        TOTAL FREE ENERGY PREDICTED BY IDOCK:   -8.55 KCAL/MOL
REMARK 923 INTER-LIGAND FREE ENERGY PREDICTED BY IDOCK:   -7.41 KCAL/MOL
REMARK 924 INTRA-LIGAND FREE ENERGY PREDICTED BY IDOCK:   -1.15 KCAL/MOL
REMARK 927      BINDING AFFINITY PREDICTED BY RF-SCORE:    0.00 PKD
ROOT
HETATM    1  O   UNL     1     -11.553  10.516  70.761  1.00  0.00    -0.333 OA 
HETATM    2  C   UNL     1     -10.510  10.336  69.793  1.00  0.00    -0.259 C  
HETATM    3  H   UNL     1     -11.701  11.442  70.908  1.00  0.00     0.000 HD 
ENDROOT
BRANCH   2   4
HETATM    4  C   UNL     1     -10.930  11.124  68.570  1.00  0.00    -0.267 A  
HETATM    5  C   UNL     1     -11.854  12.518  66.313  1.00  0.00    -0.390 A  
HETATM    6  C   UNL     1     -11.620  12.340  68.713  1.00  0.00    -0.380 A  
HETATM    7  O   UNL     1     -13.041  14.253  65.329  1.00  0.00    -0.707 OA 
HETATM    8  O   UNL     1     -12.144  12.739  64.021  1.00  0.00    -0.393 OA 
HETATM    9  C   UNL     1     -10.694  10.630  67.274  1.00  0.00    -0.338 A  
HETATM   10  C   UNL     1     -12.083  13.038  67.593  1.00  0.00    -0.262 A  
HETATM   11  N   UNL     1     -12.384  13.221  65.137  1.00  0.00    -0.440 N  
HETATM   12  C   UNL     1     -11.150  11.320  66.148  1.00  0.00    -0.207 A  
ENDBRANCH   2   4
BRANCH   2  13
HETATM   13  C   UNL     1     -10.267   8.820  69.553  1.00  0.00    -0.208 C  
BRANCH  13  14
HETATM   14  N   UNL     1     -10.423   8.095  70.837  1.00  0.00    -0.201 N  
HETATM   15  C   UNL     1     -11.381   6.382  72.378  1.00  0.00    -0.287 C  
HETATM   16  C   UNL     1     -11.407   7.143  71.044  1.00  0.00    -0.279 C  
HETATM   17  H   UNL     1      -9.778   8.305  71.599  1.00  0.00     0.000 HD 
HETATM   18  O   UNL     1     -12.254   6.894  70.185  1.00  0.00    -0.185 OA 
HETATM   19 CL   UNL     1     -10.543   7.302  73.645  1.00  0.00    -0.407 Cl 
HETATM   20 CL   UNL     1     -10.606   4.807  72.130  1.00  0.00    -0.241 Cl 
ENDBRANCH  13  14
BRANCH  13  21
HETATM   21  C   UNL     1      -8.876   8.584  68.924  1.00  0.00    -0.139 C  
BRANCH  21  22
HETATM   22  O   UNL     1      -8.362   7.268  69.211  1.00  0.00    -0.129 OA 
BRANCH  22  23
HETATM   23  C   UNL     1      -7.896   6.576  68.138  1.00  0.00    -0.106 C  
HETATM   24  O   UNL     1      -7.176   7.037  67.261  1.00  0.00    -0.084 OA 
BRANCH  23  25
HETATM   25  C   UNL     1      -8.369   5.147  68.168  1.00  0.00    -0.097 C  
BRANCH  25  26
HETATM   26  C   UNL     1      -9.882   5.058  68.167  1.00  0.00    -0.203 C  
HETATM   27  C   UNL     1     -10.504   5.675  66.939  1.00  0.00    -0.288 C  
HETATM   28  O   UNL     1     -10.209   5.037  65.789  1.00  0.00    -0.175 OA 
HETATM   29  O   UNL     1     -11.238   6.649  66.983  1.00  0.00    -0.404 OA 
ENDBRANCH  25  26
ENDBRANCH  23  25
ENDBRANCH  22  23
ENDBRANCH  21  22
ENDBRANCH  13  21
ENDBRANCH   2  13
TORSDOF 8
ENDMDL
MODEL      154
REMARK 921   NORMALIZED FREE ENERGY PREDICTED BY IDOCK:   -4.83 KCAL/MOL
REMARK 922        TOTAL FREE ENERGY PREDICTED BY IDOCK:   -8.55 KCAL/MOL
REMARK 923 INTER-LIGAND FREE ENERGY PREDICTED BY IDOCK:   -7.64 KCAL/MOL
REMARK 924 INTRA-LIGAND FREE ENERGY PREDICTED BY IDOCK:   -0.91 KCAL/MOL
REMARK 927      BINDING AFFINITY PREDICTED BY RF-SCORE:    0.00 PKD
ROOT
HETATM    1  O   UNL     1     -10.691  10.729  70.064  1.00  0.00    -0.434 OA 
HETATM    2  C   UNL     1     -10.020  10.203  68.911  1.00  0.00    -0.199 C  
HETATM    3  H   UNL     1     -10.551  11.667  70.118  1.00  0.00     0.000 HD 
ENDROOT
BRANCH   2   4
HETATM    4  C   UNL     1     -10.526  11.000  67.727  1.00  0.00    -0.232 A  
HETATM    5  C   UNL     1     -11.610  12.409  65.552  1.00  0.00    -0.385 A  
HETATM    6  C   UNL     1     -11.213  12.210  67.929  1.00  0.00    -0.329 A  
HETATM    7  O   UNL     1     -12.871  14.146  64.669  1.00  0.00    -0.663 OA 
HETATM    8  O   UNL     1     -12.055  12.650  63.287  1.00  0.00    -0.521 OA 
HETATM    9  C   UNL     1     -10.375  10.520  66.413  1.00  0.00    -0.283 A  
HETATM   10  C   UNL     1     -11.754  12.915  66.850  1.00  0.00    -0.445 A  
HETATM   11  N   UNL     1     -12.222  13.119  64.422  1.00  0.00    -0.396 N  
HETATM   12  C   UNL     1     -10.911  11.218  65.327  1.00  0.00    -0.261 A  
ENDBRANCH   2   4
BRANCH   2  13
HETATM   13  C   UNL     1     -10.248   8.668  68.822  1.00  0.00    -0.207 C  
BRANCH  13  14
HETATM   14  N   UNL     1     -11.104   8.239  69.954  1.00  0.00    -0.416 N  
HETATM   15  C   UNL     1     -12.363   6.607  71.360  1.00  0.00    -0.294 C  
HETATM   16  C   UNL     1     -11.589   6.948  70.079  1.00  0.00    -0.246 C  
HETATM   17  H   UNL     1     -11.345   8.923  70.673  1.00  0.00     0.000 HD 
HETATM   18  O   UNL     1     -11.386   6.097  69.211  1.00  0.00    -0.416 OA 
HETATM   19 CL   UNL     1     -13.062   8.055  72.114  1.00  0.00    -0.261 Cl 
HETATM   20 CL   UNL     1     -11.276   5.776  72.489  1.00  0.00    -0.329 Cl 
ENDBRANCH  13  14
BRANCH  13  21
HETATM   21  C   UNL     1      -8.898   7.917  68.805  1.00  0.00    -0.138 C  
BRANCH  21  22
HETATM   22  O   UNL     1      -8.196   8.022  70.059  1.00  0.00    -0.114 OA 
BRANCH  22  23
HETATM   23  C   UNL     1      -7.653   6.866  70.523  1.00  0.00    -0.091 C  
HETATM   24  O   UNL     1      -7.054   6.045  69.840  1.00  0.00    -0.067 OA 
BRANCH  23  25
HETATM   25  C   UNL     1      -7.867   6.724  72.007  1.00  0.00    -0.096 C  
BRANCH  25  26
HETATM   26  C   UNL     1      -6.636   7.131  72.792  1.00  0.00    -0.063 C  
HETATM   27  C   UNL     1      -6.645   8.588  73.182  1.00  0.00    -0.064 C  
HETATM   28  O   UNL     1      -7.623   8.923  74.048  1.00  0.00    -0.409 OA 
HETATM   29  O   UNL     1      -5.820   9.391  72.776  1.00  0.00    -0.279 OA 
ENDBRANCH  25  26
ENDBRANCH  23  25
ENDBRANCH  22  23
ENDBRANCH  21  22
ENDBRANCH  13  21
ENDBRANCH   2  13
TORSDOF 8
ENDMDL
MODEL      155
REMARK 921   NORMALIZED FREE ENERGY PREDICTED BY IDOCK:   -4.82 KCAL/MOL
REMARK 922        TOTAL FREE ENERGY PREDICTED BY IDOCK:   -8.55 KCAL/MOL
REMARK 923 INTER-LIGAND FREE ENERGY PREDICTED BY IDOCK:   -7.25 KCAL/MOL
REMARK 924 INTRA-LIGAND FREE ENERGY PREDICTED BY IDOCK:   -1.29 KCAL/MOL
REMARK 927      BINDING AFFINITY PREDICTED BY RF-SCORE:    0.00 PKD
ROOT
HETATM    1  O   UNL     1     -11.592  12.634  62.893  1.00  0.00    -0.722 OA 
HETATM    2  C   UNL     1     -11.553  12.024  64.190  1.00  0.00    -0.379 C  
HETATM    3  H   UNL     1     -12.302  13.263  62.853  1.00  0.00     0.000 HD 
ENDROOT
BRANCH   2   4
HETATM    4  C   UNL     1     -11.467  13.159  65.189  1.00  0.00    -0.327 A  
HETATM    5  C   UNL     1     -11.160  15.211  67.082  1.00  0.00    -0.335 A  
HETATM    6  C   UNL     1     -10.799  14.349  64.852  1.00  0.00    -0.430 A  
HETATM    7  O   UNL     1     -10.301  17.260  67.752  1.00  0.00    -0.326 OA 
HETATM    8  O   UNL     1     -11.443  16.089  69.212  1.00  0.00    -0.343 OA 
HETATM    9  C   UNL     1     -11.996  13.025  66.485  1.00  0.00    -0.457 A  
HETATM   10  C   UNL     1     -10.643  15.374  65.791  1.00  0.00    -0.361 A  
HETATM   11  N   UNL     1     -10.953  16.262  68.087  1.00  0.00    -0.343 N  
HETATM   12  C   UNL     1     -11.848  14.043  67.431  1.00  0.00    -0.445 A  
ENDBRANCH   2   4
BRANCH   2  13
HETATM   13  C   UNL     1     -10.390  10.995  64.255  1.00  0.00    -0.364 C  
BRANCH  13  14
HETATM   14  N   UNL     1      -9.527  11.311  65.419  1.00  0.00    -0.223 N  
HETATM   15  C   UNL     1      -8.417  10.875  67.610  1.00  0.00    -0.123 C  
HETATM   16  C   UNL     1      -9.438  10.490  66.530  1.00  0.00    -0.166 C  
HETATM   17  H   UNL     1      -8.975  12.169  65.400  1.00  0.00     0.000 HD 
HETATM   18  O   UNL     1     -10.129   9.476  66.638  1.00  0.00    -0.226 OA 
HETATM   19 CL   UNL     1      -8.033  12.608  67.567  1.00  0.00    -0.163 Cl 
HETATM   20 CL   UNL     1      -6.950   9.903  67.391  1.00  0.00    -0.083 Cl 
ENDBRANCH  13  14
BRANCH  13  21
HETATM   21  C   UNL     1      -9.592  10.990  62.932  1.00  0.00    -0.343 C  
BRANCH  21  22
HETATM   22  O   UNL     1      -9.219   9.659  62.523  1.00  0.00    -0.281 OA 
BRANCH  22  23
HETATM   23  C   UNL     1      -8.122   9.144  63.140  1.00  0.00    -0.164 C  
HETATM   24  O   UNL     1      -7.355   9.776  63.855  1.00  0.00    -0.117 OA 
BRANCH  23  25
HETATM   25  C   UNL     1      -7.974   7.676  62.843  1.00  0.00    -0.120 C  
BRANCH  25  26
HETATM   26  C   UNL     1      -7.125   6.977  63.887  1.00  0.00    -0.061 C  
HETATM   27  C   UNL     1      -7.939   6.427  65.031  1.00  0.00    -0.120 C  
HETATM   28  O   UNL     1      -8.786   5.437  64.683  1.00  0.00    -0.136 OA 
HETATM   29  O   UNL     1      -7.822   6.821  66.181  1.00  0.00    -0.096 OA 
ENDBRANCH  25  26
ENDBRANCH  23  25
ENDBRANCH  22  23
ENDBRANCH  21  22
ENDBRANCH  13  21
ENDBRANCH   2  13
TORSDOF 8
ENDMDL
MODEL      156
REMARK 921   NORMALIZED FREE ENERGY PREDICTED BY IDOCK:   -4.82 KCAL/MOL
REMARK 922        TOTAL FREE ENERGY PREDICTED BY IDOCK:   -8.54 KCAL/MOL
REMARK 923 INTER-LIGAND FREE ENERGY PREDICTED BY IDOCK:   -8.62 KCAL/MOL
REMARK 924 INTRA-LIGAND FREE ENERGY PREDICTED BY IDOCK:    0.07 KCAL/MOL
REMARK 927      BINDING AFFINITY PREDICTED BY RF-SCORE:    0.00 PKD
ROOT
HETATM    1  O   UNL     1     -10.310   8.006  69.122  1.00  0.00    -0.214 OA 
HETATM    2  C   UNL     1     -11.029   9.247  69.138  1.00  0.00    -0.060 C  
HETATM    3  H   UNL     1     -10.567   7.494  68.365  1.00  0.00     0.000 HD 
ENDROOT
BRANCH   2   4
HETATM    4  C   UNL     1     -10.769   9.903  67.798  1.00  0.00    -0.332 A  
HETATM    5  C   UNL     1     -10.428  11.057  65.261  1.00  0.00    -0.251 A  
HETATM    6  C   UNL     1     -11.346  11.148  67.496  1.00  0.00    -0.351 A  
HETATM    7  O   UNL     1     -10.880  12.705  63.689  1.00  0.00    -0.426 OA 
HETATM    8  O   UNL     1      -9.605  11.023  63.091  1.00  0.00    -0.289 OA 
HETATM    9  C   UNL     1     -10.001   9.257  66.813  1.00  0.00    -0.312 A  
HETATM   10  C   UNL     1     -11.180  11.727  66.234  1.00  0.00    -0.370 A  
HETATM   11  N   UNL     1     -10.295  11.637  63.918  1.00  0.00    -0.329 N  
HETATM   12  C   UNL     1      -9.826   9.827  65.549  1.00  0.00    -0.378 A  
ENDBRANCH   2   4
BRANCH   2  13
HETATM   13  C   UNL     1     -10.609  10.084  70.378  1.00  0.00    -0.280 C  
BRANCH  13  14
HETATM   14  N   UNL     1      -9.597   9.327  71.155  1.00  0.00    -0.266 N  
HETATM   15  C   UNL     1      -8.797   7.617  72.785  1.00  0.00    -0.153 C  
HETATM   16  C   UNL     1      -9.938   8.419  72.143  1.00  0.00    -0.306 C  
HETATM   17  H   UNL     1      -8.609   9.482  70.952  1.00  0.00     0.000 HD 
HETATM   18  O   UNL     1     -11.110   8.239  72.476  1.00  0.00    -0.353 OA 
HETATM   19 CL   UNL     1      -7.237   8.454  72.638  1.00  0.00    -0.134 Cl 
HETATM   20 CL   UNL     1      -8.721   6.013  72.031  1.00  0.00    -0.136 Cl 
ENDBRANCH  13  14
BRANCH  13  21
HETATM   21  C   UNL     1     -11.842  10.443  71.237  1.00  0.00    -0.289 C  
BRANCH  21  22
HETATM   22  O   UNL     1     -12.733  11.352  70.561  1.00  0.00    -0.229 OA 
BRANCH  22  23
HETATM   23  C   UNL     1     -12.532  12.671  70.823  1.00  0.00    -0.270 C  
HETATM   24  O   UNL     1     -11.958  13.457  70.081  1.00  0.00    -0.327 OA 
BRANCH  23  25
HETATM   25  C   UNL     1     -13.125  13.056  72.153  1.00  0.00    -0.465 C  
BRANCH  25  26
HETATM   26  C   UNL     1     -13.996  14.290  72.040  1.00  0.00    -0.595 C  
HETATM   27  C   UNL     1     -13.342  15.524  72.612  1.00  0.00    -0.522 C  
HETATM   28  O   UNL     1     -12.241  15.925  71.945  1.00  0.00    -0.407 OA 
HETATM   29  O   UNL     1     -13.786  16.127  73.576  1.00  0.00    -0.577 OA 
ENDBRANCH  25  26
ENDBRANCH  23  25
ENDBRANCH  22  23
ENDBRANCH  21  22
ENDBRANCH  13  21
ENDBRANCH   2  13
TORSDOF 8
ENDMDL
MODEL      157
REMARK 921   NORMALIZED FREE ENERGY PREDICTED BY IDOCK:   -4.82 KCAL/MOL
REMARK 922        TOTAL FREE ENERGY PREDICTED BY IDOCK:   -8.54 KCAL/MOL
REMARK 923 INTER-LIGAND FREE ENERGY PREDICTED BY IDOCK:   -7.12 KCAL/MOL
REMARK 924 INTRA-LIGAND FREE ENERGY PREDICTED BY IDOCK:   -1.42 KCAL/MOL
REMARK 927      BINDING AFFINITY PREDICTED BY RF-SCORE:    0.00 PKD
ROOT
HETATM    1  O   UNL     1      -8.272  13.600  69.201  1.00  0.00    -0.335 OA 
HETATM    2  C   UNL     1      -8.993  13.971  68.019  1.00  0.00    -0.182 C  
HETATM    3  H   UNL     1      -7.350  13.799  69.092  1.00  0.00     0.000 HD 
ENDROOT
BRANCH   2   4
HETATM    4  C   UNL     1      -8.672  15.430  67.768  1.00  0.00    -0.167 A  
HETATM    5  C   UNL     1      -7.959  18.087  67.204  1.00  0.00    -0.212 A  
HETATM    6  C   UNL     1      -9.193  16.085  66.639  1.00  0.00    -0.276 A  
HETATM    7  O   UNL     1      -7.986  19.962  65.836  1.00  0.00    -0.354 OA 
HETATM    8  O   UNL     1      -6.780  20.032  67.667  1.00  0.00    -0.225 OA 
HETATM    9  C   UNL     1      -7.804  16.136  68.620  1.00  0.00    -0.188 A  
HETATM   10  C   UNL     1      -8.841  17.408  66.353  1.00  0.00    -0.273 A  
HETATM   11  N   UNL     1      -7.546  19.458  66.879  1.00  0.00    -0.238 N  
HETATM   12  C   UNL     1      -7.448  17.459  68.345  1.00  0.00    -0.234 A  
ENDBRANCH   2   4
BRANCH   2  13
HETATM   13  C   UNL     1     -10.502  13.646  68.197  1.00  0.00    -0.247 C  
BRANCH  13  14
HETATM   14  N   UNL     1     -10.972  14.212  69.484  1.00  0.00    -0.410 N  
HETATM   15  C   UNL     1     -12.314  15.722  70.948  1.00  0.00    -0.404 C  
HETATM   16  C   UNL     1     -11.808  15.313  69.557  1.00  0.00    -0.345 C  
HETATM   17  H   UNL     1     -10.667  13.771  70.353  1.00  0.00     0.000 HD 
HETATM   18  O   UNL     1     -12.156  15.926  68.547  1.00  0.00    -0.208 OA 
HETATM   19 CL   UNL     1     -11.233  15.152  72.237  1.00  0.00    -0.342 Cl 
HETATM   20 CL   UNL     1     -13.953  15.085  71.178  1.00  0.00    -0.481 Cl 
ENDBRANCH  13  14
BRANCH  13  21
HETATM   21  C   UNL     1     -10.745  12.122  68.116  1.00  0.00    -0.211 C  
BRANCH  21  22
HETATM   22  O   UNL     1     -10.711  11.493  69.413  1.00  0.00    -0.179 OA 
BRANCH  22  23
HETATM   23  C   UNL     1      -9.764  10.531  69.571  1.00  0.00    -0.119 C  
HETATM   24  O   UNL     1      -8.706  10.475  68.956  1.00  0.00    -0.146 OA 
BRANCH  23  25
HETATM   25  C   UNL     1     -10.174   9.534  70.622  1.00  0.00    -0.364 C  
BRANCH  25  26
HETATM   26  C   UNL     1     -10.816   8.306  70.008  1.00  0.00    -0.232 C  
HETATM   27  C   UNL     1     -11.860   7.682  70.901  1.00  0.00    -0.250 C  
HETATM   28  O   UNL     1     -12.942   8.458  71.114  1.00  0.00    -0.198 OA 
HETATM   29  O   UNL     1     -11.751   6.559  71.367  1.00  0.00    -0.302 OA 
ENDBRANCH  25  26
ENDBRANCH  23  25
ENDBRANCH  22  23
ENDBRANCH  21  22
ENDBRANCH  13  21
ENDBRANCH   2  13
TORSDOF 8
ENDMDL
MODEL      158
REMARK 921   NORMALIZED FREE ENERGY PREDICTED BY IDOCK:   -4.82 KCAL/MOL
REMARK 922        TOTAL FREE ENERGY PREDICTED BY IDOCK:   -8.54 KCAL/MOL
REMARK 923 INTER-LIGAND FREE ENERGY PREDICTED BY IDOCK:   -7.67 KCAL/MOL
REMARK 924 INTRA-LIGAND FREE ENERGY PREDICTED BY IDOCK:   -0.86 KCAL/MOL
REMARK 927      BINDING AFFINITY PREDICTED BY RF-SCORE:    0.00 PKD
ROOT
HETATM    1  O   UNL     1      -9.515   8.992  70.351  1.00  0.00    -0.179 OA 
HETATM    2  C   UNL     1     -10.879   8.760  69.972  1.00  0.00    -0.223 C  
HETATM    3  H   UNL     1      -9.206   9.802  69.964  1.00  0.00     0.000 HD 
ENDROOT
BRANCH   2   4
HETATM    4  C   UNL     1     -11.646  10.003  70.375  1.00  0.00    -0.379 A  
HETATM    5  C   UNL     1     -12.939  12.353  71.209  1.00  0.00    -0.203 A  
HETATM    6  C   UNL     1     -11.455  11.209  69.680  1.00  0.00    -0.383 A  
HETATM    7  O   UNL     1     -13.316  14.638  71.062  1.00  0.00    -0.374 OA 
HETATM    8  O   UNL     1     -14.326  13.522  72.656  1.00  0.00    -0.716 OA 
HETATM    9  C   UNL     1     -12.512   9.991  71.484  1.00  0.00    -0.516 A  
HETATM   10  C   UNL     1     -12.096  12.382  70.091  1.00  0.00    -0.366 A  
HETATM   11  N   UNL     1     -13.572  13.593  71.676  1.00  0.00    -0.327 N  
HETATM   12  C   UNL     1     -13.159  11.157  71.902  1.00  0.00    -0.513 A  
ENDBRANCH   2   4
BRANCH   2  13
HETATM   13  C   UNL     1     -11.386   7.435  70.606  1.00  0.00    -0.281 C  
BRANCH  13  14
HETATM   14  N   UNL     1     -10.616   7.164  71.844  1.00  0.00    -0.212 N  
HETATM   15  C   UNL     1     -10.040   5.937  73.939  1.00  0.00    -0.236 C  
HETATM   16  C   UNL     1     -10.991   6.197  72.762  1.00  0.00    -0.260 C  
HETATM   17  H   UNL     1      -9.775   7.712  72.027  1.00  0.00     0.000 HD 
HETATM   18  O   UNL     1     -12.030   5.550  72.627  1.00  0.00    -0.245 OA 
HETATM   19 CL   UNL     1      -9.007   7.343  74.275  1.00  0.00    -0.261 Cl 
HETATM   20 CL   UNL     1      -9.054   4.507  73.581  1.00  0.00    -0.106 Cl 
ENDBRANCH  13  14
BRANCH  13  21
HETATM   21  C   UNL     1     -11.278   6.271  69.595  1.00  0.00    -0.437 C  
BRANCH  21  22
HETATM   22  O   UNL     1     -10.105   6.375  68.764  1.00  0.00    -0.144 OA 
BRANCH  22  23
HETATM   23  C   UNL     1     -10.298   6.113  67.445  1.00  0.00    -0.211 C  
HETATM   24  O   UNL     1     -11.185   6.597  66.752  1.00  0.00    -0.333 OA 
BRANCH  23  25
HETATM   25  C   UNL     1      -9.262   5.151  66.926  1.00  0.00    -0.118 C  
BRANCH  25  26
HETATM   26  C   UNL     1      -8.933   5.414  65.470  1.00  0.00    -0.149 C  
HETATM   27  C   UNL     1      -9.380   4.299  64.558  1.00  0.00    -0.160 C  
HETATM   28  O   UNL     1     -10.718   4.139  64.494  1.00  0.00    -0.251 OA 
HETATM   29  O   UNL     1      -8.603   3.619  63.908  1.00  0.00    -0.090 OA 
ENDBRANCH  25  26
ENDBRANCH  23  25
ENDBRANCH  22  23
ENDBRANCH  21  22
ENDBRANCH  13  21
ENDBRANCH   2  13
TORSDOF 8
ENDMDL
MODEL      159
REMARK 921   NORMALIZED FREE ENERGY PREDICTED BY IDOCK:   -4.81 KCAL/MOL
REMARK 922        TOTAL FREE ENERGY PREDICTED BY IDOCK:   -8.53 KCAL/MOL
REMARK 923 INTER-LIGAND FREE ENERGY PREDICTED BY IDOCK:   -7.37 KCAL/MOL
REMARK 924 INTRA-LIGAND FREE ENERGY PREDICTED BY IDOCK:   -1.16 KCAL/MOL
REMARK 927      BINDING AFFINITY PREDICTED BY RF-SCORE:    0.00 PKD
ROOT
HETATM    1  O   UNL     1     -12.369  14.787  67.881  1.00  0.00    -0.582 OA 
HETATM    2  C   UNL     1     -11.324  14.143  68.625  1.00  0.00    -0.277 C  
HETATM    3  H   UNL     1     -12.380  15.715  68.080  1.00  0.00     0.000 HD 
ENDROOT
BRANCH   2   4
HETATM    4  C   UNL     1     -10.049  14.890  68.295  1.00  0.00    -0.221 A  
HETATM    5  C   UNL     1      -7.760  16.413  67.719  1.00  0.00    -0.149 A  
HETATM    6  C   UNL     1      -9.159  15.258  69.318  1.00  0.00    -0.240 A  
HETATM    7  O   UNL     1      -5.879  17.602  68.380  1.00  0.00    -0.163 OA 
HETATM    8  O   UNL     1      -6.387  17.567  66.246  1.00  0.00    -0.212 OA 
HETATM    9  C   UNL     1      -9.760  15.282  66.975  1.00  0.00    -0.232 A  
HETATM   10  C   UNL     1      -8.019  16.017  69.038  1.00  0.00    -0.224 A  
HETATM   11  N   UNL     1      -6.592  17.254  67.428  1.00  0.00    -0.142 N  
HETATM   12  C   UNL     1      -8.622  16.038  66.683  1.00  0.00    -0.316 A  
ENDBRANCH   2   4
BRANCH   2  13
HETATM   13  C   UNL     1     -11.305  12.624  68.300  1.00  0.00    -0.295 C  
BRANCH  13  14
HETATM   14  N   UNL     1      -9.936  12.098  68.519  1.00  0.00    -0.291 N  
HETATM   15  C   UNL     1      -8.232  10.412  69.211  1.00  0.00    -0.158 C  
HETATM   16  C   UNL     1      -9.689  10.895  69.157  1.00  0.00    -0.122 C  
HETATM   17  H   UNL     1      -9.142  12.647  68.186  1.00  0.00     0.000 HD 
HETATM   18  O   UNL     1     -10.601  10.221  69.638  1.00  0.00    -0.224 OA 
HETATM   19 CL   UNL     1      -7.084  11.759  69.056  1.00  0.00    -0.111 Cl 
HETATM   20 CL   UNL     1      -7.971   9.216  67.928  1.00  0.00    -0.100 Cl 
ENDBRANCH  13  14
BRANCH  13  21
HETATM   21  C   UNL     1     -11.795  12.367  66.858  1.00  0.00    -0.307 C  
BRANCH  21  22
HETATM   22  O   UNL     1     -10.967  11.417  66.159  1.00  0.00    -0.286 OA 
BRANCH  22  23
HETATM   23  C   UNL     1      -9.859  11.933  65.564  1.00  0.00    -0.232 C  
HETATM   24  O   UNL     1      -8.705  11.635  65.845  1.00  0.00    -0.127 OA 
BRANCH  23  25
HETATM   25  C   UNL     1     -10.231  12.921  64.490  1.00  0.00    -0.334 C  
BRANCH  25  26
HETATM   26  C   UNL     1     -10.945  12.248  63.335  1.00  0.00    -0.467 C  
HETATM   27  C   UNL     1     -12.409  12.605  63.263  1.00  0.00    -0.354 C  
HETATM   28  O   UNL     1     -12.649  13.905  62.992  1.00  0.00    -0.694 OA 
HETATM   29  O   UNL     1     -13.302  11.786  63.406  1.00  0.00    -0.510 OA 
ENDBRANCH  25  26
ENDBRANCH  23  25
ENDBRANCH  22  23
ENDBRANCH  21  22
ENDBRANCH  13  21
ENDBRANCH   2  13
TORSDOF 8
ENDMDL
MODEL      160
REMARK 921   NORMALIZED FREE ENERGY PREDICTED BY IDOCK:   -4.81 KCAL/MOL
REMARK 922        TOTAL FREE ENERGY PREDICTED BY IDOCK:   -8.53 KCAL/MOL
REMARK 923 INTER-LIGAND FREE ENERGY PREDICTED BY IDOCK:   -7.39 KCAL/MOL
REMARK 924 INTRA-LIGAND FREE ENERGY PREDICTED BY IDOCK:   -1.14 KCAL/MOL
REMARK 927      BINDING AFFINITY PREDICTED BY RF-SCORE:    0.00 PKD
ROOT
HETATM    1  O   UNL     1      -8.280  11.437  69.096  1.00  0.00    -0.359 OA 
HETATM    2  C   UNL     1      -9.209  11.931  68.121  1.00  0.00    -0.187 C  
HETATM    3  H   UNL     1      -8.284  10.488  69.094  1.00  0.00     0.000 HD 
ENDROOT
BRANCH   2   4
HETATM    4  C   UNL     1      -8.823  11.287  66.806  1.00  0.00    -0.170 A  
HETATM    5  C   UNL     1      -8.142   9.949  64.432  1.00  0.00    -0.157 A  
HETATM    6  C   UNL     1      -9.810  10.965  65.859  1.00  0.00    -0.285 A  
HETATM    7  O   UNL     1      -8.717   8.890  62.448  1.00  0.00    -0.222 OA 
HETATM    8  O   UNL     1      -6.602   8.930  63.027  1.00  0.00    -0.091 OA 
HETATM    9  C   UNL     1      -7.486  10.944  66.533  1.00  0.00    -0.142 A  
HETATM   10  C   UNL     1      -9.476  10.299  64.675  1.00  0.00    -0.351 A  
HETATM   11  N   UNL     1      -7.796   9.203  63.215  1.00  0.00    -0.124 N  
HETATM   12  C   UNL     1      -7.142  10.280  65.352  1.00  0.00    -0.139 A  
ENDBRANCH   2   4
BRANCH   2  13
HETATM   13  C   UNL     1      -9.203  13.485  68.126  1.00  0.00    -0.208 C  
BRANCH  13  14
HETATM   14  N   UNL     1      -8.077  13.963  68.964  1.00  0.00    -0.337 N  
HETATM   15  C   UNL     1      -5.930  15.147  69.425  1.00  0.00    -0.108 C  
HETATM   16  C   UNL     1      -6.965  14.595  68.434  1.00  0.00    -0.113 C  
HETATM   17  H   UNL     1      -8.124  13.821  69.974  1.00  0.00     0.000 HD 
HETATM   18  O   UNL     1      -6.822  14.737  67.219  1.00  0.00    -0.255 OA 
HETATM   19 CL   UNL     1      -5.999  14.306  70.988  1.00  0.00    -0.210 Cl 
HETATM   20 CL   UNL     1      -6.202  16.886  69.638  1.00  0.00    -0.224 Cl 
ENDBRANCH  13  14
BRANCH  13  21
HETATM   21  C   UNL     1     -10.560  14.034  68.618  1.00  0.00    -0.257 C  
BRANCH  21  22
HETATM   22  O   UNL     1     -11.178  14.911  67.655  1.00  0.00    -0.301 OA 
BRANCH  22  23
HETATM   23  C   UNL     1     -10.425  15.973  67.265  1.00  0.00    -0.308 C  
HETATM   24  O   UNL     1      -9.859  16.751  68.021  1.00  0.00    -0.252 OA 
BRANCH  23  25
HETATM   25  C   UNL     1     -10.360  16.068  65.764  1.00  0.00    -0.398 C  
BRANCH  25  26
HETATM   26  C   UNL     1     -10.813  14.783  65.101  1.00  0.00    -0.417 C  
HETATM   27  C   UNL     1     -12.291  14.768  64.799  1.00  0.00    -0.293 C  
HETATM   28  O   UNL     1     -12.678  15.680  63.884  1.00  0.00    -0.697 OA 
HETATM   29  O   UNL     1     -13.068  13.980  65.314  1.00  0.00    -0.782 OA 
ENDBRANCH  25  26
ENDBRANCH  23  25
ENDBRANCH  22  23
ENDBRANCH  21  22
ENDBRANCH  13  21
ENDBRANCH   2  13
TORSDOF 8
ENDMDL
MODEL      161
REMARK 921   NORMALIZED FREE ENERGY PREDICTED BY IDOCK:   -4.78 KCAL/MOL
REMARK 922        TOTAL FREE ENERGY PREDICTED BY IDOCK:   -8.49 KCAL/MOL
REMARK 923 INTER-LIGAND FREE ENERGY PREDICTED BY IDOCK:   -6.96 KCAL/MOL
REMARK 924 INTRA-LIGAND FREE ENERGY PREDICTED BY IDOCK:   -1.53 KCAL/MOL
REMARK 927      BINDING AFFINITY PREDICTED BY RF-SCORE:    0.00 PKD
ROOT
HETATM    1  O   UNL     1      -9.550  11.430  67.297  1.00  0.00    -0.173 OA 
HETATM    2  C   UNL     1     -10.488  11.760  68.331  1.00  0.00    -0.215 C  
HETATM    3  H   UNL     1      -8.799  10.988  67.673  1.00  0.00     0.000 HD 
ENDROOT
BRANCH   2   4
HETATM    4  C   UNL     1     -10.796  10.463  69.051  1.00  0.00    -0.273 A  
HETATM    5  C   UNL     1     -11.250   8.096  70.492  1.00  0.00    -0.247 A  
HETATM    6  C   UNL     1     -11.645  10.460  70.171  1.00  0.00    -0.392 A  
HETATM    7  O   UNL     1     -12.153   6.943  72.293  1.00  0.00    -0.261 OA 
HETATM    8  O   UNL     1     -10.894   5.835  70.879  1.00  0.00    -0.268 OA 
HETATM    9  C   UNL     1     -10.196   9.255  68.654  1.00  0.00    -0.220 A  
HETATM   10  C   UNL     1     -11.874   9.284  70.892  1.00  0.00    -0.346 A  
HETATM   11  N   UNL     1     -11.447   6.870  71.278  1.00  0.00    -0.279 N  
HETATM   12  C   UNL     1     -10.420   8.073  69.366  1.00  0.00    -0.223 A  
ENDBRANCH   2   4
BRANCH   2  13
HETATM   13  C   UNL     1     -11.718  12.484  67.717  1.00  0.00    -0.359 C  
BRANCH  13  14
HETATM   14  N   UNL     1     -11.464  12.737  66.278  1.00  0.00    -0.334 N  
HETATM   15  C   UNL     1     -12.000  13.564  63.986  1.00  0.00    -0.449 C  
HETATM   16  C   UNL     1     -12.431  13.236  65.423  1.00  0.00    -0.489 C  
HETATM   17  H   UNL     1     -10.536  12.535  65.902  1.00  0.00     0.000 HD 
HETATM   18  O   UNL     1     -13.585  13.438  65.803  1.00  0.00    -0.058 OA 
HETATM   19 CL   UNL     1     -10.564  12.638  63.501  1.00  0.00    -0.381 Cl 
HETATM   20 CL   UNL     1     -11.694  15.306  63.856  1.00  0.00     0.091 Cl 
ENDBRANCH  13  14
BRANCH  13  21
HETATM   21  C   UNL     1     -12.021  13.790  68.485  1.00  0.00    -0.367 C  
BRANCH  21  22
HETATM   22  O   UNL     1     -10.828  14.413  68.999  1.00  0.00    -0.241 OA 
BRANCH  22  23
HETATM   23  C   UNL     1     -10.772  15.765  68.871  1.00  0.00    -0.248 C  
HETATM   24  O   UNL     1     -10.503  16.547  69.774  1.00  0.00    -0.283 OA 
BRANCH  23  25
HETATM   25  C   UNL     1     -11.070  16.188  67.458  1.00  0.00    -0.175 C  
BRANCH  25  26
HETATM   26  C   UNL     1      -9.827  16.684  66.747  1.00  0.00    -0.280 C  
HETATM   27  C   UNL     1      -8.771  15.617  66.600  1.00  0.00    -0.298 C  
HETATM   28  O   UNL     1      -9.130  14.590  65.803  1.00  0.00    -0.002 OA 
HETATM   29  O   UNL     1      -7.674  15.688  67.129  1.00  0.00    -0.186 OA 
ENDBRANCH  25  26
ENDBRANCH  23  25
ENDBRANCH  22  23
ENDBRANCH  21  22
ENDBRANCH  13  21
ENDBRANCH   2  13
TORSDOF 8
ENDMDL
MODEL      162
REMARK 921   NORMALIZED FREE ENERGY PREDICTED BY IDOCK:   -4.78 KCAL/MOL
REMARK 922        TOTAL FREE ENERGY PREDICTED BY IDOCK:   -8.49 KCAL/MOL
REMARK 923 INTER-LIGAND FREE ENERGY PREDICTED BY IDOCK:   -7.35 KCAL/MOL
REMARK 924 INTRA-LIGAND FREE ENERGY PREDICTED BY IDOCK:   -1.13 KCAL/MOL
REMARK 927      BINDING AFFINITY PREDICTED BY RF-SCORE:    0.00 PKD
ROOT
HETATM    1  O   UNL     1     -11.102   9.413  68.367  1.00  0.00    -0.463 OA 
HETATM    2  C   UNL     1     -10.823   8.638  67.193  1.00  0.00     0.010 C  
HETATM    3  H   UNL     1     -11.800   9.004  68.865  1.00  0.00     0.000 HD 
ENDROOT
BRANCH   2   4
HETATM    4  C   UNL     1     -10.534   7.231  67.674  1.00  0.00    -0.310 A  
HETATM    5  C   UNL     1      -9.864   4.679  68.636  1.00  0.00    -0.120 A  
HETATM    6  C   UNL     1     -10.897   6.839  68.974  1.00  0.00    -0.290 A  
HETATM    7  O   UNL     1      -9.758   3.099  70.333  1.00  0.00    -0.153 OA 
HETATM    8  O   UNL     1      -8.867   2.597  68.393  1.00  0.00    -0.090 OA 
HETATM    9  C   UNL     1      -9.848   6.313  66.858  1.00  0.00    -0.196 A  
HETATM   10  C   UNL     1     -10.565   5.570  69.458  1.00  0.00    -0.366 A  
HETATM   11  N   UNL     1      -9.468   3.364  69.158  1.00  0.00    -0.173 N  
HETATM   12  C   UNL     1      -9.514   5.041  67.330  1.00  0.00    -0.151 A  
ENDBRANCH   2   4
BRANCH   2  13
HETATM   13  C   UNL     1      -9.681   9.307  66.378  1.00  0.00    -0.258 C  
BRANCH  13  14
HETATM   14  N   UNL     1      -8.657   9.827  67.315  1.00  0.00    -0.128 N  
HETATM   15  C   UNL     1      -6.343  10.315  68.111  1.00  0.00    -0.056 C  
HETATM   16  C   UNL     1      -7.300   9.620  67.132  1.00  0.00    -0.087 C  
HETATM   17  H   UNL     1      -8.964  10.360  68.130  1.00  0.00     0.000 HD 
HETATM   18  O   UNL     1      -6.873   8.930  66.205  1.00  0.00    -0.072 OA 
HETATM   19 CL   UNL     1      -7.136  10.689  69.656  1.00  0.00    -0.134 Cl 
HETATM   20 CL   UNL     1      -5.715  11.792  67.357  1.00  0.00    -0.087 Cl 
ENDBRANCH  13  14
BRANCH  13  21
HETATM   21  C   UNL     1     -10.242  10.419  65.465  1.00  0.00    -0.246 C  
BRANCH  21  22
HETATM   22  O   UNL     1     -10.984  11.410  66.202  1.00  0.00    -0.286 OA 
BRANCH  22  23
HETATM   23  C   UNL     1     -11.611  12.352  65.448  1.00  0.00    -0.381 C  
HETATM   24  O   UNL     1     -12.773  12.290  65.068  1.00  0.00    -0.581 OA 
BRANCH  23  25
HETATM   25  C   UNL     1     -10.691  13.505  65.147  1.00  0.00    -0.349 C  
BRANCH  25  26
HETATM   26  C   UNL     1     -11.269  14.822  65.627  1.00  0.00    -0.343 C  
HETATM   27  C   UNL     1     -11.699  15.721  64.495  1.00  0.00    -0.191 C  
HETATM   28  O   UNL     1     -12.728  15.240  63.767  1.00  0.00    -0.687 OA 
HETATM   29  O   UNL     1     -11.184  16.805  64.273  1.00  0.00    -1.163 OA 
ENDBRANCH  25  26
ENDBRANCH  23  25
ENDBRANCH  22  23
ENDBRANCH  21  22
ENDBRANCH  13  21
ENDBRANCH   2  13
TORSDOF 8
ENDMDL
MODEL      163
REMARK 921   NORMALIZED FREE ENERGY PREDICTED BY IDOCK:   -4.78 KCAL/MOL
REMARK 922        TOTAL FREE ENERGY PREDICTED BY IDOCK:   -8.48 KCAL/MOL
REMARK 923 INTER-LIGAND FREE ENERGY PREDICTED BY IDOCK:   -8.50 KCAL/MOL
REMARK 924 INTRA-LIGAND FREE ENERGY PREDICTED BY IDOCK:    0.02 KCAL/MOL
REMARK 927      BINDING AFFINITY PREDICTED BY RF-SCORE:    0.00 PKD
ROOT
HETATM    1  O   UNL     1     -12.600  13.125  65.595  1.00  0.00    -0.456 OA 
HETATM    2  C   UNL     1     -11.559  12.631  66.449  1.00  0.00    -0.384 C  
HETATM    3  H   UNL     1     -13.448  12.887  65.950  1.00  0.00     0.000 HD 
ENDROOT
BRANCH   2   4
HETATM    4  C   UNL     1     -11.855  13.172  67.833  1.00  0.00    -0.390 A  
HETATM    5  C   UNL     1     -12.559  14.130  70.378  1.00  0.00    -0.332 A  
HETATM    6  C   UNL     1     -11.874  12.309  68.942  1.00  0.00    -0.355 A  
HETATM    7  O   UNL     1     -13.038  13.797  72.624  1.00  0.00    -0.450 OA 
HETATM    8  O   UNL     1     -13.246  15.822  71.809  1.00  0.00    -0.477 OA 
HETATM    9  C   UNL     1     -12.175  14.528  68.027  1.00  0.00    -0.127 A  
HETATM   10  C   UNL     1     -12.224  12.780  70.211  1.00  0.00    -0.351 A  
HETATM   11  N   UNL     1     -12.977  14.617  71.698  1.00  0.00    -0.317 N  
HETATM   12  C   UNL     1     -12.524  15.010  69.291  1.00  0.00    -0.017 A  
ENDBRANCH   2   4
BRANCH   2  13
HETATM   13  C   UNL     1     -10.171  13.020  65.869  1.00  0.00    -0.292 C  
BRANCH  13  14
HETATM   14  N   UNL     1      -9.244  11.873  66.019  1.00  0.00    -0.328 N  
HETATM   15  C   UNL     1      -7.668  10.368  67.235  1.00  0.00    -0.099 C  
HETATM   16  C   UNL     1      -8.497  11.659  67.165  1.00  0.00    -0.162 C  
HETATM   17  H   UNL     1      -9.152  11.213  65.246  1.00  0.00     0.000 HD 
HETATM   18  O   UNL     1      -8.516  12.455  68.105  1.00  0.00    -0.167 OA 
HETATM   19 CL   UNL     1      -7.290   9.738  65.618  1.00  0.00    -0.101 Cl 
HETATM   20 CL   UNL     1      -8.555   9.162  68.185  1.00  0.00    -0.128 Cl 
ENDBRANCH  13  14
BRANCH  13  21
HETATM   21  C   UNL     1      -9.629  14.292  66.559  1.00  0.00    -0.297 C  
BRANCH  21  22
HETATM   22  O   UNL     1      -9.340  15.344  65.618  1.00  0.00    -0.296 OA 
BRANCH  22  23
HETATM   23  C   UNL     1     -10.345  16.236  65.411  1.00  0.00    -0.294 C  
HETATM   24  O   UNL     1     -11.090  16.244  64.440  1.00  0.00    -0.735 OA 
BRANCH  23  25
HETATM   25  C   UNL     1     -10.441  17.217  66.548  1.00  0.00    -0.260 C  
BRANCH  25  26
HETATM   26  C   UNL     1     -10.652  18.633  66.049  1.00  0.00    -0.410 C  
HETATM   27  C   UNL     1      -9.524  19.561  66.423  1.00  0.00    -0.386 C  
HETATM   28  O   UNL     1      -8.344  19.259  65.845  1.00  0.00    -0.443 OA 
HETATM   29  O   UNL     1      -9.670  20.523  67.161  1.00  0.00    -0.441 OA 
ENDBRANCH  25  26
ENDBRANCH  23  25
ENDBRANCH  22  23
ENDBRANCH  21  22
ENDBRANCH  13  21
ENDBRANCH   2  13
TORSDOF 8
ENDMDL
MODEL      164
REMARK 921   NORMALIZED FREE ENERGY PREDICTED BY IDOCK:   -4.77 KCAL/MOL
REMARK 922        TOTAL FREE ENERGY PREDICTED BY IDOCK:   -8.48 KCAL/MOL
REMARK 923 INTER-LIGAND FREE ENERGY PREDICTED BY IDOCK:   -7.60 KCAL/MOL
REMARK 924 INTRA-LIGAND FREE ENERGY PREDICTED BY IDOCK:   -0.87 KCAL/MOL
REMARK 927      BINDING AFFINITY PREDICTED BY RF-SCORE:    0.00 PKD
ROOT
HETATM    1  O   UNL     1     -10.470  12.600  68.486  1.00  0.00    -0.235 OA 
HETATM    2  C   UNL     1     -10.692  12.303  67.100  1.00  0.00    -0.233 C  
HETATM    3  H   UNL     1     -10.996  12.023  69.027  1.00  0.00     0.000 HD 
ENDROOT
BRANCH   2   4
HETATM    4  C   UNL     1     -10.407  10.825  66.934  1.00  0.00    -0.290 A  
HETATM    5  C   UNL     1      -9.758   8.100  66.735  1.00  0.00    -0.235 A  
HETATM    6  C   UNL     1     -10.936   9.895  67.846  1.00  0.00    -0.281 A  
HETATM    7  O   UNL     1      -9.824   5.921  67.533  1.00  0.00    -0.114 OA 
HETATM    8  O   UNL     1      -8.633   6.331  65.737  1.00  0.00    -0.147 OA 
HETATM    9  C   UNL     1      -9.563  10.361  65.909  1.00  0.00    -0.258 A  
HETATM   10  C   UNL     1     -10.616   8.537  67.751  1.00  0.00    -0.242 A  
HETATM   11  N   UNL     1      -9.378   6.683  66.663  1.00  0.00    -0.159 N  
HETATM   12  C   UNL     1      -9.239   9.006  65.804  1.00  0.00    -0.293 A  
ENDBRANCH   2   4
BRANCH   2  13
HETATM   13  C   UNL     1      -9.833  13.247  66.214  1.00  0.00    -0.285 C  
BRANCH  13  14
HETATM   14  N   UNL     1      -9.109  14.205  67.084  1.00  0.00    -0.221 N  
HETATM   15  C   UNL     1      -7.139  15.118  68.313  1.00  0.00    -0.112 C  
HETATM   16  C   UNL     1      -7.811  13.991  67.516  1.00  0.00    -0.184 C  
HETATM   17  H   UNL     1      -9.588  15.057  67.377  1.00  0.00     0.000 HD 
HETATM   18  O   UNL     1      -7.206  12.952  67.249  1.00  0.00    -0.143 OA 
HETATM   19 CL   UNL     1      -8.334  16.173  69.098  1.00  0.00    -0.243 Cl 
HETATM   20 CL   UNL     1      -6.096  16.054  67.227  1.00  0.00    -0.176 Cl 
ENDBRANCH  13  14
BRANCH  13  21
HETATM   21  C   UNL     1     -10.716  13.970  65.172  1.00  0.00    -0.382 C  
BRANCH  21  22
HETATM   22  O   UNL     1     -11.359  15.139  65.718  1.00  0.00    -0.324 OA 
BRANCH  22  23
HETATM   23  C   UNL     1     -11.146  16.295  65.036  1.00  0.00    -0.254 C  
HETATM   24  O   UNL     1     -11.627  16.567  63.943  1.00  0.00    -1.175 OA 
BRANCH  23  25
HETATM   25  C   UNL     1     -10.245  17.221  65.809  1.00  0.00    -0.212 C  
BRANCH  25  26
HETATM   26  C   UNL     1     -10.725  18.657  65.738  1.00  0.00    -0.224 C  
HETATM   27  C   UNL     1      -9.848  19.607  66.514  1.00  0.00    -0.420 C  
HETATM   28  O   UNL     1      -8.597  19.730  66.025  1.00  0.00    -0.360 OA 
HETATM   29  O   UNL     1     -10.242  20.236  67.483  1.00  0.00    -0.400 OA 
ENDBRANCH  25  26
ENDBRANCH  23  25
ENDBRANCH  22  23
ENDBRANCH  21  22
ENDBRANCH  13  21
ENDBRANCH   2  13
TORSDOF 8
ENDMDL
MODEL      165
REMARK 921   NORMALIZED FREE ENERGY PREDICTED BY IDOCK:   -4.77 KCAL/MOL
REMARK 922        TOTAL FREE ENERGY PREDICTED BY IDOCK:   -8.46 KCAL/MOL
REMARK 923 INTER-LIGAND FREE ENERGY PREDICTED BY IDOCK:   -8.45 KCAL/MOL
REMARK 924 INTRA-LIGAND FREE ENERGY PREDICTED BY IDOCK:   -0.01 KCAL/MOL
REMARK 927      BINDING AFFINITY PREDICTED BY RF-SCORE:    0.00 PKD
ROOT
HETATM    1  O   UNL     1     -10.570  13.908  69.582  1.00  0.00    -0.445 OA 
HETATM    2  C   UNL     1     -10.874  12.552  69.228  1.00  0.00     0.001 C  
HETATM    3  H   UNL     1      -9.772  14.183  69.148  1.00  0.00     0.000 HD 
ENDROOT
BRANCH   2   4
HETATM    4  C   UNL     1     -10.913  12.508  67.715  1.00  0.00    -0.270 A  
HETATM    5  C   UNL     1     -11.098  12.312  64.919  1.00  0.00    -0.311 A  
HETATM    6  C   UNL     1     -11.887  13.236  67.010  1.00  0.00    -0.442 A  
HETATM    7  O   UNL     1     -12.150  12.785  62.904  1.00  0.00    -0.229 OA 
HETATM    8  O   UNL     1     -10.415  11.442  62.879  1.00  0.00    -0.204 OA 
HETATM    9  C   UNL     1     -10.020  11.697  66.991  1.00  0.00    -0.226 A  
HETATM   10  C   UNL     1     -11.984  13.141  65.619  1.00  0.00    -0.462 A  
HETATM   11  N   UNL     1     -11.231  12.170  63.463  1.00  0.00    -0.448 N  
HETATM   12  C   UNL     1     -10.107  11.597  65.600  1.00  0.00    -0.278 A  
ENDBRANCH   2   4
BRANCH   2  13
HETATM   13  C   UNL     1     -12.181  12.101  69.938  1.00  0.00    -0.170 C  
BRANCH  13  14
HETATM   14  N   UNL     1     -12.724  13.237  70.721  1.00  0.00    -0.255 N  
HETATM   15  C   UNL     1     -13.629  14.371  72.751  1.00  0.00    -0.431 C  
HETATM   16  C   UNL     1     -13.208  13.094  72.011  1.00  0.00    -0.446 C  
HETATM   17  H   UNL     1     -12.742  14.163  70.293  1.00  0.00     0.000 HD 
HETATM   18  O   UNL     1     -13.272  11.991  72.556  1.00  0.00    -0.250 OA 
HETATM   19 CL   UNL     1     -14.050  15.678  71.624  1.00  0.00    -0.483 Cl 
HETATM   20 CL   UNL     1     -12.315  14.875  73.831  1.00  0.00    -0.630 Cl 
ENDBRANCH  13  14
BRANCH  13  21
HETATM   21  C   UNL     1     -11.921  10.863  70.825  1.00  0.00    -0.346 C  
BRANCH  21  22
HETATM   22  O   UNL     1     -11.385   9.755  70.075  1.00  0.00    -0.242 OA 
BRANCH  22  23
HETATM   23  C   UNL     1     -10.272   9.179  70.598  1.00  0.00    -0.246 C  
HETATM   24  O   UNL     1      -9.127   9.379  70.213  1.00  0.00    -0.208 OA 
BRANCH  23  25
HETATM   25  C   UNL     1     -10.622   8.260  71.738  1.00  0.00    -0.325 C  
BRANCH  25  26
HETATM   26  C   UNL     1     -11.500   7.112  71.283  1.00  0.00    -0.314 C  
HETATM   27  C   UNL     1     -10.759   6.107  70.436  1.00  0.00    -0.284 C  
HETATM   28  O   UNL     1      -9.787   5.442  71.092  1.00  0.00    -0.170 OA 
HETATM   29  O   UNL     1     -11.034   5.890  69.267  1.00  0.00    -0.334 OA 
ENDBRANCH  25  26
ENDBRANCH  23  25
ENDBRANCH  22  23
ENDBRANCH  21  22
ENDBRANCH  13  21
ENDBRANCH   2  13
TORSDOF 8
ENDMDL
MODEL      166
REMARK 921   NORMALIZED FREE ENERGY PREDICTED BY IDOCK:   -4.76 KCAL/MOL
REMARK 922        TOTAL FREE ENERGY PREDICTED BY IDOCK:   -8.46 KCAL/MOL
REMARK 923 INTER-LIGAND FREE ENERGY PREDICTED BY IDOCK:   -7.39 KCAL/MOL
REMARK 924 INTRA-LIGAND FREE ENERGY PREDICTED BY IDOCK:   -1.07 KCAL/MOL
REMARK 927      BINDING AFFINITY PREDICTED BY RF-SCORE:    0.00 PKD
ROOT
HETATM    1  O   UNL     1     -12.632  14.265  69.007  1.00  0.00    -0.527 OA 
HETATM    2  C   UNL     1     -11.235  13.938  68.980  1.00  0.00    -0.274 C  
HETATM    3  H   UNL     1     -12.792  14.942  69.653  1.00  0.00     0.000 HD 
ENDROOT
BRANCH   2   4
HETATM    4  C   UNL     1     -10.501  15.241  68.745  1.00  0.00    -0.237 A  
HETATM    5  C   UNL     1      -9.149  17.688  68.467  1.00  0.00    -0.279 A  
HETATM    6  C   UNL     1      -9.112  15.318  68.948  1.00  0.00    -0.209 A  
HETATM    7  O   UNL     1      -7.237  18.994  68.629  1.00  0.00    -0.290 OA 
HETATM    8  O   UNL     1      -9.114  19.970  68.048  1.00  0.00    -0.322 OA 
HETATM    9  C   UNL     1     -11.196  16.409  68.380  1.00  0.00    -0.324 A  
HETATM   10  C   UNL     1      -8.434  16.534  68.812  1.00  0.00    -0.248 A  
HETATM   11  N   UNL     1      -8.450  18.976  68.375  1.00  0.00    -0.336 N  
HETATM   12  C   UNL     1     -10.528  17.628  68.239  1.00  0.00    -0.376 A  
ENDBRANCH   2   4
BRANCH   2  13
HETATM   13  C   UNL     1     -10.973  12.830  67.923  1.00  0.00    -0.234 C  
BRANCH  13  14
HETATM   14  N   UNL     1     -11.509  13.272  66.613  1.00  0.00    -0.332 N  
HETATM   15  C   UNL     1     -11.608  13.398  64.123  1.00  0.00    -0.398 C  
HETATM   16  C   UNL     1     -10.883  12.984  65.412  1.00  0.00    -0.284 C  
HETATM   17  H   UNL     1     -12.376  13.810  66.595  1.00  0.00     0.000 HD 
HETATM   18  O   UNL     1      -9.802  12.394  65.374  1.00  0.00    -0.252 OA 
HETATM   19 CL   UNL     1     -12.747  14.731  64.406  1.00  0.00    -0.128 Cl 
HETATM   20 CL   UNL     1     -12.448  11.987  63.453  1.00  0.00    -0.688 Cl 
ENDBRANCH  13  14
BRANCH  13  21
HETATM   21  C   UNL     1     -11.592  11.488  68.374  1.00  0.00    -0.308 C  
BRANCH  21  22
HETATM   22  O   UNL     1     -10.626  10.622  69.001  1.00  0.00    -0.193 OA 
BRANCH  22  23
HETATM   23  C   UNL     1     -10.137   9.627  68.216  1.00  0.00    -0.177 C  
HETATM   24  O   UNL     1     -10.785   9.000  67.388  1.00  0.00    -0.271 OA 
BRANCH  23  25
HETATM   25  C   UNL     1      -8.673   9.395  68.483  1.00  0.00    -0.128 C  
BRANCH  25  26
HETATM   26  C   UNL     1      -8.021  10.609  69.116  1.00  0.00    -0.139 C  
HETATM   27  C   UNL     1      -6.777  10.265  69.896  1.00  0.00    -0.125 C  
HETATM   28  O   UNL     1      -5.763   9.793  69.142  1.00  0.00    -0.035 OA 
HETATM   29  O   UNL     1      -6.681  10.429  71.102  1.00  0.00    -0.274 OA 
ENDBRANCH  25  26
ENDBRANCH  23  25
ENDBRANCH  22  23
ENDBRANCH  21  22
ENDBRANCH  13  21
ENDBRANCH   2  13
TORSDOF 8
ENDMDL
MODEL      167
REMARK 921   NORMALIZED FREE ENERGY PREDICTED BY IDOCK:   -4.74 KCAL/MOL
REMARK 922        TOTAL FREE ENERGY PREDICTED BY IDOCK:   -8.42 KCAL/MOL
REMARK 923 INTER-LIGAND FREE ENERGY PREDICTED BY IDOCK:   -8.30 KCAL/MOL
REMARK 924 INTRA-LIGAND FREE ENERGY PREDICTED BY IDOCK:   -0.12 KCAL/MOL
REMARK 927      BINDING AFFINITY PREDICTED BY RF-SCORE:    0.00 PKD
ROOT
HETATM    1  O   UNL     1     -10.485  15.859  65.077  1.00  0.00    -0.518 OA 
HETATM    2  C   UNL     1     -10.406  15.739  66.504  1.00  0.00    -0.294 C  
HETATM    3  H   UNL     1     -10.678  16.758  64.839  1.00  0.00     0.000 HD 
ENDROOT
BRANCH   2   4
HETATM    4  C   UNL     1      -9.385  16.761  66.958  1.00  0.00    -0.244 A  
HETATM    5  C   UNL     1      -7.424  18.541  67.893  1.00  0.00    -0.238 A  
HETATM    6  C   UNL     1      -8.125  16.827  66.339  1.00  0.00    -0.355 A  
HETATM    7  O   UNL     1      -5.268  19.401  67.869  1.00  0.00    -0.170 OA 
HETATM    8  O   UNL     1      -6.672  20.166  69.370  1.00  0.00    -0.295 OA 
HETATM    9  C   UNL     1      -9.651  17.617  68.042  1.00  0.00    -0.289 A  
HETATM   10  C   UNL     1      -7.145  17.711  66.800  1.00  0.00    -0.239 A  
HETATM   11  N   UNL     1      -6.380  19.433  68.414  1.00  0.00    -0.235 N  
HETATM   12  C   UNL     1      -8.679  18.506  68.510  1.00  0.00    -0.352 A  
ENDBRANCH   2   4
BRANCH   2  13
HETATM   13  C   UNL     1     -10.091  14.268  66.894  1.00  0.00    -0.264 C  
BRANCH  13  14
HETATM   14  N   UNL     1     -10.576  13.367  65.821  1.00  0.00    -0.278 N  
HETATM   15  C   UNL     1     -12.250  12.423  64.230  1.00  0.00    -0.452 C  
HETATM   16  C   UNL     1     -11.904  13.310  65.434  1.00  0.00    -0.359 C  
HETATM   17  H   UNL     1      -9.902  12.764  65.347  1.00  0.00     0.000 HD 
HETATM   18  O   UNL     1     -12.772  13.966  66.012  1.00  0.00    -0.463 OA 
HETATM   19 CL   UNL     1     -11.042  11.143  63.985  1.00  0.00    -0.312 Cl 
HETATM   20 CL   UNL     1     -12.387  13.438  62.783  1.00  0.00     0.340 Cl 
ENDBRANCH  13  14
BRANCH  13  21
HETATM   21  C   UNL     1     -10.717  13.921  68.263  1.00  0.00    -0.251 C  
BRANCH  21  22
HETATM   22  O   UNL     1     -10.324  12.614  68.729  1.00  0.00    -0.202 OA 
BRANCH  22  23
HETATM   23  C   UNL     1     -11.323  11.695  68.799  1.00  0.00    -0.264 C  
HETATM   24  O   UNL     1     -12.118  11.448  67.902  1.00  0.00    -0.646 OA 
BRANCH  23  25
HETATM   25  C   UNL     1     -11.322  10.996  70.133  1.00  0.00    -0.335 C  
BRANCH  25  26
HETATM   26  C   UNL     1     -12.617  10.246  70.372  1.00  0.00    -0.277 C  
HETATM   27  C   UNL     1     -13.114  10.374  71.791  1.00  0.00    -0.462 C  
HETATM   28  O   UNL     1     -13.473  11.626  72.141  1.00  0.00    -0.423 OA 
HETATM   29  O   UNL     1     -13.214   9.423  72.549  1.00  0.00    -0.426 OA 
ENDBRANCH  25  26
ENDBRANCH  23  25
ENDBRANCH  22  23
ENDBRANCH  21  22
ENDBRANCH  13  21
ENDBRANCH   2  13
TORSDOF 8
ENDMDL
MODEL      168
REMARK 921   NORMALIZED FREE ENERGY PREDICTED BY IDOCK:   -4.71 KCAL/MOL
REMARK 922        TOTAL FREE ENERGY PREDICTED BY IDOCK:   -8.39 KCAL/MOL
REMARK 923 INTER-LIGAND FREE ENERGY PREDICTED BY IDOCK:   -7.32 KCAL/MOL
REMARK 924 INTRA-LIGAND FREE ENERGY PREDICTED BY IDOCK:   -1.07 KCAL/MOL
REMARK 927      BINDING AFFINITY PREDICTED BY RF-SCORE:    0.00 PKD
ROOT
HETATM    1  O   UNL     1     -10.405  10.554  70.088  1.00  0.00    -0.438 OA 
HETATM    2  C   UNL     1      -9.878  10.066  68.847  1.00  0.00    -0.184 C  
HETATM    3  H   UNL     1     -10.279  11.493  70.145  1.00  0.00     0.000 HD 
ENDROOT
BRANCH   2   4
HETATM    4  C   UNL     1     -10.549  10.875  67.756  1.00  0.00    -0.255 A  
HETATM    5  C   UNL     1     -11.664  12.474  65.734  1.00  0.00    -0.426 A  
HETATM    6  C   UNL     1     -10.223  10.653  66.407  1.00  0.00    -0.291 A  
HETATM    7  O   UNL     1     -11.831  13.141  63.518  1.00  0.00    -0.499 OA 
HETATM    8  O   UNL     1     -13.004  14.229  65.018  1.00  0.00    -0.693 OA 
HETATM    9  C   UNL     1     -11.460  11.900  68.071  1.00  0.00    -0.389 A  
HETATM   10  C   UNL     1     -10.775  11.446  65.397  1.00  0.00    -0.313 A  
HETATM   11  N   UNL     1     -12.205  13.343  64.681  1.00  0.00    -0.402 N  
HETATM   12  C   UNL     1     -12.019  12.697  67.069  1.00  0.00    -0.330 A  
ENDBRANCH   2   4
BRANCH   2  13
HETATM   13  C   UNL     1     -10.085   8.528  68.753  1.00  0.00    -0.196 C  
BRANCH  13  14
HETATM   14  N   UNL     1     -10.454   8.006  70.091  1.00  0.00    -0.220 N  
HETATM   15  C   UNL     1     -11.392   6.350  71.705  1.00  0.00    -0.289 C  
HETATM   16  C   UNL     1     -11.182   6.842  70.265  1.00  0.00    -0.334 C  
HETATM   17  H   UNL     1     -10.158   8.526  70.918  1.00  0.00     0.000 HD 
HETATM   18  O   UNL     1     -11.621   6.207  69.305  1.00  0.00    -0.329 OA 
HETATM   19 CL   UNL     1     -11.257   7.676  72.880  1.00  0.00    -0.431 Cl 
HETATM   20 CL   UNL     1     -10.210   5.077  72.059  1.00  0.00    -0.253 Cl 
ENDBRANCH  13  14
BRANCH  13  21
HETATM   21  C   UNL     1      -8.818   7.841  68.197  1.00  0.00    -0.125 C  
BRANCH  21  22
HETATM   22  O   UNL     1      -9.131   6.710  67.360  1.00  0.00    -0.120 OA 
BRANCH  22  23
HETATM   23  C   UNL     1      -8.413   6.617  66.210  1.00  0.00    -0.130 C  
HETATM   24  O   UNL     1      -7.781   5.631  65.852  1.00  0.00    -0.091 OA 
BRANCH  23  25
HETATM   25  C   UNL     1      -8.505   7.889  65.410  1.00  0.00    -0.134 C  
BRANCH  25  26
HETATM   26  C   UNL     1      -7.283   8.089  64.535  1.00  0.00    -0.084 C  
HETATM   27  C   UNL     1      -7.077   9.529  64.135  1.00  0.00    -0.112 C  
HETATM   28  O   UNL     1      -6.795  10.353  65.164  1.00  0.00    -0.133 OA 
HETATM   29  O   UNL     1      -7.131   9.912  62.978  1.00  0.00    -0.115 OA 
ENDBRANCH  25  26
ENDBRANCH  23  25
ENDBRANCH  22  23
ENDBRANCH  21  22
ENDBRANCH  13  21
ENDBRANCH   2  13
TORSDOF 8
ENDMDL
MODEL      169
REMARK 921   NORMALIZED FREE ENERGY PREDICTED BY IDOCK:   -4.71 KCAL/MOL
REMARK 922        TOTAL FREE ENERGY PREDICTED BY IDOCK:   -8.38 KCAL/MOL
REMARK 923 INTER-LIGAND FREE ENERGY PREDICTED BY IDOCK:   -7.64 KCAL/MOL
REMARK 924 INTRA-LIGAND FREE ENERGY PREDICTED BY IDOCK:   -0.73 KCAL/MOL
REMARK 927      BINDING AFFINITY PREDICTED BY RF-SCORE:    0.00 PKD
ROOT
HETATM    1  O   UNL     1     -12.693  11.087  68.637  1.00  0.00    -0.371 OA 
HETATM    2  C   UNL     1     -11.294  11.350  68.460  1.00  0.00    -0.271 C  
HETATM    3  H   UNL     1     -13.119  11.846  69.017  1.00  0.00     0.000 HD 
ENDROOT
BRANCH   2   4
HETATM    4  C   UNL     1     -11.204  12.619  67.638  1.00  0.00    -0.329 A  
HETATM    5  C   UNL     1     -10.928  14.898  66.020  1.00  0.00    -0.334 A  
HETATM    6  C   UNL     1     -11.950  12.750  66.454  1.00  0.00    -0.443 A  
HETATM    7  O   UNL     1     -11.381  16.094  64.083  1.00  0.00    -0.657 OA 
HETATM    8  O   UNL     1      -9.966  16.951  65.523  1.00  0.00    -0.572 OA 
HETATM    9  C   UNL     1     -10.333  13.660  68.007  1.00  0.00    -0.250 A  
HETATM   10  C   UNL     1     -11.816  13.882  65.644  1.00  0.00    -0.383 A  
HETATM   11  N   UNL     1     -10.745  16.064  65.146  1.00  0.00    -0.435 N  
HETATM   12  C   UNL     1     -10.193  14.797  67.206  1.00  0.00    -0.241 A  
ENDBRANCH   2   4
BRANCH   2  13
HETATM   13  C   UNL     1     -10.598  10.108  67.839  1.00  0.00    -0.249 C  
BRANCH  13  14
HETATM   14  N   UNL     1     -10.900   8.917  68.669  1.00  0.00    -0.431 N  
HETATM   15  C   UNL     1     -11.020   7.586  70.776  1.00  0.00    -0.252 C  
HETATM   16  C   UNL     1     -10.540   8.822  70.002  1.00  0.00    -0.223 C  
HETATM   17  H   UNL     1     -11.395   8.134  68.240  1.00  0.00     0.000 HD 
HETATM   18  O   UNL     1      -9.885   9.707  70.557  1.00  0.00    -0.256 OA 
HETATM   19 CL   UNL     1     -11.354   6.219  69.692  1.00  0.00    -0.500 Cl 
HETATM   20 CL   UNL     1     -12.465   8.012  71.710  1.00  0.00    -0.334 Cl 
ENDBRANCH  13  14
BRANCH  13  21
HETATM   21  C   UNL     1      -9.077  10.345  67.706  1.00  0.00    -0.131 C  
BRANCH  21  22
HETATM   22  O   UNL     1      -8.657  10.449  66.332  1.00  0.00    -0.128 OA 
BRANCH  22  23
HETATM   23  C   UNL     1      -7.744   9.527  65.928  1.00  0.00    -0.100 C  
HETATM   24  O   UNL     1      -6.531   9.629  66.066  1.00  0.00    -0.073 OA 
BRANCH  23  25
HETATM   25  C   UNL     1      -8.417   8.339  65.293  1.00  0.00    -0.179 C  
BRANCH  25  26
HETATM   26  C   UNL     1      -7.914   7.034  65.875  1.00  0.00    -0.113 C  
HETATM   27  C   UNL     1      -8.792   6.509  66.984  1.00  0.00    -0.116 C  
HETATM   28  O   UNL     1     -10.031   6.152  66.586  1.00  0.00    -0.161 OA 
HETATM   29  O   UNL     1      -8.409   6.386  68.136  1.00  0.00    -0.115 OA 
ENDBRANCH  25  26
ENDBRANCH  23  25
ENDBRANCH  22  23
ENDBRANCH  21  22
ENDBRANCH  13  21
ENDBRANCH   2  13
TORSDOF 8
ENDMDL
MODEL      170
REMARK 921   NORMALIZED FREE ENERGY PREDICTED BY IDOCK:   -4.70 KCAL/MOL
REMARK 922        TOTAL FREE ENERGY PREDICTED BY IDOCK:   -8.36 KCAL/MOL
REMARK 923 INTER-LIGAND FREE ENERGY PREDICTED BY IDOCK:   -7.26 KCAL/MOL
REMARK 924 INTRA-LIGAND FREE ENERGY PREDICTED BY IDOCK:   -1.11 KCAL/MOL
REMARK 927      BINDING AFFINITY PREDICTED BY RF-SCORE:    0.00 PKD
ROOT
HETATM    1  O   UNL     1      -9.527  10.704  69.637  1.00  0.00    -0.414 OA 
HETATM    2  C   UNL     1      -9.269  10.144  68.342  1.00  0.00    -0.133 C  
HETATM    3  H   UNL     1      -9.402  11.645  69.612  1.00  0.00     0.000 HD 
ENDROOT
BRANCH   2   4
HETATM    4  C   UNL     1     -10.164  10.888  67.374  1.00  0.00    -0.236 A  
HETATM    5  C   UNL     1     -11.702  12.370  65.550  1.00  0.00    -0.407 A  
HETATM    6  C   UNL     1     -10.089  10.625  65.995  1.00  0.00    -0.308 A  
HETATM    7  O   UNL     1     -12.310  12.946  63.385  1.00  0.00    -0.653 OA 
HETATM    8  O   UNL     1     -13.223  14.050  65.046  1.00  0.00    -0.720 OA 
HETATM    9  C   UNL     1     -11.040  11.893  67.823  1.00  0.00    -0.295 A  
HETATM   10  C   UNL     1     -10.852  11.361  65.083  1.00  0.00    -0.302 A  
HETATM   11  N   UNL     1     -12.466  13.180  64.592  1.00  0.00    -0.391 N  
HETATM   12  C   UNL     1     -11.809  12.632  66.921  1.00  0.00    -0.425 A  
ENDBRANCH   2   4
BRANCH   2  13
HETATM   13  C   UNL     1      -9.472   8.604  68.383  1.00  0.00    -0.138 C  
BRANCH  13  14
HETATM   14  N   UNL     1     -10.377   8.264  69.508  1.00  0.00    -0.215 N  
HETATM   15  C   UNL     1     -11.948   6.824  70.806  1.00  0.00    -0.378 C  
HETATM   16  C   UNL     1     -11.148   7.114  69.528  1.00  0.00    -0.141 C  
HETATM   17  H   UNL     1     -10.433   8.904  70.301  1.00  0.00     0.000 HD 
HETATM   18  O   UNL     1     -11.171   6.337  68.572  1.00  0.00    -0.352 OA 
HETATM   19 CL   UNL     1     -12.270   8.305  71.732  1.00  0.00    -0.342 Cl 
HETATM   20 CL   UNL     1     -11.059   5.649  71.792  1.00  0.00    -0.298 Cl 
ENDBRANCH  13  14
BRANCH  13  21
HETATM   21  C   UNL     1      -8.114   7.877  68.498  1.00  0.00    -0.123 C  
BRANCH  21  22
HETATM   22  O   UNL     1      -7.872   6.990  67.388  1.00  0.00    -0.108 OA 
BRANCH  22  23
HETATM   23  C   UNL     1      -7.751   5.675  67.707  1.00  0.00    -0.096 C  
HETATM   24  O   UNL     1      -7.819   5.215  68.840  1.00  0.00    -0.080 OA 
BRANCH  23  25
HETATM   25  C   UNL     1      -7.535   4.836  66.475  1.00  0.00    -0.086 C  
BRANCH  25  26
HETATM   26  C   UNL     1      -8.134   5.486  65.244  1.00  0.00    -0.122 C  
HETATM   27  C   UNL     1      -9.253   4.676  64.639  1.00  0.00    -0.118 C  
HETATM   28  O   UNL     1     -10.343   4.564  65.425  1.00  0.00    -0.239 OA 
HETATM   29  O   UNL     1      -9.194   4.188  63.522  1.00  0.00    -0.134 OA 
ENDBRANCH  25  26
ENDBRANCH  23  25
ENDBRANCH  22  23
ENDBRANCH  21  22
ENDBRANCH  13  21
ENDBRANCH   2  13
TORSDOF 8
ENDMDL
MODEL      171
REMARK 921   NORMALIZED FREE ENERGY PREDICTED BY IDOCK:   -4.69 KCAL/MOL
REMARK 922        TOTAL FREE ENERGY PREDICTED BY IDOCK:   -8.36 KCAL/MOL
REMARK 923 INTER-LIGAND FREE ENERGY PREDICTED BY IDOCK:   -8.04 KCAL/MOL
REMARK 924 INTRA-LIGAND FREE ENERGY PREDICTED BY IDOCK:   -0.32 KCAL/MOL
REMARK 927      BINDING AFFINITY PREDICTED BY RF-SCORE:    0.00 PKD
ROOT
HETATM    1  O   UNL     1     -12.155  14.625  67.211  1.00  0.00    -0.514 OA 
HETATM    2  C   UNL     1     -11.769  15.348  68.388  1.00  0.00    -0.316 C  
HETATM    3  H   UNL     1     -12.523  15.223  66.572  1.00  0.00     0.000 HD 
ENDROOT
BRANCH   2   4
HETATM    4  C   UNL     1     -10.837  16.447  67.922  1.00  0.00    -0.328 A  
HETATM    5  C   UNL     1      -9.238  18.581  67.039  1.00  0.00    -0.284 A  
HETATM    6  C   UNL     1     -10.389  17.426  68.825  1.00  0.00    -0.357 A  
HETATM    7  O   UNL     1      -8.135  20.591  67.399  1.00  0.00    -0.332 OA 
HETATM    8  O   UNL     1      -8.135  19.758  65.370  1.00  0.00    -0.285 OA 
HETATM    9  C   UNL     1     -10.451  16.545  66.572  1.00  0.00    -0.270 A  
HETATM   10  C   UNL     1      -9.593  18.491  68.391  1.00  0.00    -0.383 A  
HETATM   11  N   UNL     1      -8.446  19.725  66.570  1.00  0.00    -0.331 N  
HETATM   12  C   UNL     1      -9.654  17.604  66.128  1.00  0.00    -0.206 A  
ENDBRANCH   2   4
BRANCH   2  13
HETATM   13  C   UNL     1     -11.168  14.370  69.435  1.00  0.00    -0.281 C  
BRANCH  13  14
HETATM   14  N   UNL     1      -9.690  14.375  69.312  1.00  0.00    -0.419 N  
HETATM   15  C   UNL     1      -7.500  13.949  68.194  1.00  0.00    -0.126 C  
HETATM   16  C   UNL     1      -9.023  13.764  68.263  1.00  0.00    -0.186 C  
HETATM   17  H   UNL     1      -9.141  14.849  70.030  1.00  0.00     0.000 HD 
HETATM   18  O   UNL     1      -9.627  13.122  67.403  1.00  0.00    -0.208 OA 
HETATM   19 CL   UNL     1      -6.808  14.322  69.786  1.00  0.00    -0.096 Cl 
HETATM   20 CL   UNL     1      -7.125  15.234  67.031  1.00  0.00    -0.077 Cl 
ENDBRANCH  13  14
BRANCH  13  21
HETATM   21  C   UNL     1     -11.754  12.951  69.256  1.00  0.00    -0.321 C  
BRANCH  21  22
HETATM   22  O   UNL     1     -11.925  12.267  70.512  1.00  0.00    -0.335 OA 
BRANCH  22  23
HETATM   23  C   UNL     1     -12.396  10.995  70.426  1.00  0.00    -0.356 C  
HETATM   24  O   UNL     1     -12.606  10.391  69.381  1.00  0.00    -0.116 OA 
BRANCH  23  25
HETATM   25  C   UNL     1     -12.618  10.405  71.793  1.00  0.00    -0.468 C  
BRANCH  25  26
HETATM   26  C   UNL     1     -13.117   8.976  71.711  1.00  0.00    -0.437 C  
HETATM   27  C   UNL     1     -12.004   7.961  71.785  1.00  0.00    -0.298 C  
HETATM   28  O   UNL     1     -11.353   7.939  72.966  1.00  0.00    -0.408 OA 
HETATM   29  O   UNL     1     -11.732   7.202  70.869  1.00  0.00    -0.301 OA 
ENDBRANCH  25  26
ENDBRANCH  23  25
ENDBRANCH  22  23
ENDBRANCH  21  22
ENDBRANCH  13  21
ENDBRANCH   2  13
TORSDOF 8
ENDMDL
MODEL      172
REMARK 921   NORMALIZED FREE ENERGY PREDICTED BY IDOCK:   -4.69 KCAL/MOL
REMARK 922        TOTAL FREE ENERGY PREDICTED BY IDOCK:   -8.35 KCAL/MOL
REMARK 923 INTER-LIGAND FREE ENERGY PREDICTED BY IDOCK:   -7.15 KCAL/MOL
REMARK 924 INTRA-LIGAND FREE ENERGY PREDICTED BY IDOCK:   -1.20 KCAL/MOL
REMARK 927      BINDING AFFINITY PREDICTED BY RF-SCORE:    0.00 PKD
ROOT
HETATM    1  O   UNL     1      -9.082   7.184  68.847  1.00  0.00    -0.133 OA 
HETATM    2  C   UNL     1      -9.888   8.048  68.033  1.00  0.00    -0.167 C  
HETATM    3  H   UNL     1      -8.697   6.502  68.311  1.00  0.00     0.000 HD 
ENDROOT
BRANCH   2   4
HETATM    4  C   UNL     1      -8.988   8.536  66.917  1.00  0.00    -0.166 A  
HETATM    5  C   UNL     1      -7.362   9.591  64.885  1.00  0.00    -0.111 A  
HETATM    6  C   UNL     1      -7.677   8.957  67.197  1.00  0.00    -0.095 A  
HETATM    7  O   UNL     1      -5.406  10.606  64.155  1.00  0.00    -0.156 OA 
HETATM    8  O   UNL     1      -6.999  10.251  62.689  1.00  0.00    -0.129 OA 
HETATM    9  C   UNL     1      -9.462   8.634  65.596  1.00  0.00    -0.114 A  
HETATM   10  C   UNL     1      -6.863   9.484  66.189  1.00  0.00    -0.090 A  
HETATM   11  N   UNL     1      -6.529  10.193  63.835  1.00  0.00    -0.132 N  
HETATM   12  C   UNL     1      -8.656   9.157  64.580  1.00  0.00    -0.206 A  
ENDBRANCH   2   4
BRANCH   2  13
HETATM   13  C   UNL     1     -10.519   9.164  68.911  1.00  0.00    -0.218 C  
BRANCH  13  14
HETATM   14  N   UNL     1     -11.521   8.558  69.820  1.00  0.00    -0.432 N  
HETATM   15  C   UNL     1     -12.639   8.130  72.009  1.00  0.00    -0.330 C  
HETATM   16  C   UNL     1     -11.472   8.708  71.195  1.00  0.00    -0.280 C  
HETATM   17  H   UNL     1     -12.280   8.008  69.414  1.00  0.00     0.000 HD 
HETATM   18  O   UNL     1     -10.546   9.306  71.746  1.00  0.00    -0.355 OA 
HETATM   19 CL   UNL     1     -13.468   6.823  71.136  1.00  0.00    -0.117 Cl 
HETATM   20 CL   UNL     1     -13.772   9.435  72.405  1.00  0.00    -0.500 Cl 
ENDBRANCH  13  14
BRANCH  13  21
HETATM   21  C   UNL     1     -11.138  10.269  68.026  1.00  0.00    -0.274 C  
BRANCH  21  22
HETATM   22  O   UNL     1     -10.868  11.591  68.531  1.00  0.00    -0.191 OA 
BRANCH  22  23
HETATM   23  C   UNL     1     -10.742  12.563  67.589  1.00  0.00    -0.218 C  
HETATM   24  O   UNL     1     -10.446  13.729  67.815  1.00  0.00    -0.235 OA 
BRANCH  23  25
HETATM   25  C   UNL     1     -11.000  12.017  66.210  1.00  0.00    -0.340 C  
BRANCH  25  26
HETATM   26  C   UNL     1     -10.976  13.111  65.162  1.00  0.00    -0.317 C  
HETATM   27  C   UNL     1     -12.310  13.306  64.486  1.00  0.00    -0.368 C  
HETATM   28  O   UNL     1     -13.284  13.755  65.304  1.00  0.00    -0.755 OA 
HETATM   29  O   UNL     1     -12.490  13.104  63.296  1.00  0.00    -0.720 OA 
ENDBRANCH  25  26
ENDBRANCH  23  25
ENDBRANCH  22  23
ENDBRANCH  21  22
ENDBRANCH  13  21
ENDBRANCH   2  13
TORSDOF 8
ENDMDL
MODEL      173
REMARK 921   NORMALIZED FREE ENERGY PREDICTED BY IDOCK:   -4.68 KCAL/MOL
REMARK 922        TOTAL FREE ENERGY PREDICTED BY IDOCK:   -8.33 KCAL/MOL
REMARK 923 INTER-LIGAND FREE ENERGY PREDICTED BY IDOCK:   -6.55 KCAL/MOL
REMARK 924 INTRA-LIGAND FREE ENERGY PREDICTED BY IDOCK:   -1.78 KCAL/MOL
REMARK 927      BINDING AFFINITY PREDICTED BY RF-SCORE:    0.00 PKD
ROOT
HETATM    1  O   UNL     1     -11.568  10.626  70.212  1.00  0.00    -0.286 OA 
HETATM    2  C   UNL     1     -10.330  10.720  69.493  1.00  0.00    -0.144 C  
HETATM    3  H   UNL     1     -11.864  11.494  70.458  1.00  0.00     0.000 HD 
ENDROOT
BRANCH   2   4
HETATM    4  C   UNL     1     -10.582  11.668  68.340  1.00  0.00    -0.235 A  
HETATM    5  C   UNL     1     -11.106  13.535  66.307  1.00  0.00    -0.300 A  
HETATM    6  C   UNL     1      -9.641  12.663  68.022  1.00  0.00    -0.213 A  
HETATM    7  O   UNL     1     -10.562  15.435  65.090  1.00  0.00    -0.390 OA 
HETATM    8  O   UNL     1     -12.473  14.444  64.666  1.00  0.00    -0.566 OA 
HETATM    9  C   UNL     1     -11.781  11.614  67.606  1.00  0.00    -0.300 A  
HETATM   10  C   UNL     1      -9.897  13.595  67.012  1.00  0.00    -0.251 A  
HETATM   11  N   UNL     1     -11.401  14.543  65.281  1.00  0.00    -0.339 N  
HETATM   12  C   UNL     1     -12.046  12.539  66.593  1.00  0.00    -0.212 A  
ENDBRANCH   2   4
BRANCH   2  13
HETATM   13  C   UNL     1      -9.845   9.300  69.090  1.00  0.00    -0.167 C  
BRANCH  13  14
HETATM   14  N   UNL     1     -10.450   8.302  70.005  1.00  0.00    -0.226 N  
HETATM   15  C   UNL     1     -11.350   6.068  70.657  1.00  0.00    -0.231 C  
HETATM   16  C   UNL     1     -10.850   7.046  69.583  1.00  0.00    -0.247 C  
HETATM   17  H   UNL     1     -10.577   8.552  70.986  1.00  0.00     0.000 HD 
HETATM   18  O   UNL     1     -10.783   6.711  68.399  1.00  0.00    -0.218 OA 
HETATM   19 CL   UNL     1     -11.950   6.920  72.096  1.00  0.00    -0.323 Cl 
HETATM   20 CL   UNL     1     -10.035   4.960  71.088  1.00  0.00    -0.266 Cl 
ENDBRANCH  13  14
BRANCH  13  21
HETATM   21  C   UNL     1      -8.302   9.228  69.100  1.00  0.00    -0.127 C  
BRANCH  21  22
HETATM   22  O   UNL     1      -7.770   8.716  67.862  1.00  0.00    -0.100 OA 
BRANCH  22  23
HETATM   23  C   UNL     1      -7.750   9.595  66.826  1.00  0.00    -0.098 C  
HETATM   24  O   UNL     1      -7.198  10.688  66.840  1.00  0.00    -0.099 OA 
BRANCH  23  25
HETATM   25  C   UNL     1      -8.488   9.045  65.635  1.00  0.00    -0.163 C  
BRANCH  25  26
HETATM   26  C   UNL     1      -9.694   9.894  65.283  1.00  0.00    -0.383 C  
HETATM   27  C   UNL     1      -9.498  10.695  64.020  1.00  0.00    -0.285 C  
HETATM   28  O   UNL     1      -9.376   9.948  62.904  1.00  0.00    -0.286 OA 
HETATM   29  O   UNL     1      -9.482  11.915  64.001  1.00  0.00    -0.096 OA 
ENDBRANCH  25  26
ENDBRANCH  23  25
ENDBRANCH  22  23
ENDBRANCH  21  22
ENDBRANCH  13  21
ENDBRANCH   2  13
TORSDOF 8
ENDMDL
MODEL      174
REMARK 921   NORMALIZED FREE ENERGY PREDICTED BY IDOCK:   -4.67 KCAL/MOL
REMARK 922        TOTAL FREE ENERGY PREDICTED BY IDOCK:   -8.33 KCAL/MOL
REMARK 923 INTER-LIGAND FREE ENERGY PREDICTED BY IDOCK:   -8.37 KCAL/MOL
REMARK 924 INTRA-LIGAND FREE ENERGY PREDICTED BY IDOCK:    0.05 KCAL/MOL
REMARK 927      BINDING AFFINITY PREDICTED BY RF-SCORE:    0.00 PKD
ROOT
HETATM    1  O   UNL     1      -9.466  10.519  70.177  1.00  0.00    -0.310 OA 
HETATM    2  C   UNL     1     -10.819  10.043  70.136  1.00  0.00    -0.311 C  
HETATM    3  H   UNL     1      -9.188  10.621  71.079  1.00  0.00     0.000 HD 
ENDROOT
BRANCH   2   4
HETATM    4  C   UNL     1     -10.847   8.777  70.968  1.00  0.00    -0.321 A  
HETATM    5  C   UNL     1     -11.018   6.496  72.597  1.00  0.00    -0.255 A  
HETATM    6  C   UNL     1     -11.779   7.764  70.684  1.00  0.00    -0.191 A  
HETATM    7  O   UNL     1     -12.027   4.500  73.217  1.00  0.00    -0.163 OA 
HETATM    8  O   UNL     1     -10.360   5.240  74.435  1.00  0.00    -0.254 OA 
HETATM    9  C   UNL     1      -9.989   8.617  72.071  1.00  0.00    -0.399 A  
HETATM   10  C   UNL     1     -11.868   6.626  71.492  1.00  0.00    -0.387 A  
HETATM   11  N   UNL     1     -11.144   5.328  73.479  1.00  0.00    -0.298 N  
HETATM   12  C   UNL     1     -10.068   7.483  72.884  1.00  0.00    -0.315 A  
ENDBRANCH   2   4
BRANCH   2  13
HETATM   13  C   UNL     1     -11.276   9.876  68.660  1.00  0.00    -0.068 C  
BRANCH  13  14
HETATM   14  N   UNL     1     -10.849   8.544  68.168  1.00  0.00    -0.456 N  
HETATM   15  C   UNL     1      -9.215   6.819  67.405  1.00  0.00    -0.127 C  
HETATM   16  C   UNL     1      -9.548   8.270  67.780  1.00  0.00    -0.148 C  
HETATM   17  H   UNL     1     -11.543   7.797  68.113  1.00  0.00     0.000 HD 
HETATM   18  O   UNL     1      -8.683   9.147  67.764  1.00  0.00    -0.121 OA 
HETATM   19 CL   UNL     1     -10.661   5.922  66.895  1.00  0.00    -0.347 Cl 
HETATM   20 CL   UNL     1      -8.443   6.026  68.790  1.00  0.00    -0.112 Cl 
ENDBRANCH  13  14
BRANCH  13  21
HETATM   21  C   UNL     1     -10.717  11.019  67.784  1.00  0.00    -0.227 C  
BRANCH  21  22
HETATM   22  O   UNL     1     -11.700  11.536  66.867  1.00  0.00    -0.533 OA 
BRANCH  22  23
HETATM   23  C   UNL     1     -11.673  12.882  66.678  1.00  0.00    -0.390 C  
HETATM   24  O   UNL     1     -12.149  13.710  67.445  1.00  0.00    -0.380 OA 
BRANCH  23  25
HETATM   25  C   UNL     1     -10.963  13.236  65.399  1.00  0.00    -0.299 C  
BRANCH  25  26
HETATM   26  C   UNL     1     -11.270  12.245  64.295  1.00  0.00    -0.409 C  
HETATM   27  C   UNL     1     -12.532  12.580  63.540  1.00  0.00    -0.459 C  
HETATM   28  O   UNL     1     -12.470  13.732  62.842  1.00  0.00    -0.601 OA 
HETATM   29  O   UNL     1     -13.517  11.859  63.536  1.00  0.00    -0.493 OA 
ENDBRANCH  25  26
ENDBRANCH  23  25
ENDBRANCH  22  23
ENDBRANCH  21  22
ENDBRANCH  13  21
ENDBRANCH   2  13
TORSDOF 8
ENDMDL
MODEL      175
REMARK 921   NORMALIZED FREE ENERGY PREDICTED BY IDOCK:   -4.67 KCAL/MOL
REMARK 922        TOTAL FREE ENERGY PREDICTED BY IDOCK:   -8.32 KCAL/MOL
REMARK 923 INTER-LIGAND FREE ENERGY PREDICTED BY IDOCK:   -6.92 KCAL/MOL
REMARK 924 INTRA-LIGAND FREE ENERGY PREDICTED BY IDOCK:   -1.41 KCAL/MOL
REMARK 927      BINDING AFFINITY PREDICTED BY RF-SCORE:    0.00 PKD
ROOT
HETATM    1  O   UNL     1     -11.211  12.087  69.842  1.00  0.00    -0.485 OA 
HETATM    2  C   UNL     1     -11.406  10.769  69.312  1.00  0.00    -0.286 C  
HETATM    3  H   UNL     1     -11.625  12.156  70.694  1.00  0.00     0.000 HD 
ENDROOT
BRANCH   2   4
HETATM    4  C   UNL     1     -10.886   9.810  70.362  1.00  0.00    -0.370 A  
HETATM    5  C   UNL     1      -9.926   8.152  72.416  1.00  0.00    -0.275 A  
HETATM    6  C   UNL     1     -11.777   9.172  71.241  1.00  0.00    -0.396 A  
HETATM    7  O   UNL     1     -10.253   6.844  74.305  1.00  0.00    -0.349 OA 
HETATM    8  O   UNL     1      -8.198   7.165  73.610  1.00  0.00    -0.116 OA 
HETATM    9  C   UNL     1      -9.506   9.586  70.518  1.00  0.00    -0.306 A  
HETATM   10  C   UNL     1     -11.305   8.346  72.266  1.00  0.00    -0.448 A  
HETATM   11  N   UNL     1      -9.423   7.328  73.523  1.00  0.00    -0.200 N  
HETATM   12  C   UNL     1      -9.023   8.761  71.537  1.00  0.00    -0.306 A  
ENDBRANCH   2   4
BRANCH   2  13
HETATM   13  C   UNL     1     -10.728  10.656  67.918  1.00  0.00    -0.248 C  
BRANCH  13  14
HETATM   14  N   UNL     1     -11.314  11.671  67.010  1.00  0.00    -0.317 N  
HETATM   15  C   UNL     1     -11.291  13.366  65.178  1.00  0.00    -0.299 C  
HETATM   16  C   UNL     1     -10.547  12.438  66.149  1.00  0.00    -0.254 C  
HETATM   17  H   UNL     1     -12.325  11.811  67.019  1.00  0.00     0.000 HD 
HETATM   18  O   UNL     1      -9.317  12.360  66.139  1.00  0.00    -0.225 OA 
HETATM   19 CL   UNL     1     -12.910  13.785  65.778  1.00  0.00    -0.496 Cl 
HETATM   20 CL   UNL     1     -11.395  12.581  63.592  1.00  0.00    -0.512 Cl 
ENDBRANCH  13  14
BRANCH  13  21
HETATM   21  C   UNL     1     -10.878   9.225  67.353  1.00  0.00    -0.095 C  
BRANCH  21  22
HETATM   22  O   UNL     1      -9.804   8.874  66.460  1.00  0.00    -0.230 OA 
BRANCH  22  23
HETATM   23  C   UNL     1      -9.206   7.678  66.706  1.00  0.00    -0.160 C  
HETATM   24  O   UNL     1      -9.674   6.584  66.417  1.00  0.00    -0.156 OA 
BRANCH  23  25
HETATM   25  C   UNL     1      -7.870   7.868  67.374  1.00  0.00    -0.121 C  
BRANCH  25  26
HETATM   26  C   UNL     1      -7.170   9.118  66.881  1.00  0.00    -0.086 C  
HETATM   27  C   UNL     1      -6.789  10.057  67.999  1.00  0.00    -0.068 C  
HETATM   28  O   UNL     1      -5.865   9.561  68.847  1.00  0.00    -0.039 OA 
HETATM   29  O   UNL     1      -7.253  11.180  68.112  1.00  0.00    -0.075 OA 
ENDBRANCH  25  26
ENDBRANCH  23  25
ENDBRANCH  22  23
ENDBRANCH  21  22
ENDBRANCH  13  21
ENDBRANCH   2  13
TORSDOF 8
ENDMDL
MODEL      176
REMARK 921   NORMALIZED FREE ENERGY PREDICTED BY IDOCK:   -4.67 KCAL/MOL
REMARK 922        TOTAL FREE ENERGY PREDICTED BY IDOCK:   -8.32 KCAL/MOL
REMARK 923 INTER-LIGAND FREE ENERGY PREDICTED BY IDOCK:   -7.16 KCAL/MOL
REMARK 924 INTRA-LIGAND FREE ENERGY PREDICTED BY IDOCK:   -1.16 KCAL/MOL
REMARK 927      BINDING AFFINITY PREDICTED BY RF-SCORE:    0.00 PKD
ROOT
HETATM    1  O   UNL     1      -8.477   7.254  69.202  1.00  0.00    -0.131 OA 
HETATM    2  C   UNL     1      -9.152   8.252  68.424  1.00  0.00    -0.136 C  
HETATM    3  H   UNL     1      -8.207   7.622  70.035  1.00  0.00     0.000 HD 
ENDROOT
BRANCH   2   4
HETATM    4  C   UNL     1     -10.276   8.776  69.293  1.00  0.00    -0.215 A  
HETATM    5  C   UNL     1     -12.250   9.783  71.018  1.00  0.00    -0.347 A  
HETATM    6  C   UNL     1     -10.555  10.153  69.335  1.00  0.00    -0.261 A  
HETATM    7  O   UNL     1     -13.402  11.544  71.997  1.00  0.00    -0.476 OA 
HETATM    8  O   UNL     1     -13.870   9.506  72.658  1.00  0.00    -0.370 OA 
HETATM    9  C   UNL     1     -11.019   7.911  70.116  1.00  0.00    -0.235 A  
HETATM   10  C   UNL     1     -11.536  10.660  70.192  1.00  0.00    -0.414 A  
HETATM   11  N   UNL     1     -13.245  10.316  71.958  1.00  0.00    -0.456 N  
HETATM   12  C   UNL     1     -12.004   8.406  70.976  1.00  0.00    -0.255 A  
ENDBRANCH   2   4
BRANCH   2  13
HETATM   13  C   UNL     1      -9.594   7.649  67.061  1.00  0.00    -0.175 C  
BRANCH  13  14
HETATM   14  N   UNL     1      -9.140   6.240  66.984  1.00  0.00    -0.120 N  
HETATM   15  C   UNL     1      -9.338   3.815  66.429  1.00  0.00    -0.186 C  
HETATM   16  C   UNL     1      -9.969   5.207  66.580  1.00  0.00    -0.212 C  
HETATM   17  H   UNL     1      -8.176   6.022  67.239  1.00  0.00     0.000 HD 
HETATM   18  O   UNL     1     -11.158   5.399  66.322  1.00  0.00    -0.149 OA 
HETATM   19 CL   UNL     1      -7.875   3.643  67.422  1.00  0.00    -0.078 Cl 
HETATM   20 CL   UNL     1      -8.971   3.528  64.719  1.00  0.00    -0.124 Cl 
ENDBRANCH  13  14
BRANCH  13  21
HETATM   21  C   UNL     1      -9.048   8.494  65.889  1.00  0.00    -0.183 C  
BRANCH  21  22
HETATM   22  O   UNL     1      -9.646   9.805  65.834  1.00  0.00    -0.209 OA 
BRANCH  22  23
HETATM   23  C   UNL     1      -9.724  10.359  64.595  1.00  0.00    -0.329 C  
HETATM   24  O   UNL     1      -9.196   9.908  63.587  1.00  0.00    -0.257 OA 
BRANCH  23  25
HETATM   25  C   UNL     1     -10.565  11.608  64.613  1.00  0.00    -0.366 C  
BRANCH  25  26
HETATM   26  C   UNL     1     -10.183  12.523  65.760  1.00  0.00    -0.289 C  
HETATM   27  C   UNL     1     -11.379  13.156  66.427  1.00  0.00    -0.315 C  
HETATM   28  O   UNL     1     -12.190  12.281  67.056  1.00  0.00    -0.522 OA 
HETATM   29  O   UNL     1     -11.582  14.360  66.426  1.00  0.00    -0.354 OA 
ENDBRANCH  25  26
ENDBRANCH  23  25
ENDBRANCH  22  23
ENDBRANCH  21  22
ENDBRANCH  13  21
ENDBRANCH   2  13
TORSDOF 8
ENDMDL
MODEL      177
REMARK 921   NORMALIZED FREE ENERGY PREDICTED BY IDOCK:   -4.67 KCAL/MOL
REMARK 922        TOTAL FREE ENERGY PREDICTED BY IDOCK:   -8.32 KCAL/MOL
REMARK 923 INTER-LIGAND FREE ENERGY PREDICTED BY IDOCK:   -7.86 KCAL/MOL
REMARK 924 INTRA-LIGAND FREE ENERGY PREDICTED BY IDOCK:   -0.46 KCAL/MOL
REMARK 927      BINDING AFFINITY PREDICTED BY RF-SCORE:    0.00 PKD
ROOT
HETATM    1  O   UNL     1     -12.521  10.613  69.132  1.00  0.00    -0.752 OA 
HETATM    2  C   UNL     1     -11.250  11.170  68.771  1.00  0.00    -0.253 C  
HETATM    3  H   UNL     1     -13.164  11.307  69.221  1.00  0.00     0.000 HD 
ENDROOT
BRANCH   2   4
HETATM    4  C   UNL     1     -11.489  11.993  67.522  1.00  0.00    -0.403 A  
HETATM    5  C   UNL     1     -12.091  13.498  65.228  1.00  0.00    -0.411 A  
HETATM    6  C   UNL     1     -11.787  13.363  67.623  1.00  0.00    -0.394 A  
HETATM    7  O   UNL     1     -12.774  15.460  64.194  1.00  0.00    -0.592 OA 
HETATM    8  O   UNL     1     -12.429  13.694  62.940  1.00  0.00    -0.610 OA 
HETATM    9  C   UNL     1     -11.478  11.396  66.248  1.00  0.00    -0.028 A  
HETATM   10  C   UNL     1     -12.088  14.116  66.484  1.00  0.00    -0.481 A  
HETATM   11  N   UNL     1     -12.458  14.273  64.036  1.00  0.00    -0.292 N  
HETATM   12  C   UNL     1     -11.775  12.140  65.103  1.00  0.00    -0.366 A  
ENDBRANCH   2   4
BRANCH   2  13
HETATM   13  C   UNL     1     -10.198  10.036  68.625  1.00  0.00    -0.180 C  
BRANCH  13  14
HETATM   14  N   UNL     1     -10.748   8.787  69.208  1.00  0.00    -0.356 N  
HETATM   15  C   UNL     1     -11.677   7.339  71.015  1.00  0.00    -0.307 C  
HETATM   16  C   UNL     1     -10.995   8.639  70.562  1.00  0.00    -0.238 C  
HETATM   17  H   UNL     1     -10.952   8.005  68.585  1.00  0.00     0.000 HD 
HETATM   18  O   UNL     1     -10.709   9.523  71.370  1.00  0.00    -0.346 OA 
HETATM   19 CL   UNL     1     -11.413   6.018  69.857  1.00  0.00    -0.380 Cl 
HETATM   20 CL   UNL     1     -13.410   7.641  71.236  1.00  0.00    -0.314 Cl 
ENDBRANCH  13  14
BRANCH  13  21
HETATM   21  C   UNL     1      -8.863  10.441  69.289  1.00  0.00    -0.154 C  
BRANCH  21  22
HETATM   22  O   UNL     1      -8.163  11.451  68.537  1.00  0.00    -0.143 OA 
BRANCH  22  23
HETATM   23  C   UNL     1      -7.108  12.026  69.173  1.00  0.00    -0.032 C  
HETATM   24  O   UNL     1      -6.594  11.610  70.203  1.00  0.00    -0.104 OA 
BRANCH  23  25
HETATM   25  C   UNL     1      -6.632  13.249  68.435  1.00  0.00    -0.093 C  
BRANCH  25  26
HETATM   26  C   UNL     1      -7.754  13.904  67.654  1.00  0.00    -0.193 C  
HETATM   27  C   UNL     1      -8.120  15.267  68.186  1.00  0.00    -0.136 C  
HETATM   28  O   UNL     1      -7.145  16.191  68.058  1.00  0.00    -0.122 OA 
HETATM   29  O   UNL     1      -9.213  15.525  68.663  1.00  0.00    -0.185 OA 
ENDBRANCH  25  26
ENDBRANCH  23  25
ENDBRANCH  22  23
ENDBRANCH  21  22
ENDBRANCH  13  21
ENDBRANCH   2  13
TORSDOF 8
ENDMDL
MODEL      178
REMARK 921   NORMALIZED FREE ENERGY PREDICTED BY IDOCK:   -4.67 KCAL/MOL
REMARK 922        TOTAL FREE ENERGY PREDICTED BY IDOCK:   -8.32 KCAL/MOL
REMARK 923 INTER-LIGAND FREE ENERGY PREDICTED BY IDOCK:   -7.07 KCAL/MOL
REMARK 924 INTRA-LIGAND FREE ENERGY PREDICTED BY IDOCK:   -1.25 KCAL/MOL
REMARK 927      BINDING AFFINITY PREDICTED BY RF-SCORE:    0.00 PKD
ROOT
HETATM    1  O   UNL     1      -9.153  11.704  68.997  1.00  0.00    -0.389 OA 
HETATM    2  C   UNL     1     -10.495  11.206  68.919  1.00  0.00    -0.207 C  
HETATM    3  H   UNL     1      -8.887  11.775  69.906  1.00  0.00     0.000 HD 
ENDROOT
BRANCH   2   4
HETATM    4  C   UNL     1     -10.510   9.908  69.699  1.00  0.00    -0.273 A  
HETATM    5  C   UNL     1     -10.506   7.586  71.279  1.00  0.00    -0.207 A  
HETATM    6  C   UNL     1     -11.672   9.502  70.377  1.00  0.00    -0.227 A  
HETATM    7  O   UNL     1     -11.525   6.129  72.771  1.00  0.00    -0.254 OA 
HETATM    8  O   UNL     1      -9.442   5.742  72.205  1.00  0.00    -0.150 OA 
HETATM    9  C   UNL     1      -9.352   9.117  69.810  1.00  0.00    -0.190 A  
HETATM   10  C   UNL     1     -11.675   8.347  71.165  1.00  0.00    -0.315 A  
HETATM   11  N   UNL     1     -10.490   6.401  72.147  1.00  0.00    -0.204 N  
HETATM   12  C   UNL     1      -9.345   7.960  70.593  1.00  0.00    -0.158 A  
ENDBRANCH   2   4
BRANCH   2  13
HETATM   13  C   UNL     1     -10.931  11.090  67.432  1.00  0.00    -0.291 C  
BRANCH  13  14
HETATM   14  N   UNL     1      -9.770  10.654  66.619  1.00  0.00    -0.179 N  
HETATM   15  C   UNL     1      -8.443   9.074  65.216  1.00  0.00    -0.166 C  
HETATM   16  C   UNL     1      -9.631   9.361  66.145  1.00  0.00    -0.247 C  
HETATM   17  H   UNL     1      -9.042  11.335  66.400  1.00  0.00     0.000 HD 
HETATM   18  O   UNL     1     -10.443   8.479  66.431  1.00  0.00    -0.195 OA 
HETATM   19 CL   UNL     1      -7.122  10.238  65.456  1.00  0.00    -0.138 Cl 
HETATM   20 CL   UNL     1      -9.003   9.101  63.534  1.00  0.00    -0.088 Cl 
ENDBRANCH  13  14
BRANCH  13  21
HETATM   21  C   UNL     1     -11.513  12.430  66.929  1.00  0.00    -0.360 C  
BRANCH  21  22
HETATM   22  O   UNL     1     -10.502  13.445  66.778  1.00  0.00    -0.270 OA 
BRANCH  22  23
HETATM   23  C   UNL     1     -10.276  13.861  65.504  1.00  0.00    -0.331 C  
HETATM   24  O   UNL     1     -10.303  13.142  64.513  1.00  0.00    -0.381 OA 
BRANCH  23  25
HETATM   25  C   UNL     1      -9.998  15.340  65.458  1.00  0.00    -0.383 C  
BRANCH  25  26
HETATM   26  C   UNL     1     -10.746  16.084  66.547  1.00  0.00    -0.238 C  
HETATM   27  C   UNL     1     -10.333  17.531  66.658  1.00  0.00    -0.319 C  
HETATM   28  O   UNL     1     -10.640  18.278  65.578  1.00  0.00    -0.632 OA 
HETATM   29  O   UNL     1      -9.795  17.995  67.650  1.00  0.00    -0.286 OA 
ENDBRANCH  25  26
ENDBRANCH  23  25
ENDBRANCH  22  23
ENDBRANCH  21  22
ENDBRANCH  13  21
ENDBRANCH   2  13
TORSDOF 8
ENDMDL
MODEL      179
REMARK 921   NORMALIZED FREE ENERGY PREDICTED BY IDOCK:   -4.66 KCAL/MOL
REMARK 922        TOTAL FREE ENERGY PREDICTED BY IDOCK:   -8.31 KCAL/MOL
REMARK 923 INTER-LIGAND FREE ENERGY PREDICTED BY IDOCK:   -7.15 KCAL/MOL
REMARK 924 INTRA-LIGAND FREE ENERGY PREDICTED BY IDOCK:   -1.17 KCAL/MOL
REMARK 927      BINDING AFFINITY PREDICTED BY RF-SCORE:    0.00 PKD
ROOT
HETATM    1  O   UNL     1     -10.544   8.774  69.022  1.00  0.00    -0.258 OA 
HETATM    2  C   UNL     1     -10.493   8.604  67.599  1.00  0.00    -0.244 C  
HETATM    3  H   UNL     1     -11.069   8.085  69.411  1.00  0.00     0.000 HD 
ENDROOT
BRANCH   2   4
HETATM    4  C   UNL     1      -9.990   7.196  67.360  1.00  0.00    -0.224 A  
HETATM    5  C   UNL     1      -8.990   4.637  66.778  1.00  0.00    -0.112 A  
HETATM    6  C   UNL     1      -8.675   6.844  67.713  1.00  0.00    -0.120 A  
HETATM    7  O   UNL     1      -7.264   3.087  66.705  1.00  0.00    -0.057 OA 
HETATM    8  O   UNL     1      -9.210   2.510  65.873  1.00  0.00    -0.126 OA 
HETATM    9  C   UNL     1     -10.800   6.235  66.729  1.00  0.00    -0.367 A  
HETATM   10  C   UNL     1      -8.173   5.572  67.425  1.00  0.00    -0.101 A  
HETATM   11  N   UNL     1      -8.449   3.317  66.427  1.00  0.00    -0.103 N  
HETATM   12  C   UNL     1     -10.308   4.959  66.438  1.00  0.00    -0.328 A  
ENDBRANCH   2   4
BRANCH   2  13
HETATM   13  C   UNL     1      -9.634   9.732  66.962  1.00  0.00    -0.172 C  
BRANCH  13  14
HETATM   14  N   UNL     1     -10.250  11.044  67.273  1.00  0.00    -0.192 N  
HETATM   15  C   UNL     1     -10.351  13.329  68.271  1.00  0.00    -0.249 C  
HETATM   16  C   UNL     1      -9.668  11.960  68.132  1.00  0.00    -0.194 C  
HETATM   17  H   UNL     1     -11.140  11.283  66.834  1.00  0.00     0.000 HD 
HETATM   18  O   UNL     1      -8.628  11.702  68.740  1.00  0.00    -0.123 OA 
HETATM   19 CL   UNL     1     -12.075  13.251  67.850  1.00  0.00    -0.335 Cl 
HETATM   20 CL   UNL     1      -9.508  14.503  67.245  1.00  0.00    -0.211 Cl 
ENDBRANCH  13  14
BRANCH  13  21
HETATM   21  C   UNL     1      -9.486   9.511  65.440  1.00  0.00    -0.269 C  
BRANCH  21  22
HETATM   22  O   UNL     1      -9.349  10.751  64.719  1.00  0.00    -0.202 OA 
BRANCH  22  23
HETATM   23  C   UNL     1      -9.760  10.722  63.424  1.00  0.00    -0.351 C  
HETATM   24  O   UNL     1      -9.492   9.839  62.619  1.00  0.00    -0.238 OA 
BRANCH  23  25
HETATM   25  C   UNL     1     -10.611  11.921  63.099  1.00  0.00    -0.322 C  
BRANCH  25  26
HETATM   26  C   UNL     1     -10.840  12.792  64.318  1.00  0.00    -0.419 C  
HETATM   27  C   UNL     1     -12.271  13.251  64.451  1.00  0.00    -0.390 C  
HETATM   28  O   UNL     1     -13.152  12.255  64.678  1.00  0.00    -0.770 OA 
HETATM   29  O   UNL     1     -12.602  14.424  64.389  1.00  0.00    -0.668 OA 
ENDBRANCH  25  26
ENDBRANCH  23  25
ENDBRANCH  22  23
ENDBRANCH  21  22
ENDBRANCH  13  21
ENDBRANCH   2  13
TORSDOF 8
ENDMDL
MODEL      180
REMARK 921   NORMALIZED FREE ENERGY PREDICTED BY IDOCK:   -4.66 KCAL/MOL
REMARK 922        TOTAL FREE ENERGY PREDICTED BY IDOCK:   -8.31 KCAL/MOL
REMARK 923 INTER-LIGAND FREE ENERGY PREDICTED BY IDOCK:   -7.80 KCAL/MOL
REMARK 924 INTRA-LIGAND FREE ENERGY PREDICTED BY IDOCK:   -0.51 KCAL/MOL
REMARK 927      BINDING AFFINITY PREDICTED BY RF-SCORE:    0.00 PKD
ROOT
HETATM    1  O   UNL     1     -12.151  12.305  66.455  1.00  0.00    -0.623 OA 
HETATM    2  C   UNL     1     -11.821  12.819  67.753  1.00  0.00    -0.332 C  
HETATM    3  H   UNL     1     -12.776  12.880  66.030  1.00  0.00     0.000 HD 
ENDROOT
BRANCH   2   4
HETATM    4  C   UNL     1     -11.349  14.241  67.537  1.00  0.00    -0.346 A  
HETATM    5  C   UNL     1     -10.627  16.921  67.110  1.00  0.00    -0.249 A  
HETATM    6  C   UNL     1     -11.413  15.175  68.586  1.00  0.00    -0.341 A  
HETATM    7  O   UNL     1     -10.437  19.124  67.819  1.00  0.00    -0.392 OA 
HETATM    8  O   UNL     1      -9.906  18.654  65.743  1.00  0.00    -0.475 OA 
HETATM    9  C   UNL     1     -10.897  14.671  66.276  1.00  0.00    -0.321 A  
HETATM   10  C   UNL     1     -11.055  16.511  68.378  1.00  0.00    -0.333 A  
HETATM   11  N   UNL     1     -10.300  18.334  66.874  1.00  0.00    -0.372 N  
HETATM   12  C   UNL     1     -10.534  16.003  66.059  1.00  0.00    -0.356 A  
ENDBRANCH   2   4
BRANCH   2  13
HETATM   13  C   UNL     1     -10.798  11.879  68.449  1.00  0.00    -0.228 C  
BRANCH  13  14
HETATM   14  N   UNL     1      -9.855  11.351  67.433  1.00  0.00    -0.181 N  
HETATM   15  C   UNL     1      -9.074   9.788  65.652  1.00  0.00    -0.178 C  
HETATM   16  C   UNL     1     -10.066  10.158  66.764  1.00  0.00    -0.219 C  
HETATM   17  H   UNL     1      -9.016  11.891  67.217  1.00  0.00     0.000 HD 
HETATM   18  O   UNL     1     -11.026   9.432  67.028  1.00  0.00    -0.118 OA 
HETATM   19 CL   UNL     1      -7.504  10.589  65.876  1.00  0.00    -0.145 Cl 
HETATM   20 CL   UNL     1      -9.778  10.218  64.082  1.00  0.00    -0.371 Cl 
ENDBRANCH  13  14
BRANCH  13  21
HETATM   21  C   UNL     1     -11.525  10.743  69.203  1.00  0.00    -0.298 C  
BRANCH  21  22
HETATM   22  O   UNL     1     -10.926  10.465  70.483  1.00  0.00    -0.299 OA 
BRANCH  22  23
HETATM   23  C   UNL     1     -10.913   9.157  70.851  1.00  0.00    -0.282 C  
HETATM   24  O   UNL     1     -11.853   8.381  70.728  1.00  0.00    -0.264 OA 
BRANCH  23  25
HETATM   25  C   UNL     1      -9.576   8.768  71.424  1.00  0.00    -0.337 C  
BRANCH  25  26
HETATM   26  C   UNL     1      -8.536   8.578  70.338  1.00  0.00    -0.146 C  
HETATM   27  C   UNL     1      -7.602   9.756  70.208  1.00  0.00    -0.172 C  
HETATM   28  O   UNL     1      -6.816   9.959  71.285  1.00  0.00    -0.331 OA 
HETATM   29  O   UNL     1      -7.539  10.448  69.205  1.00  0.00    -0.095 OA 
ENDBRANCH  25  26
ENDBRANCH  23  25
ENDBRANCH  22  23
ENDBRANCH  21  22
ENDBRANCH  13  21
ENDBRANCH   2  13
TORSDOF 8
ENDMDL
MODEL      181
REMARK 921   NORMALIZED FREE ENERGY PREDICTED BY IDOCK:   -4.65 KCAL/MOL
REMARK 922        TOTAL FREE ENERGY PREDICTED BY IDOCK:   -8.30 KCAL/MOL
REMARK 923 INTER-LIGAND FREE ENERGY PREDICTED BY IDOCK:   -7.42 KCAL/MOL
REMARK 924 INTRA-LIGAND FREE ENERGY PREDICTED BY IDOCK:   -0.88 KCAL/MOL
REMARK 927      BINDING AFFINITY PREDICTED BY RF-SCORE:    0.00 PKD
ROOT
HETATM    1  O   UNL     1      -9.429  14.067  69.186  1.00  0.00    -0.402 OA 
HETATM    2  C   UNL     1      -9.990  15.015  68.268  1.00  0.00    -0.225 C  
HETATM    3  H   UNL     1     -10.085  13.424  69.427  1.00  0.00     0.000 HD 
ENDROOT
BRANCH   2   4
HETATM    4  C   UNL     1     -10.555  14.207  67.118  1.00  0.00    -0.278 A  
HETATM    5  C   UNL     1     -11.555  12.826  64.886  1.00  0.00    -0.330 A  
HETATM    6  C   UNL     1      -9.714  13.382  66.352  1.00  0.00    -0.282 A  
HETATM    7  O   UNL     1     -11.261  11.485  63.015  1.00  0.00    -0.141 OA 
HETATM    8  O   UNL     1     -13.268  12.272  63.421  1.00  0.00    -0.660 OA 
HETATM    9  C   UNL     1     -11.911  14.311  66.758  1.00  0.00    -0.449 A  
HETATM   10  C   UNL     1     -10.206  12.693  65.239  1.00  0.00    -0.302 A  
HETATM   11  N   UNL     1     -12.064  12.146  63.688  1.00  0.00    -0.520 N  
HETATM   12  C   UNL     1     -12.414  13.625  65.649  1.00  0.00    -0.540 A  
ENDBRANCH   2   4
BRANCH   2  13
HETATM   13  C   UNL     1      -8.917  16.068  67.873  1.00  0.00    -0.186 C  
BRANCH  13  14
HETATM   14  N   UNL     1      -9.584  17.221  67.222  1.00  0.00    -0.249 N  
HETATM   15  C   UNL     1     -10.750  19.425  67.146  1.00  0.00    -0.483 C  
HETATM   16  C   UNL     1     -10.203  18.230  67.940  1.00  0.00    -0.384 C  
HETATM   17  H   UNL     1      -9.588  17.273  66.203  1.00  0.00     0.000 HD 
HETATM   18  O   UNL     1     -10.288  18.189  69.168  1.00  0.00    -0.296 OA 
HETATM   19 CL   UNL     1     -11.090  18.995  65.456  1.00  0.00     0.031 Cl 
HETATM   20 CL   UNL     1      -9.584  20.759  67.230  1.00  0.00    -0.572 Cl 
ENDBRANCH  13  14
BRANCH  13  21
HETATM   21  C   UNL     1      -7.843  15.435  66.960  1.00  0.00    -0.209 C  
BRANCH  21  22
HETATM   22  O   UNL     1      -6.529  15.477  67.551  1.00  0.00    -0.156 OA 
BRANCH  22  23
HETATM   23  C   UNL     1      -6.209  14.418  68.341  1.00  0.00    -0.103 C  
HETATM   24  O   UNL     1      -5.882  14.491  69.519  1.00  0.00    -0.092 OA 
BRANCH  23  25
HETATM   25  C   UNL     1      -6.322  13.123  67.582  1.00  0.00    -0.163 C  
BRANCH  25  26
HETATM   26  C   UNL     1      -6.562  11.949  68.511  1.00  0.00    -0.061 C  
HETATM   27  C   UNL     1      -7.739  11.103  68.095  1.00  0.00    -0.107 C  
HETATM   28  O   UNL     1      -7.575  10.468  66.916  1.00  0.00    -0.103 OA 
HETATM   29  O   UNL     1      -8.743  10.976  68.777  1.00  0.00    -0.157 OA 
ENDBRANCH  25  26
ENDBRANCH  23  25
ENDBRANCH  22  23
ENDBRANCH  21  22
ENDBRANCH  13  21
ENDBRANCH   2  13
TORSDOF 8
ENDMDL
MODEL      182
REMARK 921   NORMALIZED FREE ENERGY PREDICTED BY IDOCK:   -4.64 KCAL/MOL
REMARK 922        TOTAL FREE ENERGY PREDICTED BY IDOCK:   -8.28 KCAL/MOL
REMARK 923 INTER-LIGAND FREE ENERGY PREDICTED BY IDOCK:   -7.42 KCAL/MOL
REMARK 924 INTRA-LIGAND FREE ENERGY PREDICTED BY IDOCK:   -0.86 KCAL/MOL
REMARK 927      BINDING AFFINITY PREDICTED BY RF-SCORE:    0.00 PKD
ROOT
HETATM    1  O   UNL     1     -11.361   7.105  67.339  1.00  0.00    -0.571 OA 
HETATM    2  C   UNL     1     -10.142   7.608  67.905  1.00  0.00    -0.185 C  
HETATM    3  H   UNL     1     -11.180   6.331  66.819  1.00  0.00     0.000 HD 
ENDROOT
BRANCH   2   4
HETATM    4  C   UNL     1      -9.520   6.453  68.662  1.00  0.00    -0.122 A  
HETATM    5  C   UNL     1      -8.333   4.242  69.923  1.00  0.00    -0.061 A  
HETATM    6  C   UNL     1      -8.132   6.413  68.878  1.00  0.00    -0.111 A  
HETATM    7  O   UNL     1      -6.470   3.057  70.639  1.00  0.00    -0.026 OA 
HETATM    8  O   UNL     1      -8.446   2.144  70.909  1.00  0.00    -0.049 OA 
HETATM    9  C   UNL     1     -10.305   5.373  69.108  1.00  0.00    -0.300 A  
HETATM   10  C   UNL     1      -7.536   5.315  69.504  1.00  0.00    -0.065 A  
HETATM   11  N   UNL     1      -7.704   3.063  70.534  1.00  0.00    -0.043 N  
HETATM   12  C   UNL     1      -9.719   4.272  69.737  1.00  0.00    -0.290 A  
ENDBRANCH   2   4
BRANCH   2  13
HETATM   13  C   UNL     1     -10.438   8.874  68.755  1.00  0.00    -0.200 C  
BRANCH  13  14
HETATM   14  N   UNL     1     -11.399   8.524  69.829  1.00  0.00    -0.448 N  
HETATM   15  C   UNL     1     -12.403   8.648  72.110  1.00  0.00    -0.386 C  
HETATM   16  C   UNL     1     -11.273   8.989  71.127  1.00  0.00    -0.305 C  
HETATM   17  H   UNL     1     -12.187   7.916  69.601  1.00  0.00     0.000 HD 
HETATM   18  O   UNL     1     -10.309   9.672  71.476  1.00  0.00    -0.186 OA 
HETATM   19 CL   UNL     1     -13.298   7.198  71.608  1.00  0.00    -0.429 Cl 
HETATM   20 CL   UNL     1     -13.492  10.041  72.245  1.00  0.00    -0.450 Cl 
ENDBRANCH  13  14
BRANCH  13  21
HETATM   21  C   UNL     1     -10.965  10.020  67.862  1.00  0.00    -0.252 C  
BRANCH  21  22
HETATM   22  O   UNL     1     -10.280  11.264  68.106  1.00  0.00    -0.170 OA 
BRANCH  22  23
HETATM   23  C   UNL     1     -11.038  12.384  67.972  1.00  0.00    -0.245 C  
HETATM   24  O   UNL     1     -12.023  12.654  68.648  1.00  0.00    -0.304 OA 
BRANCH  23  25
HETATM   25  C   UNL     1     -10.501  13.274  66.883  1.00  0.00    -0.261 C  
BRANCH  25  26
HETATM   26  C   UNL     1     -11.547  14.258  66.398  1.00  0.00    -0.381 C  
HETATM   27  C   UNL     1     -12.161  13.858  65.080  1.00  0.00    -0.406 C  
HETATM   28  O   UNL     1     -12.882  12.719  65.128  1.00  0.00    -0.726 OA 
HETATM   29  O   UNL     1     -12.043  14.521  64.062  1.00  0.00    -0.442 OA 
ENDBRANCH  25  26
ENDBRANCH  23  25
ENDBRANCH  22  23
ENDBRANCH  21  22
ENDBRANCH  13  21
ENDBRANCH   2  13
TORSDOF 8
ENDMDL
MODEL      183
REMARK 921   NORMALIZED FREE ENERGY PREDICTED BY IDOCK:   -4.64 KCAL/MOL
REMARK 922        TOTAL FREE ENERGY PREDICTED BY IDOCK:   -8.27 KCAL/MOL
REMARK 923 INTER-LIGAND FREE ENERGY PREDICTED BY IDOCK:   -8.01 KCAL/MOL
REMARK 924 INTRA-LIGAND FREE ENERGY PREDICTED BY IDOCK:   -0.26 KCAL/MOL
REMARK 927      BINDING AFFINITY PREDICTED BY RF-SCORE:    0.00 PKD
ROOT
HETATM    1  O   UNL     1     -10.221  15.544  65.892  1.00  0.00    -0.297 OA 
HETATM    2  C   UNL     1      -9.529  15.133  67.079  1.00  0.00    -0.226 C  
HETATM    3  H   UNL     1      -9.795  15.177  65.127  1.00  0.00     0.000 HD 
ENDROOT
BRANCH   2   4
HETATM    4  C   UNL     1      -9.474  13.620  67.034  1.00  0.00    -0.252 A  
HETATM    5  C   UNL     1      -9.300  10.827  66.805  1.00  0.00    -0.161 A  
HETATM    6  C   UNL     1      -8.305  12.942  67.422  1.00  0.00    -0.190 A  
HETATM    7  O   UNL     1      -8.111   8.837  66.934  1.00  0.00    -0.100 OA 
HETATM    8  O   UNL     1     -10.179   8.763  66.206  1.00  0.00    -0.271 OA 
HETATM    9  C   UNL     1     -10.561  12.870  66.549  1.00  0.00    -0.272 A  
HETATM   10  C   UNL     1      -8.213  11.552  67.309  1.00  0.00    -0.155 A  
HETATM   11  N   UNL     1      -9.188   9.372  66.636  1.00  0.00    -0.147 N  
HETATM   12  C   UNL     1     -10.480  11.480  66.434  1.00  0.00    -0.292 A  
ENDBRANCH   2   4
BRANCH   2  13
HETATM   13  C   UNL     1     -10.227  15.733  68.332  1.00  0.00    -0.223 C  
BRANCH  13  14
HETATM   14  N   UNL     1     -10.081  17.209  68.308  1.00  0.00    -0.295 N  
HETATM   15  C   UNL     1      -8.835  19.371  68.338  1.00  0.00    -0.352 C  
HETATM   16  C   UNL     1      -8.868  17.845  68.508  1.00  0.00    -0.289 C  
HETATM   17  H   UNL     1     -10.909  17.780  68.136  1.00  0.00     0.000 HD 
HETATM   18  O   UNL     1      -7.847  17.213  68.784  1.00  0.00    -0.255 OA 
HETATM   19 CL   UNL     1     -10.439  20.095  68.579  1.00  0.00    -0.424 Cl 
HETATM   20 CL   UNL     1      -8.209  19.760  66.725  1.00  0.00    -0.323 Cl 
ENDBRANCH  13  14
BRANCH  13  21
HETATM   21  C   UNL     1      -9.647  15.119  69.626  1.00  0.00    -0.116 C  
BRANCH  21  22
HETATM   22  O   UNL     1     -10.641  14.984  70.660  1.00  0.00    -0.126 OA 
BRANCH  22  23
HETATM   23  C   UNL     1     -11.878  14.614  70.238  1.00  0.00    -0.303 C  
HETATM   24  O   UNL     1     -12.125  13.621  69.566  1.00  0.00    -0.318 OA 
BRANCH  23  25
HETATM   25  C   UNL     1     -12.926  15.583  70.717  1.00  0.00    -0.490 C  
BRANCH  25  26
HETATM   26  C   UNL     1     -14.043  14.877  71.460  1.00  0.00    -0.593 C  
HETATM   27  C   UNL     1     -13.562  14.155  72.693  1.00  0.00    -0.515 C  
HETATM   28  O   UNL     1     -13.085  14.967  73.659  1.00  0.00    -0.518 OA 
HETATM   29  O   UNL     1     -13.625  12.943  72.823  1.00  0.00    -0.508 OA 
ENDBRANCH  25  26
ENDBRANCH  23  25
ENDBRANCH  22  23
ENDBRANCH  21  22
ENDBRANCH  13  21
ENDBRANCH   2  13
TORSDOF 8
ENDMDL
MODEL      184
REMARK 921   NORMALIZED FREE ENERGY PREDICTED BY IDOCK:   -4.62 KCAL/MOL
REMARK 922        TOTAL FREE ENERGY PREDICTED BY IDOCK:   -8.25 KCAL/MOL
REMARK 923 INTER-LIGAND FREE ENERGY PREDICTED BY IDOCK:   -8.11 KCAL/MOL
REMARK 924 INTRA-LIGAND FREE ENERGY PREDICTED BY IDOCK:   -0.14 KCAL/MOL
REMARK 927      BINDING AFFINITY PREDICTED BY RF-SCORE:    0.00 PKD
ROOT
HETATM    1  O   UNL     1     -10.606  10.805  70.362  1.00  0.00    -0.397 OA 
HETATM    2  C   UNL     1     -10.661  10.082  69.124  1.00  0.00    -0.218 C  
HETATM    3  H   UNL     1     -11.138  10.366  71.015  1.00  0.00     0.000 HD 
ENDROOT
BRANCH   2   4
HETATM    4  C   UNL     1     -10.246   8.661  69.446  1.00  0.00    -0.211 A  
HETATM    5  C   UNL     1      -9.542   5.981  69.902  1.00  0.00    -0.158 A  
HETATM    6  C   UNL     1      -9.049   8.138  68.927  1.00  0.00    -0.147 A  
HETATM    7  O   UNL     1      -8.164   4.145  69.560  1.00  0.00    -0.059 OA 
HETATM    8  O   UNL     1      -9.965   3.875  70.782  1.00  0.00    -0.179 OA 
HETATM    9  C   UNL     1     -11.073   7.823  70.215  1.00  0.00    -0.242 A  
HETATM   10  C   UNL     1      -8.694   6.804  69.151  1.00  0.00    -0.131 A  
HETATM   11  N   UNL     1      -9.199   4.566  70.095  1.00  0.00    -0.118 N  
HETATM   12  C   UNL     1     -10.727   6.489  70.446  1.00  0.00    -0.306 A  
ENDBRANCH   2   4
BRANCH   2  13
HETATM   13  C   UNL     1      -9.791  10.800  68.055  1.00  0.00    -0.165 C  
BRANCH  13  14
HETATM   14  N   UNL     1     -10.074  12.255  68.096  1.00  0.00    -0.206 N  
HETATM   15  C   UNL     1     -11.513  14.293  68.052  1.00  0.00    -0.314 C  
HETATM   16  C   UNL     1     -11.333  12.780  67.859  1.00  0.00    -0.293 C  
HETATM   17  H   UNL     1      -9.309  12.896  68.309  1.00  0.00     0.000 HD 
HETATM   18  O   UNL     1     -12.280  12.062  67.535  1.00  0.00    -0.490 OA 
HETATM   19 CL   UNL     1      -9.975  15.166  67.884  1.00  0.00    -0.220 Cl 
HETATM   20 CL   UNL     1     -12.232  14.592  69.645  1.00  0.00    -0.353 Cl 
ENDBRANCH  13  14
BRANCH  13  21
HETATM   21  C   UNL     1     -10.049  10.204  66.653  1.00  0.00    -0.223 C  
BRANCH  21  22
HETATM   22  O   UNL     1      -9.628  11.089  65.596  1.00  0.00    -0.205 OA 
BRANCH  22  23
HETATM   23  C   UNL     1      -9.703  10.576  64.340  1.00  0.00    -0.328 C  
HETATM   24  O   UNL     1      -9.249   9.493  63.992  1.00  0.00    -0.219 OA 
BRANCH  23  25
HETATM   25  C   UNL     1     -10.437  11.510  63.416  1.00  0.00    -0.466 C  
BRANCH  25  26
HETATM   26  C   UNL     1     -10.792  12.813  64.104  1.00  0.00    -0.437 C  
HETATM   27  C   UNL     1     -12.235  13.207  63.905  1.00  0.00    -0.433 C  
HETATM   28  O   UNL     1     -13.121  12.366  64.475  1.00  0.00    -0.823 OA 
HETATM   29  O   UNL     1     -12.573  14.216  63.308  1.00  0.00    -0.766 OA 
ENDBRANCH  25  26
ENDBRANCH  23  25
ENDBRANCH  22  23
ENDBRANCH  21  22
ENDBRANCH  13  21
ENDBRANCH   2  13
TORSDOF 8
ENDMDL
MODEL      185
REMARK 921   NORMALIZED FREE ENERGY PREDICTED BY IDOCK:   -4.62 KCAL/MOL
REMARK 922        TOTAL FREE ENERGY PREDICTED BY IDOCK:   -8.25 KCAL/MOL
REMARK 923 INTER-LIGAND FREE ENERGY PREDICTED BY IDOCK:   -7.65 KCAL/MOL
REMARK 924 INTRA-LIGAND FREE ENERGY PREDICTED BY IDOCK:   -0.60 KCAL/MOL
REMARK 927      BINDING AFFINITY PREDICTED BY RF-SCORE:    0.00 PKD
ROOT
HETATM    1  O   UNL     1      -8.434  13.092  68.934  1.00  0.00    -0.357 OA 
HETATM    2  C   UNL     1      -8.895  12.140  67.966  1.00  0.00    -0.181 C  
HETATM    3  H   UNL     1      -7.998  13.812  68.496  1.00  0.00     0.000 HD 
ENDROOT
BRANCH   2   4
HETATM    4  C   UNL     1      -9.752  12.914  66.986  1.00  0.00    -0.230 A  
HETATM    5  C   UNL     1     -11.235  14.309  65.052  1.00  0.00    -0.364 A  
HETATM    6  C   UNL     1     -10.700  12.245  66.192  1.00  0.00    -0.296 A  
HETATM    7  O   UNL     1     -12.748  14.373  63.293  1.00  0.00    -0.587 OA 
HETATM    8  O   UNL     1     -11.778  16.246  63.894  1.00  0.00    -0.986 OA 
HETATM    9  C   UNL     1      -9.576  14.298  66.807  1.00  0.00    -0.290 A  
HETATM   10  C   UNL     1     -11.441  12.935  65.228  1.00  0.00    -0.348 A  
HETATM   11  N   UNL     1     -11.973  15.027  64.005  1.00  0.00    -0.188 N  
HETATM   12  C   UNL     1     -10.312  14.998  65.847  1.00  0.00    -0.329 A  
ENDBRANCH   2   4
BRANCH   2  13
HETATM   13  C   UNL     1      -9.610  10.961  68.683  1.00  0.00    -0.190 C  
BRANCH  13  14
HETATM   14  N   UNL     1      -9.467   9.735  67.861  1.00  0.00    -0.131 N  
HETATM   15  C   UNL     1      -9.424   7.277  67.434  1.00  0.00    -0.132 C  
HETATM   16  C   UNL     1      -9.458   8.463  68.409  1.00  0.00    -0.139 C  
HETATM   17  H   UNL     1      -9.372   9.832  66.850  1.00  0.00     0.000 HD 
HETATM   18  O   UNL     1      -9.503   8.286  69.627  1.00  0.00    -0.162 OA 
HETATM   19 CL   UNL     1      -8.738   7.735  65.861  1.00  0.00    -0.174 Cl 
HETATM   20 CL   UNL     1     -11.069   6.642  67.239  1.00  0.00    -0.450 Cl 
ENDBRANCH  13  14
BRANCH  13  21
HETATM   21  C   UNL     1     -11.092  11.304  68.952  1.00  0.00    -0.238 C  
BRANCH  21  22
HETATM   22  O   UNL     1     -11.246  12.285  69.995  1.00  0.00    -0.014 OA 
BRANCH  22  23
HETATM   23  C   UNL     1     -11.972  13.385  69.661  1.00  0.00    -0.324 C  
HETATM   24  O   UNL     1     -12.406  13.629  68.542  1.00  0.00    -0.248 OA 
BRANCH  23  25
HETATM   25  C   UNL     1     -12.194  14.272  70.857  1.00  0.00    -0.425 C  
BRANCH  25  26
HETATM   26  C   UNL     1     -10.937  15.032  71.231  1.00  0.00    -0.074 C  
HETATM   27  C   UNL     1     -10.348  15.796  70.072  1.00  0.00    -0.278 C  
HETATM   28  O   UNL     1     -11.128  16.798  69.616  1.00  0.00    -0.237 OA 
HETATM   29  O   UNL     1      -9.247  15.553  69.605  1.00  0.00    -0.275 OA 
ENDBRANCH  25  26
ENDBRANCH  23  25
ENDBRANCH  22  23
ENDBRANCH  21  22
ENDBRANCH  13  21
ENDBRANCH   2  13
TORSDOF 8
ENDMDL
MODEL      186
REMARK 921   NORMALIZED FREE ENERGY PREDICTED BY IDOCK:   -4.61 KCAL/MOL
REMARK 922        TOTAL FREE ENERGY PREDICTED BY IDOCK:   -8.24 KCAL/MOL
REMARK 923 INTER-LIGAND FREE ENERGY PREDICTED BY IDOCK:   -6.46 KCAL/MOL
REMARK 924 INTRA-LIGAND FREE ENERGY PREDICTED BY IDOCK:   -1.78 KCAL/MOL
REMARK 927      BINDING AFFINITY PREDICTED BY RF-SCORE:    0.00 PKD
ROOT
HETATM    1  O   UNL     1      -9.200  10.457  69.808  1.00  0.00    -0.393 OA 
HETATM    2  C   UNL     1      -8.461  10.970  68.691  1.00  0.00    -0.157 C  
HETATM    3  H   UNL     1      -9.707  11.153  70.206  1.00  0.00     0.000 HD 
ENDROOT
BRANCH   2   4
HETATM    4  C   UNL     1      -9.475  11.631  67.781  1.00  0.00    -0.178 A  
HETATM    5  C   UNL     1     -11.306  12.758  65.975  1.00  0.00    -0.321 A  
HETATM    6  C   UNL     1     -10.733  11.039  67.575  1.00  0.00    -0.289 A  
HETATM    7  O   UNL     1     -13.310  12.715  64.804  1.00  0.00    -0.787 OA 
HETATM    8  O   UNL     1     -11.913  14.357  64.406  1.00  0.00    -0.447 OA 
HETATM    9  C   UNL     1      -9.160  12.809  67.081  1.00  0.00    -0.219 A  
HETATM   10  C   UNL     1     -11.648  11.595  66.676  1.00  0.00    -0.194 A  
HETATM   11  N   UNL     1     -12.244  13.316  64.991  1.00  0.00    -0.406 N  
HETATM   12  C   UNL     1     -10.068  13.376  66.182  1.00  0.00    -0.304 A  
ENDBRANCH   2   4
BRANCH   2  13
HETATM   13  C   UNL     1      -7.629   9.830  68.040  1.00  0.00    -0.082 C  
BRANCH  13  14
HETATM   14  N   UNL     1      -7.829   9.863  66.571  1.00  0.00    -0.109 N  
HETATM   15  C   UNL     1      -7.168   9.588  64.180  1.00  0.00    -0.115 C  
HETATM   16  C   UNL     1      -6.800   9.645  65.670  1.00  0.00    -0.091 C  
HETATM   17  H   UNL     1      -8.764  10.054  66.208  1.00  0.00     0.000 HD 
HETATM   18  O   UNL     1      -5.640   9.473  66.047  1.00  0.00    -0.046 OA 
HETATM   19 CL   UNL     1      -8.678  10.461  63.840  1.00  0.00    -0.190 Cl 
HETATM   20 CL   UNL     1      -7.300   7.892  63.681  1.00  0.00    -0.096 Cl 
ENDBRANCH  13  14
BRANCH  13  21
HETATM   21  C   UNL     1      -8.015   8.461  68.642  1.00  0.00    -0.121 C  
BRANCH  21  22
HETATM   22  O   UNL     1      -9.166   7.884  67.995  1.00  0.00    -0.132 OA 
BRANCH  22  23
HETATM   23  C   UNL     1      -9.503   6.634  68.409  1.00  0.00    -0.125 C  
HETATM   24  O   UNL     1      -8.708   5.738  68.665  1.00  0.00    -0.108 OA 
BRANCH  23  25
HETATM   25  C   UNL     1     -10.997   6.487  68.529  1.00  0.00    -0.360 C  
BRANCH  25  26
HETATM   26  C   UNL     1     -11.431   6.344  69.974  1.00  0.00    -0.496 C  
HETATM   27  C   UNL     1     -10.937   7.470  70.848  1.00  0.00    -0.253 C  
HETATM   28  O   UNL     1     -11.456   8.676  70.542  1.00  0.00    -0.260 OA 
HETATM   29  O   UNL     1     -10.159   7.303  71.773  1.00  0.00    -0.180 OA 
ENDBRANCH  25  26
ENDBRANCH  23  25
ENDBRANCH  22  23
ENDBRANCH  21  22
ENDBRANCH  13  21
ENDBRANCH   2  13
TORSDOF 8
ENDMDL
MODEL      187
REMARK 921   NORMALIZED FREE ENERGY PREDICTED BY IDOCK:   -4.60 KCAL/MOL
REMARK 922        TOTAL FREE ENERGY PREDICTED BY IDOCK:   -8.23 KCAL/MOL
REMARK 923 INTER-LIGAND FREE ENERGY PREDICTED BY IDOCK:   -7.51 KCAL/MOL
REMARK 924 INTRA-LIGAND FREE ENERGY PREDICTED BY IDOCK:   -0.71 KCAL/MOL
REMARK 927      BINDING AFFINITY PREDICTED BY RF-SCORE:    0.00 PKD
ROOT
HETATM    1  O   UNL     1     -12.906  13.163  70.349  1.00  0.00    -0.060 OA 
HETATM    2  C   UNL     1     -11.569  13.115  69.833  1.00  0.00    -0.185 C  
HETATM    3  H   UNL     1     -13.204  14.064  70.390  1.00  0.00     0.000 HD 
ENDROOT
BRANCH   2   4
HETATM    4  C   UNL     1     -11.600  13.846  68.507  1.00  0.00    -0.367 A  
HETATM    5  C   UNL     1     -11.527  15.118  66.004  1.00  0.00    -0.157 A  
HETATM    6  C   UNL     1     -12.191  13.245  67.382  1.00  0.00    -0.236 A  
HETATM    7  O   UNL     1     -11.924  15.151  63.718  1.00  0.00    -0.333 OA 
HETATM    8  O   UNL     1     -10.895  16.867  64.616  1.00  0.00    -0.864 OA 
HETATM    9  C   UNL     1     -10.990  15.105  68.359  1.00  0.00    -0.271 A  
HETATM   10  C   UNL     1     -12.157  13.874  66.134  1.00  0.00    -0.478 A  
HETATM   11  N   UNL     1     -11.443  15.758  64.685  1.00  0.00    -0.353 N  
HETATM   12  C   UNL     1     -10.953  15.743  67.117  1.00  0.00    -0.244 A  
ENDBRANCH   2   4
BRANCH   2  13
HETATM   13  C   UNL     1     -11.081  11.641  69.766  1.00  0.00    -0.044 C  
BRANCH  13  14
HETATM   14  N   UNL     1     -10.495  11.385  68.429  1.00  0.00    -0.192 N  
HETATM   15  C   UNL     1      -9.095  10.174  66.754  1.00  0.00    -0.139 C  
HETATM   16  C   UNL     1      -9.529  10.418  68.207  1.00  0.00    -0.148 C  
HETATM   17  H   UNL     1     -10.817  11.944  67.638  1.00  0.00     0.000 HD 
HETATM   18  O   UNL     1      -9.055   9.757  69.133  1.00  0.00    -0.146 OA 
HETATM   19 CL   UNL     1      -9.397  11.594  65.730  1.00  0.00    -0.237 Cl 
HETATM   20 CL   UNL     1      -9.952   8.755  66.125  1.00  0.00    -0.319 Cl 
ENDBRANCH  13  14
BRANCH  13  21
HETATM   21  C   UNL     1     -12.239  10.669  70.082  1.00  0.00    -0.320 C  
BRANCH  21  22
HETATM   22  O   UNL     1     -12.552  10.629  71.489  1.00  0.00    -0.388 OA 
BRANCH  22  23
HETATM   23  C   UNL     1     -13.123   9.477  71.928  1.00  0.00    -0.428 C  
HETATM   24  O   UNL     1     -14.051   9.410  72.725  1.00  0.00    -0.417 OA 
BRANCH  23  25
HETATM   25  C   UNL     1     -12.475   8.275  71.295  1.00  0.00    -0.264 C  
BRANCH  25  26
HETATM   26  C   UNL     1     -11.689   7.465  72.306  1.00  0.00    -0.326 C  
HETATM   27  C   UNL     1     -10.225   7.358  71.960  1.00  0.00    -0.191 C  
HETATM   28  O   UNL     1      -9.560   8.531  71.998  1.00  0.00    -0.246 OA 
HETATM   29  O   UNL     1      -9.678   6.298  71.699  1.00  0.00    -0.162 OA 
ENDBRANCH  25  26
ENDBRANCH  23  25
ENDBRANCH  22  23
ENDBRANCH  21  22
ENDBRANCH  13  21
ENDBRANCH   2  13
TORSDOF 8
ENDMDL
MODEL      188
REMARK 921   NORMALIZED FREE ENERGY PREDICTED BY IDOCK:   -4.60 KCAL/MOL
REMARK 922        TOTAL FREE ENERGY PREDICTED BY IDOCK:   -8.22 KCAL/MOL
REMARK 923 INTER-LIGAND FREE ENERGY PREDICTED BY IDOCK:   -6.97 KCAL/MOL
REMARK 924 INTRA-LIGAND FREE ENERGY PREDICTED BY IDOCK:   -1.24 KCAL/MOL
REMARK 927      BINDING AFFINITY PREDICTED BY RF-SCORE:    0.00 PKD
ROOT
HETATM    1  O   UNL     1      -9.178  10.313  66.740  1.00  0.00    -0.154 OA 
HETATM    2  C   UNL     1      -9.059   9.628  67.995  1.00  0.00    -0.125 C  
HETATM    3  H   UNL     1      -8.476  10.045  66.160  1.00  0.00     0.000 HD 
ENDROOT
BRANCH   2   4
HETATM    4  C   UNL     1      -9.020   8.150  67.668  1.00  0.00    -0.135 A  
HETATM    5  C   UNL     1      -8.829   5.440  66.955  1.00  0.00    -0.111 A  
HETATM    6  C   UNL     1      -8.069   7.315  68.280  1.00  0.00    -0.124 A  
HETATM    7  O   UNL     1      -7.795   3.366  67.071  1.00  0.00    -0.079 OA 
HETATM    8  O   UNL     1      -9.486   3.605  65.695  1.00  0.00    -0.157 OA 
HETATM    9  C   UNL     1      -9.887   7.598  66.708  1.00  0.00    -0.307 A  
HETATM   10  C   UNL     1      -7.970   5.965  67.928  1.00  0.00    -0.105 A  
HETATM   11  N   UNL     1      -8.693   4.037  66.545  1.00  0.00    -0.114 N  
HETATM   12  C   UNL     1      -9.797   6.250  66.350  1.00  0.00    -0.128 A  
ENDBRANCH   2   4
BRANCH   2  13
HETATM   13  C   UNL     1     -10.208  10.066  68.946  1.00  0.00    -0.193 C  
BRANCH  13  14
HETATM   14  N   UNL     1     -10.866   8.858  69.500  1.00  0.00    -0.362 N  
HETATM   15  C   UNL     1     -11.990   7.484  71.253  1.00  0.00    -0.307 C  
HETATM   16  C   UNL     1     -11.205   8.736  70.836  1.00  0.00    -0.270 C  
HETATM   17  H   UNL     1     -11.079   8.085  68.869  1.00  0.00     0.000 HD 
HETATM   18  O   UNL     1     -10.915   9.608  71.657  1.00  0.00    -0.322 OA 
HETATM   19 CL   UNL     1     -11.737   6.140  70.119  1.00  0.00    -0.290 Cl 
HETATM   20 CL   UNL     1     -13.712   7.892  71.367  1.00  0.00    -0.350 Cl 
ENDBRANCH  13  14
BRANCH  13  21
HETATM   21  C   UNL     1     -11.210  10.979  68.206  1.00  0.00    -0.277 C  
BRANCH  21  22
HETATM   22  O   UNL     1     -10.676  12.296  67.964  1.00  0.00    -0.205 OA 
BRANCH  22  23
HETATM   23  C   UNL     1     -11.594  13.295  67.893  1.00  0.00    -0.334 C  
HETATM   24  O   UNL     1     -12.336  13.637  68.806  1.00  0.00    -0.261 OA 
BRANCH  23  25
HETATM   25  C   UNL     1     -11.577  13.952  66.539  1.00  0.00    -0.385 C  
BRANCH  25  26
HETATM   26  C   UNL     1     -12.664  13.403  65.636  1.00  0.00    -0.432 C  
HETATM   27  C   UNL     1     -12.122  12.798  64.366  1.00  0.00    -0.416 C  
HETATM   28  O   UNL     1     -11.365  11.698  64.556  1.00  0.00    -0.308 OA 
HETATM   29  O   UNL     1     -12.369  13.245  63.257  1.00  0.00    -0.721 OA 
ENDBRANCH  25  26
ENDBRANCH  23  25
ENDBRANCH  22  23
ENDBRANCH  21  22
ENDBRANCH  13  21
ENDBRANCH   2  13
TORSDOF 8
ENDMDL
MODEL      189
REMARK 921   NORMALIZED FREE ENERGY PREDICTED BY IDOCK:   -4.58 KCAL/MOL
REMARK 922        TOTAL FREE ENERGY PREDICTED BY IDOCK:   -8.20 KCAL/MOL
REMARK 923 INTER-LIGAND FREE ENERGY PREDICTED BY IDOCK:   -6.78 KCAL/MOL
REMARK 924 INTRA-LIGAND FREE ENERGY PREDICTED BY IDOCK:   -1.42 KCAL/MOL
REMARK 927      BINDING AFFINITY PREDICTED BY RF-SCORE:    0.00 PKD
ROOT
HETATM    1  O   UNL     1      -9.011  10.492  69.665  1.00  0.00    -0.379 OA 
HETATM    2  C   UNL     1     -10.421  10.250  69.762  1.00  0.00    -0.259 C  
HETATM    3  H   UNL     1      -8.606  10.385  70.517  1.00  0.00     0.000 HD 
ENDROOT
BRANCH   2   4
HETATM    4  C   UNL     1     -10.572   8.876  70.382  1.00  0.00    -0.252 A  
HETATM    5  C   UNL     1     -10.757   6.378  71.653  1.00  0.00    -0.232 A  
HETATM    6  C   UNL     1     -11.530   8.654  71.386  1.00  0.00    -0.352 A  
HETATM    7  O   UNL     1     -11.640   4.973  73.275  1.00  0.00    -0.322 OA 
HETATM    8  O   UNL     1     -10.048   4.193  71.985  1.00  0.00    -0.175 OA 
HETATM    9  C   UNL     1      -9.723   7.818  70.012  1.00  0.00    -0.176 A  
HETATM   10  C   UNL     1     -11.626   7.412  72.022  1.00  0.00    -0.321 A  
HETATM   11  N   UNL     1     -10.820   5.089  72.355  1.00  0.00    -0.198 N  
HETATM   12  C   UNL     1      -9.812   6.572  70.640  1.00  0.00    -0.201 A  
ENDBRANCH   2   4
BRANCH   2  13
HETATM   13  C   UNL     1     -11.085  10.424  68.368  1.00  0.00    -0.268 C  
BRANCH  13  14
HETATM   14  N   UNL     1     -10.036  10.368  67.321  1.00  0.00    -0.191 N  
HETATM   15  C   UNL     1      -8.859   9.431  65.331  1.00  0.00    -0.184 C  
HETATM   16  C   UNL     1      -9.912   9.306  66.442  1.00  0.00    -0.286 C  
HETATM   17  H   UNL     1      -9.378  11.145  67.246  1.00  0.00     0.000 HD 
HETATM   18  O   UNL     1     -10.635   8.312  66.525  1.00  0.00    -0.193 OA 
HETATM   19 CL   UNL     1      -7.570  10.571  65.769  1.00  0.00    -0.147 Cl 
HETATM   20 CL   UNL     1      -9.658   9.936  63.830  1.00  0.00    -0.225 Cl 
ENDBRANCH  13  14
BRANCH  13  21
HETATM   21  C   UNL     1     -11.888  11.743  68.307  1.00  0.00    -0.271 C  
BRANCH  21  22
HETATM   22  O   UNL     1     -11.305  12.697  67.399  1.00  0.00    -0.276 OA 
BRANCH  22  23
HETATM   23  C   UNL     1     -10.414  13.562  67.952  1.00  0.00    -0.250 C  
HETATM   24  O   UNL     1      -9.354  13.243  68.475  1.00  0.00    -0.182 OA 
BRANCH  23  25
HETATM   25  C   UNL     1     -10.891  14.984  67.827  1.00  0.00    -0.284 C  
BRANCH  25  26
HETATM   26  C   UNL     1     -12.156  15.223  68.628  1.00  0.00    -0.160 C  
HETATM   27  C   UNL     1     -11.939  15.101  70.116  1.00  0.00    -0.334 C  
HETATM   28  O   UNL     1     -11.124  16.042  70.635  1.00  0.00    -0.348 OA 
HETATM   29  O   UNL     1     -12.477  14.245  70.799  1.00  0.00    -0.313 OA 
ENDBRANCH  25  26
ENDBRANCH  23  25
ENDBRANCH  22  23
ENDBRANCH  21  22
ENDBRANCH  13  21
ENDBRANCH   2  13
TORSDOF 8
ENDMDL
MODEL      190
REMARK 921   NORMALIZED FREE ENERGY PREDICTED BY IDOCK:   -4.57 KCAL/MOL
REMARK 922        TOTAL FREE ENERGY PREDICTED BY IDOCK:   -8.18 KCAL/MOL
REMARK 923 INTER-LIGAND FREE ENERGY PREDICTED BY IDOCK:   -7.10 KCAL/MOL
REMARK 924 INTRA-LIGAND FREE ENERGY PREDICTED BY IDOCK:   -1.07 KCAL/MOL
REMARK 927      BINDING AFFINITY PREDICTED BY RF-SCORE:    0.00 PKD
ROOT
HETATM    1  O   UNL     1      -7.899  10.053  67.530  1.00  0.00    -0.095 OA 
HETATM    2  C   UNL     1      -8.321   9.625  66.228  1.00  0.00    -0.116 C  
HETATM    3  H   UNL     1      -7.584  10.948  67.488  1.00  0.00     0.000 HD 
ENDROOT
BRANCH   2   4
HETATM    4  C   UNL     1      -9.336  10.645  65.756  1.00  0.00    -0.223 A  
HETATM    5  C   UNL     1     -11.331  12.422  64.890  1.00  0.00    -0.317 A  
HETATM    6  C   UNL     1     -10.135  11.332  66.687  1.00  0.00    -0.251 A  
HETATM    7  O   UNL     1     -13.123  13.839  65.302  1.00  0.00    -0.756 OA 
HETATM    8  O   UNL     1     -12.543  13.481  63.218  1.00  0.00    -0.773 OA 
HETATM    9  C   UNL     1      -9.542  10.880  64.385  1.00  0.00    -0.312 A  
HETATM   10  C   UNL     1     -11.129  12.218  66.261  1.00  0.00    -0.342 A  
HETATM   11  N   UNL     1     -12.409  13.311  64.438  1.00  0.00    -0.367 N  
HETATM   12  C   UNL     1     -10.532  11.765  63.948  1.00  0.00    -0.437 A  
ENDBRANCH   2   4
BRANCH   2  13
HETATM   13  C   UNL     1      -8.837   8.160  66.296  1.00  0.00    -0.164 C  
BRANCH  13  14
HETATM   14  N   UNL     1      -9.359   7.892  67.657  1.00  0.00    -0.142 N  
HETATM   15  C   UNL     1     -10.891   6.876  69.344  1.00  0.00    -0.249 C  
HETATM   16  C   UNL     1     -10.528   7.186  67.885  1.00  0.00    -0.212 C  
HETATM   17  H   UNL     1      -8.836   8.242  68.460  1.00  0.00     0.000 HD 
HETATM   18  O   UNL     1     -11.236   6.795  66.955  1.00  0.00    -0.393 OA 
HETATM   19 CL   UNL     1     -10.137   8.026  70.469  1.00  0.00    -0.191 Cl 
HETATM   20 CL   UNL     1     -10.400   5.215  69.723  1.00  0.00    -0.355 Cl 
ENDBRANCH  13  14
BRANCH  13  21
HETATM   21  C   UNL     1      -7.717   7.170  65.904  1.00  0.00    -0.101 C  
BRANCH  21  22
HETATM   22  O   UNL     1      -8.132   5.796  66.036  1.00  0.00    -0.104 OA 
BRANCH  22  23
HETATM   23  C   UNL     1      -8.612   5.219  64.903  1.00  0.00    -0.145 C  
HETATM   24  O   UNL     1      -8.360   5.589  63.763  1.00  0.00    -0.123 OA 
BRANCH  23  25
HETATM   25  C   UNL     1      -9.492   4.041  65.226  1.00  0.00    -0.172 C  
BRANCH  25  26
HETATM   26  C   UNL     1      -9.327   2.925  64.214  1.00  0.00    -0.133 C  
HETATM   27  C   UNL     1     -10.544   2.738  63.343  1.00  0.00    -0.224 C  
HETATM   28  O   UNL     1     -10.810   3.782  62.532  1.00  0.00    -0.192 OA 
HETATM   29  O   UNL     1     -11.215   1.719  63.346  1.00  0.00    -0.213 OA 
ENDBRANCH  25  26
ENDBRANCH  23  25
ENDBRANCH  22  23
ENDBRANCH  21  22
ENDBRANCH  13  21
ENDBRANCH   2  13
TORSDOF 8
ENDMDL
MODEL      191
REMARK 921   NORMALIZED FREE ENERGY PREDICTED BY IDOCK:   -4.56 KCAL/MOL
REMARK 922        TOTAL FREE ENERGY PREDICTED BY IDOCK:   -8.16 KCAL/MOL
REMARK 923 INTER-LIGAND FREE ENERGY PREDICTED BY IDOCK:   -7.71 KCAL/MOL
REMARK 924 INTRA-LIGAND FREE ENERGY PREDICTED BY IDOCK:   -0.45 KCAL/MOL
REMARK 927      BINDING AFFINITY PREDICTED BY RF-SCORE:    0.00 PKD
ROOT
HETATM    1  O   UNL     1     -10.839  16.328  65.893  1.00  0.00    -0.252 OA 
HETATM    2  C   UNL     1     -10.896  16.816  67.241  1.00  0.00    -0.137 C  
HETATM    3  H   UNL     1     -10.861  17.057  65.285  1.00  0.00     0.000 HD 
ENDROOT
BRANCH   2   4
HETATM    4  C   UNL     1      -9.760  17.808  67.380  1.00  0.00    -0.284 A  
HETATM    5  C   UNL     1      -7.555  19.522  67.670  1.00  0.00    -0.266 A  
HETATM    6  C   UNL     1      -8.893  18.047  66.299  1.00  0.00    -0.194 A  
HETATM    7  O   UNL     1      -5.607  20.499  66.868  1.00  0.00    -0.167 OA 
HETATM    8  O   UNL     1      -6.206  20.926  68.934  1.00  0.00    -0.285 OA 
HETATM    9  C   UNL     1      -9.513  18.460  68.601  1.00  0.00    -0.356 A  
HETATM   10  C   UNL     1      -7.793  18.899  66.438  1.00  0.00    -0.296 A  
HETATM   11  N   UNL     1      -6.371  20.377  67.835  1.00  0.00    -0.251 N  
HETATM   12  C   UNL     1      -8.418  19.315  68.751  1.00  0.00    -0.382 A  
ENDBRANCH   2   4
BRANCH   2  13
HETATM   13  C   UNL     1     -10.860  15.624  68.237  1.00  0.00    -0.298 C  
BRANCH  13  14
HETATM   14  N   UNL     1      -9.449  15.305  68.561  1.00  0.00    -0.194 N  
HETATM   15  C   UNL     1      -7.137  14.492  68.093  1.00  0.00    -0.122 C  
HETATM   16  C   UNL     1      -8.607  14.653  67.677  1.00  0.00    -0.176 C  
HETATM   17  H   UNL     1      -9.083  15.579  69.474  1.00  0.00     0.000 HD 
HETATM   18  O   UNL     1      -9.009  14.241  66.588  1.00  0.00    -0.245 OA 
HETATM   19 CL   UNL     1      -6.939  14.560  69.857  1.00  0.00    -0.113 Cl 
HETATM   20 CL   UNL     1      -6.172  15.754  67.306  1.00  0.00    -0.143 Cl 
ENDBRANCH  13  14
BRANCH  13  21
HETATM   21  C   UNL     1     -11.606  14.403  67.653  1.00  0.00    -0.370 C  
BRANCH  21  22
HETATM   22  O   UNL     1     -11.897  13.409  68.655  1.00  0.00    -0.329 OA 
BRANCH  22  23
HETATM   23  C   UNL     1     -11.820  12.118  68.237  1.00  0.00    -0.301 C  
HETATM   24  O   UNL     1     -12.073  11.728  67.104  1.00  0.00    -0.592 OA 
BRANCH  23  25
HETATM   25  C   UNL     1     -11.365  11.214  69.351  1.00  0.00    -0.352 C  
BRANCH  25  26
HETATM   26  C   UNL     1     -12.265  11.326  70.566  1.00  0.00    -0.474 C  
HETATM   27  C   UNL     1     -12.507   9.999  71.241  1.00  0.00    -0.392 C  
HETATM   28  O   UNL     1     -11.404   9.447  71.788  1.00  0.00    -0.379 OA 
HETATM   29  O   UNL     1     -13.609   9.481  71.315  1.00  0.00    -0.360 OA 
ENDBRANCH  25  26
ENDBRANCH  23  25
ENDBRANCH  22  23
ENDBRANCH  21  22
ENDBRANCH  13  21
ENDBRANCH   2  13
TORSDOF 8
ENDMDL
MODEL      192
REMARK 921   NORMALIZED FREE ENERGY PREDICTED BY IDOCK:   -4.56 KCAL/MOL
REMARK 922        TOTAL FREE ENERGY PREDICTED BY IDOCK:   -8.15 KCAL/MOL
REMARK 923 INTER-LIGAND FREE ENERGY PREDICTED BY IDOCK:   -6.99 KCAL/MOL
REMARK 924 INTRA-LIGAND FREE ENERGY PREDICTED BY IDOCK:   -1.17 KCAL/MOL
REMARK 927      BINDING AFFINITY PREDICTED BY RF-SCORE:    0.00 PKD
ROOT
HETATM    1  O   UNL     1      -9.623  10.507  69.612  1.00  0.00    -0.389 OA 
HETATM    2  C   UNL     1      -9.574   9.970  68.283  1.00  0.00    -0.140 C  
HETATM    3  H   UNL     1      -9.360  11.420  69.600  1.00  0.00     0.000 HD 
ENDROOT
BRANCH   2   4
HETATM    4  C   UNL     1     -10.433  10.878  67.428  1.00  0.00    -0.263 A  
HETATM    5  C   UNL     1     -11.901  12.665  65.834  1.00  0.00    -0.444 A  
HETATM    6  C   UNL     1     -10.336  10.832  66.027  1.00  0.00    -0.300 A  
HETATM    7  O   UNL     1     -12.452  13.586  63.776  1.00  0.00    -0.696 OA 
HETATM    8  O   UNL     1     -13.373  14.441  65.574  1.00  0.00    -0.518 OA 
HETATM    9  C   UNL     1     -11.295  11.823  68.015  1.00  0.00    -0.355 A  
HETATM   10  C   UNL     1     -11.064  11.719  65.228  1.00  0.00    -0.333 A  
HETATM   11  N   UNL     1     -12.627  13.633  65.001  1.00  0.00    -0.411 N  
HETATM   12  C   UNL     1     -12.029  12.713  67.227  1.00  0.00    -0.321 A  
ENDBRANCH   2   4
BRANCH   2  13
HETATM   13  C   UNL     1     -10.004   8.476  68.301  1.00  0.00    -0.184 C  
BRANCH  13  14
HETATM   14  N   UNL     1     -10.680   8.182  69.588  1.00  0.00    -0.294 N  
HETATM   15  C   UNL     1     -11.974   6.797  71.210  1.00  0.00    -0.365 C  
HETATM   16  C   UNL     1     -11.429   7.036  69.795  1.00  0.00    -0.130 C  
HETATM   17  H   UNL     1     -10.589   8.851  70.353  1.00  0.00     0.000 HD 
HETATM   18  O   UNL     1     -11.628   6.224  68.890  1.00  0.00    -0.227 OA 
HETATM   19 CL   UNL     1     -12.122   8.313  72.125  1.00  0.00    -0.396 Cl 
HETATM   20 CL   UNL     1     -10.911   5.657  72.055  1.00  0.00    -0.307 Cl 
ENDBRANCH  13  14
BRANCH  13  21
HETATM   21  C   UNL     1      -8.785   7.556  68.068  1.00  0.00    -0.121 C  
BRANCH  21  22
HETATM   22  O   UNL     1      -7.681   7.879  68.936  1.00  0.00    -0.101 OA 
BRANCH  22  23
HETATM   23  C   UNL     1      -6.554   8.313  68.312  1.00  0.00    -0.060 C  
HETATM   24  O   UNL     1      -6.432   8.463  67.103  1.00  0.00    -0.056 OA 
BRANCH  23  25
HETATM   25  C   UNL     1      -5.462   8.605  69.306  1.00  0.00    -0.035 C  
BRANCH  25  26
HETATM   26  C   UNL     1      -6.023   9.096  70.626  1.00  0.00    -0.044 C  
HETATM   27  C   UNL     1      -5.869  10.585  70.811  1.00  0.00    -0.093 C  
HETATM   28  O   UNL     1      -6.579  11.328  69.938  1.00  0.00    -0.139 OA 
HETATM   29  O   UNL     1      -5.185  11.078  71.694  1.00  0.00    -0.265 OA 
ENDBRANCH  25  26
ENDBRANCH  23  25
ENDBRANCH  22  23
ENDBRANCH  21  22
ENDBRANCH  13  21
ENDBRANCH   2  13
TORSDOF 8
ENDMDL
MODEL      193
REMARK 921   NORMALIZED FREE ENERGY PREDICTED BY IDOCK:   -4.54 KCAL/MOL
REMARK 922        TOTAL FREE ENERGY PREDICTED BY IDOCK:   -8.13 KCAL/MOL
REMARK 923 INTER-LIGAND FREE ENERGY PREDICTED BY IDOCK:   -8.12 KCAL/MOL
REMARK 924 INTRA-LIGAND FREE ENERGY PREDICTED BY IDOCK:   -0.01 KCAL/MOL
REMARK 927      BINDING AFFINITY PREDICTED BY RF-SCORE:    0.00 PKD
ROOT
HETATM    1  O   UNL     1      -8.886  10.179  69.019  1.00  0.00    -0.145 OA 
HETATM    2  C   UNL     1     -10.123  10.362  69.722  1.00  0.00    -0.157 C  
HETATM    3  H   UNL     1      -8.187  10.004  69.638  1.00  0.00     0.000 HD 
ENDROOT
BRANCH   2   4
HETATM    4  C   UNL     1     -10.311   9.125  70.575  1.00  0.00    -0.288 A  
HETATM    5  C   UNL     1     -10.765   6.915  72.248  1.00  0.00    -0.223 A  
HETATM    6  C   UNL     1     -11.397   8.263  70.342  1.00  0.00    -0.177 A  
HETATM    7  O   UNL     1     -12.041   5.103  72.937  1.00  0.00    -0.169 OA 
HETATM    8  O   UNL     1     -10.236   5.593  74.081  1.00  0.00    -0.223 OA 
HETATM    9  C   UNL     1      -9.446   8.848  71.649  1.00  0.00    -0.351 A  
HETATM   10  C   UNL     1     -11.627   7.161  71.172  1.00  0.00    -0.336 A  
HETATM   11  N   UNL     1     -11.033   5.790  73.153  1.00  0.00    -0.272 N  
HETATM   12  C   UNL     1      -9.666   7.749  72.483  1.00  0.00    -0.262 A  
ENDBRANCH   2   4
BRANCH   2  13
HETATM   13  C   UNL     1     -11.268  10.650  68.711  1.00  0.00    -0.279 C  
BRANCH  13  14
HETATM   14  N   UNL     1     -10.677  11.066  67.415  1.00  0.00    -0.240 N  
HETATM   15  C   UNL     1     -10.533  12.385  65.303  1.00  0.00    -0.286 C  
HETATM   16  C   UNL     1     -11.309  11.946  66.553  1.00  0.00    -0.341 C  
HETATM   17  H   UNL     1      -9.767  10.688  67.149  1.00  0.00     0.000 HD 
HETATM   18  O   UNL     1     -12.435  12.383  66.790  1.00  0.00    -0.294 OA 
HETATM   19 CL   UNL     1      -9.287  11.202  64.850  1.00  0.00    -0.234 Cl 
HETATM   20 CL   UNL     1      -9.808  13.975  65.600  1.00  0.00    -0.291 Cl 
ENDBRANCH  13  14
BRANCH  13  21
HETATM   21  C   UNL     1     -12.235  11.716  69.270  1.00  0.00    -0.164 C  
BRANCH  21  22
HETATM   22  O   UNL     1     -11.952  12.044  70.645  1.00  0.00    -0.331 OA 
BRANCH  22  23
HETATM   23  C   UNL     1     -12.769  12.976  71.204  1.00  0.00    -0.283 C  
HETATM   24  O   UNL     1     -13.662  12.738  72.007  1.00  0.00    -0.413 OA 
BRANCH  23  25
HETATM   25  C   UNL     1     -12.426  14.359  70.718  1.00  0.00    -0.423 C  
BRANCH  25  26
HETATM   26  C   UNL     1     -13.295  15.413  71.374  1.00  0.00    -0.601 C  
HETATM   27  C   UNL     1     -12.659  16.017  72.601  1.00  0.00    -0.463 C  
HETATM   28  O   UNL     1     -11.539  16.725  72.352  1.00  0.00    -0.348 OA 
HETATM   29  O   UNL     1     -13.131  15.902  73.721  1.00  0.00    -0.529 OA 
ENDBRANCH  25  26
ENDBRANCH  23  25
ENDBRANCH  22  23
ENDBRANCH  21  22
ENDBRANCH  13  21
ENDBRANCH   2  13
TORSDOF 8
ENDMDL
MODEL      194
REMARK 921   NORMALIZED FREE ENERGY PREDICTED BY IDOCK:   -4.54 KCAL/MOL
REMARK 922        TOTAL FREE ENERGY PREDICTED BY IDOCK:   -8.13 KCAL/MOL
REMARK 923 INTER-LIGAND FREE ENERGY PREDICTED BY IDOCK:   -7.13 KCAL/MOL
REMARK 924 INTRA-LIGAND FREE ENERGY PREDICTED BY IDOCK:   -1.00 KCAL/MOL
REMARK 927      BINDING AFFINITY PREDICTED BY RF-SCORE:    0.00 PKD
ROOT
HETATM    1  O   UNL     1      -9.829  10.403  69.731  1.00  0.00    -0.368 OA 
HETATM    2  C   UNL     1      -9.748   9.710  68.477  1.00  0.00    -0.150 C  
HETATM    3  H   UNL     1      -9.489  11.284  69.635  1.00  0.00     0.000 HD 
ENDROOT
BRANCH   2   4
HETATM    4  C   UNL     1     -10.473  10.576  67.468  1.00  0.00    -0.284 A  
HETATM    5  C   UNL     1     -11.684  12.274  65.587  1.00  0.00    -0.382 A  
HETATM    6  C   UNL     1     -10.284  10.368  66.091  1.00  0.00    -0.288 A  
HETATM    7  O   UNL     1     -12.019  12.998  63.407  1.00  0.00    -0.542 OA 
HETATM    8  O   UNL     1     -12.991  14.109  65.029  1.00  0.00    -0.721 OA 
HETATM    9  C   UNL     1     -11.296  11.638  67.885  1.00  0.00    -0.369 A  
HETATM   10  C   UNL     1     -10.884  11.210  65.151  1.00  0.00    -0.229 A  
HETATM   11  N   UNL     1     -12.273  13.192  64.604  1.00  0.00    -0.400 N  
HETATM   12  C   UNL     1     -11.903  12.485  66.953  1.00  0.00    -0.404 A  
ENDBRANCH   2   4
BRANCH   2  13
HETATM   13  C   UNL     1     -10.304   8.268  68.634  1.00  0.00    -0.200 C  
BRANCH  13  14
HETATM   14  N   UNL     1     -10.215   7.865  70.058  1.00  0.00    -0.203 N  
HETATM   15  C   UNL     1     -10.772   6.506  72.075  1.00  0.00    -0.223 C  
HETATM   16  C   UNL     1     -11.051   6.916  70.622  1.00  0.00    -0.278 C  
HETATM   17  H   UNL     1      -9.507   8.305  70.647  1.00  0.00     0.000 HD 
HETATM   18  O   UNL     1     -11.965   6.398  69.978  1.00  0.00    -0.333 OA 
HETATM   19 CL   UNL     1      -9.891   7.769  72.959  1.00  0.00    -0.315 Cl 
HETATM   20 CL   UNL     1      -9.860   4.985  72.082  1.00  0.00    -0.211 Cl 
ENDBRANCH  13  14
BRANCH  13  21
HETATM   21  C   UNL     1      -9.546   7.288  67.710  1.00  0.00    -0.138 C  
BRANCH  21  22
HETATM   22  O   UNL     1      -8.388   6.718  68.350  1.00  0.00    -0.121 OA 
BRANCH  22  23
HETATM   23  C   UNL     1      -8.081   5.447  67.979  1.00  0.00    -0.096 C  
HETATM   24  O   UNL     1      -7.025   5.099  67.465  1.00  0.00    -0.062 OA 
BRANCH  23  25
HETATM   25  C   UNL     1      -9.209   4.502  68.295  1.00  0.00    -0.174 C  
BRANCH  25  26
HETATM   26  C   UNL     1      -9.526   3.596  67.122  1.00  0.00    -0.229 C  
HETATM   27  C   UNL     1      -9.096   2.169  67.351  1.00  0.00    -0.144 C  
HETATM   28  O   UNL     1      -9.759   1.544  68.345  1.00  0.00    -0.188 OA 
HETATM   29  O   UNL     1      -8.242   1.614  66.677  1.00  0.00    -0.072 OA 
ENDBRANCH  25  26
ENDBRANCH  23  25
ENDBRANCH  22  23
ENDBRANCH  21  22
ENDBRANCH  13  21
ENDBRANCH   2  13
TORSDOF 8
ENDMDL
MODEL      195
REMARK 921   NORMALIZED FREE ENERGY PREDICTED BY IDOCK:   -4.52 KCAL/MOL
REMARK 922        TOTAL FREE ENERGY PREDICTED BY IDOCK:   -8.11 KCAL/MOL
REMARK 923 INTER-LIGAND FREE ENERGY PREDICTED BY IDOCK:   -6.88 KCAL/MOL
REMARK 924 INTRA-LIGAND FREE ENERGY PREDICTED BY IDOCK:   -1.23 KCAL/MOL
REMARK 927      BINDING AFFINITY PREDICTED BY RF-SCORE:    0.00 PKD
ROOT
HETATM    1  O   UNL     1     -11.266  18.119  68.224  1.00  0.00    -0.058 OA 
HETATM    2  C   UNL     1      -9.971  17.909  68.805  1.00  0.00    -0.376 C  
HETATM    3  H   UNL     1     -11.470  19.047  68.218  1.00  0.00     0.000 HD 
ENDROOT
BRANCH   2   4
HETATM    4  C   UNL     1      -9.010  18.777  68.020  1.00  0.00    -0.326 A  
HETATM    5  C   UNL     1      -7.162  20.249  66.502  1.00  0.00    -0.266 A  
HETATM    6  C   UNL     1      -9.285  19.106  66.681  1.00  0.00    -0.367 A  
HETATM    7  O   UNL     1      -6.444  21.179  64.500  1.00  0.00    -0.228 OA 
HETATM    8  O   UNL     1      -5.128  21.337  66.247  1.00  0.00    -0.193 OA 
HETATM    9  C   UNL     1      -7.801  19.217  68.589  1.00  0.00    -0.390 A  
HETATM   10  C   UNL     1      -8.369  19.838  65.921  1.00  0.00    -0.211 A  
HETATM   11  N   UNL     1      -6.174  20.974  65.691  1.00  0.00    -0.238 N  
HETATM   12  C   UNL     1      -6.879  19.951  67.839  1.00  0.00    -0.296 A  
ENDBRANCH   2   4
BRANCH   2  13
HETATM   13  C   UNL     1      -9.637  16.392  68.816  1.00  0.00    -0.249 C  
BRANCH  13  14
HETATM   14  N   UNL     1      -8.248  16.198  68.337  1.00  0.00    -0.165 N  
HETATM   15  C   UNL     1      -5.965  15.190  68.333  1.00  0.00    -0.105 C  
HETATM   16  C   UNL     1      -7.331  15.400  69.001  1.00  0.00    -0.159 C  
HETATM   17  H   UNL     1      -7.954  16.671  67.482  1.00  0.00     0.000 HD 
HETATM   18  O   UNL     1      -7.607  14.855  70.071  1.00  0.00    -0.064 OA 
HETATM   19 CL   UNL     1      -5.571  16.508  67.209  1.00  0.00    -0.175 Cl 
HETATM   20 CL   UNL     1      -5.966  13.629  67.491  1.00  0.00    -0.076 Cl 
ENDBRANCH  13  14
BRANCH  13  21
HETATM   21  C   UNL     1     -10.655  15.603  67.962  1.00  0.00    -0.271 C  
BRANCH  21  22
HETATM   22  O   UNL     1     -10.745  16.106  66.614  1.00  0.00    -0.306 OA 
BRANCH  22  23
HETATM   23  C   UNL     1     -10.799  15.160  65.640  1.00  0.00    -0.360 C  
HETATM   24  O   UNL     1     -11.298  15.317  64.533  1.00  0.00    -0.366 OA 
BRANCH  23  25
HETATM   25  C   UNL     1     -10.148  13.880  66.091  1.00  0.00    -0.317 C  
BRANCH  25  26
HETATM   26  C   UNL     1     -10.932  12.664  65.638  1.00  0.00    -0.313 C  
HETATM   27  C   UNL     1     -11.322  11.759  66.780  1.00  0.00    -0.320 C  
HETATM   28  O   UNL     1     -12.189  12.313  67.653  1.00  0.00    -0.442 OA 
HETATM   29  O   UNL     1     -10.915  10.614  66.892  1.00  0.00    -0.243 OA 
ENDBRANCH  25  26
ENDBRANCH  23  25
ENDBRANCH  22  23
ENDBRANCH  21  22
ENDBRANCH  13  21
ENDBRANCH   2  13
TORSDOF 8
ENDMDL
MODEL      196
REMARK 921   NORMALIZED FREE ENERGY PREDICTED BY IDOCK:   -4.52 KCAL/MOL
REMARK 922        TOTAL FREE ENERGY PREDICTED BY IDOCK:   -8.10 KCAL/MOL
REMARK 923 INTER-LIGAND FREE ENERGY PREDICTED BY IDOCK:   -7.16 KCAL/MOL
REMARK 924 INTRA-LIGAND FREE ENERGY PREDICTED BY IDOCK:   -0.94 KCAL/MOL
REMARK 927      BINDING AFFINITY PREDICTED BY RF-SCORE:    0.00 PKD
ROOT
HETATM    1  O   UNL     1      -9.733   8.949  69.583  1.00  0.00    -0.168 OA 
HETATM    2  C   UNL     1     -11.135   8.716  69.779  1.00  0.00    -0.067 C  
HETATM    3  H   UNL     1      -9.607   9.715  69.037  1.00  0.00     0.000 HD 
ENDROOT
BRANCH   2   4
HETATM    4  C   UNL     1     -11.703  10.005  70.335  1.00  0.00    -0.365 A  
HETATM    5  C   UNL     1     -12.892  12.367  71.281  1.00  0.00    -0.240 A  
HETATM    6  C   UNL     1     -12.553   9.980  71.454  1.00  0.00    -0.518 A  
HETATM    7  O   UNL     1     -14.344  13.498  72.694  1.00  0.00    -0.716 OA 
HETATM    8  O   UNL     1     -13.288  14.651  71.156  1.00  0.00    -0.357 OA 
HETATM    9  C   UNL     1     -11.444  11.239  69.711  1.00  0.00    -0.386 A  
HETATM   10  C   UNL     1     -13.147  11.153  71.929  1.00  0.00    -0.513 A  
HETATM   11  N   UNL     1     -13.556  13.593  71.744  1.00  0.00    -0.376 N  
HETATM   12  C   UNL     1     -12.031  12.418  70.178  1.00  0.00    -0.376 A  
ENDBRANCH   2   4
BRANCH   2  13
HETATM   13  C   UNL     1     -11.342   7.461  70.671  1.00  0.00    -0.281 C  
BRANCH  13  14
HETATM   14  N   UNL     1     -10.337   7.470  71.762  1.00  0.00    -0.192 N  
HETATM   15  C   UNL     1      -9.311   6.732  73.913  1.00  0.00    -0.193 C  
HETATM   16  C   UNL     1     -10.482   6.724  72.919  1.00  0.00    -0.234 C  
HETATM   17  H   UNL     1      -9.504   8.051  71.655  1.00  0.00     0.000 HD 
HETATM   18  O   UNL     1     -11.494   6.056  73.133  1.00  0.00    -0.146 OA 
HETATM   19 CL   UNL     1      -8.303   8.184  73.733  1.00  0.00    -0.307 Cl 
HETATM   20 CL   UNL     1      -8.343   5.265  73.679  1.00  0.00    -0.112 Cl 
ENDBRANCH  13  14
BRANCH  13  21
HETATM   21  C   UNL     1     -11.261   6.171  69.826  1.00  0.00    -0.423 C  
BRANCH  21  22
HETATM   22  O   UNL     1     -11.215   6.445  68.412  1.00  0.00    -0.320 OA 
BRANCH  22  23
HETATM   23  C   UNL     1     -10.630   5.484  67.649  1.00  0.00    -0.164 C  
HETATM   24  O   UNL     1     -10.748   5.381  66.434  1.00  0.00    -0.297 OA 
BRANCH  23  25
HETATM   25  C   UNL     1      -9.796   4.557  68.491  1.00  0.00    -0.160 C  
BRANCH  25  26
HETATM   26  C   UNL     1      -8.566   4.078  67.745  1.00  0.00    -0.108 C  
HETATM   27  C   UNL     1      -7.689   3.177  68.578  1.00  0.00    -0.054 C  
HETATM   28  O   UNL     1      -8.261   2.002  68.911  1.00  0.00    -0.051 OA 
HETATM   29  O   UNL     1      -6.548   3.470  68.899  1.00  0.00    -0.038 OA 
ENDBRANCH  25  26
ENDBRANCH  23  25
ENDBRANCH  22  23
ENDBRANCH  21  22
ENDBRANCH  13  21
ENDBRANCH   2  13
TORSDOF 8
ENDMDL
MODEL      197
REMARK 921   NORMALIZED FREE ENERGY PREDICTED BY IDOCK:   -4.50 KCAL/MOL
REMARK 922        TOTAL FREE ENERGY PREDICTED BY IDOCK:   -8.08 KCAL/MOL
REMARK 923 INTER-LIGAND FREE ENERGY PREDICTED BY IDOCK:   -7.96 KCAL/MOL
REMARK 924 INTRA-LIGAND FREE ENERGY PREDICTED BY IDOCK:   -0.12 KCAL/MOL
REMARK 927      BINDING AFFINITY PREDICTED BY RF-SCORE:    0.00 PKD
ROOT
HETATM    1  O   UNL     1     -13.128  13.343  65.382  1.00  0.00    -0.618 OA 
HETATM    2  C   UNL     1     -11.744  13.721  65.368  1.00  0.00    -0.335 C  
HETATM    3  H   UNL     1     -13.389  13.045  64.520  1.00  0.00     0.000 HD 
ENDROOT
BRANCH   2   4
HETATM    4  C   UNL     1     -10.984  12.522  64.841  1.00  0.00    -0.335 A  
HETATM    5  C   UNL     1      -9.446  10.347  63.949  1.00  0.00    -0.304 A  
HETATM    6  C   UNL     1     -10.900  11.345  65.604  1.00  0.00    -0.280 A  
HETATM    7  O   UNL     1      -8.513   8.244  64.255  1.00  0.00    -0.108 OA 
HETATM    8  O   UNL     1      -8.023   9.338  62.418  1.00  0.00    -0.117 OA 
HETATM    9  C   UNL     1     -10.300  12.581  63.613  1.00  0.00    -0.382 A  
HETATM   10  C   UNL     1     -10.135  10.260  65.165  1.00  0.00    -0.355 A  
HETATM   11  N   UNL     1      -8.600   9.230  63.510  1.00  0.00    -0.203 N  
HETATM   12  C   UNL     1      -9.535  11.502  63.163  1.00  0.00    -0.332 A  
ENDBRANCH   2   4
BRANCH   2  13
HETATM   13  C   UNL     1     -11.315  14.208  66.780  1.00  0.00    -0.343 C  
BRANCH  13  14
HETATM   14  N   UNL     1     -10.964  15.647  66.710  1.00  0.00    -0.279 N  
HETATM   15  C   UNL     1     -10.605  17.946  67.612  1.00  0.00    -0.387 C  
HETATM   16  C   UNL     1     -11.121  16.509  67.782  1.00  0.00    -0.179 C  
HETATM   17  H   UNL     1     -10.590  16.018  65.836  1.00  0.00     0.000 HD 
HETATM   18  O   UNL     1     -11.627  16.135  68.841  1.00  0.00    -0.357 OA 
HETATM   19 CL   UNL     1     -10.526  18.420  65.902  1.00  0.00    -0.425 Cl 
HETATM   20 CL   UNL     1      -9.010  18.083  68.375  1.00  0.00    -0.279 Cl 
ENDBRANCH  13  14
BRANCH  13  21
HETATM   21  C   UNL     1     -10.145  13.356  67.319  1.00  0.00    -0.238 C  
BRANCH  21  22
HETATM   22  O   UNL     1     -10.395  12.862  68.649  1.00  0.00    -0.240 OA 
BRANCH  22  23
HETATM   23  C   UNL     1     -10.127  11.543  68.843  1.00  0.00    -0.127 C  
HETATM   24  O   UNL     1      -9.031  11.018  68.695  1.00  0.00    -0.160 OA 
BRANCH  23  25
HETATM   25  C   UNL     1     -11.359  10.799  69.282  1.00  0.00    -0.352 C  
BRANCH  25  26
HETATM   26  C   UNL     1     -11.023   9.411  69.790  1.00  0.00    -0.234 C  
HETATM   27  C   UNL     1     -11.474   9.182  71.211  1.00  0.00    -0.335 C  
HETATM   28  O   UNL     1     -12.812   9.199  71.377  1.00  0.00    -0.320 OA 
HETATM   29  O   UNL     1     -10.698   8.968  72.129  1.00  0.00    -0.332 OA 
ENDBRANCH  25  26
ENDBRANCH  23  25
ENDBRANCH  22  23
ENDBRANCH  21  22
ENDBRANCH  13  21
ENDBRANCH   2  13
TORSDOF 8
ENDMDL
MODEL      198
REMARK 921   NORMALIZED FREE ENERGY PREDICTED BY IDOCK:   -4.50 KCAL/MOL
REMARK 922        TOTAL FREE ENERGY PREDICTED BY IDOCK:   -8.08 KCAL/MOL
REMARK 923 INTER-LIGAND FREE ENERGY PREDICTED BY IDOCK:   -7.49 KCAL/MOL
REMARK 924 INTRA-LIGAND FREE ENERGY PREDICTED BY IDOCK:   -0.59 KCAL/MOL
REMARK 927      BINDING AFFINITY PREDICTED BY RF-SCORE:    0.00 PKD
ROOT
HETATM    1  O   UNL     1     -12.546  11.039  69.927  1.00  0.00    -0.261 OA 
HETATM    2  C   UNL     1     -11.353  11.693  69.474  1.00  0.00    -0.260 C  
HETATM    3  H   UNL     1     -13.282  11.636  69.871  1.00  0.00     0.000 HD 
ENDROOT
BRANCH   2   4
HETATM    4  C   UNL     1     -11.658  12.214  68.085  1.00  0.00    -0.397 A  
HETATM    5  C   UNL     1     -12.068  13.220  65.495  1.00  0.00    -0.435 A  
HETATM    6  C   UNL     1     -11.421  11.407  66.958  1.00  0.00    -0.234 A  
HETATM    7  O   UNL     1     -11.945  13.026  63.185  1.00  0.00    -0.534 OA 
HETATM    8  O   UNL     1     -12.646  14.925  64.029  1.00  0.00    -0.832 OA 
HETATM    9  C   UNL     1     -12.124  13.527  67.890  1.00  0.00    -0.304 A  
HETATM   10  C   UNL     1     -11.623  11.903  65.667  1.00  0.00    -0.275 A  
HETATM   11  N   UNL     1     -12.231  13.762  64.140  1.00  0.00    -0.425 N  
HETATM   12  C   UNL     1     -12.332  14.032  66.604  1.00  0.00    -0.408 A  
ENDBRANCH   2   4
BRANCH   2  13
HETATM   13  C   UNL     1     -10.147  10.717  69.565  1.00  0.00    -0.132 C  
BRANCH  13  14
HETATM   14  N   UNL     1      -9.026  11.253  68.757  1.00  0.00    -0.309 N  
HETATM   15  C   UNL     1      -6.644  11.507  68.061  1.00  0.00    -0.058 C  
HETATM   16  C   UNL     1      -7.699  10.990  69.049  1.00  0.00    -0.132 C  
HETATM   17  H   UNL     1      -9.242  11.841  67.950  1.00  0.00     0.000 HD 
HETATM   18  O   UNL     1      -7.375  10.341  70.045  1.00  0.00    -0.155 OA 
HETATM   19 CL   UNL     1      -7.244  12.888  67.118  1.00  0.00    -0.060 Cl 
HETATM   20 CL   UNL     1      -6.155  10.182  66.989  1.00  0.00    -0.054 Cl 
ENDBRANCH  13  14
BRANCH  13  21
HETATM   21  C   UNL     1     -10.558   9.299  69.110  1.00  0.00    -0.212 C  
BRANCH  21  22
HETATM   22  O   UNL     1     -10.309   8.305  70.123  1.00  0.00    -0.203 OA 
BRANCH  22  23
HETATM   23  C   UNL     1     -11.395   7.923  70.846  1.00  0.00    -0.277 C  
HETATM   24  O   UNL     1     -12.207   8.685  71.354  1.00  0.00    -0.293 OA 
BRANCH  23  25
HETATM   25  C   UNL     1     -11.486   6.422  70.934  1.00  0.00    -0.406 C  
BRANCH  25  26
HETATM   26  C   UNL     1     -10.115   5.777  70.938  1.00  0.00    -0.256 C  
HETATM   27  C   UNL     1      -9.969   4.703  69.889  1.00  0.00    -0.226 C  
HETATM   28  O   UNL     1     -10.038   5.154  68.621  1.00  0.00    -0.172 OA 
HETATM   29  O   UNL     1      -9.776   3.529  70.162  1.00  0.00    -0.180 OA 
ENDBRANCH  25  26
ENDBRANCH  23  25
ENDBRANCH  22  23
ENDBRANCH  21  22
ENDBRANCH  13  21
ENDBRANCH   2  13
TORSDOF 8
ENDMDL
MODEL      199
REMARK 921   NORMALIZED FREE ENERGY PREDICTED BY IDOCK:   -4.50 KCAL/MOL
REMARK 922        TOTAL FREE ENERGY PREDICTED BY IDOCK:   -8.08 KCAL/MOL
REMARK 923 INTER-LIGAND FREE ENERGY PREDICTED BY IDOCK:   -8.10 KCAL/MOL
REMARK 924 INTRA-LIGAND FREE ENERGY PREDICTED BY IDOCK:    0.02 KCAL/MOL
REMARK 927      BINDING AFFINITY PREDICTED BY RF-SCORE:    0.00 PKD
ROOT
HETATM    1  O   UNL     1      -8.228  12.055  68.871  1.00  0.00    -0.342 OA 
HETATM    2  C   UNL     1      -8.746  10.952  68.115  1.00  0.00    -0.133 C  
HETATM    3  H   UNL     1      -7.897  12.723  68.282  1.00  0.00     0.000 HD 
ENDROOT
BRANCH   2   4
HETATM    4  C   UNL     1      -9.767  11.536  67.161  1.00  0.00    -0.199 A  
HETATM    5  C   UNL     1     -11.543  12.713  65.332  1.00  0.00    -0.363 A  
HETATM    6  C   UNL     1      -9.876  11.041  65.850  1.00  0.00    -0.278 A  
HETATM    7  O   UNL     1     -12.439  12.923  63.201  1.00  0.00    -0.641 OA 
HETATM    8  O   UNL     1     -13.126  14.310  64.754  1.00  0.00    -0.599 OA 
HETATM    9  C   UNL     1     -10.579  12.619  67.544  1.00  0.00    -0.236 A  
HETATM   10  C   UNL     1     -10.758  11.624  64.935  1.00  0.00    -0.352 A  
HETATM   11  N   UNL     1     -12.433  13.362  64.359  1.00  0.00    -0.317 N  
HETATM   12  C   UNL     1     -11.466  13.207  66.639  1.00  0.00    -0.389 A  
ENDBRANCH   2   4
BRANCH   2  13
HETATM   13  C   UNL     1      -9.287   9.860  69.078  1.00  0.00    -0.174 C  
BRANCH  13  14
HETATM   14  N   UNL     1      -8.871   8.526  68.582  1.00  0.00    -0.135 N  
HETATM   15  C   UNL     1      -9.048   6.459  67.195  1.00  0.00    -0.120 C  
HETATM   16  C   UNL     1      -9.652   7.767  67.726  1.00  0.00    -0.146 C  
HETATM   17  H   UNL     1      -7.970   8.151  68.883  1.00  0.00     0.000 HD 
HETATM   18  O   UNL     1     -10.775   8.138  67.380  1.00  0.00    -0.269 OA 
HETATM   19 CL   UNL     1      -7.778   5.835  68.268  1.00  0.00    -0.092 Cl 
HETATM   20 CL   UNL     1      -8.409   6.737  65.564  1.00  0.00    -0.145 Cl 
ENDBRANCH  13  14
BRANCH  13  21
HETATM   21  C   UNL     1     -10.822   9.968  69.216  1.00  0.00    -0.230 C  
BRANCH  21  22
HETATM   22  O   UNL     1     -11.215  10.869  70.271  1.00  0.00    -0.283 OA 
BRANCH  22  23
HETATM   23  C   UNL     1     -11.894  10.301  71.302  1.00  0.00    -0.335 C  
HETATM   24  O   UNL     1     -12.962  10.702  71.747  1.00  0.00    -0.438 OA 
BRANCH  23  25
HETATM   25  C   UNL     1     -11.169   9.091  71.828  1.00  0.00    -0.448 C  
BRANCH  25  26
HETATM   26  C   UNL     1     -12.133   8.046  72.354  1.00  0.00    -0.374 C  
HETATM   27  C   UNL     1     -12.890   7.341  71.256  1.00  0.00    -0.346 C  
HETATM   28  O   UNL     1     -12.117   6.592  70.444  1.00  0.00    -0.374 OA 
HETATM   29  O   UNL     1     -14.102   7.416  71.129  1.00  0.00    -0.345 OA 
ENDBRANCH  25  26
ENDBRANCH  23  25
ENDBRANCH  22  23
ENDBRANCH  21  22
ENDBRANCH  13  21
ENDBRANCH   2  13
TORSDOF 8
ENDMDL
MODEL      200
REMARK 921   NORMALIZED FREE ENERGY PREDICTED BY IDOCK:   -4.50 KCAL/MOL
REMARK 922        TOTAL FREE ENERGY PREDICTED BY IDOCK:   -8.08 KCAL/MOL
REMARK 923 INTER-LIGAND FREE ENERGY PREDICTED BY IDOCK:   -7.22 KCAL/MOL
REMARK 924 INTRA-LIGAND FREE ENERGY PREDICTED BY IDOCK:   -0.86 KCAL/MOL
REMARK 927      BINDING AFFINITY PREDICTED BY RF-SCORE:    0.00 PKD
ROOT
HETATM    1  O   UNL     1      -7.958  10.774  68.313  1.00  0.00    -0.109 OA 
HETATM    2  C   UNL     1      -9.123  11.070  69.097  1.00  0.00     0.010 C  
HETATM    3  H   UNL     1      -7.325  10.305  68.842  1.00  0.00     0.000 HD 
ENDROOT
BRANCH   2   4
HETATM    4  C   UNL     1      -9.603   9.746  69.656  1.00  0.00    -0.239 A  
HETATM    5  C   UNL     1     -10.619   7.302  70.593  1.00  0.00    -0.226 A  
HETATM    6  C   UNL     1      -9.316   8.547  68.981  1.00  0.00    -0.146 A  
HETATM    7  O   UNL     1     -10.960   5.016  70.380  1.00  0.00     0.037 OA 
HETATM    8  O   UNL     1     -11.879   6.046  72.084  1.00  0.00    -0.312 OA 
HETATM    9  C   UNL     1     -10.391   9.695  70.819  1.00  0.00    -0.356 A  
HETATM   10  C   UNL     1      -9.819   7.327  69.443  1.00  0.00    -0.163 A  
HETATM   11  N   UNL     1     -11.193   6.030  71.051  1.00  0.00    -0.289 N  
HETATM   12  C   UNL     1     -10.898   8.481  71.291  1.00  0.00    -0.312 A  
ENDBRANCH   2   4
BRANCH   2  13
HETATM   13  C   UNL     1     -10.160  11.838  68.232  1.00  0.00    -0.197 C  
BRANCH  13  14
HETATM   14  N   UNL     1     -10.054  11.379  66.825  1.00  0.00    -0.211 N  
HETATM   15  C   UNL     1     -10.784  11.141  64.451  1.00  0.00    -0.318 C  
HETATM   16  C   UNL     1     -11.071  11.555  65.902  1.00  0.00    -0.214 C  
HETATM   17  H   UNL     1      -9.196  10.915  66.525  1.00  0.00     0.000 HD 
HETATM   18  O   UNL     1     -12.153  12.049  66.221  1.00  0.00    -0.596 OA 
HETATM   19 CL   UNL     1      -9.494   9.924  64.356  1.00  0.00    -0.341 Cl 
HETATM   20 CL   UNL     1     -10.356  12.583  63.512  1.00  0.00    -0.392 Cl 
ENDBRANCH  13  14
BRANCH  13  21
HETATM   21  C   UNL     1      -9.950  13.364  68.356  1.00  0.00    -0.231 C  
BRANCH  21  22
HETATM   22  O   UNL     1     -10.925  13.982  69.217  1.00  0.00    -0.250 OA 
BRANCH  22  23
HETATM   23  C   UNL     1     -10.646  15.257  69.597  1.00  0.00    -0.276 C  
HETATM   24  O   UNL     1     -11.021  15.781  70.638  1.00  0.00    -0.323 OA 
BRANCH  23  25
HETATM   25  C   UNL     1      -9.792  15.953  68.571  1.00  0.00    -0.210 C  
BRANCH  25  26
HETATM   26  C   UNL     1     -10.529  17.104  67.917  1.00  0.00    -0.369 C  
HETATM   27  C   UNL     1     -10.245  17.218  66.439  1.00  0.00    -0.331 C  
HETATM   28  O   UNL     1     -10.694  16.178  65.708  1.00  0.00    -0.329 OA 
HETATM   29  O   UNL     1      -9.686  18.182  65.941  1.00  0.00    -0.521 OA 
ENDBRANCH  25  26
ENDBRANCH  23  25
ENDBRANCH  22  23
ENDBRANCH  21  22
ENDBRANCH  13  21
ENDBRANCH   2  13
TORSDOF 8
ENDMDL
MODEL      201
REMARK 921   NORMALIZED FREE ENERGY PREDICTED BY IDOCK:   -4.48 KCAL/MOL
REMARK 922        TOTAL FREE ENERGY PREDICTED BY IDOCK:   -8.04 KCAL/MOL
REMARK 923 INTER-LIGAND FREE ENERGY PREDICTED BY IDOCK:   -6.98 KCAL/MOL
REMARK 924 INTRA-LIGAND FREE ENERGY PREDICTED BY IDOCK:   -1.06 KCAL/MOL
REMARK 927      BINDING AFFINITY PREDICTED BY RF-SCORE:    0.00 PKD
ROOT
HETATM    1  O   UNL     1     -11.364   7.293  67.171  1.00  0.00    -0.519 OA 
HETATM    2  C   UNL     1     -10.129   7.754  67.737  1.00  0.00    -0.189 C  
HETATM    3  H   UNL     1     -11.197   6.568  66.581  1.00  0.00     0.000 HD 
ENDROOT
BRANCH   2   4
HETATM    4  C   UNL     1      -9.476   6.543  68.370  1.00  0.00    -0.120 A  
HETATM    5  C   UNL     1      -8.210   4.257  69.399  1.00  0.00    -0.062 A  
HETATM    6  C   UNL     1      -8.125   6.586  68.753  1.00  0.00    -0.118 A  
HETATM    7  O   UNL     1      -6.323   3.130  70.147  1.00  0.00    -0.027 OA 
HETATM    8  O   UNL     1      -8.209   2.018  70.010  1.00  0.00    -0.041 OA 
HETATM    9  C   UNL     1     -10.187   5.340  68.532  1.00  0.00    -0.214 A  
HETATM   10  C   UNL     1      -7.489   5.450  69.265  1.00  0.00    -0.073 A  
HETATM   11  N   UNL     1      -7.532   3.049  69.887  1.00  0.00    -0.044 N  
HETATM   12  C   UNL     1      -9.562   4.200  69.045  1.00  0.00    -0.232 A  
ENDBRANCH   2   4
BRANCH   2  13
HETATM   13  C   UNL     1     -10.401   8.941  68.703  1.00  0.00    -0.204 C  
BRANCH  13  14
HETATM   14  N   UNL     1     -11.390   8.519  69.723  1.00  0.00    -0.448 N  
HETATM   15  C   UNL     1     -12.391   8.400  72.006  1.00  0.00    -0.361 C  
HETATM   16  C   UNL     1     -11.234   8.787  71.073  1.00  0.00    -0.273 C  
HETATM   17  H   UNL     1     -12.221   8.010  69.419  1.00  0.00     0.000 HD 
HETATM   18  O   UNL     1     -10.223   9.340  71.507  1.00  0.00    -0.330 OA 
HETATM   19 CL   UNL     1     -13.392   7.106  71.313  1.00  0.00    -0.388 Cl 
HETATM   20 CL   UNL     1     -13.371   9.839  72.341  1.00  0.00    -0.451 Cl 
ENDBRANCH  13  14
BRANCH  13  21
HETATM   21  C   UNL     1     -10.878  10.184  67.918  1.00  0.00    -0.284 C  
BRANCH  21  22
HETATM   22  O   UNL     1     -10.535  11.416  68.583  1.00  0.00    -0.188 OA 
BRANCH  22  23
HETATM   23  C   UNL     1     -11.494  12.378  68.561  1.00  0.00    -0.306 C  
HETATM   24  O   UNL     1     -12.037  12.809  67.552  1.00  0.00    -0.359 OA 
BRANCH  23  25
HETATM   25  C   UNL     1     -11.824  12.846  69.954  1.00  0.00    -0.373 C  
BRANCH  25  26
HETATM   26  C   UNL     1     -12.290  14.288  69.964  1.00  0.00    -0.403 C  
HETATM   27  C   UNL     1     -11.287  15.224  70.591  1.00  0.00    -0.313 C  
HETATM   28  O   UNL     1     -10.130  15.333  69.907  1.00  0.00    -0.254 OA 
HETATM   29  O   UNL     1     -11.512  15.854  71.612  1.00  0.00    -0.407 OA 
ENDBRANCH  25  26
ENDBRANCH  23  25
ENDBRANCH  22  23
ENDBRANCH  21  22
ENDBRANCH  13  21
ENDBRANCH   2  13
TORSDOF 8
ENDMDL
MODEL      202
REMARK 921   NORMALIZED FREE ENERGY PREDICTED BY IDOCK:   -4.48 KCAL/MOL
REMARK 922        TOTAL FREE ENERGY PREDICTED BY IDOCK:   -8.04 KCAL/MOL
REMARK 923 INTER-LIGAND FREE ENERGY PREDICTED BY IDOCK:   -7.24 KCAL/MOL
REMARK 924 INTRA-LIGAND FREE ENERGY PREDICTED BY IDOCK:   -0.80 KCAL/MOL
REMARK 927      BINDING AFFINITY PREDICTED BY RF-SCORE:    0.00 PKD
ROOT
HETATM    1  O   UNL     1     -11.911  15.938  71.087  1.00  0.00    -0.377 OA 
HETATM    2  C   UNL     1     -11.013  14.981  70.509  1.00  0.00    -0.175 C  
HETATM    3  H   UNL     1     -11.417  16.616  71.532  1.00  0.00     0.000 HD 
ENDROOT
BRANCH   2   4
HETATM    4  C   UNL     1     -10.063  15.770  69.631  1.00  0.00    -0.289 A  
HETATM    5  C   UNL     1      -8.226  17.282  68.139  1.00  0.00    -0.231 A  
HETATM    6  C   UNL     1      -8.813  15.232  69.279  1.00  0.00    -0.242 A  
HETATM    7  O   UNL     1      -6.135  17.587  67.179  1.00  0.00    -0.122 OA 
HETATM    8  O   UNL     1      -7.582  19.231  67.054  1.00  0.00    -0.230 OA 
HETATM    9  C   UNL     1     -10.383  17.072  69.205  1.00  0.00    -0.276 A  
HETATM   10  C   UNL     1      -7.895  15.981  68.536  1.00  0.00    -0.160 A  
HETATM   11  N   UNL     1      -7.244  18.091  67.405  1.00  0.00    -0.192 N  
HETATM   12  C   UNL     1      -9.473  17.828  68.461  1.00  0.00    -0.304 A  
ENDBRANCH   2   4
BRANCH   2  13
HETATM   13  C   UNL     1     -11.820  13.872  69.780  1.00  0.00    -0.329 C  
BRANCH  13  14
HETATM   14  N   UNL     1     -10.907  12.758  69.430  1.00  0.00    -0.442 N  
HETATM   15  C   UNL     1     -10.233  10.370  69.159  1.00  0.00    -0.222 C  
HETATM   16  C   UNL     1     -11.213  11.431  69.681  1.00  0.00    -0.230 C  
HETATM   17  H   UNL     1     -10.016  12.977  68.984  1.00  0.00     0.000 HD 
HETATM   18  O   UNL     1     -12.244  11.109  70.274  1.00  0.00    -0.310 OA 
HETATM   19 CL   UNL     1      -8.601  11.034  68.935  1.00  0.00    -0.149 Cl 
HETATM   20 CL   UNL     1     -10.854   9.709  67.636  1.00  0.00    -0.326 Cl 
ENDBRANCH  13  14
BRANCH  13  21
HETATM   21  C   UNL     1     -12.533  14.445  68.534  1.00  0.00     0.201 C  
BRANCH  21  22
HETATM   22  O   UNL     1     -11.687  14.436  67.368  1.00  0.00    -0.362 OA 
BRANCH  22  23
HETATM   23  C   UNL     1     -11.706  13.288  66.640  1.00  0.00    -0.377 C  
HETATM   24  O   UNL     1     -12.606  12.457  66.660  1.00  0.00    -0.107 OA 
BRANCH  23  25
HETATM   25  C   UNL     1     -10.474  13.168  65.784  1.00  0.00    -0.291 C  
BRANCH  25  26
HETATM   26  C   UNL     1     -10.763  13.514  64.337  1.00  0.00    -0.402 C  
HETATM   27  C   UNL     1     -11.492  14.826  64.182  1.00  0.00     0.004 C  
HETATM   28  O   UNL     1     -10.779  15.904  64.566  1.00  0.00    -0.506 OA 
HETATM   29  O   UNL     1     -12.618  14.910  63.720  1.00  0.00    -0.791 OA 
ENDBRANCH  25  26
ENDBRANCH  23  25
ENDBRANCH  22  23
ENDBRANCH  21  22
ENDBRANCH  13  21
ENDBRANCH   2  13
TORSDOF 8
ENDMDL
MODEL      203
REMARK 921   NORMALIZED FREE ENERGY PREDICTED BY IDOCK:   -4.47 KCAL/MOL
REMARK 922        TOTAL FREE ENERGY PREDICTED BY IDOCK:   -8.02 KCAL/MOL
REMARK 923 INTER-LIGAND FREE ENERGY PREDICTED BY IDOCK:   -7.00 KCAL/MOL
REMARK 924 INTRA-LIGAND FREE ENERGY PREDICTED BY IDOCK:   -1.02 KCAL/MOL
REMARK 927      BINDING AFFINITY PREDICTED BY RF-SCORE:    0.00 PKD
ROOT
HETATM    1  O   UNL     1      -8.191   7.819  69.791  1.00  0.00    -0.125 OA 
HETATM    2  C   UNL     1      -9.292   7.661  68.886  1.00  0.00    -0.145 C  
HETATM    3  H   UNL     1      -7.628   7.056  69.750  1.00  0.00     0.000 HD 
ENDROOT
BRANCH   2   4
HETATM    4  C   UNL     1      -8.685   7.380  67.527  1.00  0.00    -0.124 A  
HETATM    5  C   UNL     1      -7.473   6.740  65.076  1.00  0.00    -0.092 A  
HETATM    6  C   UNL     1      -9.218   6.370  66.708  1.00  0.00    -0.154 A  
HETATM    7  O   UNL     1      -7.287   5.426  63.171  1.00  0.00    -0.046 OA 
HETATM    8  O   UNL     1      -5.810   7.018  63.480  1.00  0.00    -0.035 OA 
HETATM    9  C   UNL     1      -7.546   8.077  67.085  1.00  0.00    -0.097 A  
HETATM   10  C   UNL     1      -8.618   6.046  65.487  1.00  0.00    -0.145 A  
HETATM   11  N   UNL     1      -6.810   6.368  63.819  1.00  0.00    -0.040 N  
HETATM   12  C   UNL     1      -6.940   7.764  65.866  1.00  0.00    -0.061 A  
ENDBRANCH   2   4
BRANCH   2  13
HETATM   13  C   UNL     1     -10.215   8.909  68.953  1.00  0.00    -0.206 C  
BRANCH  13  14
HETATM   14  N   UNL     1     -11.346   8.627  69.870  1.00  0.00    -0.452 N  
HETATM   15  C   UNL     1     -12.566   8.643  72.047  1.00  0.00    -0.378 C  
HETATM   16  C   UNL     1     -11.283   8.867  71.232  1.00  0.00    -0.298 C  
HETATM   17  H   UNL     1     -12.207   8.241  69.481  1.00  0.00     0.000 HD 
HETATM   18  O   UNL     1     -10.251   9.271  71.769  1.00  0.00    -0.311 OA 
HETATM   19 CL   UNL     1     -13.667   7.504  71.243  1.00  0.00    -0.387 Cl 
HETATM   20 CL   UNL     1     -13.363  10.204  72.311  1.00  0.00    -0.448 Cl 
ENDBRANCH  13  14
BRANCH  13  21
HETATM   21  C   UNL     1     -10.704   9.303  67.542  1.00  0.00    -0.203 C  
BRANCH  21  22
HETATM   22  O   UNL     1     -10.287  10.632  67.169  1.00  0.00    -0.206 OA 
BRANCH  22  23
HETATM   23  C   UNL     1     -10.056  10.821  65.844  1.00  0.00    -0.256 C  
HETATM   24  O   UNL     1      -9.715   9.948  65.056  1.00  0.00    -0.296 OA 
BRANCH  23  25
HETATM   25  C   UNL     1     -10.287  12.256  65.453  1.00  0.00    -0.298 C  
BRANCH  25  26
HETATM   26  C   UNL     1     -11.700  12.702  65.772  1.00  0.00    -0.466 C  
HETATM   27  C   UNL     1     -12.399  13.326  64.589  1.00  0.00    -0.391 C  
HETATM   28  O   UNL     1     -12.622  12.476  63.567  1.00  0.00    -0.690 OA 
HETATM   29  O   UNL     1     -12.760  14.492  64.568  1.00  0.00    -0.653 OA 
ENDBRANCH  25  26
ENDBRANCH  23  25
ENDBRANCH  22  23
ENDBRANCH  21  22
ENDBRANCH  13  21
ENDBRANCH   2  13
TORSDOF 8
ENDMDL
MODEL      204
REMARK 921   NORMALIZED FREE ENERGY PREDICTED BY IDOCK:   -4.46 KCAL/MOL
REMARK 922        TOTAL FREE ENERGY PREDICTED BY IDOCK:   -8.02 KCAL/MOL
REMARK 923 INTER-LIGAND FREE ENERGY PREDICTED BY IDOCK:   -7.70 KCAL/MOL
REMARK 924 INTRA-LIGAND FREE ENERGY PREDICTED BY IDOCK:   -0.32 KCAL/MOL
REMARK 927      BINDING AFFINITY PREDICTED BY RF-SCORE:    0.00 PKD
ROOT
HETATM    1  O   UNL     1     -11.740  12.428  69.761  1.00  0.00    -0.341 OA 
HETATM    2  C   UNL     1     -11.477  13.420  68.759  1.00  0.00    -0.305 C  
HETATM    3  H   UNL     1     -12.196  11.691  69.373  1.00  0.00     0.000 HD 
ENDROOT
BRANCH   2   4
HETATM    4  C   UNL     1     -10.731  12.711  67.648  1.00  0.00    -0.239 A  
HETATM    5  C   UNL     1      -9.407  11.256  65.644  1.00  0.00    -0.224 A  
HETATM    6  C   UNL     1     -11.392  12.372  66.455  1.00  0.00    -0.392 A  
HETATM    7  O   UNL     1      -9.386  10.126  63.616  1.00  0.00    -0.267 OA 
HETATM    8  O   UNL     1      -7.548  10.139  64.814  1.00  0.00    -0.141 OA 
HETATM    9  C   UNL     1      -9.388  12.324  67.810  1.00  0.00    -0.194 A  
HETATM   10  C   UNL     1     -10.738  11.648  65.454  1.00  0.00    -0.341 A  
HETATM   11  N   UNL     1      -8.732  10.449  64.618  1.00  0.00    -0.180 N  
HETATM   12  C   UNL     1      -8.723  11.602  66.815  1.00  0.00    -0.189 A  
ENDBRANCH   2   4
BRANCH   2  13
HETATM   13  C   UNL     1     -10.730  14.626  69.393  1.00  0.00    -0.222 C  
BRANCH  13  14
HETATM   14  N   UNL     1     -11.300  14.899  70.735  1.00  0.00    -0.438 N  
HETATM   15  C   UNL     1     -13.089  15.514  72.361  1.00  0.00    -0.437 C  
HETATM   16  C   UNL     1     -12.581  15.391  70.918  1.00  0.00    -0.438 C  
HETATM   17  H   UNL     1     -10.725  14.716  71.557  1.00  0.00     0.000 HD 
HETATM   18  O   UNL     1     -13.299  15.692  69.962  1.00  0.00     0.003 OA 
HETATM   19 CL   UNL     1     -11.751  15.647  73.522  1.00  0.00    -0.376 Cl 
HETATM   20 CL   UNL     1     -14.108  14.113  72.738  1.00  0.00    -0.269 Cl 
ENDBRANCH  13  14
BRANCH  13  21
HETATM   21  C   UNL     1     -10.811  15.864  68.472  1.00  0.00    -0.298 C  
BRANCH  21  22
HETATM   22  O   UNL     1     -10.377  17.068  69.133  1.00  0.00    -0.307 OA 
BRANCH  22  23
HETATM   23  C   UNL     1      -9.385  17.754  68.507  1.00  0.00    -0.295 C  
HETATM   24  O   UNL     1      -9.409  18.951  68.249  1.00  0.00    -0.312 OA 
BRANCH  23  25
HETATM   25  C   UNL     1      -8.226  16.851  68.177  1.00  0.00    -0.207 C  
BRANCH  25  26
HETATM   26  C   UNL     1      -6.947  17.635  67.965  1.00  0.00    -0.194 C  
HETATM   27  C   UNL     1      -6.415  17.521  66.558  1.00  0.00    -0.234 C  
HETATM   28  O   UNL     1      -7.212  18.070  65.619  1.00  0.00    -0.516 OA 
HETATM   29  O   UNL     1      -5.342  17.004  66.292  1.00  0.00    -0.346 OA 
ENDBRANCH  25  26
ENDBRANCH  23  25
ENDBRANCH  22  23
ENDBRANCH  21  22
ENDBRANCH  13  21
ENDBRANCH   2  13
TORSDOF 8
ENDMDL
MODEL      205
REMARK 921   NORMALIZED FREE ENERGY PREDICTED BY IDOCK:   -4.46 KCAL/MOL
REMARK 922        TOTAL FREE ENERGY PREDICTED BY IDOCK:   -8.02 KCAL/MOL
REMARK 923 INTER-LIGAND FREE ENERGY PREDICTED BY IDOCK:   -7.62 KCAL/MOL
REMARK 924 INTRA-LIGAND FREE ENERGY PREDICTED BY IDOCK:   -0.40 KCAL/MOL
REMARK 927      BINDING AFFINITY PREDICTED BY RF-SCORE:    0.00 PKD
ROOT
HETATM    1  O   UNL     1     -12.069  11.534  67.487  1.00  0.00    -0.614 OA 
HETATM    2  C   UNL     1     -11.022  10.587  67.234  1.00  0.00    -0.260 C  
HETATM    3  H   UNL     1     -12.875  11.076  67.693  1.00  0.00     0.000 HD 
ENDROOT
BRANCH   2   4
HETATM    4  C   UNL     1     -10.961   9.690  68.452  1.00  0.00    -0.161 A  
HETATM    5  C   UNL     1     -11.003   7.987  70.686  1.00  0.00    -0.245 A  
HETATM    6  C   UNL     1     -10.728   8.311  68.305  1.00  0.00    -0.076 A  
HETATM    7  O   UNL     1     -10.928   5.875  71.645  1.00  0.00    -0.258 OA 
HETATM    8  O   UNL     1     -11.284   7.597  72.956  1.00  0.00    -0.384 OA 
HETATM    9  C   UNL     1     -11.194  10.202  69.741  1.00  0.00    -0.325 A  
HETATM   10  C   UNL     1     -10.749   7.459  69.414  1.00  0.00    -0.220 A  
HETATM   11  N   UNL     1     -11.077   7.089  71.845  1.00  0.00    -0.237 N  
HETATM   12  C   UNL     1     -11.215   9.360  70.856  1.00  0.00    -0.393 A  
ENDBRANCH   2   4
BRANCH   2  13
HETATM   13  C   UNL     1      -9.703  11.336  66.896  1.00  0.00    -0.192 C  
BRANCH  13  14
HETATM   14  N   UNL     1      -8.557  10.417  67.099  1.00  0.00    -0.129 N  
HETATM   15  C   UNL     1      -6.692   9.357  68.372  1.00  0.00    -0.058 C  
HETATM   16  C   UNL     1      -7.770  10.442  68.237  1.00  0.00    -0.096 C  
HETATM   17  H   UNL     1      -8.341   9.737  66.370  1.00  0.00     0.000 HD 
HETATM   18  O   UNL     1      -7.942  11.282  69.122  1.00  0.00    -0.102 OA 
HETATM   19 CL   UNL     1      -6.211   8.705  66.791  1.00  0.00    -0.058 Cl 
HETATM   20 CL   UNL     1      -7.300   8.065  69.423  1.00  0.00    -0.078 Cl 
ENDBRANCH  13  14
BRANCH  13  21
HETATM   21  C   UNL     1      -9.570  12.618  67.749  1.00  0.00    -0.197 C  
BRANCH  21  22
HETATM   22  O   UNL     1     -10.302  13.726  67.190  1.00  0.00    -0.258 OA 
BRANCH  22  23
HETATM   23  C   UNL     1      -9.609  14.504  66.318  1.00  0.00    -0.304 C  
HETATM   24  O   UNL     1      -8.500  14.980  66.526  1.00  0.00    -0.217 OA 
BRANCH  23  25
HETATM   25  C   UNL     1     -10.378  14.702  65.039  1.00  0.00    -0.432 C  
BRANCH  25  26
HETATM   26  C   UNL     1     -10.854  13.383  64.462  1.00  0.00    -0.419 C  
HETATM   27  C   UNL     1     -12.343  13.350  64.225  1.00  0.00    -0.335 C  
HETATM   28  O   UNL     1     -12.772  14.213  63.281  1.00  0.00    -0.714 OA 
HETATM   29  O   UNL     1     -13.094  12.588  64.812  1.00  0.00    -0.853 OA 
ENDBRANCH  25  26
ENDBRANCH  23  25
ENDBRANCH  22  23
ENDBRANCH  21  22
ENDBRANCH  13  21
ENDBRANCH   2  13
TORSDOF 8
ENDMDL
MODEL      206
REMARK 921   NORMALIZED FREE ENERGY PREDICTED BY IDOCK:   -4.46 KCAL/MOL
REMARK 922        TOTAL FREE ENERGY PREDICTED BY IDOCK:   -8.01 KCAL/MOL
REMARK 923 INTER-LIGAND FREE ENERGY PREDICTED BY IDOCK:   -7.68 KCAL/MOL
REMARK 924 INTRA-LIGAND FREE ENERGY PREDICTED BY IDOCK:   -0.33 KCAL/MOL
REMARK 927      BINDING AFFINITY PREDICTED BY RF-SCORE:    0.00 PKD
ROOT
HETATM    1  O   UNL     1     -10.609  15.147  70.644  1.00  0.00    -0.514 OA 
HETATM    2  C   UNL     1      -9.733  14.882  69.541  1.00  0.00    -0.034 C  
HETATM    3  H   UNL     1     -10.303  15.907  71.124  1.00  0.00     0.000 HD 
ENDROOT
BRANCH   2   4
HETATM    4  C   UNL     1      -9.662  16.166  68.740  1.00  0.00    -0.233 A  
HETATM    5  C   UNL     1      -9.538  18.457  67.121  1.00  0.00    -0.295 A  
HETATM    6  C   UNL     1     -10.838  16.771  68.267  1.00  0.00    -0.366 A  
HETATM    7  O   UNL     1     -10.540  20.075  65.792  1.00  0.00    -0.465 OA 
HETATM    8  O   UNL     1      -8.354  20.089  65.970  1.00  0.00    -0.330 OA 
HETATM    9  C   UNL     1      -8.423  16.742  68.404  1.00  0.00    -0.231 A  
HETATM   10  C   UNL     1     -10.783  17.912  67.460  1.00  0.00    -0.333 A  
HETATM   11  N   UNL     1      -9.473  19.624  66.231  1.00  0.00    -0.386 N  
HETATM   12  C   UNL     1      -8.356  17.883  67.600  1.00  0.00    -0.234 A  
ENDBRANCH   2   4
BRANCH   2  13
HETATM   13  C   UNL     1     -10.234  13.638  68.755  1.00  0.00    -0.149 C  
BRANCH  13  14
HETATM   14  N   UNL     1     -11.059  12.796  69.655  1.00  0.00    -0.466 N  
HETATM   15  C   UNL     1     -12.634  10.948  70.226  1.00  0.00    -0.265 C  
HETATM   16  C   UNL     1     -11.931  11.830  69.184  1.00  0.00    -0.293 C  
HETATM   17  H   UNL     1     -10.980  12.935  70.663  1.00  0.00     0.000 HD 
HETATM   18  O   UNL     1     -12.117  11.662  67.978  1.00  0.00    -0.597 OA 
HETATM   19 CL   UNL     1     -12.725  11.745  71.811  1.00  0.00    -0.362 Cl 
HETATM   20 CL   UNL     1     -11.774   9.402  70.351  1.00  0.00    -0.239 Cl 
ENDBRANCH  13  14
BRANCH  13  21
HETATM   21  C   UNL     1      -9.043  12.852  68.163  1.00  0.00    -0.207 C  
BRANCH  21  22
HETATM   22  O   UNL     1      -9.471  11.735  67.358  1.00  0.00    -0.170 OA 
BRANCH  22  23
HETATM   23  C   UNL     1      -8.739  10.599  67.499  1.00  0.00    -0.125 C  
HETATM   24  O   UNL     1      -8.042  10.325  68.467  1.00  0.00    -0.101 OA 
BRANCH  23  25
HETATM   25  C   UNL     1      -8.906   9.696  66.306  1.00  0.00    -0.172 C  
BRANCH  25  26
HETATM   26  C   UNL     1      -8.454  10.370  65.026  1.00  0.00    -0.180 C  
HETATM   27  C   UNL     1      -9.541  10.433  63.981  1.00  0.00    -0.317 C  
HETATM   28  O   UNL     1     -10.592  11.206  64.323  1.00  0.00    -0.340 OA 
HETATM   29  O   UNL     1      -9.465   9.860  62.907  1.00  0.00    -0.276 OA 
ENDBRANCH  25  26
ENDBRANCH  23  25
ENDBRANCH  22  23
ENDBRANCH  21  22
ENDBRANCH  13  21
ENDBRANCH   2  13
TORSDOF 8
ENDMDL
MODEL      207
REMARK 921   NORMALIZED FREE ENERGY PREDICTED BY IDOCK:   -4.46 KCAL/MOL
REMARK 922        TOTAL FREE ENERGY PREDICTED BY IDOCK:   -8.01 KCAL/MOL
REMARK 923 INTER-LIGAND FREE ENERGY PREDICTED BY IDOCK:   -7.21 KCAL/MOL
REMARK 924 INTRA-LIGAND FREE ENERGY PREDICTED BY IDOCK:   -0.80 KCAL/MOL
REMARK 927      BINDING AFFINITY PREDICTED BY RF-SCORE:    0.00 PKD
ROOT
HETATM    1  O   UNL     1      -8.468  11.420  69.241  1.00  0.00    -0.374 OA 
HETATM    2  C   UNL     1      -8.892  10.429  68.294  1.00  0.00    -0.135 C  
HETATM    3  H   UNL     1      -8.077  12.155  68.784  1.00  0.00     0.000 HD 
ENDROOT
BRANCH   2   4
HETATM    4  C   UNL     1      -9.805  11.142  67.318  1.00  0.00    -0.198 A  
HETATM    5  C   UNL     1     -11.619  12.374  65.563  1.00  0.00    -0.385 A  
HETATM    6  C   UNL     1     -10.573  12.240  67.739  1.00  0.00    -0.241 A  
HETATM    7  O   UNL     1     -13.301  13.908  65.111  1.00  0.00    -0.698 OA 
HETATM    8  O   UNL     1     -12.687  12.542  63.509  1.00  0.00    -0.722 OA 
HETATM    9  C   UNL     1      -9.947  10.685  65.995  1.00  0.00    -0.295 A  
HETATM   10  C   UNL     1     -11.479  12.857  66.870  1.00  0.00    -0.393 A  
HETATM   11  N   UNL     1     -12.606  12.985  64.664  1.00  0.00    -0.392 N  
HETATM   12  C   UNL     1     -10.847  11.295  65.117  1.00  0.00    -0.268 A  
ENDBRANCH   2   4
BRANCH   2  13
HETATM   13  C   UNL     1      -9.532   9.226  69.041  1.00  0.00    -0.155 C  
BRANCH  13  14
HETATM   14  N   UNL     1      -9.302   7.989  68.255  1.00  0.00    -0.140 N  
HETATM   15  C   UNL     1      -8.001   6.020  67.445  1.00  0.00    -0.102 C  
HETATM   16  C   UNL     1      -8.072   7.357  68.198  1.00  0.00    -0.124 C  
HETATM   17  H   UNL     1     -10.082   7.588  67.734  1.00  0.00     0.000 HD 
HETATM   18  O   UNL     1      -7.078   7.829  68.752  1.00  0.00    -0.072 OA 
HETATM   19 CL   UNL     1      -9.302   5.870  66.245  1.00  0.00    -0.171 Cl 
HETATM   20 CL   UNL     1      -8.074   4.691  68.617  1.00  0.00    -0.082 Cl 
ENDBRANCH  13  14
BRANCH  13  21
HETATM   21  C   UNL     1     -11.036   9.476  69.291  1.00  0.00    -0.145 C  
BRANCH  21  22
HETATM   22  O   UNL     1     -11.348   9.574  70.695  1.00  0.00    -0.263 OA 
BRANCH  22  23
HETATM   23  C   UNL     1     -11.614   8.396  71.318  1.00  0.00    -0.283 C  
HETATM   24  O   UNL     1     -12.366   7.528  70.893  1.00  0.00    -0.266 OA 
BRANCH  23  25
HETATM   25  C   UNL     1     -10.848   8.280  72.609  1.00  0.00    -0.381 C  
BRANCH  25  26
HETATM   26  C   UNL     1      -9.516   7.584  72.409  1.00  0.00    -0.202 C  
HETATM   27  C   UNL     1      -8.345   8.417  72.867  1.00  0.00    -0.136 C  
HETATM   28  O   UNL     1      -8.317   8.648  74.195  1.00  0.00    -0.297 OA 
HETATM   29  O   UNL     1      -7.479   8.822  72.109  1.00  0.00    -0.291 OA 
ENDBRANCH  25  26
ENDBRANCH  23  25
ENDBRANCH  22  23
ENDBRANCH  21  22
ENDBRANCH  13  21
ENDBRANCH   2  13
TORSDOF 8
ENDMDL
MODEL      208
REMARK 921   NORMALIZED FREE ENERGY PREDICTED BY IDOCK:   -4.45 KCAL/MOL
REMARK 922        TOTAL FREE ENERGY PREDICTED BY IDOCK:   -8.00 KCAL/MOL
REMARK 923 INTER-LIGAND FREE ENERGY PREDICTED BY IDOCK:   -7.20 KCAL/MOL
REMARK 924 INTRA-LIGAND FREE ENERGY PREDICTED BY IDOCK:   -0.80 KCAL/MOL
REMARK 927      BINDING AFFINITY PREDICTED BY RF-SCORE:    0.00 PKD
ROOT
HETATM    1  O   UNL     1     -10.730  14.440  70.055  1.00  0.00    -0.458 OA 
HETATM    2  C   UNL     1     -10.230  15.252  68.984  1.00  0.00    -0.239 C  
HETATM    3  H   UNL     1     -11.679  14.477  70.072  1.00  0.00     0.000 HD 
ENDROOT
BRANCH   2   4
HETATM    4  C   UNL     1     -10.918  14.764  67.726  1.00  0.00    -0.294 A  
HETATM    5  C   UNL     1     -12.065  13.768  65.364  1.00  0.00    -0.407 A  
HETATM    6  C   UNL     1     -11.616  13.544  67.729  1.00  0.00    -0.374 A  
HETATM    7  O   UNL     1     -13.166  12.110  64.170  1.00  0.00    -0.740 OA 
HETATM    8  O   UNL     1     -12.507  13.901  63.089  1.00  0.00    -0.766 OA 
HETATM    9  C   UNL     1     -10.824  15.485  66.522  1.00  0.00    -0.284 A  
HETATM   10  C   UNL     1     -12.188  13.043  66.556  1.00  0.00    -0.316 A  
HETATM   11  N   UNL     1     -12.619  13.220  64.119  1.00  0.00    -0.219 N  
HETATM   12  C   UNL     1     -11.394  14.995  65.344  1.00  0.00    -0.328 A  
ENDBRANCH   2   4
BRANCH   2  13
HETATM   13  C   UNL     1      -8.677  15.191  68.955  1.00  0.00    -0.215 C  
BRANCH  13  14
HETATM   14  N   UNL     1      -8.143  16.553  68.716  1.00  0.00    -0.234 N  
HETATM   15  C   UNL     1      -6.377  18.250  68.239  1.00  0.00    -0.198 C  
HETATM   16  C   UNL     1      -6.788  16.817  68.607  1.00  0.00    -0.175 C  
HETATM   17  H   UNL     1      -8.800  17.329  68.629  1.00  0.00     0.000 HD 
HETATM   18  O   UNL     1      -5.944  15.934  68.768  1.00  0.00    -0.099 OA 
HETATM   19 CL   UNL     1      -7.632  19.429  68.678  1.00  0.00    -0.387 Cl 
HETATM   20 CL   UNL     1      -6.027  18.325  66.503  1.00  0.00    -0.182 Cl 
ENDBRANCH  13  14
BRANCH  13  21
HETATM   21  C   UNL     1      -8.191  14.187  67.886  1.00  0.00    -0.155 C  
BRANCH  21  22
HETATM   22  O   UNL     1      -7.588  13.015  68.470  1.00  0.00    -0.125 OA 
BRANCH  22  23
HETATM   23  C   UNL     1      -8.191  11.835  68.167  1.00  0.00    -0.153 C  
HETATM   24  O   UNL     1      -8.472  10.959  68.976  1.00  0.00    -0.152 OA 
BRANCH  23  25
HETATM   25  C   UNL     1      -8.488  11.741  66.694  1.00  0.00    -0.153 C  
BRANCH  25  26
HETATM   26  C   UNL     1      -8.488  10.304  66.214  1.00  0.00    -0.138 C  
HETATM   27  C   UNL     1      -8.092  10.170  64.764  1.00  0.00    -0.153 C  
HETATM   28  O   UNL     1      -6.818  10.528  64.504  1.00  0.00    -0.051 OA 
HETATM   29  O   UNL     1      -8.847   9.746  63.904  1.00  0.00    -0.202 OA 
ENDBRANCH  25  26
ENDBRANCH  23  25
ENDBRANCH  22  23
ENDBRANCH  21  22
ENDBRANCH  13  21
ENDBRANCH   2  13
TORSDOF 8
ENDMDL
MODEL      209
REMARK 921   NORMALIZED FREE ENERGY PREDICTED BY IDOCK:   -4.45 KCAL/MOL
REMARK 922        TOTAL FREE ENERGY PREDICTED BY IDOCK:   -8.00 KCAL/MOL
REMARK 923 INTER-LIGAND FREE ENERGY PREDICTED BY IDOCK:   -7.50 KCAL/MOL
REMARK 924 INTRA-LIGAND FREE ENERGY PREDICTED BY IDOCK:   -0.50 KCAL/MOL
REMARK 927      BINDING AFFINITY PREDICTED BY RF-SCORE:    0.00 PKD
ROOT
HETATM    1  O   UNL     1     -12.661  12.689  65.342  1.00  0.00    -0.641 OA 
HETATM    2  C   UNL     1     -11.483  12.892  66.135  1.00  0.00    -0.348 C  
HETATM    3  H   UNL     1     -12.446  12.768  64.420  1.00  0.00     0.000 HD 
ENDROOT
BRANCH   2   4
HETATM    4  C   UNL     1     -10.455  11.904  65.626  1.00  0.00    -0.302 A  
HETATM    5  C   UNL     1      -8.481  10.192  64.596  1.00  0.00    -0.173 A  
HETATM    6  C   UNL     1      -9.199  11.804  66.248  1.00  0.00    -0.227 A  
HETATM    7  O   UNL     1      -6.322   9.340  64.581  1.00  0.00    -0.073 OA 
HETATM    8  O   UNL     1      -7.713   8.663  63.027  1.00  0.00    -0.113 OA 
HETATM    9  C   UNL     1     -10.711  11.114  64.490  1.00  0.00    -0.368 A  
HETATM   10  C   UNL     1      -8.212  10.954  65.740  1.00  0.00    -0.113 A  
HETATM   11  N   UNL     1      -7.430   9.337  64.028  1.00  0.00    -0.107 N  
HETATM   12  C   UNL     1      -9.733  10.259  63.974  1.00  0.00    -0.343 A  
ENDBRANCH   2   4
BRANCH   2  13
HETATM   13  C   UNL     1     -11.835  12.763  67.644  1.00  0.00    -0.339 C  
BRANCH  13  14
HETATM   14  N   UNL     1     -11.001  13.713  68.419  1.00  0.00    -0.252 N  
HETATM   15  C   UNL     1     -10.548  15.761  69.771  1.00  0.00    -0.312 C  
HETATM   16  C   UNL     1     -11.480  14.928  68.879  1.00  0.00    -0.299 C  
HETATM   17  H   UNL     1     -10.032  13.462  68.621  1.00  0.00     0.000 HD 
HETATM   18  O   UNL     1     -12.619  15.314  68.611  1.00  0.00     0.199 OA 
HETATM   19 CL   UNL     1      -8.840  15.355  69.500  1.00  0.00    -0.256 Cl 
HETATM   20 CL   UNL     1     -10.991  15.506  71.469  1.00  0.00    -0.285 Cl 
ENDBRANCH  13  14
BRANCH  13  21
HETATM   21  C   UNL     1     -11.646  11.307  68.126  1.00  0.00    -0.289 C  
BRANCH  21  22
HETATM   22  O   UNL     1     -12.642  10.917  69.092  1.00  0.00    -0.361 OA 
BRANCH  22  23
HETATM   23  C   UNL     1     -12.259  11.004  70.393  1.00  0.00    -0.373 C  
HETATM   24  O   UNL     1     -12.731  11.778  71.216  1.00  0.00    -0.387 OA 
BRANCH  23  25
HETATM   25  C   UNL     1     -11.177  10.006  70.707  1.00  0.00    -0.428 C  
BRANCH  25  26
HETATM   26  C   UNL     1     -11.731   8.601  70.838  1.00  0.00    -0.287 C  
HETATM   27  C   UNL     1     -12.062   8.232  72.263  1.00  0.00    -0.379 C  
HETATM   28  O   UNL     1     -13.064   8.956  72.803  1.00  0.00    -0.377 OA 
HETATM   29  O   UNL     1     -11.495   7.336  72.867  1.00  0.00    -0.270 OA 
ENDBRANCH  25  26
ENDBRANCH  23  25
ENDBRANCH  22  23
ENDBRANCH  21  22
ENDBRANCH  13  21
ENDBRANCH   2  13
TORSDOF 8
ENDMDL
MODEL      210
REMARK 921   NORMALIZED FREE ENERGY PREDICTED BY IDOCK:   -4.44 KCAL/MOL
REMARK 922        TOTAL FREE ENERGY PREDICTED BY IDOCK:   -7.98 KCAL/MOL
REMARK 923 INTER-LIGAND FREE ENERGY PREDICTED BY IDOCK:   -6.89 KCAL/MOL
REMARK 924 INTRA-LIGAND FREE ENERGY PREDICTED BY IDOCK:   -1.09 KCAL/MOL
REMARK 927      BINDING AFFINITY PREDICTED BY RF-SCORE:    0.00 PKD
ROOT
HETATM    1  O   UNL     1     -11.486   9.371  68.860  1.00  0.00    -0.423 OA 
HETATM    2  C   UNL     1     -10.670   8.267  68.446  1.00  0.00    -0.019 C  
HETATM    3  H   UNL     1     -12.356   9.063  69.083  1.00  0.00     0.000 HD 
ENDROOT
BRANCH   2   4
HETATM    4  C   UNL     1     -10.727   7.254  69.570  1.00  0.00    -0.244 A  
HETATM    5  C   UNL     1     -10.683   5.419  71.696  1.00  0.00    -0.198 A  
HETATM    6  C   UNL     1     -11.065   7.660  70.873  1.00  0.00    -0.275 A  
HETATM    7  O   UNL     1     -10.855   4.903  73.952  1.00  0.00    -0.285 OA 
HETATM    8  O   UNL     1     -10.305   3.299  72.562  1.00  0.00    -0.162 OA 
HETATM    9  C   UNL     1     -10.387   5.907  69.349  1.00  0.00    -0.313 A  
HETATM   10  C   UNL     1     -11.045   6.751  71.935  1.00  0.00    -0.279 A  
HETATM   11  N   UNL     1     -10.610   4.473  72.817  1.00  0.00    -0.196 N  
HETATM   12  C   UNL     1     -10.365   4.990  70.403  1.00  0.00    -0.297 A  
ENDBRANCH   2   4
BRANCH   2  13
HETATM   13  C   UNL     1      -9.246   8.771  68.081  1.00  0.00    -0.140 C  
BRANCH  13  14
HETATM   14  N   UNL     1      -8.439   8.887  69.320  1.00  0.00    -0.119 N  
HETATM   15  C   UNL     1      -6.339   8.985  70.664  1.00  0.00    -0.049 C  
HETATM   16  C   UNL     1      -7.065   8.720  69.337  1.00  0.00    -0.057 C  
HETATM   17  H   UNL     1      -8.917   9.098  70.196  1.00  0.00     0.000 HD 
HETATM   18  O   UNL     1      -6.442   8.400  68.323  1.00  0.00    -0.057 OA 
HETATM   19 CL   UNL     1      -7.425   8.798  72.057  1.00  0.00    -0.076 Cl 
HETATM   20 CL   UNL     1      -5.642  10.615  70.627  1.00  0.00    -0.094 Cl 
ENDBRANCH  13  14
BRANCH  13  21
HETATM   21  C   UNL     1      -9.321  10.112  67.317  1.00  0.00    -0.152 C  
BRANCH  21  22
HETATM   22  O   UNL     1     -10.398  10.137  66.360  1.00  0.00    -0.229 OA 
BRANCH  22  23
HETATM   23  C   UNL     1     -10.154  10.841  65.223  1.00  0.00    -0.290 C  
HETATM   24  O   UNL     1      -9.796  10.355  64.158  1.00  0.00    -0.319 OA 
BRANCH  23  25
HETATM   25  C   UNL     1     -10.396  12.312  65.433  1.00  0.00    -0.298 C  
BRANCH  25  26
HETATM   26  C   UNL     1     -11.731  12.569  66.105  1.00  0.00    -0.466 C  
HETATM   27  C   UNL     1     -12.732  13.224  65.187  1.00  0.00    -0.402 C  
HETATM   28  O   UNL     1     -13.113  12.456  64.145  1.00  0.00    -0.762 OA 
HETATM   29  O   UNL     1     -13.185  14.340  65.383  1.00  0.00    -0.688 OA 
ENDBRANCH  25  26
ENDBRANCH  23  25
ENDBRANCH  22  23
ENDBRANCH  21  22
ENDBRANCH  13  21
ENDBRANCH   2  13
TORSDOF 8
ENDMDL
MODEL      211
REMARK 921   NORMALIZED FREE ENERGY PREDICTED BY IDOCK:   -4.44 KCAL/MOL
REMARK 922        TOTAL FREE ENERGY PREDICTED BY IDOCK:   -7.98 KCAL/MOL
REMARK 923 INTER-LIGAND FREE ENERGY PREDICTED BY IDOCK:   -8.08 KCAL/MOL
REMARK 924 INTRA-LIGAND FREE ENERGY PREDICTED BY IDOCK:    0.10 KCAL/MOL
REMARK 927      BINDING AFFINITY PREDICTED BY RF-SCORE:    0.00 PKD
ROOT
HETATM    1  O   UNL     1      -8.245  10.427  69.789  1.00  0.00    -0.320 OA 
HETATM    2  C   UNL     1      -9.370   9.853  69.109  1.00  0.00    -0.193 C  
HETATM    3  H   UNL     1      -7.468   9.908  69.621  1.00  0.00     0.000 HD 
ENDROOT
BRANCH   2   4
HETATM    4  C   UNL     1      -8.971   9.740  67.652  1.00  0.00    -0.133 A  
HETATM    5  C   UNL     1      -8.357   9.625  64.914  1.00  0.00    -0.148 A  
HETATM    6  C   UNL     1      -8.199  10.748  67.050  1.00  0.00    -0.126 A  
HETATM    7  O   UNL     1      -7.451  10.542  62.984  1.00  0.00    -0.127 OA 
HETATM    8  O   UNL     1      -8.493   8.618  62.827  1.00  0.00    -0.194 OA 
HETATM    9  C   UNL     1      -9.412   8.663  66.862  1.00  0.00    -0.235 A  
HETATM   10  C   UNL     1      -7.891  10.696  65.687  1.00  0.00    -0.123 A  
HETATM   11  N   UNL     1      -8.080   9.593  63.472  1.00  0.00    -0.139 N  
HETATM   12  C   UNL     1      -9.108   8.600  65.500  1.00  0.00    -0.190 A  
ENDBRANCH   2   4
BRANCH   2  13
HETATM   13  C   UNL     1     -10.643  10.702  69.383  1.00  0.00    -0.239 C  
BRANCH  13  14
HETATM   14  N   UNL     1     -11.422  10.069  70.474  1.00  0.00    -0.306 N  
HETATM   15  C   UNL     1     -12.248   8.177  71.875  1.00  0.00    -0.331 C  
HETATM   16  C   UNL     1     -11.508   8.696  70.634  1.00  0.00    -0.228 C  
HETATM   17  H   UNL     1     -11.916  10.670  71.135  1.00  0.00     0.000 HD 
HETATM   18  O   UNL     1     -10.987   7.920  69.832  1.00  0.00    -0.243 OA 
HETATM   19 CL   UNL     1     -13.409   9.368  72.497  1.00  0.00    -0.478 Cl 
HETATM   20 CL   UNL     1     -11.061   7.749  73.121  1.00  0.00    -0.429 Cl 
ENDBRANCH  13  14
BRANCH  13  21
HETATM   21  C   UNL     1     -11.481  10.860  68.095  1.00  0.00    -0.295 C  
BRANCH  21  22
HETATM   22  O   UNL     1     -12.068  12.171  67.982  1.00  0.00    -0.478 OA 
BRANCH  22  23
HETATM   23  C   UNL     1     -11.403  13.043  67.179  1.00  0.00    -0.305 C  
HETATM   24  O   UNL     1     -10.194  13.237  67.199  1.00  0.00    -0.242 OA 
BRANCH  23  25
HETATM   25  C   UNL     1     -12.348  13.740  66.237  1.00  0.00    -0.479 C  
BRANCH  25  26
HETATM   26  C   UNL     1     -11.679  14.072  64.918  1.00  0.00    -0.385 C  
HETATM   27  C   UNL     1     -11.402  15.546  64.755  1.00  0.00    -0.357 C  
HETATM   28  O   UNL     1     -10.503  16.040  65.631  1.00  0.00    -0.358 OA 
HETATM   29  O   UNL     1     -11.922  16.230  63.888  1.00  0.00    -1.003 OA 
ENDBRANCH  25  26
ENDBRANCH  23  25
ENDBRANCH  22  23
ENDBRANCH  21  22
ENDBRANCH  13  21
ENDBRANCH   2  13
TORSDOF 8
ENDMDL
MODEL      212
REMARK 921   NORMALIZED FREE ENERGY PREDICTED BY IDOCK:   -4.43 KCAL/MOL
REMARK 922        TOTAL FREE ENERGY PREDICTED BY IDOCK:   -7.97 KCAL/MOL
REMARK 923 INTER-LIGAND FREE ENERGY PREDICTED BY IDOCK:   -6.86 KCAL/MOL
REMARK 924 INTRA-LIGAND FREE ENERGY PREDICTED BY IDOCK:   -1.11 KCAL/MOL
REMARK 927      BINDING AFFINITY PREDICTED BY RF-SCORE:    0.00 PKD
ROOT
HETATM    1  O   UNL     1      -7.677  13.862  68.717  1.00  0.00    -0.143 OA 
HETATM    2  C   UNL     1      -8.416  13.863  67.488  1.00  0.00    -0.196 C  
HETATM    3  H   UNL     1      -7.048  14.573  68.716  1.00  0.00     0.000 HD 
ENDROOT
BRANCH   2   4
HETATM    4  C   UNL     1      -9.009  15.250  67.352  1.00  0.00    -0.194 A  
HETATM    5  C   UNL     1      -9.971  17.869  67.029  1.00  0.00    -0.324 A  
HETATM    6  C   UNL     1      -9.628  15.642  66.153  1.00  0.00    -0.362 A  
HETATM    7  O   UNL     1     -10.905  19.557  65.738  1.00  0.00    -0.453 OA 
HETATM    8  O   UNL     1     -10.306  20.035  67.793  1.00  0.00    -0.399 OA 
HETATM    9  C   UNL     1      -8.899  16.189  68.394  1.00  0.00    -0.188 A  
HETATM   10  C   UNL     1     -10.108  16.944  65.986  1.00  0.00    -0.336 A  
HETATM   11  N   UNL     1     -10.427  19.252  66.839  1.00  0.00    -0.420 N  
HETATM   12  C   UNL     1      -9.378  17.493  68.239  1.00  0.00    -0.281 A  
ENDBRANCH   2   4
BRANCH   2  13
HETATM   13  C   UNL     1      -9.446  12.700  67.490  1.00  0.00    -0.186 C  
BRANCH  13  14
HETATM   14  N   UNL     1     -10.342  12.847  68.662  1.00  0.00    -0.353 N  
HETATM   15  C   UNL     1     -12.388  12.423  70.027  1.00  0.00    -0.085 C  
HETATM   16  C   UNL     1     -11.612  12.298  68.707  1.00  0.00    -0.330 C  
HETATM   17  H   UNL     1     -10.009  13.375  69.469  1.00  0.00     0.000 HD 
HETATM   18  O   UNL     1     -12.093  11.706  67.739  1.00  0.00    -0.613 OA 
HETATM   19 CL   UNL     1     -11.815  13.794  71.000  1.00  0.00    -0.203 Cl 
HETATM   20 CL   UNL     1     -12.238  10.906  70.933  1.00  0.00    -0.464 Cl 
ENDBRANCH  13  14
BRANCH  13  21
HETATM   21  C   UNL     1      -8.725  11.333  67.485  1.00  0.00    -0.138 C  
BRANCH  21  22
HETATM   22  O   UNL     1      -9.046  10.541  68.646  1.00  0.00    -0.143 OA 
BRANCH  22  23
HETATM   23  C   UNL     1      -8.048  10.410  69.558  1.00  0.00    -0.136 C  
HETATM   24  O   UNL     1      -7.026  11.085  69.587  1.00  0.00    -0.127 OA 
BRANCH  23  25
HETATM   25  C   UNL     1      -8.363   9.327  70.555  1.00  0.00    -0.237 C  
BRANCH  25  26
HETATM   26  C   UNL     1      -8.020   7.953  70.016  1.00  0.00    -0.111 C  
HETATM   27  C   UNL     1      -8.669   6.838  70.796  1.00  0.00    -0.146 C  
HETATM   28  O   UNL     1     -10.015   6.816  70.715  1.00  0.00    -0.186 OA 
HETATM   29  O   UNL     1      -8.034   6.006  71.424  1.00  0.00    -0.110 OA 
ENDBRANCH  25  26
ENDBRANCH  23  25
ENDBRANCH  22  23
ENDBRANCH  21  22
ENDBRANCH  13  21
ENDBRANCH   2  13
TORSDOF 8
ENDMDL
MODEL      213
REMARK 921   NORMALIZED FREE ENERGY PREDICTED BY IDOCK:   -4.43 KCAL/MOL
REMARK 922        TOTAL FREE ENERGY PREDICTED BY IDOCK:   -7.97 KCAL/MOL
REMARK 923 INTER-LIGAND FREE ENERGY PREDICTED BY IDOCK:   -6.62 KCAL/MOL
REMARK 924 INTRA-LIGAND FREE ENERGY PREDICTED BY IDOCK:   -1.35 KCAL/MOL
REMARK 927      BINDING AFFINITY PREDICTED BY RF-SCORE:    0.00 PKD
ROOT
HETATM    1  O   UNL     1     -12.280  12.045  66.602  1.00  0.00    -0.550 OA 
HETATM    2  C   UNL     1     -10.846  12.054  66.569  1.00  0.00    -0.277 C  
HETATM    3  H   UNL     1     -12.616  11.529  65.879  1.00  0.00     0.000 HD 
ENDROOT
BRANCH   2   4
HETATM    4  C   UNL     1     -10.414  10.603  66.556  1.00  0.00    -0.285 A  
HETATM    5  C   UNL     1      -9.487   7.953  66.625  1.00  0.00    -0.211 A  
HETATM    6  C   UNL     1     -10.758   9.752  67.620  1.00  0.00    -0.334 A  
HETATM    7  O   UNL     1      -9.244   5.901  67.683  1.00  0.00    -0.107 OA 
HETATM    8  O   UNL     1      -8.260   6.190  65.744  1.00  0.00    -0.124 OA 
HETATM    9  C   UNL     1      -9.613  10.095  65.517  1.00  0.00    -0.310 A  
HETATM   10  C   UNL     1     -10.299   8.432  67.660  1.00  0.00    -0.317 A  
HETATM   11  N   UNL     1      -8.959   6.583  66.689  1.00  0.00    -0.133 N  
HETATM   12  C   UNL     1      -9.151   8.776  65.545  1.00  0.00    -0.221 A  
ENDBRANCH   2   4
BRANCH   2  13
HETATM   13  C   UNL     1     -10.295  12.899  67.751  1.00  0.00    -0.222 C  
BRANCH  13  14
HETATM   14  N   UNL     1     -10.265  14.327  67.354  1.00  0.00    -0.247 N  
HETATM   15  C   UNL     1     -10.735  16.765  67.601  1.00  0.00    -0.305 C  
HETATM   16  C   UNL     1     -10.949  15.311  68.047  1.00  0.00    -0.299 C  
HETATM   17  H   UNL     1      -9.716  14.597  66.537  1.00  0.00     0.000 HD 
HETATM   18  O   UNL     1     -11.679  15.039  69.001  1.00  0.00    -0.300 OA 
HETATM   19 CL   UNL     1     -10.206  16.865  65.908  1.00  0.00    -0.350 Cl 
HETATM   20 CL   UNL     1      -9.549  17.531  68.674  1.00  0.00    -0.298 Cl 
ENDBRANCH  13  14
BRANCH  13  21
HETATM   21  C   UNL     1      -8.900  12.392  68.181  1.00  0.00    -0.191 C  
BRANCH  21  22
HETATM   22  O   UNL     1      -7.851  12.883  67.323  1.00  0.00    -0.167 OA 
BRANCH  22  23
HETATM   23  C   UNL     1      -6.709  12.147  67.317  1.00  0.00    -0.144 C  
HETATM   24  O   UNL     1      -5.617  12.545  66.929  1.00  0.00    -0.334 OA 
BRANCH  23  25
HETATM   25  C   UNL     1      -6.950  10.767  67.867  1.00  0.00    -0.073 C  
BRANCH  25  26
HETATM   26  C   UNL     1      -5.914  10.390  68.908  1.00  0.00    -0.040 C  
HETATM   27  C   UNL     1      -6.387  10.632  70.319  1.00  0.00    -0.141 C  
HETATM   28  O   UNL     1      -7.424   9.856  70.696  1.00  0.00    -0.284 OA 
HETATM   29  O   UNL     1      -5.860  11.437  71.069  1.00  0.00    -0.356 OA 
ENDBRANCH  25  26
ENDBRANCH  23  25
ENDBRANCH  22  23
ENDBRANCH  21  22
ENDBRANCH  13  21
ENDBRANCH   2  13
TORSDOF 8
ENDMDL
MODEL      214
REMARK 921   NORMALIZED FREE ENERGY PREDICTED BY IDOCK:   -4.41 KCAL/MOL
REMARK 922        TOTAL FREE ENERGY PREDICTED BY IDOCK:   -7.93 KCAL/MOL
REMARK 923 INTER-LIGAND FREE ENERGY PREDICTED BY IDOCK:   -6.53 KCAL/MOL
REMARK 924 INTRA-LIGAND FREE ENERGY PREDICTED BY IDOCK:   -1.41 KCAL/MOL
REMARK 927      BINDING AFFINITY PREDICTED BY RF-SCORE:    0.00 PKD
ROOT
HETATM    1  O   UNL     1      -7.503  10.030  68.515  1.00  0.00    -0.083 OA 
HETATM    2  C   UNL     1      -8.899   9.750  68.682  1.00  0.00    -0.126 C  
HETATM    3  H   UNL     1      -7.320  10.231  67.605  1.00  0.00     0.000 HD 
ENDROOT
BRANCH   2   4
HETATM    4  C   UNL     1      -9.640  10.948  68.124  1.00  0.00    -0.169 A  
HETATM    5  C   UNL     1     -10.893  13.187  66.982  1.00  0.00    -0.264 A  
HETATM    6  C   UNL     1     -10.468  10.807  66.998  1.00  0.00    -0.297 A  
HETATM    7  O   UNL     1     -12.173  14.186  65.323  1.00  0.00    -0.396 OA 
HETATM    8  O   UNL     1     -11.320  15.466  66.887  1.00  0.00    -0.271 OA 
HETATM    9  C   UNL     1      -9.467  12.229  68.680  1.00  0.00    -0.030 A  
HETATM   10  C   UNL     1     -11.094  11.918  66.425  1.00  0.00    -0.359 A  
HETATM   11  N   UNL     1     -11.506  14.364  66.352  1.00  0.00    -0.351 N  
HETATM   12  C   UNL     1     -10.090  13.346  68.117  1.00  0.00    -0.244 A  
ENDBRANCH   2   4
BRANCH   2  13
HETATM   13  C   UNL     1      -9.198   9.421  70.171  1.00  0.00    -0.234 C  
BRANCH  13  14
HETATM   14  N   UNL     1      -8.389   8.248  70.581  1.00  0.00    -0.116 N  
HETATM   15  C   UNL     1      -6.729   7.004  71.967  1.00  0.00    -0.057 C  
HETATM   16  C   UNL     1      -7.408   8.318  71.554  1.00  0.00    -0.087 C  
HETATM   17  H   UNL     1      -8.563   7.351  70.126  1.00  0.00     0.000 HD 
HETATM   18  O   UNL     1      -7.108   9.386  72.092  1.00  0.00    -0.229 OA 
HETATM   19 CL   UNL     1      -6.834   5.778  70.686  1.00  0.00    -0.052 Cl 
HETATM   20 CL   UNL     1      -7.473   6.413  73.463  1.00  0.00    -0.090 Cl 
ENDBRANCH  13  14
BRANCH  13  21
HETATM   21  C   UNL     1     -10.709   9.180  70.384  1.00  0.00    -0.238 C  
BRANCH  21  22
HETATM   22  O   UNL     1     -11.231   9.929  71.499  1.00  0.00    -0.322 OA 
BRANCH  22  23
HETATM   23  C   UNL     1     -12.587   9.985  71.582  1.00  0.00    -0.427 C  
HETATM   24  O   UNL     1     -13.283   9.239  72.260  1.00  0.00    -0.417 OA 
BRANCH  23  25
HETATM   25  C   UNL     1     -13.136  11.104  70.738  1.00  0.00    -0.081 C  
BRANCH  25  26
HETATM   26  C   UNL     1     -12.377  12.397  70.961  1.00  0.00    -0.309 C  
HETATM   27  C   UNL     1     -13.217  13.464  71.617  1.00  0.00    -0.364 C  
HETATM   28  O   UNL     1     -13.600  13.171  72.877  1.00  0.00    -0.543 OA 
HETATM   29  O   UNL     1     -13.502  14.517  71.070  1.00  0.00    -0.371 OA 
ENDBRANCH  25  26
ENDBRANCH  23  25
ENDBRANCH  22  23
ENDBRANCH  21  22
ENDBRANCH  13  21
ENDBRANCH   2  13
TORSDOF 8
ENDMDL
MODEL      215
REMARK 921   NORMALIZED FREE ENERGY PREDICTED BY IDOCK:   -4.40 KCAL/MOL
REMARK 922        TOTAL FREE ENERGY PREDICTED BY IDOCK:   -7.93 KCAL/MOL
REMARK 923 INTER-LIGAND FREE ENERGY PREDICTED BY IDOCK:   -7.15 KCAL/MOL
REMARK 924 INTRA-LIGAND FREE ENERGY PREDICTED BY IDOCK:   -0.78 KCAL/MOL
REMARK 927      BINDING AFFINITY PREDICTED BY RF-SCORE:    0.00 PKD
ROOT
HETATM    1  O   UNL     1      -6.401  10.425  68.636  1.00  0.00    -0.050 OA 
HETATM    2  C   UNL     1      -7.738  10.944  68.679  1.00  0.00    -0.122 C  
HETATM    3  H   UNL     1      -6.167  10.065  69.483  1.00  0.00     0.000 HD 
ENDROOT
BRANCH   2   4
HETATM    4  C   UNL     1      -8.616   9.809  69.163  1.00  0.00    -0.153 A  
HETATM    5  C   UNL     1     -10.307   7.695  69.911  1.00  0.00    -0.225 A  
HETATM    6  C   UNL     1      -8.228   8.474  68.954  1.00  0.00    -0.117 A  
HETATM    7  O   UNL     1     -10.844   5.438  69.986  1.00  0.00    -0.293 OA 
HETATM    8  O   UNL     1     -12.293   6.875  70.790  1.00  0.00    -0.376 OA 
HETATM    9  C   UNL     1      -9.858  10.064  69.773  1.00  0.00    -0.270 A  
HETATM   10  C   UNL     1      -9.066   7.418  69.324  1.00  0.00    -0.135 A  
HETATM   11  N   UNL     1     -11.212   6.590  70.253  1.00  0.00    -0.343 N  
HETATM   12  C   UNL     1     -10.702   9.016  70.149  1.00  0.00    -0.258 A  
ENDBRANCH   2   4
BRANCH   2  13
HETATM   13  C   UNL     1      -8.120  11.533  67.294  1.00  0.00    -0.153 C  
BRANCH  13  14
HETATM   14  N   UNL     1      -8.668  12.898  67.481  1.00  0.00    -0.179 N  
HETATM   15  C   UNL     1      -8.603  15.392  67.492  1.00  0.00    -0.174 C  
HETATM   16  C   UNL     1      -7.886  14.037  67.397  1.00  0.00    -0.170 C  
HETATM   17  H   UNL     1      -9.664  13.002  67.681  1.00  0.00     0.000 HD 
HETATM   18  O   UNL     1      -6.669  13.972  67.223  1.00  0.00    -0.244 OA 
HETATM   19 CL   UNL     1     -10.153  15.259  68.349  1.00  0.00    -0.217 Cl 
HETATM   20 CL   UNL     1      -8.843  16.037  65.858  1.00  0.00    -0.303 Cl 
ENDBRANCH  13  14
BRANCH  13  21
HETATM   21  C   UNL     1      -9.120  10.608  66.564  1.00  0.00    -0.162 C  
BRANCH  21  22
HETATM   22  O   UNL     1     -10.122  11.347  65.839  1.00  0.00    -0.225 OA 
BRANCH  22  23
HETATM   23  C   UNL     1     -10.056  11.248  64.486  1.00  0.00    -0.295 C  
HETATM   24  O   UNL     1      -9.065  10.909  63.851  1.00  0.00    -0.187 OA 
BRANCH  23  25
HETATM   25  C   UNL     1     -11.376  11.598  63.852  1.00  0.00    -0.457 C  
BRANCH  25  26
HETATM   26  C   UNL     1     -12.264  12.378  64.801  1.00  0.00    -0.493 C  
HETATM   27  C   UNL     1     -12.182  13.869  64.590  1.00  0.00    -0.419 C  
HETATM   28  O   UNL     1     -12.654  14.285  63.397  1.00  0.00    -0.777 OA 
HETATM   29  O   UNL     1     -11.755  14.639  65.435  1.00  0.00    -0.351 OA 
ENDBRANCH  25  26
ENDBRANCH  23  25
ENDBRANCH  22  23
ENDBRANCH  21  22
ENDBRANCH  13  21
ENDBRANCH   2  13
TORSDOF 8
ENDMDL
MODEL      216
REMARK 921   NORMALIZED FREE ENERGY PREDICTED BY IDOCK:   -4.40 KCAL/MOL
REMARK 922        TOTAL FREE ENERGY PREDICTED BY IDOCK:   -7.92 KCAL/MOL
REMARK 923 INTER-LIGAND FREE ENERGY PREDICTED BY IDOCK:   -6.83 KCAL/MOL
REMARK 924 INTRA-LIGAND FREE ENERGY PREDICTED BY IDOCK:   -1.10 KCAL/MOL
REMARK 927      BINDING AFFINITY PREDICTED BY RF-SCORE:    0.00 PKD
ROOT
HETATM    1  O   UNL     1     -12.623  10.553  68.979  1.00  0.00    -0.722 OA 
HETATM    2  C   UNL     1     -11.269  10.095  68.863  1.00  0.00    -0.170 C  
HETATM    3  H   UNL     1     -13.218   9.814  68.948  1.00  0.00     0.000 HD 
ENDROOT
BRANCH   2   4
HETATM    4  C   UNL     1     -11.076   9.065  69.956  1.00  0.00    -0.197 A  
HETATM    5  C   UNL     1     -10.571   7.214  72.007  1.00  0.00    -0.210 A  
HETATM    6  C   UNL     1     -11.305   9.407  71.300  1.00  0.00    -0.436 A  
HETATM    7  O   UNL     1     -10.417   6.646  74.252  1.00  0.00    -0.344 OA 
HETATM    8  O   UNL     1      -9.849   5.141  72.761  1.00  0.00    -0.155 OA 
HETATM    9  C   UNL     1     -10.609   7.772  69.657  1.00  0.00    -0.242 A  
HETATM   10  C   UNL     1     -11.055   8.490  72.325  1.00  0.00    -0.430 A  
HETATM   11  N   UNL     1     -10.257   6.266  73.084  1.00  0.00    -0.190 N  
HETATM   12  C   UNL     1     -10.358   6.846  70.674  1.00  0.00    -0.220 A  
ENDBRANCH   2   4
BRANCH   2  13
HETATM   13  C   UNL     1     -10.296  11.305  68.914  1.00  0.00    -0.195 C  
BRANCH  13  14
HETATM   14  N   UNL     1     -10.661  12.267  67.846  1.00  0.00    -0.209 N  
HETATM   15  C   UNL     1     -11.688  14.339  66.907  1.00  0.00    -0.408 C  
HETATM   16  C   UNL     1     -11.488  13.355  68.070  1.00  0.00    -0.304 C  
HETATM   17  H   UNL     1     -10.287  12.122  66.908  1.00  0.00     0.000 HD 
HETATM   18  O   UNL     1     -12.020  13.546  69.164  1.00  0.00    -0.322 OA 
HETATM   19 CL   UNL     1     -11.386  13.570  65.334  1.00  0.00    -0.298 Cl 
HETATM   20 CL   UNL     1     -10.618  15.734  67.139  1.00  0.00    -0.310 Cl 
ENDBRANCH  13  14
BRANCH  13  21
HETATM   21  C   UNL     1      -8.830  10.832  68.784  1.00  0.00    -0.163 C  
BRANCH  21  22
HETATM   22  O   UNL     1      -8.610  10.051  67.593  1.00  0.00    -0.118 OA 
BRANCH  22  23
HETATM   23  C   UNL     1      -7.940  10.684  66.595  1.00  0.00    -0.134 C  
HETATM   24  O   UNL     1      -7.719  11.888  66.547  1.00  0.00    -0.043 OA 
BRANCH  23  25
HETATM   25  C   UNL     1      -7.483   9.707  65.545  1.00  0.00    -0.106 C  
BRANCH  25  26
HETATM   26  C   UNL     1      -7.583  10.295  64.151  1.00  0.00    -0.087 C  
HETATM   27  C   UNL     1      -8.913  10.022  63.494  1.00  0.00    -0.256 C  
HETATM   28  O   UNL     1      -9.962  10.615  64.099  1.00  0.00    -0.308 OA 
HETATM   29  O   UNL     1      -9.030   9.347  62.483  1.00  0.00    -0.251 OA 
ENDBRANCH  25  26
ENDBRANCH  23  25
ENDBRANCH  22  23
ENDBRANCH  21  22
ENDBRANCH  13  21
ENDBRANCH   2  13
TORSDOF 8
ENDMDL
MODEL      217
REMARK 921   NORMALIZED FREE ENERGY PREDICTED BY IDOCK:   -4.40 KCAL/MOL
REMARK 922        TOTAL FREE ENERGY PREDICTED BY IDOCK:   -7.92 KCAL/MOL
REMARK 923 INTER-LIGAND FREE ENERGY PREDICTED BY IDOCK:   -7.15 KCAL/MOL
REMARK 924 INTRA-LIGAND FREE ENERGY PREDICTED BY IDOCK:   -0.77 KCAL/MOL
REMARK 927      BINDING AFFINITY PREDICTED BY RF-SCORE:    0.00 PKD
ROOT
HETATM    1  O   UNL     1     -12.594  14.038  66.198  1.00  0.00    -0.468 OA 
HETATM    2  C   UNL     1     -11.920  14.242  67.447  1.00  0.00    -0.391 C  
HETATM    3  H   UNL     1     -13.123  14.798  65.989  1.00  0.00     0.000 HD 
ENDROOT
BRANCH   2   4
HETATM    4  C   UNL     1     -11.156  15.542  67.308  1.00  0.00    -0.271 A  
HETATM    5  C   UNL     1      -9.880  18.028  67.021  1.00  0.00    -0.318 A  
HETATM    6  C   UNL     1     -11.046  16.420  68.400  1.00  0.00    -0.351 A  
HETATM    7  O   UNL     1      -9.250  20.106  67.840  1.00  0.00    -0.328 OA 
HETATM    8  O   UNL     1      -8.783  19.631  65.750  1.00  0.00    -0.398 OA 
HETATM    9  C   UNL     1     -10.597  15.925  66.075  1.00  0.00    -0.331 A  
HETATM   10  C   UNL     1     -10.412  17.658  68.263  1.00  0.00    -0.376 A  
HETATM   11  N   UNL     1      -9.260  19.349  66.859  1.00  0.00    -0.309 N  
HETATM   12  C   UNL     1      -9.960  17.159  65.927  1.00  0.00    -0.214 A  
ENDBRANCH   2   4
BRANCH   2  13
HETATM   13  C   UNL     1     -11.055  12.998  67.790  1.00  0.00    -0.262 C  
BRANCH  13  14
HETATM   14  N   UNL     1     -11.551  12.394  69.050  1.00  0.00    -0.290 N  
HETATM   15  C   UNL     1     -12.290  10.536  70.542  1.00  0.00    -0.343 C  
HETATM   16  C   UNL     1     -11.907  11.060  69.150  1.00  0.00    -0.337 C  
HETATM   17  H   UNL     1     -11.633  12.985  69.877  1.00  0.00     0.000 HD 
HETATM   18  O   UNL     1     -11.891  10.313  68.171  1.00  0.00    -0.238 OA 
HETATM   19 CL   UNL     1     -12.849  11.843  71.608  1.00  0.00    -0.461 Cl 
HETATM   20 CL   UNL     1     -10.895   9.704  71.252  1.00  0.00    -0.414 Cl 
ENDBRANCH  13  14
BRANCH  13  21
HETATM   21  C   UNL     1      -9.561  13.383  67.886  1.00  0.00    -0.216 C  
BRANCH  21  22
HETATM   22  O   UNL     1      -8.727  12.257  68.222  1.00  0.00    -0.182 OA 
BRANCH  22  23
HETATM   23  C   UNL     1      -8.588  11.321  67.247  1.00  0.00    -0.143 C  
HETATM   24  O   UNL     1      -8.585  11.551  66.044  1.00  0.00    -0.148 OA 
BRANCH  23  25
HETATM   25  C   UNL     1      -8.422   9.945  67.837  1.00  0.00    -0.121 C  
BRANCH  25  26
HETATM   26  C   UNL     1      -7.636   9.033  66.916  1.00  0.00    -0.094 C  
HETATM   27  C   UNL     1      -6.146   9.240  67.018  1.00  0.00    -0.060 C  
HETATM   28  O   UNL     1      -5.622   8.909  68.216  1.00  0.00    -0.038 OA 
HETATM   29  O   UNL     1      -5.464   9.642  66.089  1.00  0.00    -0.045 OA 
ENDBRANCH  25  26
ENDBRANCH  23  25
ENDBRANCH  22  23
ENDBRANCH  21  22
ENDBRANCH  13  21
ENDBRANCH   2  13
TORSDOF 8
ENDMDL
MODEL      218
REMARK 921   NORMALIZED FREE ENERGY PREDICTED BY IDOCK:   -4.39 KCAL/MOL
REMARK 922        TOTAL FREE ENERGY PREDICTED BY IDOCK:   -7.91 KCAL/MOL
REMARK 923 INTER-LIGAND FREE ENERGY PREDICTED BY IDOCK:   -7.71 KCAL/MOL
REMARK 924 INTRA-LIGAND FREE ENERGY PREDICTED BY IDOCK:   -0.19 KCAL/MOL
REMARK 927      BINDING AFFINITY PREDICTED BY RF-SCORE:    0.00 PKD
ROOT
HETATM    1  O   UNL     1     -10.934  18.831  68.258  1.00  0.00    -0.240 OA 
HETATM    2  C   UNL     1      -9.856  17.901  68.427  1.00  0.00    -0.355 C  
HETATM    3  H   UNL     1     -10.615  19.718  68.365  1.00  0.00     0.000 HD 
ENDROOT
BRANCH   2   4
HETATM    4  C   UNL     1      -8.778  18.322  67.449  1.00  0.00    -0.257 A  
HETATM    5  C   UNL     1      -6.886  19.077  65.516  1.00  0.00    -0.239 A  
HETATM    6  C   UNL     1      -8.731  19.643  66.973  1.00  0.00    -0.369 A  
HETATM    7  O   UNL     1      -5.981  20.623  64.040  1.00  0.00    -0.259 OA 
HETATM    8  O   UNL     1      -5.134  18.599  64.070  1.00  0.00    -0.162 OA 
HETATM    9  C   UNL     1      -7.846  17.391  66.954  1.00  0.00    -0.258 A  
HETATM   10  C   UNL     1      -7.792  20.025  66.010  1.00  0.00    -0.307 A  
HETATM   11  N   UNL     1      -5.932  19.461  64.467  1.00  0.00    -0.272 N  
HETATM   12  C   UNL     1      -6.902  17.762  65.994  1.00  0.00    -0.327 A  
ENDBRANCH   2   4
BRANCH   2  13
HETATM   13  C   UNL     1     -10.378  16.448  68.252  1.00  0.00    -0.279 C  
BRANCH  13  14
HETATM   14  N   UNL     1      -9.224  15.536  68.066  1.00  0.00    -0.187 N  
HETATM   15  C   UNL     1      -8.046  13.336  68.035  1.00  0.00    -0.157 C  
HETATM   16  C   UNL     1      -9.272  14.191  68.390  1.00  0.00    -0.203 C  
HETATM   17  H   UNL     1      -8.357  15.916  67.682  1.00  0.00     0.000 HD 
HETATM   18  O   UNL     1     -10.267  13.690  68.916  1.00  0.00    -0.188 OA 
HETATM   19 CL   UNL     1      -6.573  14.320  67.902  1.00  0.00    -0.157 Cl 
HETATM   20 CL   UNL     1      -8.363  12.473  66.519  1.00  0.00     0.048 Cl 
ENDBRANCH  13  14
BRANCH  13  21
HETATM   21  C   UNL     1     -11.373  16.364  67.072  1.00  0.00     0.338 C  
BRANCH  21  22
HETATM   22  O   UNL     1     -10.743  16.638  65.805  1.00  0.00    -0.301 OA 
BRANCH  22  23
HETATM   23  C   UNL     1     -11.141  15.848  64.773  1.00  0.00    -0.384 C  
HETATM   24  O   UNL     1     -11.942  16.174  63.906  1.00  0.00    -0.947 OA 
BRANCH  23  25
HETATM   25  C   UNL     1     -10.453  14.510  64.817  1.00  0.00    -0.365 C  
BRANCH  25  26
HETATM   26  C   UNL     1     -11.441  13.380  65.028  1.00  0.00    -0.331 C  
HETATM   27  C   UNL     1     -11.716  12.599  63.767  1.00  0.00    -0.491 C  
HETATM   28  O   UNL     1     -10.650  11.923  63.291  1.00  0.00    -0.403 OA 
HETATM   29  O   UNL     1     -12.814  12.555  63.236  1.00  0.00    -0.666 OA 
ENDBRANCH  25  26
ENDBRANCH  23  25
ENDBRANCH  22  23
ENDBRANCH  21  22
ENDBRANCH  13  21
ENDBRANCH   2  13
TORSDOF 8
ENDMDL
MODEL      219
REMARK 921   NORMALIZED FREE ENERGY PREDICTED BY IDOCK:   -4.38 KCAL/MOL
REMARK 922        TOTAL FREE ENERGY PREDICTED BY IDOCK:   -7.90 KCAL/MOL
REMARK 923 INTER-LIGAND FREE ENERGY PREDICTED BY IDOCK:   -8.03 KCAL/MOL
REMARK 924 INTRA-LIGAND FREE ENERGY PREDICTED BY IDOCK:    0.12 KCAL/MOL
REMARK 927      BINDING AFFINITY PREDICTED BY RF-SCORE:    0.00 PKD
ROOT
HETATM    1  O   UNL     1     -13.345  12.752  64.921  1.00  0.00    -0.736 OA 
HETATM    2  C   UNL     1     -12.081  13.344  65.251  1.00  0.00    -0.413 C  
HETATM    3  H   UNL     1     -13.369  12.535  63.997  1.00  0.00     0.000 HD 
ENDROOT
BRANCH   2   4
HETATM    4  C   UNL     1     -11.023  12.363  64.791  1.00  0.00    -0.340 A  
HETATM    5  C   UNL     1      -9.145  10.426  64.012  1.00  0.00    -0.242 A  
HETATM    6  C   UNL     1     -11.215  11.611  63.619  1.00  0.00    -0.497 A  
HETATM    7  O   UNL     1      -8.445   8.701  62.624  1.00  0.00    -0.201 OA 
HETATM    8  O   UNL     1      -7.185   9.225  64.342  1.00  0.00    -0.094 OA 
HETATM    9  C   UNL     1      -9.863  12.140  65.555  1.00  0.00    -0.240 A  
HETATM   10  C   UNL     1     -10.283  10.646  63.227  1.00  0.00    -0.139 A  
HETATM   11  N   UNL     1      -8.190   9.376  63.632  1.00  0.00    -0.157 N  
HETATM   12  C   UNL     1      -8.924  11.178  65.171  1.00  0.00    -0.106 A  
ENDBRANCH   2   4
BRANCH   2  13
HETATM   13  C   UNL     1     -12.043  13.700  66.763  1.00  0.00    -0.399 C  
BRANCH  13  14
HETATM   14  N   UNL     1     -11.398  15.025  66.933  1.00  0.00    -0.331 N  
HETATM   15  C   UNL     1     -10.693  17.065  68.183  1.00  0.00    -0.374 C  
HETATM   16  C   UNL     1     -11.508  15.767  68.096  1.00  0.00    -0.302 C  
HETATM   17  H   UNL     1     -10.850  15.405  66.160  1.00  0.00     0.000 HD 
HETATM   18  O   UNL     1     -12.208  15.390  69.037  1.00  0.00    -0.257 OA 
HETATM   19 CL   UNL     1     -10.305  17.710  66.574  1.00  0.00    -0.349 Cl 
HETATM   20 CL   UNL     1      -9.212  16.758  69.108  1.00  0.00    -0.199 Cl 
ENDBRANCH  13  14
BRANCH  13  21
HETATM   21  C   UNL     1     -11.313  12.599  67.564  1.00  0.00    -0.308 C  
BRANCH  21  22
HETATM   22  O   UNL     1     -12.223  11.618  68.099  1.00  0.00    -0.537 OA 
BRANCH  22  23
HETATM   23  C   UNL     1     -11.678  10.729  68.970  1.00  0.00    -0.286 C  
HETATM   24  O   UNL     1     -12.111  10.483  70.089  1.00  0.00    -0.286 OA 
BRANCH  23  25
HETATM   25  C   UNL     1     -10.466  10.062  68.377  1.00  0.00    -0.235 C  
BRANCH  25  26
HETATM   26  C   UNL     1     -10.486   8.563  68.600  1.00  0.00    -0.200 C  
HETATM   27  C   UNL     1     -10.296   7.778  67.326  1.00  0.00    -0.301 C  
HETATM   28  O   UNL     1      -9.085   7.937  66.754  1.00  0.00    -0.141 OA 
HETATM   29  O   UNL     1     -11.151   7.038  66.866  1.00  0.00    -0.359 OA 
ENDBRANCH  25  26
ENDBRANCH  23  25
ENDBRANCH  22  23
ENDBRANCH  21  22
ENDBRANCH  13  21
ENDBRANCH   2  13
TORSDOF 8
ENDMDL
MODEL      220
REMARK 921   NORMALIZED FREE ENERGY PREDICTED BY IDOCK:   -4.38 KCAL/MOL
REMARK 922        TOTAL FREE ENERGY PREDICTED BY IDOCK:   -7.90 KCAL/MOL
REMARK 923 INTER-LIGAND FREE ENERGY PREDICTED BY IDOCK:   -6.64 KCAL/MOL
REMARK 924 INTRA-LIGAND FREE ENERGY PREDICTED BY IDOCK:   -1.26 KCAL/MOL
REMARK 927      BINDING AFFINITY PREDICTED BY RF-SCORE:    0.00 PKD
ROOT
HETATM    1  O   UNL     1     -12.358  10.576  68.663  1.00  0.00    -0.785 OA 
HETATM    2  C   UNL     1     -11.267   9.765  68.209  1.00  0.00    -0.012 C  
HETATM    3  H   UNL     1     -13.004  10.034  69.100  1.00  0.00     0.000 HD 
ENDROOT
BRANCH   2   4
HETATM    4  C   UNL     1     -10.763   9.014  69.424  1.00  0.00    -0.202 A  
HETATM    5  C   UNL     1      -9.681   7.630  71.615  1.00  0.00    -0.161 A  
HETATM    6  C   UNL     1     -10.208   9.715  70.509  1.00  0.00    -0.351 A  
HETATM    7  O   UNL     1      -8.535   7.577  73.633  1.00  0.00    -0.148 OA 
HETATM    8  O   UNL     1      -9.117   5.669  72.721  1.00  0.00    -0.131 OA 
HETATM    9  C   UNL     1     -10.785   7.608  69.467  1.00  0.00    -0.211 A  
HETATM   10  C   UNL     1      -9.668   9.031  71.602  1.00  0.00    -0.347 A  
HETATM   11  N   UNL     1      -9.067   6.908  72.737  1.00  0.00    -0.134 N  
HETATM   12  C   UNL     1     -10.249   6.915  70.555  1.00  0.00    -0.209 A  
ENDBRANCH   2   4
BRANCH   2  13
HETATM   13  C   UNL     1     -10.211  10.652  67.494  1.00  0.00    -0.199 C  
BRANCH  13  14
HETATM   14  N   UNL     1     -10.877  11.430  66.421  1.00  0.00    -0.277 N  
HETATM   15  C   UNL     1     -11.971  13.431  65.409  1.00  0.00    -0.387 C  
HETATM   16  C   UNL     1     -11.418  12.686  66.633  1.00  0.00    -0.351 C  
HETATM   17  H   UNL     1     -10.938  11.022  65.487  1.00  0.00     0.000 HD 
HETATM   18  O   UNL     1     -11.432  13.202  67.752  1.00  0.00    -0.276 OA 
HETATM   19 CL   UNL     1     -12.424  12.312  64.105  1.00  0.00    -0.548 Cl 
HETATM   20 CL   UNL     1     -10.758  14.594  64.842  1.00  0.00    -0.440 Cl 
ENDBRANCH  13  14
BRANCH  13  21
HETATM   21  C   UNL     1      -9.054   9.788  66.944  1.00  0.00    -0.142 C  
BRANCH  21  22
HETATM   22  O   UNL     1      -9.456   8.991  65.812  1.00  0.00    -0.245 OA 
BRANCH  22  23
HETATM   23  C   UNL     1      -8.644   7.943  65.517  1.00  0.00    -0.116 C  
HETATM   24  O   UNL     1      -7.840   7.912  64.594  1.00  0.00    -0.119 OA 
BRANCH  23  25
HETATM   25  C   UNL     1      -8.846   6.811  66.489  1.00  0.00    -0.150 C  
BRANCH  25  26
HETATM   26  C   UNL     1     -10.137   6.064  66.219  1.00  0.00    -0.067 C  
HETATM   27  C   UNL     1      -9.927   4.583  66.023  1.00  0.00    -0.248 C  
HETATM   28  O   UNL     1      -9.482   3.937  67.120  1.00  0.00    -0.179 OA 
HETATM   29  O   UNL     1     -10.168   4.010  64.972  1.00  0.00    -0.210 OA 
ENDBRANCH  25  26
ENDBRANCH  23  25
ENDBRANCH  22  23
ENDBRANCH  21  22
ENDBRANCH  13  21
ENDBRANCH   2  13
TORSDOF 8
ENDMDL
MODEL      221
REMARK 921   NORMALIZED FREE ENERGY PREDICTED BY IDOCK:   -4.38 KCAL/MOL
REMARK 922        TOTAL FREE ENERGY PREDICTED BY IDOCK:   -7.89 KCAL/MOL
REMARK 923 INTER-LIGAND FREE ENERGY PREDICTED BY IDOCK:   -7.06 KCAL/MOL
REMARK 924 INTRA-LIGAND FREE ENERGY PREDICTED BY IDOCK:   -0.83 KCAL/MOL
REMARK 927      BINDING AFFINITY PREDICTED BY RF-SCORE:    0.00 PKD
ROOT
HETATM    1  O   UNL     1     -10.939  11.013  69.180  1.00  0.00    -0.207 OA 
HETATM    2  C   UNL     1     -11.144  10.362  67.918  1.00  0.00    -0.299 C  
HETATM    3  H   UNL     1     -11.408  10.548  69.862  1.00  0.00     0.000 HD 
ENDROOT
BRANCH   2   4
HETATM    4  C   UNL     1     -10.732   8.918  68.116  1.00  0.00    -0.148 A  
HETATM    5  C   UNL     1     -10.123   6.199  68.472  1.00  0.00    -0.162 A  
HETATM    6  C   UNL     1     -10.558   8.073  67.006  1.00  0.00    -0.364 A  
HETATM    7  O   UNL     1      -9.779   4.058  67.644  1.00  0.00    -0.173 OA 
HETATM    8  O   UNL     1      -9.728   4.349  69.817  1.00  0.00    -0.193 OA 
HETATM    9  C   UNL     1     -10.575   8.380  69.406  1.00  0.00    -0.204 A  
HETATM   10  C   UNL     1     -10.255   6.719  67.178  1.00  0.00    -0.291 A  
HETATM   11  N   UNL     1      -9.858   4.767  68.657  1.00  0.00    -0.157 N  
HETATM   12  C   UNL     1     -10.271   7.028  69.589  1.00  0.00    -0.212 A  
ENDBRANCH   2   4
BRANCH   2  13
HETATM   13  C   UNL     1     -10.377  11.123  66.801  1.00  0.00    -0.241 C  
BRANCH  13  14
HETATM   14  N   UNL     1      -9.526  12.167  67.421  1.00  0.00    -0.176 N  
HETATM   15  C   UNL     1      -7.484  13.068  68.536  1.00  0.00    -0.123 C  
HETATM   16  C   UNL     1      -8.323  11.880  68.042  1.00  0.00    -0.160 C  
HETATM   17  H   UNL     1      -9.840  13.137  67.388  1.00  0.00     0.000 HD 
HETATM   18  O   UNL     1      -7.923  10.722  68.170  1.00  0.00    -0.107 OA 
HETATM   19 CL   UNL     1      -8.486  14.506  68.827  1.00  0.00    -0.162 Cl 
HETATM   20 CL   UNL     1      -6.218  13.418  67.345  1.00  0.00    -0.081 Cl 
ENDBRANCH  13  14
BRANCH  13  21
HETATM   21  C   UNL     1     -11.363  11.720  65.773  1.00  0.00    -0.250 C  
BRANCH  21  22
HETATM   22  O   UNL     1     -10.729  12.670  64.894  1.00  0.00    -0.280 OA 
BRANCH  22  23
HETATM   23  C   UNL     1     -11.567  13.541  64.272  1.00  0.00    -0.397 C  
HETATM   24  O   UNL     1     -12.308  13.260  63.338  1.00  0.00    -0.726 OA 
BRANCH  23  25
HETATM   25  C   UNL     1     -11.482  14.911  64.890  1.00  0.00    -0.407 C  
BRANCH  25  26
HETATM   26  C   UNL     1     -10.125  15.157  65.520  1.00  0.00    -0.402 C  
HETATM   27  C   UNL     1     -10.049  16.475  66.250  1.00  0.00    -0.333 C  
HETATM   28  O   UNL     1     -10.852  16.556  67.330  1.00  0.00    -0.294 OA 
HETATM   29  O   UNL     1      -9.303  17.380  65.914  1.00  0.00    -0.508 OA 
ENDBRANCH  25  26
ENDBRANCH  23  25
ENDBRANCH  22  23
ENDBRANCH  21  22
ENDBRANCH  13  21
ENDBRANCH   2  13
TORSDOF 8
ENDMDL
MODEL      222
REMARK 921   NORMALIZED FREE ENERGY PREDICTED BY IDOCK:   -4.37 KCAL/MOL
REMARK 922        TOTAL FREE ENERGY PREDICTED BY IDOCK:   -7.88 KCAL/MOL
REMARK 923 INTER-LIGAND FREE ENERGY PREDICTED BY IDOCK:   -7.07 KCAL/MOL
REMARK 924 INTRA-LIGAND FREE ENERGY PREDICTED BY IDOCK:   -0.81 KCAL/MOL
REMARK 927      BINDING AFFINITY PREDICTED BY RF-SCORE:    0.00 PKD
ROOT
HETATM    1  O   UNL     1     -12.364  10.542  68.391  1.00  0.00    -0.700 OA 
HETATM    2  C   UNL     1     -10.934  10.442  68.449  1.00  0.00    -0.264 C  
HETATM    3  H   UNL     1     -12.749   9.675  68.417  1.00  0.00     0.000 HD 
ENDROOT
BRANCH   2   4
HETATM    4  C   UNL     1     -10.618   9.632  69.689  1.00  0.00    -0.252 A  
HETATM    5  C   UNL     1     -10.015   8.268  72.068  1.00  0.00    -0.257 A  
HETATM    6  C   UNL     1     -11.627   9.343  70.623  1.00  0.00    -0.330 A  
HETATM    7  O   UNL     1     -10.610   7.432  74.150  1.00  0.00    -0.194 OA 
HETATM    8  O   UNL     1      -8.518   7.248  73.520  1.00  0.00    -0.122 OA 
HETATM    9  C   UNL     1      -9.304   9.206  69.959  1.00  0.00    -0.218 A  
HETATM   10  C   UNL     1     -11.332   8.665  71.809  1.00  0.00    -0.393 A  
HETATM   11  N   UNL     1      -9.691   7.602  73.337  1.00  0.00    -0.286 N  
HETATM   12  C   UNL     1      -8.999   8.526  71.141  1.00  0.00    -0.232 A  
ENDBRANCH   2   4
BRANCH   2  13
HETATM   13  C   UNL     1     -10.303  11.862  68.407  1.00  0.00    -0.209 C  
BRANCH  13  14
HETATM   14  N   UNL     1     -11.024  12.683  67.404  1.00  0.00    -0.246 N  
HETATM   15  C   UNL     1     -12.019  14.771  66.469  1.00  0.00    -0.179 C  
HETATM   16  C   UNL     1     -11.384  14.000  67.635  1.00  0.00    -0.312 C  
HETATM   17  H   UNL     1     -11.265  12.261  66.507  1.00  0.00     0.000 HD 
HETATM   18  O   UNL     1     -11.179  14.543  68.721  1.00  0.00    -0.238 OA 
HETATM   19 CL   UNL     1     -12.778  13.679  65.291  1.00  0.00    -0.503 Cl 
HETATM   20 CL   UNL     1     -10.777  15.768  65.689  1.00  0.00    -0.357 Cl 
ENDBRANCH  13  14
BRANCH  13  21
HETATM   21  C   UNL     1      -8.791  11.778  68.100  1.00  0.00    -0.169 C  
BRANCH  21  22
HETATM   22  O   UNL     1      -8.312  12.934  67.387  1.00  0.00    -0.171 OA 
BRANCH  22  23
HETATM   23  C   UNL     1      -7.570  13.807  68.118  1.00  0.00    -0.128 C  
HETATM   24  O   UNL     1      -6.827  13.498  69.041  1.00  0.00    -0.108 OA 
BRANCH  23  25
HETATM   25  C   UNL     1      -7.767  15.220  67.638  1.00  0.00    -0.185 C  
BRANCH  25  26
HETATM   26  C   UNL     1      -8.081  16.162  68.784  1.00  0.00    -0.218 C  
HETATM   27  C   UNL     1      -7.988  17.615  68.390  1.00  0.00    -0.270 C  
HETATM   28  O   UNL     1      -8.906  18.001  67.481  1.00  0.00    -0.249 OA 
HETATM   29  O   UNL     1      -7.174  18.385  68.874  1.00  0.00    -0.281 OA 
ENDBRANCH  25  26
ENDBRANCH  23  25
ENDBRANCH  22  23
ENDBRANCH  21  22
ENDBRANCH  13  21
ENDBRANCH   2  13
TORSDOF 8
ENDMDL
MODEL      223
REMARK 921   NORMALIZED FREE ENERGY PREDICTED BY IDOCK:   -4.37 KCAL/MOL
REMARK 922        TOTAL FREE ENERGY PREDICTED BY IDOCK:   -7.88 KCAL/MOL
REMARK 923 INTER-LIGAND FREE ENERGY PREDICTED BY IDOCK:   -6.74 KCAL/MOL
REMARK 924 INTRA-LIGAND FREE ENERGY PREDICTED BY IDOCK:   -1.14 KCAL/MOL
REMARK 927      BINDING AFFINITY PREDICTED BY RF-SCORE:    0.00 PKD
ROOT
HETATM    1  O   UNL     1      -8.331  10.445  69.956  1.00  0.00    -0.362 OA 
HETATM    2  C   UNL     1      -9.330  10.510  68.929  1.00  0.00    -0.187 C  
HETATM    3  H   UNL     1      -8.324   9.579  70.345  1.00  0.00     0.000 HD 
ENDROOT
BRANCH   2   4
HETATM    4  C   UNL     1      -9.028   9.375  67.973  1.00  0.00    -0.128 A  
HETATM    5  C   UNL     1      -8.321   7.337  66.175  1.00  0.00    -0.133 A  
HETATM    6  C   UNL     1      -8.306   8.252  68.413  1.00  0.00    -0.132 A  
HETATM    7  O   UNL     1      -7.215   5.363  65.657  1.00  0.00    -0.066 OA 
HETATM    8  O   UNL     1      -8.270   6.413  64.046  1.00  0.00    -0.084 OA 
HETATM    9  C   UNL     1      -9.407   9.448  66.621  1.00  0.00    -0.211 A  
HETATM   10  C   UNL     1      -7.951   7.235  67.522  1.00  0.00    -0.113 A  
HETATM   11  N   UNL     1      -7.906   6.296  65.225  1.00  0.00    -0.100 N  
HETATM   12  C   UNL     1      -9.060   8.436  65.722  1.00  0.00    -0.195 A  
ENDBRANCH   2   4
BRANCH   2  13
HETATM   13  C   UNL     1      -9.342  11.928  68.293  1.00  0.00    -0.193 C  
BRANCH  13  14
HETATM   14  N   UNL     1      -8.205  12.712  68.833  1.00  0.00    -0.341 N  
HETATM   15  C   UNL     1      -5.911  13.694  68.821  1.00  0.00    -0.084 C  
HETATM   16  C   UNL     1      -6.963  12.748  68.223  1.00  0.00    -0.097 C  
HETATM   17  H   UNL     1      -8.344  13.247  69.691  1.00  0.00     0.000 HD 
HETATM   18  O   UNL     1      -6.716  12.071  67.223  1.00  0.00    -0.121 OA 
HETATM   19 CL   UNL     1      -6.238  14.047  70.531  1.00  0.00    -0.151 Cl 
HETATM   20 CL   UNL     1      -5.871  15.190  67.869  1.00  0.00    -0.156 Cl 
ENDBRANCH  13  14
BRANCH  13  21
HETATM   21  C   UNL     1     -10.695  12.628  68.546  1.00  0.00    -0.248 C  
BRANCH  21  22
HETATM   22  O   UNL     1     -11.465  12.785  67.338  1.00  0.00    -0.299 OA 
BRANCH  22  23
HETATM   23  C   UNL     1     -11.265  13.947  66.664  1.00  0.00    -0.320 C  
HETATM   24  O   UNL     1     -11.739  15.033  66.974  1.00  0.00    -0.309 OA 
BRANCH  23  25
HETATM   25  C   UNL     1     -10.361  13.737  65.478  1.00  0.00    -0.333 C  
BRANCH  25  26
HETATM   26  C   UNL     1     -10.910  12.684  64.536  1.00  0.00    -0.365 C  
HETATM   27  C   UNL     1     -12.333  12.959  64.115  1.00  0.00    -0.376 C  
HETATM   28  O   UNL     1     -12.484  14.074  63.371  1.00  0.00    -0.826 OA 
HETATM   29  O   UNL     1     -13.264  12.222  64.395  1.00  0.00    -0.806 OA 
ENDBRANCH  25  26
ENDBRANCH  23  25
ENDBRANCH  22  23
ENDBRANCH  21  22
ENDBRANCH  13  21
ENDBRANCH   2  13
TORSDOF 8
ENDMDL
MODEL      224
REMARK 921   NORMALIZED FREE ENERGY PREDICTED BY IDOCK:   -4.36 KCAL/MOL
REMARK 922        TOTAL FREE ENERGY PREDICTED BY IDOCK:   -7.87 KCAL/MOL
REMARK 923 INTER-LIGAND FREE ENERGY PREDICTED BY IDOCK:   -6.92 KCAL/MOL
REMARK 924 INTRA-LIGAND FREE ENERGY PREDICTED BY IDOCK:   -0.95 KCAL/MOL
REMARK 927      BINDING AFFINITY PREDICTED BY RF-SCORE:    0.00 PKD
ROOT
HETATM    1  O   UNL     1      -9.738  10.581  70.062  1.00  0.00    -0.400 OA 
HETATM    2  C   UNL     1      -9.272   9.974  68.850  1.00  0.00    -0.169 C  
HETATM    3  H   UNL     1      -9.575  11.516  70.038  1.00  0.00     0.000 HD 
ENDROOT
BRANCH   2   4
HETATM    4  C   UNL     1      -9.948  10.718  67.717  1.00  0.00    -0.195 A  
HETATM    5  C   UNL     1     -11.329  12.001  65.635  1.00  0.00    -0.329 A  
HETATM    6  C   UNL     1     -10.856  11.755  67.994  1.00  0.00    -0.256 A  
HETATM    7  O   UNL     1     -12.925  13.499  64.862  1.00  0.00    -0.708 OA 
HETATM    8  O   UNL     1     -11.856  12.273  63.391  1.00  0.00    -0.467 OA 
HETATM    9  C   UNL     1      -9.730  10.350  66.377  1.00  0.00    -0.250 A  
HETATM   10  C   UNL     1     -11.546  12.397  66.961  1.00  0.00    -0.434 A  
HETATM   11  N   UNL     1     -12.091  12.637  64.552  1.00  0.00    -0.393 N  
HETATM   12  C   UNL     1     -10.413  10.987  65.337  1.00  0.00    -0.306 A  
ENDBRANCH   2   4
BRANCH   2  13
HETATM   13  C   UNL     1      -9.539   8.443  68.889  1.00  0.00    -0.153 C  
BRANCH  13  14
HETATM   14  N   UNL     1     -10.435   8.136  70.029  1.00  0.00    -0.226 N  
HETATM   15  C   UNL     1     -12.077   6.779  71.329  1.00  0.00    -0.370 C  
HETATM   16  C   UNL     1     -11.292   7.049  70.036  1.00  0.00    -0.249 C  
HETATM   17  H   UNL     1     -10.420   8.752  70.843  1.00  0.00     0.000 HD 
HETATM   18  O   UNL     1     -11.402   6.309  69.058  1.00  0.00    -0.390 OA 
HETATM   19 CL   UNL     1     -12.256   8.248  72.310  1.00  0.00    -0.413 Cl 
HETATM   20 CL   UNL     1     -11.254   5.507  72.250  1.00  0.00    -0.304 Cl 
ENDBRANCH  13  14
BRANCH  13  21
HETATM   21  C   UNL     1      -8.210   7.660  68.975  1.00  0.00    -0.127 C  
BRANCH  21  22
HETATM   22  O   UNL     1      -8.045   7.000  70.245  1.00  0.00    -0.115 OA 
BRANCH  22  23
HETATM   23  C   UNL     1      -7.306   5.860  70.220  1.00  0.00    -0.080 C  
HETATM   24  O   UNL     1      -6.243   5.696  70.805  1.00  0.00    -0.028 OA 
BRANCH  23  25
HETATM   25  C   UNL     1      -7.971   4.801  69.382  1.00  0.00    -0.070 C  
BRANCH  25  26
HETATM   26  C   UNL     1      -7.874   3.433  70.028  1.00  0.00    -0.049 C  
HETATM   27  C   UNL     1      -9.183   2.684  70.017  1.00  0.00    -0.132 C  
HETATM   28  O   UNL     1      -9.622   2.356  68.785  1.00  0.00    -0.155 OA 
HETATM   29  O   UNL     1      -9.782   2.374  71.034  1.00  0.00    -0.147 OA 
ENDBRANCH  25  26
ENDBRANCH  23  25
ENDBRANCH  22  23
ENDBRANCH  21  22
ENDBRANCH  13  21
ENDBRANCH   2  13
TORSDOF 8
ENDMDL
MODEL      225
REMARK 921   NORMALIZED FREE ENERGY PREDICTED BY IDOCK:   -4.36 KCAL/MOL
REMARK 922        TOTAL FREE ENERGY PREDICTED BY IDOCK:   -7.86 KCAL/MOL
REMARK 923 INTER-LIGAND FREE ENERGY PREDICTED BY IDOCK:   -8.42 KCAL/MOL
REMARK 924 INTRA-LIGAND FREE ENERGY PREDICTED BY IDOCK:    0.56 KCAL/MOL
REMARK 927      BINDING AFFINITY PREDICTED BY RF-SCORE:    0.00 PKD
ROOT
HETATM    1  O   UNL     1     -11.746  15.041  69.985  1.00  0.00    -0.267 OA 
HETATM    2  C   UNL     1     -11.462  13.952  69.096  1.00  0.00    -0.299 C  
HETATM    3  H   UNL     1     -12.677  15.073  70.169  1.00  0.00     0.000 HD 
ENDROOT
BRANCH   2   4
HETATM    4  C   UNL     1     -12.034  12.712  69.752  1.00  0.00    -0.365 A  
HETATM    5  C   UNL     1     -12.955  10.397  71.048  1.00  0.00    -0.399 A  
HETATM    6  C   UNL     1     -12.619  12.791  71.027  1.00  0.00    -0.362 A  
HETATM    7  O   UNL     1     -13.836   9.305  72.897  1.00  0.00    -0.338 OA 
HETATM    8  O   UNL     1     -13.280   8.101  71.150  1.00  0.00    -0.172 OA 
HETATM    9  C   UNL     1     -11.938  11.454  69.129  1.00  0.00    -0.395 A  
HETATM   10  C   UNL     1     -13.079  11.641  71.677  1.00  0.00    -0.456 A  
HETATM   11  N   UNL     1     -13.388   9.181  71.749  1.00  0.00    -0.382 N  
HETATM   12  C   UNL     1     -12.396  10.299  69.769  1.00  0.00    -0.030 A  
ENDBRANCH   2   4
BRANCH   2  13
HETATM   13  C   UNL     1      -9.939  13.899  68.795  1.00  0.00    -0.135 C  
BRANCH  13  14
HETATM   14  N   UNL     1      -9.578  15.038  67.917  1.00  0.00    -0.202 N  
HETATM   15  C   UNL     1     -10.011  16.877  66.287  1.00  0.00    -0.309 C  
HETATM   16  C   UNL     1     -10.481  15.631  67.051  1.00  0.00    -0.303 C  
HETATM   17  H   UNL     1      -8.624  15.400  67.951  1.00  0.00     0.000 HD 
HETATM   18  O   UNL     1     -11.627  15.197  66.918  1.00  0.00    -0.285 OA 
HETATM   19 CL   UNL     1      -8.242  16.930  66.137  1.00  0.00    -0.335 Cl 
HETATM   20 CL   UNL     1     -10.612  18.325  67.116  1.00  0.00    -0.410 Cl 
ENDBRANCH  13  14
BRANCH  13  21
HETATM   21  C   UNL     1      -9.554  12.542  68.164  1.00  0.00    -0.215 C  
BRANCH  21  22
HETATM   22  O   UNL     1      -9.354  12.637  66.740  1.00  0.00    -0.221 OA 
BRANCH  22  23
HETATM   23  C   UNL     1      -9.313  11.453  66.075  1.00  0.00    -0.217 C  
HETATM   24  O   UNL     1      -8.304  10.783  65.893  1.00  0.00    -0.159 OA 
BRANCH  23  25
HETATM   25  C   UNL     1     -10.682  11.052  65.595  1.00  0.00    -0.217 C  
BRANCH  25  26
HETATM   26  C   UNL     1     -10.845  11.289  64.107  1.00  0.00    -0.407 C  
HETATM   27  C   UNL     1     -11.875  12.346  63.791  1.00  0.00    -0.502 C  
HETATM   28  O   UNL     1     -11.545  13.583  64.214  1.00  0.00    -0.378 OA 
HETATM   29  O   UNL     1     -12.904  12.111  63.179  1.00  0.00    -0.662 OA 
ENDBRANCH  25  26
ENDBRANCH  23  25
ENDBRANCH  22  23
ENDBRANCH  21  22
ENDBRANCH  13  21
ENDBRANCH   2  13
TORSDOF 8
ENDMDL
MODEL      226
REMARK 921   NORMALIZED FREE ENERGY PREDICTED BY IDOCK:   -4.35 KCAL/MOL
REMARK 922        TOTAL FREE ENERGY PREDICTED BY IDOCK:   -7.85 KCAL/MOL
REMARK 923 INTER-LIGAND FREE ENERGY PREDICTED BY IDOCK:   -7.37 KCAL/MOL
REMARK 924 INTRA-LIGAND FREE ENERGY PREDICTED BY IDOCK:   -0.48 KCAL/MOL
REMARK 927      BINDING AFFINITY PREDICTED BY RF-SCORE:    0.00 PKD
ROOT
HETATM    1  O   UNL     1      -7.385  16.389  67.187  1.00  0.00    -0.155 OA 
HETATM    2  C   UNL     1      -7.890  15.125  67.639  1.00  0.00    -0.160 C  
HETATM    3  H   UNL     1      -7.162  16.336  66.265  1.00  0.00     0.000 HD 
ENDROOT
BRANCH   2   4
HETATM    4  C   UNL     1      -9.038  14.773  66.716  1.00  0.00    -0.291 A  
HETATM    5  C   UNL     1     -11.060  14.110  64.883  1.00  0.00    -0.385 A  
HETATM    6  C   UNL     1      -9.329  13.429  66.428  1.00  0.00    -0.185 A  
HETATM    7  O   UNL     1     -12.248  12.563  63.624  1.00  0.00    -0.480 OA 
HETATM    8  O   UNL     1     -12.714  14.690  63.361  1.00  0.00    -0.514 OA 
HETATM    9  C   UNL     1      -9.792  15.779  66.083  1.00  0.00    -0.341 A  
HETATM   10  C   UNL     1     -10.334  13.093  65.516  1.00  0.00    -0.299 A  
HETATM   11  N   UNL     1     -12.080  13.763  63.885  1.00  0.00    -0.434 N  
HETATM   12  C   UNL     1     -10.800  15.454  65.172  1.00  0.00    -0.447 A  
ENDBRANCH   2   4
BRANCH   2  13
HETATM   13  C   UNL     1      -8.255  15.211  69.147  1.00  0.00    -0.214 C  
BRANCH  13  14
HETATM   14  N   UNL     1      -7.232  14.485  69.936  1.00  0.00    -0.385 N  
HETATM   15  C   UNL     1      -5.130  14.246  71.260  1.00  0.00    -0.135 C  
HETATM   16  C   UNL     1      -6.047  15.072  70.347  1.00  0.00    -0.121 C  
HETATM   17  H   UNL     1      -7.407  13.512  70.189  1.00  0.00     0.000 HD 
HETATM   18  O   UNL     1      -5.750  16.222  70.018  1.00  0.00    -0.175 OA 
HETATM   19 CL   UNL     1      -5.414  12.502  71.076  1.00  0.00    -0.162 Cl 
HETATM   20 CL   UNL     1      -5.383  14.747  72.942  1.00  0.00    -0.116 Cl 
ENDBRANCH  13  14
BRANCH  13  21
HETATM   21  C   UNL     1      -9.675  14.655  69.397  1.00  0.00     0.032 C  
BRANCH  21  22
HETATM   22  O   UNL     1     -10.675  15.693  69.413  1.00  0.00    -0.217 OA 
BRANCH  22  23
HETATM   23  C   UNL     1     -11.949  15.273  69.626  1.00  0.00    -0.338 C  
HETATM   24  O   UNL     1     -12.832  15.941  70.151  1.00  0.00    -0.285 OA 
BRANCH  23  25
HETATM   25  C   UNL     1     -12.151  13.871  69.118  1.00  0.00    -0.377 C  
BRANCH  25  26
HETATM   26  C   UNL     1     -11.795  12.838  70.168  1.00  0.00    -0.326 C  
HETATM   27  C   UNL     1     -11.911  11.422  69.661  1.00  0.00    -0.362 C  
HETATM   28  O   UNL     1     -11.034  11.110  68.686  1.00  0.00    -0.188 OA 
HETATM   29  O   UNL     1     -12.708  10.616  70.114  1.00  0.00    -0.308 OA 
ENDBRANCH  25  26
ENDBRANCH  23  25
ENDBRANCH  22  23
ENDBRANCH  21  22
ENDBRANCH  13  21
ENDBRANCH   2  13
TORSDOF 8
ENDMDL
MODEL      227
REMARK 921   NORMALIZED FREE ENERGY PREDICTED BY IDOCK:   -4.33 KCAL/MOL
REMARK 922        TOTAL FREE ENERGY PREDICTED BY IDOCK:   -7.82 KCAL/MOL
REMARK 923 INTER-LIGAND FREE ENERGY PREDICTED BY IDOCK:   -6.99 KCAL/MOL
REMARK 924 INTRA-LIGAND FREE ENERGY PREDICTED BY IDOCK:   -0.83 KCAL/MOL
REMARK 927      BINDING AFFINITY PREDICTED BY RF-SCORE:    0.00 PKD
ROOT
HETATM    1  O   UNL     1     -11.122  12.130  69.685  1.00  0.00    -0.457 OA 
HETATM    2  C   UNL     1     -11.330  10.814  69.153  1.00  0.00    -0.282 C  
HETATM    3  H   UNL     1     -11.575  12.217  70.515  1.00  0.00     0.000 HD 
ENDROOT
BRANCH   2   4
HETATM    4  C   UNL     1     -10.892   9.847  70.233  1.00  0.00    -0.367 A  
HETATM    5  C   UNL     1     -10.086   8.176  72.341  1.00  0.00    -0.285 A  
HETATM    6  C   UNL     1     -11.845   9.238  71.067  1.00  0.00    -0.376 A  
HETATM    7  O   UNL     1     -10.546   6.888  74.216  1.00  0.00    -0.232 OA 
HETATM    8  O   UNL     1      -8.450   7.149  73.628  1.00  0.00    -0.125 OA 
HETATM    9  C   UNL     1      -9.529   9.587  70.462  1.00  0.00    -0.306 A  
HETATM   10  C   UNL     1     -11.449   8.406  72.118  1.00  0.00    -0.442 A  
HETATM   11  N   UNL     1      -9.664   7.345  73.476  1.00  0.00    -0.263 N  
HETATM   12  C   UNL     1      -9.122   8.755  71.508  1.00  0.00    -0.322 A  
ENDBRANCH   2   4
BRANCH   2  13
HETATM   13  C   UNL     1     -10.589  10.671  67.794  1.00  0.00    -0.236 C  
BRANCH  13  14
HETATM   14  N   UNL     1     -11.084  11.710  66.859  1.00  0.00    -0.295 N  
HETATM   15  C   UNL     1     -10.985  13.207  64.866  1.00  0.00    -0.318 C  
HETATM   16  C   UNL     1     -10.309  12.226  65.835  1.00  0.00    -0.252 C  
HETATM   17  H   UNL     1     -12.036  12.058  66.975  1.00  0.00     0.000 HD 
HETATM   18  O   UNL     1      -9.133  11.891  65.685  1.00  0.00    -0.124 OA 
HETATM   19 CL   UNL     1     -12.389  14.004  65.607  1.00  0.00    -0.470 Cl 
HETATM   20 CL   UNL     1     -11.462  12.335  63.398  1.00  0.00    -0.522 Cl 
ENDBRANCH  13  14
BRANCH  13  21
HETATM   21  C   UNL     1     -10.770   9.248  67.222  1.00  0.00    -0.174 C  
BRANCH  21  22
HETATM   22  O   UNL     1      -9.512   8.581  67.004  1.00  0.00    -0.153 OA 
BRANCH  22  23
HETATM   23  C   UNL     1      -9.595   7.258  66.703  1.00  0.00    -0.178 C  
HETATM   24  O   UNL     1     -10.369   6.464  67.225  1.00  0.00    -0.162 OA 
BRANCH  23  25
HETATM   25  C   UNL     1      -8.616   6.885  65.622  1.00  0.00    -0.119 C  
BRANCH  25  26
HETATM   26  C   UNL     1      -8.224   5.423  65.703  1.00  0.00    -0.124 C  
HETATM   27  C   UNL     1      -8.805   4.597  64.582  1.00  0.00    -0.153 C  
HETATM   28  O   UNL     1      -8.340   4.921  63.358  1.00  0.00    -0.104 OA 
HETATM   29  O   UNL     1      -9.604   3.693  64.766  1.00  0.00    -0.155 OA 
ENDBRANCH  25  26
ENDBRANCH  23  25
ENDBRANCH  22  23
ENDBRANCH  21  22
ENDBRANCH  13  21
ENDBRANCH   2  13
TORSDOF 8
ENDMDL
MODEL      228
REMARK 921   NORMALIZED FREE ENERGY PREDICTED BY IDOCK:   -4.33 KCAL/MOL
REMARK 922        TOTAL FREE ENERGY PREDICTED BY IDOCK:   -7.82 KCAL/MOL
REMARK 923 INTER-LIGAND FREE ENERGY PREDICTED BY IDOCK:   -7.36 KCAL/MOL
REMARK 924 INTRA-LIGAND FREE ENERGY PREDICTED BY IDOCK:   -0.46 KCAL/MOL
REMARK 927      BINDING AFFINITY PREDICTED BY RF-SCORE:    0.00 PKD
ROOT
HETATM    1  O   UNL     1      -7.095  14.527  68.494  1.00  0.00    -0.101 OA 
HETATM    2  C   UNL     1      -8.308  13.870  68.885  1.00  0.00     0.074 C  
HETATM    3  H   UNL     1      -6.354  13.952  68.644  1.00  0.00     0.000 HD 
ENDROOT
BRANCH   2   4
HETATM    4  C   UNL     1      -8.343  12.560  68.125  1.00  0.00    -0.175 A  
HETATM    5  C   UNL     1      -8.485  10.209  66.596  1.00  0.00    -0.126 A  
HETATM    6  C   UNL     1      -7.373  12.284  67.146  1.00  0.00    -0.107 A  
HETATM    7  O   UNL     1      -7.741   8.847  64.869  1.00  0.00    -0.104 OA 
HETATM    8  O   UNL     1      -9.517   8.219  65.993  1.00  0.00    -0.192 OA 
HETATM    9  C   UNL     1      -9.374  11.627  68.337  1.00  0.00    -0.191 A  
HETATM   10  C   UNL     1      -7.439  11.115  66.382  1.00  0.00    -0.103 A  
HETATM   11  N   UNL     1      -8.588   9.006  65.759  1.00  0.00    -0.150 N  
HETATM   12  C   UNL     1      -9.449  10.455  67.580  1.00  0.00    -0.167 A  
ENDBRANCH   2   4
BRANCH   2  13
HETATM   13  C   UNL     1      -9.521  14.810  68.640  1.00  0.00    -0.213 C  
BRANCH  13  14
HETATM   14  N   UNL     1     -10.322  14.902  69.884  1.00  0.00    -0.454 N  
HETATM   15  C   UNL     1     -11.948  15.937  71.469  1.00  0.00    -0.471 C  
HETATM   16  C   UNL     1     -11.071  16.020  70.212  1.00  0.00    -0.374 C  
HETATM   17  H   UNL     1     -10.323  14.109  70.526  1.00  0.00     0.000 HD 
HETATM   18  O   UNL     1     -11.058  17.032  69.509  1.00  0.00    -0.080 OA 
HETATM   19 CL   UNL     1     -11.347  14.719  72.614  1.00  0.00     0.074 Cl 
HETATM   20 CL   UNL     1     -13.616  15.574  70.988  1.00  0.00    -0.503 Cl 
ENDBRANCH  13  14
BRANCH  13  21
HETATM   21  C   UNL     1     -10.367  14.310  67.447  1.00  0.00    -0.259 C  
BRANCH  21  22
HETATM   22  O   UNL     1     -11.165  15.359  66.865  1.00  0.00    -0.307 OA 
BRANCH  22  23
HETATM   23  C   UNL     1     -10.757  15.795  65.644  1.00  0.00    -0.348 C  
HETATM   24  O   UNL     1     -10.256  16.890  65.418  1.00  0.00    -0.605 OA 
BRANCH  23  25
HETATM   25  C   UNL     1     -10.986  14.746  64.589  1.00  0.00    -0.332 C  
BRANCH  25  26
HETATM   26  C   UNL     1     -12.418  14.248  64.597  1.00  0.00    -0.371 C  
HETATM   27  C   UNL     1     -12.514  12.742  64.608  1.00  0.00    -0.456 C  
HETATM   28  O   UNL     1     -12.035  12.166  65.729  1.00  0.00    -0.536 OA 
HETATM   29  O   UNL     1     -13.011  12.100  63.697  1.00  0.00    -0.780 OA 
ENDBRANCH  25  26
ENDBRANCH  23  25
ENDBRANCH  22  23
ENDBRANCH  21  22
ENDBRANCH  13  21
ENDBRANCH   2  13
TORSDOF 8
ENDMDL
MODEL      229
REMARK 921   NORMALIZED FREE ENERGY PREDICTED BY IDOCK:   -4.33 KCAL/MOL
REMARK 922        TOTAL FREE ENERGY PREDICTED BY IDOCK:   -7.82 KCAL/MOL
REMARK 923 INTER-LIGAND FREE ENERGY PREDICTED BY IDOCK:   -7.58 KCAL/MOL
REMARK 924 INTRA-LIGAND FREE ENERGY PREDICTED BY IDOCK:   -0.24 KCAL/MOL
REMARK 927      BINDING AFFINITY PREDICTED BY RF-SCORE:    0.00 PKD
ROOT
HETATM    1  O   UNL     1     -11.445   9.453  67.841  1.00  0.00    -0.315 OA 
HETATM    2  C   UNL     1     -10.104   9.433  68.349  1.00  0.00    -0.185 C  
HETATM    3  H   UNL     1     -11.494   8.947  67.039  1.00  0.00     0.000 HD 
ENDROOT
BRANCH   2   4
HETATM    4  C   UNL     1      -9.724   7.972  68.481  1.00  0.00    -0.166 A  
HETATM    5  C   UNL     1      -9.103   5.261  68.867  1.00  0.00    -0.111 A  
HETATM    6  C   UNL     1     -10.617   6.968  68.069  1.00  0.00    -0.260 A  
HETATM    7  O   UNL     1      -9.656   3.008  68.790  1.00  0.00    -0.155 OA 
HETATM    8  O   UNL     1      -7.712   3.570  69.638  1.00  0.00    -0.051 OA 
HETATM    9  C   UNL     1      -8.505   7.592  69.071  1.00  0.00    -0.132 A  
HETATM   10  C   UNL     1     -10.313   5.617  68.259  1.00  0.00    -0.253 A  
HETATM   11  N   UNL     1      -8.802   3.845  69.116  1.00  0.00    -0.093 N  
HETATM   12  C   UNL     1      -8.190   6.244  69.264  1.00  0.00    -0.114 A  
ENDBRANCH   2   4
BRANCH   2  13
HETATM   13  C   UNL     1     -10.023  10.260  69.661  1.00  0.00    -0.207 C  
BRANCH  13  14
HETATM   14  N   UNL     1     -10.253   9.360  70.817  1.00  0.00    -0.281 N  
HETATM   15  C   UNL     1     -11.623   8.072  72.458  1.00  0.00    -0.403 C  
HETATM   16  C   UNL     1     -11.513   9.118  71.339  1.00  0.00    -0.350 C  
HETATM   17  H   UNL     1      -9.450   8.899  71.246  1.00  0.00     0.000 HD 
HETATM   18  O   UNL     1     -12.511   9.694  70.905  1.00  0.00    -0.293 OA 
HETATM   19 CL   UNL     1     -10.084   7.868  73.323  1.00  0.00    -0.368 Cl 
HETATM   20 CL   UNL     1     -12.158   6.532  71.761  1.00  0.00    -0.395 Cl 
ENDBRANCH  13  14
BRANCH  13  21
HETATM   21  C   UNL     1     -11.034  11.428  69.633  1.00  0.00    -0.110 C  
BRANCH  21  22
HETATM   22  O   UNL     1     -10.718  12.401  68.617  1.00  0.00    -0.227 OA 
BRANCH  22  23
HETATM   23  C   UNL     1     -11.593  13.435  68.506  1.00  0.00    -0.333 C  
HETATM   24  O   UNL     1     -12.404  13.766  69.361  1.00  0.00    -0.310 OA 
BRANCH  23  25
HETATM   25  C   UNL     1     -11.429  14.144  67.188  1.00  0.00    -0.373 C  
BRANCH  25  26
HETATM   26  C   UNL     1     -12.218  13.466  66.086  1.00  0.00    -0.471 C  
HETATM   27  C   UNL     1     -11.858  13.971  64.711  1.00  0.00    -0.403 C  
HETATM   28  O   UNL     1     -10.594  13.692  64.332  1.00  0.00    -0.423 OA 
HETATM   29  O   UNL     1     -12.649  14.557  63.989  1.00  0.00    -0.797 OA 
ENDBRANCH  25  26
ENDBRANCH  23  25
ENDBRANCH  22  23
ENDBRANCH  21  22
ENDBRANCH  13  21
ENDBRANCH   2  13
TORSDOF 8
ENDMDL
MODEL      230
REMARK 921   NORMALIZED FREE ENERGY PREDICTED BY IDOCK:   -4.32 KCAL/MOL
REMARK 922        TOTAL FREE ENERGY PREDICTED BY IDOCK:   -7.81 KCAL/MOL
REMARK 923 INTER-LIGAND FREE ENERGY PREDICTED BY IDOCK:   -6.89 KCAL/MOL
REMARK 924 INTRA-LIGAND FREE ENERGY PREDICTED BY IDOCK:   -0.92 KCAL/MOL
REMARK 927      BINDING AFFINITY PREDICTED BY RF-SCORE:    0.00 PKD
ROOT
HETATM    1  O   UNL     1      -9.226   8.783  67.140  1.00  0.00    -0.132 OA 
HETATM    2  C   UNL     1      -8.826   9.489  68.323  1.00  0.00    -0.124 C  
HETATM    3  H   UNL     1      -9.030   7.859  67.235  1.00  0.00     0.000 HD 
ENDROOT
BRANCH   2   4
HETATM    4  C   UNL     1      -9.514   8.797  69.481  1.00  0.00    -0.165 A  
HETATM    5  C   UNL     1     -10.677   7.399  71.622  1.00  0.00    -0.214 A  
HETATM    6  C   UNL     1      -9.062   8.998  70.797  1.00  0.00    -0.297 A  
HETATM    7  O   UNL     1     -10.764   6.802  73.863  1.00  0.00    -0.310 OA 
HETATM    8  O   UNL     1     -12.180   5.854  72.482  1.00  0.00    -0.202 OA 
HETATM    9  C   UNL     1     -10.573   7.898  69.261  1.00  0.00    -0.195 A  
HETATM   10  C   UNL     1      -9.637   8.305  71.866  1.00  0.00    -0.288 A  
HETATM   11  N   UNL     1     -11.248   6.630  72.736  1.00  0.00    -0.252 N  
HETATM   12  C   UNL     1     -11.157   7.201  70.323  1.00  0.00    -0.303 A  
ENDBRANCH   2   4
BRANCH   2  13
HETATM   13  C   UNL     1      -9.147  11.001  68.170  1.00  0.00    -0.155 C  
BRANCH  13  14
HETATM   14  N   UNL     1      -8.088  11.793  68.841  1.00  0.00    -0.348 N  
HETATM   15  C   UNL     1      -6.536  13.724  69.137  1.00  0.00    -0.109 C  
HETATM   16  C   UNL     1      -7.537  12.933  68.282  1.00  0.00    -0.134 C  
HETATM   17  H   UNL     1      -7.751  11.484  69.754  1.00  0.00     0.000 HD 
HETATM   18  O   UNL     1      -7.857  13.317  67.156  1.00  0.00    -0.136 OA 
HETATM   19 CL   UNL     1      -5.773  12.702  70.373  1.00  0.00    -0.165 Cl 
HETATM   20 CL   UNL     1      -7.372  15.096  69.887  1.00  0.00    -0.146 Cl 
ENDBRANCH  13  14
BRANCH  13  21
HETATM   21  C   UNL     1     -10.549  11.321  68.734  1.00  0.00    -0.203 C  
BRANCH  21  22
HETATM   22  O   UNL     1     -10.936  12.689  68.497  1.00  0.00    -0.238 OA 
BRANCH  22  23
HETATM   23  C   UNL     1     -11.720  12.894  67.406  1.00  0.00    -0.372 C  
HETATM   24  O   UNL     1     -12.135  12.015  66.661  1.00  0.00    -0.615 OA 
BRANCH  23  25
HETATM   25  C   UNL     1     -12.035  14.356  67.232  1.00  0.00    -0.409 C  
BRANCH  25  26
HETATM   26  C   UNL     1     -10.938  15.078  66.476  1.00  0.00    -0.327 C  
HETATM   27  C   UNL     1     -10.915  14.734  65.007  1.00  0.00    -0.414 C  
HETATM   28  O   UNL     1     -12.006  15.139  64.326  1.00  0.00    -0.425 OA 
HETATM   29  O   UNL     1      -9.977  14.166  64.472  1.00  0.00    -0.210 OA 
ENDBRANCH  25  26
ENDBRANCH  23  25
ENDBRANCH  22  23
ENDBRANCH  21  22
ENDBRANCH  13  21
ENDBRANCH   2  13
TORSDOF 8
ENDMDL
MODEL      231
REMARK 921   NORMALIZED FREE ENERGY PREDICTED BY IDOCK:   -4.32 KCAL/MOL
REMARK 922        TOTAL FREE ENERGY PREDICTED BY IDOCK:   -7.81 KCAL/MOL
REMARK 923 INTER-LIGAND FREE ENERGY PREDICTED BY IDOCK:   -7.13 KCAL/MOL
REMARK 924 INTRA-LIGAND FREE ENERGY PREDICTED BY IDOCK:   -0.67 KCAL/MOL
REMARK 927      BINDING AFFINITY PREDICTED BY RF-SCORE:    0.00 PKD
ROOT
HETATM    1  O   UNL     1      -9.516  10.624  69.459  1.00  0.00    -0.395 OA 
HETATM    2  C   UNL     1      -9.722   9.803  68.301  1.00  0.00    -0.145 C  
HETATM    3  H   UNL     1      -9.057  11.418  69.213  1.00  0.00     0.000 HD 
ENDROOT
BRANCH   2   4
HETATM    4  C   UNL     1     -10.435  10.673  67.287  1.00  0.00    -0.293 A  
HETATM    5  C   UNL     1     -11.631  12.389  65.412  1.00  0.00    -0.381 A  
HETATM    6  C   UNL     1     -10.136  10.557  65.919  1.00  0.00    -0.323 A  
HETATM    7  O   UNL     1     -11.863  13.210  63.253  1.00  0.00    -0.504 OA 
HETATM    8  O   UNL     1     -13.024  14.159  64.854  1.00  0.00    -0.705 OA 
HETATM    9  C   UNL     1     -11.360  11.652  67.696  1.00  0.00    -0.362 A  
HETATM   10  C   UNL     1     -10.728  11.408  64.981  1.00  0.00    -0.340 A  
HETATM   11  N   UNL     1     -12.214  13.319  64.436  1.00  0.00    -0.393 N  
HETATM   12  C   UNL     1     -11.959  12.506  66.767  1.00  0.00    -0.327 A  
ENDBRANCH   2   4
BRANCH   2  13
HETATM   13  C   UNL     1     -10.473   8.503  68.703  1.00  0.00    -0.169 C  
BRANCH  13  14
HETATM   14  N   UNL     1     -11.187   8.731  69.982  1.00  0.00    -0.419 N  
HETATM   15  C   UNL     1     -12.371   8.063  72.074  1.00  0.00    -0.326 C  
HETATM   16  C   UNL     1     -11.769   7.706  70.708  1.00  0.00    -0.239 C  
HETATM   17  H   UNL     1     -11.252   9.683  70.343  1.00  0.00     0.000 HD 
HETATM   18  O   UNL     1     -11.779   6.546  70.291  1.00  0.00    -0.404 OA 
HETATM   19 CL   UNL     1     -12.809   9.782  72.172  1.00  0.00    -0.467 Cl 
HETATM   20 CL   UNL     1     -11.212   7.639  73.347  1.00  0.00    -0.191 Cl 
ENDBRANCH  13  14
BRANCH  13  21
HETATM   21  C   UNL     1      -9.492   7.313  68.796  1.00  0.00    -0.142 C  
BRANCH  21  22
HETATM   22  O   UNL     1      -8.296   7.646  69.527  1.00  0.00    -0.127 OA 
BRANCH  22  23
HETATM   23  C   UNL     1      -7.980   6.804  70.545  1.00  0.00    -0.114 C  
HETATM   24  O   UNL     1      -7.815   7.139  71.711  1.00  0.00    -0.092 OA 
BRANCH  23  25
HETATM   25  C   UNL     1      -7.870   5.383  70.060  1.00  0.00    -0.081 C  
BRANCH  25  26
HETATM   26  C   UNL     1      -6.610   5.166  69.245  1.00  0.00    -0.047 C  
HETATM   27  C   UNL     1      -6.757   4.070  68.219  1.00  0.00    -0.047 C  
HETATM   28  O   UNL     1      -7.649   4.341  67.245  1.00  0.00    -0.076 OA 
HETATM   29  O   UNL     1      -6.104   3.040  68.248  1.00  0.00    -0.024 OA 
ENDBRANCH  25  26
ENDBRANCH  23  25
ENDBRANCH  22  23
ENDBRANCH  21  22
ENDBRANCH  13  21
ENDBRANCH   2  13
TORSDOF 8
ENDMDL
MODEL      232
REMARK 921   NORMALIZED FREE ENERGY PREDICTED BY IDOCK:   -4.31 KCAL/MOL
REMARK 922        TOTAL FREE ENERGY PREDICTED BY IDOCK:   -7.80 KCAL/MOL
REMARK 923 INTER-LIGAND FREE ENERGY PREDICTED BY IDOCK:   -5.97 KCAL/MOL
REMARK 924 INTRA-LIGAND FREE ENERGY PREDICTED BY IDOCK:   -1.83 KCAL/MOL
REMARK 927      BINDING AFFINITY PREDICTED BY RF-SCORE:    0.00 PKD
ROOT
HETATM    1  O   UNL     1      -7.570  10.963  70.055  1.00  0.00    -0.376 OA 
HETATM    2  C   UNL     1      -7.479  10.040  68.961  1.00  0.00    -0.087 C  
HETATM    3  H   UNL     1      -7.403  11.846  69.747  1.00  0.00     0.000 HD 
ENDROOT
BRANCH   2   4
HETATM    4  C   UNL     1      -8.435  10.546  67.901  1.00  0.00    -0.119 A  
HETATM    5  C   UNL     1     -10.280  11.338  65.937  1.00  0.00    -0.249 A  
HETATM    6  C   UNL     1      -9.700  11.039  68.265  1.00  0.00    -0.181 A  
HETATM    7  O   UNL     1     -12.386  12.068  65.289  1.00  0.00    -0.442 OA 
HETATM    8  O   UNL     1     -10.916  11.622  63.723  1.00  0.00    -0.366 OA 
HETATM    9  C   UNL     1      -8.104  10.476  66.535  1.00  0.00    -0.134 A  
HETATM   10  C   UNL     1     -10.622  11.434  67.291  1.00  0.00    -0.264 A  
HETATM   11  N   UNL     1     -11.264  11.702  64.909  1.00  0.00    -0.262 N  
HETATM   12  C   UNL     1      -9.018  10.871  65.554  1.00  0.00    -0.213 A  
ENDBRANCH   2   4
BRANCH   2  13
HETATM   13  C   UNL     1      -7.752   8.596  69.464  1.00  0.00    -0.090 C  
BRANCH  13  14
HETATM   14  N   UNL     1      -8.746   7.951  68.573  1.00  0.00    -0.131 N  
HETATM   15  C   UNL     1      -9.528   6.368  66.810  1.00  0.00    -0.150 C  
HETATM   16  C   UNL     1      -8.390   7.053  67.581  1.00  0.00    -0.117 C  
HETATM   17  H   UNL     1      -9.733   8.178  68.696  1.00  0.00     0.000 HD 
HETATM   18  O   UNL     1      -7.211   6.790  67.343  1.00  0.00    -0.084 OA 
HETATM   19 CL   UNL     1     -11.025   7.323  66.858  1.00  0.00    -0.314 Cl 
HETATM   20 CL   UNL     1      -9.795   4.751  67.487  1.00  0.00    -0.207 Cl 
ENDBRANCH  13  14
BRANCH  13  21
HETATM   21  C   UNL     1      -8.223   8.611  70.936  1.00  0.00    -0.143 C  
BRANCH  21  22
HETATM   22  O   UNL     1      -9.601   9.013  71.064  1.00  0.00    -0.231 OA 
BRANCH  22  23
HETATM   23  C   UNL     1     -10.310   8.369  72.029  1.00  0.00    -0.304 C  
HETATM   24  O   UNL     1      -9.946   8.217  73.188  1.00  0.00    -0.246 OA 
BRANCH  23  25
HETATM   25  C   UNL     1     -11.625   7.870  71.493  1.00  0.00    -0.306 C  
BRANCH  25  26
HETATM   26  C   UNL     1     -11.432   6.751  70.489  1.00  0.00    -0.413 C  
HETATM   27  C   UNL     1     -10.522   5.660  70.994  1.00  0.00    -0.250 C  
HETATM   28  O   UNL     1     -11.010   4.977  72.050  1.00  0.00    -0.141 OA 
HETATM   29  O   UNL     1      -9.449   5.395  70.477  1.00  0.00    -0.154 OA 
ENDBRANCH  25  26
ENDBRANCH  23  25
ENDBRANCH  22  23
ENDBRANCH  21  22
ENDBRANCH  13  21
ENDBRANCH   2  13
TORSDOF 8
ENDMDL
MODEL      233
REMARK 921   NORMALIZED FREE ENERGY PREDICTED BY IDOCK:   -4.31 KCAL/MOL
REMARK 922        TOTAL FREE ENERGY PREDICTED BY IDOCK:   -7.79 KCAL/MOL
REMARK 923 INTER-LIGAND FREE ENERGY PREDICTED BY IDOCK:   -7.80 KCAL/MOL
REMARK 924 INTRA-LIGAND FREE ENERGY PREDICTED BY IDOCK:    0.01 KCAL/MOL
REMARK 927      BINDING AFFINITY PREDICTED BY RF-SCORE:    0.00 PKD
ROOT
HETATM    1  O   UNL     1     -12.477  13.962  66.290  1.00  0.00    -0.453 OA 
HETATM    2  C   UNL     1     -11.704  13.092  67.129  1.00  0.00    -0.382 C  
HETATM    3  H   UNL     1     -13.370  14.007  66.609  1.00  0.00     0.000 HD 
ENDROOT
BRANCH   2   4
HETATM    4  C   UNL     1     -11.861  13.616  68.541  1.00  0.00    -0.406 A  
HETATM    5  C   UNL     1     -12.311  14.596  71.134  1.00  0.00    -0.335 A  
HETATM    6  C   UNL     1     -12.193  12.740  69.589  1.00  0.00    -0.188 A  
HETATM    7  O   UNL     1     -12.950  14.302  73.346  1.00  0.00    -0.505 OA 
HETATM    8  O   UNL     1     -12.473  16.332  72.666  1.00  0.00    -0.449 OA 
HETATM    9  C   UNL     1     -11.739  14.989  68.821  1.00  0.00    -0.360 A  
HETATM   10  C   UNL     1     -12.419  13.223  70.881  1.00  0.00    -0.424 A  
HETATM   11  N   UNL     1     -12.599  15.114  72.478  1.00  0.00    -0.331 N  
HETATM   12  C   UNL     1     -11.960  15.482  70.109  1.00  0.00    -0.389 A  
ENDBRANCH   2   4
BRANCH   2  13
HETATM   13  C   UNL     1     -10.242  13.018  66.608  1.00  0.00    -0.257 C  
BRANCH  13  14
HETATM   14  N   UNL     1      -9.865  11.596  66.422  1.00  0.00    -0.202 N  
HETATM   15  C   UNL     1      -9.262   9.289  67.157  1.00  0.00    -0.130 C  
HETATM   16  C   UNL     1      -9.513  10.770  67.476  1.00  0.00    -0.154 C  
HETATM   17  H   UNL     1      -9.865  11.209  65.477  1.00  0.00     0.000 HD 
HETATM   18  O   UNL     1      -9.433  11.196  68.629  1.00  0.00    -0.190 OA 
HETATM   19 CL   UNL     1      -8.813   9.047  65.456  1.00  0.00    -0.216 Cl 
HETATM   20 CL   UNL     1     -10.715   8.355  67.560  1.00  0.00    -0.275 Cl 
ENDBRANCH  13  14
BRANCH  13  21
HETATM   21  C   UNL     1      -9.281  13.745  67.574  1.00  0.00    -0.216 C  
BRANCH  21  22
HETATM   22  O   UNL     1      -8.472  14.731  66.903  1.00  0.00    -0.225 OA 
BRANCH  22  23
HETATM   23  C   UNL     1      -8.945  16.004  66.946  1.00  0.00    -0.227 C  
HETATM   24  O   UNL     1      -9.415  16.614  65.994  1.00  0.00    -0.372 OA 
BRANCH  23  25
HETATM   25  C   UNL     1      -8.833  16.577  68.334  1.00  0.00    -0.218 C  
BRANCH  25  26
HETATM   26  C   UNL     1      -7.389  16.686  68.780  1.00  0.00    -0.220 C  
HETATM   27  C   UNL     1      -6.798  18.050  68.525  1.00  0.00    -0.237 C  
HETATM   28  O   UNL     1      -7.364  19.041  69.244  1.00  0.00    -0.281 OA 
HETATM   29  O   UNL     1      -5.868  18.240  67.759  1.00  0.00    -0.157 OA 
ENDBRANCH  25  26
ENDBRANCH  23  25
ENDBRANCH  22  23
ENDBRANCH  21  22
ENDBRANCH  13  21
ENDBRANCH   2  13
TORSDOF 8
ENDMDL
MODEL      234
REMARK 921   NORMALIZED FREE ENERGY PREDICTED BY IDOCK:   -4.30 KCAL/MOL
REMARK 922        TOTAL FREE ENERGY PREDICTED BY IDOCK:   -7.78 KCAL/MOL
REMARK 923 INTER-LIGAND FREE ENERGY PREDICTED BY IDOCK:   -7.37 KCAL/MOL
REMARK 924 INTRA-LIGAND FREE ENERGY PREDICTED BY IDOCK:   -0.41 KCAL/MOL
REMARK 927      BINDING AFFINITY PREDICTED BY RF-SCORE:    0.00 PKD
ROOT
HETATM    1  O   UNL     1     -11.886  12.482  70.505  1.00  0.00    -0.525 OA 
HETATM    2  C   UNL     1     -11.665  11.606  69.390  1.00  0.00    -0.340 C  
HETATM    3  H   UNL     1     -12.629  12.177  71.012  1.00  0.00     0.000 HD 
ENDROOT
BRANCH   2   4
HETATM    4  C   UNL     1     -11.524  10.214  69.968  1.00  0.00    -0.344 A  
HETATM    5  C   UNL     1     -11.117   7.674  71.097  1.00  0.00    -0.251 A  
HETATM    6  C   UNL     1     -11.843   9.970  71.315  1.00  0.00    -0.471 A  
HETATM    7  O   UNL     1     -11.096   6.225  72.910  1.00  0.00    -0.254 OA 
HETATM    8  O   UNL     1     -10.410   5.467  70.970  1.00  0.00    -0.217 OA 
HETATM    9  C   UNL     1     -11.017   9.156  69.192  1.00  0.00    -0.057 A  
HETATM   10  C   UNL     1     -11.642   8.708  71.883  1.00  0.00    -0.420 A  
HETATM   11  N   UNL     1     -10.856   6.362  71.703  1.00  0.00    -0.239 N  
HETATM   12  C   UNL     1     -10.814   7.890  69.748  1.00  0.00    -0.202 A  
ENDBRANCH   2   4
BRANCH   2  13
HETATM   13  C   UNL     1     -10.449  12.105  68.560  1.00  0.00    -0.233 C  
BRANCH  13  14
HETATM   14  N   UNL     1      -9.210  11.494  69.099  1.00  0.00    -0.390 N  
HETATM   15  C   UNL     1      -6.782  10.921  69.120  1.00  0.00    -0.079 C  
HETATM   16  C   UNL     1      -8.017  11.478  68.397  1.00  0.00    -0.143 C  
HETATM   17  H   UNL     1      -9.238  11.068  70.026  1.00  0.00     0.000 HD 
HETATM   18  O   UNL     1      -7.939  11.918  67.250  1.00  0.00    -0.154 OA 
HETATM   19 CL   UNL     1      -7.231   9.808  70.430  1.00  0.00    -0.145 Cl 
HETATM   20 CL   UNL     1      -5.820  12.272  69.748  1.00  0.00    -0.110 Cl 
ENDBRANCH  13  14
BRANCH  13  21
HETATM   21  C   UNL     1     -10.380  13.649  68.569  1.00  0.00    -0.243 C  
BRANCH  21  22
HETATM   22  O   UNL     1      -9.891  14.182  67.322  1.00  0.00    -0.231 OA 
BRANCH  22  23
HETATM   23  C   UNL     1     -10.783  14.921  66.613  1.00  0.00    -0.312 C  
HETATM   24  O   UNL     1     -11.909  14.556  66.298  1.00  0.00    -0.380 OA 
BRANCH  23  25
HETATM   25  C   UNL     1     -10.215  16.272  66.267  1.00  0.00    -0.339 C  
BRANCH  25  26
HETATM   26  C   UNL     1      -9.080  16.655  67.196  1.00  0.00    -0.227 C  
HETATM   27  C   UNL     1      -7.761  16.803  66.480  1.00  0.00    -0.299 C  
HETATM   28  O   UNL     1      -7.723  17.819  65.594  1.00  0.00    -0.545 OA 
HETATM   29  O   UNL     1      -6.799  16.086  66.702  1.00  0.00    -0.224 OA 
ENDBRANCH  25  26
ENDBRANCH  23  25
ENDBRANCH  22  23
ENDBRANCH  21  22
ENDBRANCH  13  21
ENDBRANCH   2  13
TORSDOF 8
ENDMDL
MODEL      235
REMARK 921   NORMALIZED FREE ENERGY PREDICTED BY IDOCK:   -4.29 KCAL/MOL
REMARK 922        TOTAL FREE ENERGY PREDICTED BY IDOCK:   -7.77 KCAL/MOL
REMARK 923 INTER-LIGAND FREE ENERGY PREDICTED BY IDOCK:   -6.82 KCAL/MOL
REMARK 924 INTRA-LIGAND FREE ENERGY PREDICTED BY IDOCK:   -0.95 KCAL/MOL
REMARK 927      BINDING AFFINITY PREDICTED BY RF-SCORE:    0.00 PKD
ROOT
HETATM    1  O   UNL     1      -8.263  10.903  68.589  1.00  0.00    -0.130 OA 
HETATM    2  C   UNL     1      -9.607  10.495  68.880  1.00  0.00    -0.193 C  
HETATM    3  H   UNL     1      -7.885  11.332  69.347  1.00  0.00     0.000 HD 
ENDROOT
BRANCH   2   4
HETATM    4  C   UNL     1      -9.528   9.644  70.131  1.00  0.00    -0.298 A  
HETATM    5  C   UNL     1      -9.413   8.199  72.536  1.00  0.00    -0.269 A  
HETATM    6  C   UNL     1     -10.701   9.139  70.718  1.00  0.00    -0.327 A  
HETATM    7  O   UNL     1     -10.432   7.124  74.323  1.00  0.00    -0.236 OA 
HETATM    8  O   UNL     1      -8.245   7.297  74.327  1.00  0.00    -0.145 OA 
HETATM    9  C   UNL     1      -8.295   9.394  70.760  1.00  0.00    -0.180 A  
HETATM   10  C   UNL     1     -10.649   8.419  71.916  1.00  0.00    -0.370 A  
HETATM   11  N   UNL     1      -9.360   7.489  73.821  1.00  0.00    -0.267 N  
HETATM   12  C   UNL     1      -8.232   8.674  71.956  1.00  0.00    -0.149 A  
ENDBRANCH   2   4
BRANCH   2  13
HETATM   13  C   UNL     1     -10.227   9.794  67.640  1.00  0.00    -0.213 C  
BRANCH  13  14
HETATM   14  N   UNL     1      -9.138   9.232  66.805  1.00  0.00    -0.137 N  
HETATM   15  C   UNL     1      -7.523   7.487  66.050  1.00  0.00    -0.083 C  
HETATM   16  C   UNL     1      -8.556   8.003  67.062  1.00  0.00    -0.127 C  
HETATM   17  H   UNL     1      -8.803   9.774  66.008  1.00  0.00     0.000 HD 
HETATM   18  O   UNL     1      -8.873   7.333  68.047  1.00  0.00    -0.130 OA 
HETATM   19 CL   UNL     1      -6.782   8.813  65.130  1.00  0.00    -0.064 Cl 
HETATM   20 CL   UNL     1      -8.308   6.330  64.960  1.00  0.00    -0.130 Cl 
ENDBRANCH  13  14
BRANCH  13  21
HETATM   21  C   UNL     1     -11.112  10.779  66.843  1.00  0.00    -0.133 C  
BRANCH  21  22
HETATM   22  O   UNL     1     -10.368  11.912  66.355  1.00  0.00    -0.211 OA 
BRANCH  22  23
HETATM   23  C   UNL     1     -10.025  11.865  65.041  1.00  0.00    -0.248 C  
HETATM   24  O   UNL     1      -9.536  10.895  64.475  1.00  0.00    -0.226 OA 
BRANCH  23  25
HETATM   25  C   UNL     1     -10.339  13.166  64.352  1.00  0.00    -0.390 C  
BRANCH  25  26
HETATM   26  C   UNL     1     -10.868  14.201  65.324  1.00  0.00    -0.356 C  
HETATM   27  C   UNL     1     -11.351  15.456  64.640  1.00  0.00    -0.355 C  
HETATM   28  O   UNL     1     -12.427  15.274  63.847  1.00  0.00    -0.737 OA 
HETATM   29  O   UNL     1     -10.834  16.548  64.810  1.00  0.00    -0.720 OA 
ENDBRANCH  25  26
ENDBRANCH  23  25
ENDBRANCH  22  23
ENDBRANCH  21  22
ENDBRANCH  13  21
ENDBRANCH   2  13
TORSDOF 8
ENDMDL
MODEL      236
REMARK 921   NORMALIZED FREE ENERGY PREDICTED BY IDOCK:   -4.29 KCAL/MOL
REMARK 922        TOTAL FREE ENERGY PREDICTED BY IDOCK:   -7.76 KCAL/MOL
REMARK 923 INTER-LIGAND FREE ENERGY PREDICTED BY IDOCK:   -7.29 KCAL/MOL
REMARK 924 INTRA-LIGAND FREE ENERGY PREDICTED BY IDOCK:   -0.47 KCAL/MOL
REMARK 927      BINDING AFFINITY PREDICTED BY RF-SCORE:    0.00 PKD
ROOT
HETATM    1  O   UNL     1      -8.382  11.935  68.893  1.00  0.00    -0.350 OA 
HETATM    2  C   UNL     1      -9.802  11.916  68.693  1.00  0.00    -0.131 C  
HETATM    3  H   UNL     1      -8.184  11.830  69.815  1.00  0.00     0.000 HD 
ENDROOT
BRANCH   2   4
HETATM    4  C   UNL     1     -10.299  10.629  69.318  1.00  0.00    -0.240 A  
HETATM    5  C   UNL     1     -11.162   8.294  70.618  1.00  0.00    -0.256 A  
HETATM    6  C   UNL     1     -11.537  10.596  69.981  1.00  0.00    -0.406 A  
HETATM    7  O   UNL     1     -12.661   7.141  71.964  1.00  0.00    -0.290 OA 
HETATM    8  O   UNL     1     -10.855   6.094  71.291  1.00  0.00    -0.245 OA 
HETATM    9  C   UNL     1      -9.510   9.464  69.301  1.00  0.00    -0.164 A  
HETATM   10  C   UNL     1     -11.972   9.436  70.631  1.00  0.00    -0.232 A  
HETATM   11  N   UNL     1     -11.590   7.090  71.343  1.00  0.00    -0.276 N  
HETATM   12  C   UNL     1      -9.935   8.299  69.944  1.00  0.00    -0.190 A  
ENDBRANCH   2   4
BRANCH   2  13
HETATM   13  C   UNL     1     -10.126  12.088  67.183  1.00  0.00    -0.201 C  
BRANCH  13  14
HETATM   14  N   UNL     1      -9.446  11.016  66.416  1.00  0.00    -0.188 N  
HETATM   15  C   UNL     1      -8.987   9.590  64.421  1.00  0.00    -0.212 C  
HETATM   16  C   UNL     1      -9.852  10.628  65.151  1.00  0.00    -0.284 C  
HETATM   17  H   UNL     1      -8.645  10.545  66.839  1.00  0.00     0.000 HD 
HETATM   18  O   UNL     1     -10.850  11.115  64.617  1.00  0.00    -0.305 OA 
HETATM   19 CL   UNL     1      -8.043   8.603  65.556  1.00  0.00    -0.107 Cl 
HETATM   20 CL   UNL     1      -7.918  10.427  63.280  1.00  0.00    -0.145 Cl 
ENDBRANCH  13  14
BRANCH  13  21
HETATM   21  C   UNL     1      -9.714  13.494  66.694  1.00  0.00    -0.280 C  
BRANCH  21  22
HETATM   22  O   UNL     1     -10.853  14.341  66.443  1.00  0.00    -0.300 OA 
BRANCH  22  23
HETATM   23  C   UNL     1     -11.410  14.913  67.543  1.00  0.00    -0.342 C  
HETATM   24  O   UNL     1     -12.222  14.371  68.283  1.00  0.00    -0.266 OA 
BRANCH  23  25
HETATM   25  C   UNL     1     -10.889  16.309  67.751  1.00  0.00    -0.315 C  
BRANCH  25  26
HETATM   26  C   UNL     1     -10.156  16.821  66.527  1.00  0.00    -0.322 C  
HETATM   27  C   UNL     1     -10.125  18.327  66.449  1.00  0.00    -0.396 C  
HETATM   28  O   UNL     1      -9.422  18.918  67.436  1.00  0.00    -0.293 OA 
HETATM   29  O   UNL     1     -10.664  18.959  65.554  1.00  0.00    -0.556 OA 
ENDBRANCH  25  26
ENDBRANCH  23  25
ENDBRANCH  22  23
ENDBRANCH  21  22
ENDBRANCH  13  21
ENDBRANCH   2  13
TORSDOF 8
ENDMDL
MODEL      237
REMARK 921   NORMALIZED FREE ENERGY PREDICTED BY IDOCK:   -4.27 KCAL/MOL
REMARK 922        TOTAL FREE ENERGY PREDICTED BY IDOCK:   -7.74 KCAL/MOL
REMARK 923 INTER-LIGAND FREE ENERGY PREDICTED BY IDOCK:   -7.67 KCAL/MOL
REMARK 924 INTRA-LIGAND FREE ENERGY PREDICTED BY IDOCK:   -0.07 KCAL/MOL
REMARK 927      BINDING AFFINITY PREDICTED BY RF-SCORE:    0.00 PKD
ROOT
HETATM    1  O   UNL     1     -12.632  14.459  67.752  1.00  0.00    -0.516 OA 
HETATM    2  C   UNL     1     -11.612  14.751  68.718  1.00  0.00    -0.320 C  
HETATM    3  H   UNL     1     -13.195  15.215  67.639  1.00  0.00     0.000 HD 
ENDROOT
BRANCH   2   4
HETATM    4  C   UNL     1     -10.918  16.007  68.232  1.00  0.00    -0.335 A  
HETATM    5  C   UNL     1      -9.489  18.258  67.352  1.00  0.00    -0.266 A  
HETATM    6  C   UNL     1     -10.520  16.121  66.889  1.00  0.00    -0.300 A  
HETATM    7  O   UNL     1      -8.317  19.425  65.723  1.00  0.00    -0.430 OA 
HETATM    8  O   UNL     1      -8.451  20.300  67.729  1.00  0.00    -0.287 OA 
HETATM    9  C   UNL     1     -10.605  17.051  69.121  1.00  0.00    -0.303 A  
HETATM   10  C   UNL     1      -9.808  17.240  66.446  1.00  0.00    -0.310 A  
HETATM   11  N   UNL     1      -8.696  19.410  66.902  1.00  0.00    -0.290 N  
HETATM   12  C   UNL     1      -9.895  18.174  68.688  1.00  0.00    -0.389 A  
ENDBRANCH   2   4
BRANCH   2  13
HETATM   13  C   UNL     1     -10.690  13.514  68.904  1.00  0.00    -0.201 C  
BRANCH  13  14
HETATM   14  N   UNL     1      -9.290  13.973  69.066  1.00  0.00    -0.397 N  
HETATM   15  C   UNL     1      -6.880  14.180  68.453  1.00  0.00    -0.098 C  
HETATM   16  C   UNL     1      -8.259  13.534  68.253  1.00  0.00    -0.157 C  
HETATM   17  H   UNL     1      -9.076  14.641  69.808  1.00  0.00     0.000 HD 
HETATM   18  O   UNL     1      -8.443  12.681  67.384  1.00  0.00    -0.168 OA 
HETATM   19 CL   UNL     1      -6.698  14.854  70.086  1.00  0.00    -0.166 Cl 
HETATM   20 CL   UNL     1      -6.647  15.439  67.226  1.00  0.00    -0.139 Cl 
ENDBRANCH  13  14
BRANCH  13  21
HETATM   21  C   UNL     1     -10.842  12.538  67.716  1.00  0.00    -0.225 C  
BRANCH  21  22
HETATM   22  O   UNL     1     -11.845  11.532  67.959  1.00  0.00    -0.545 OA 
BRANCH  22  23
HETATM   23  C   UNL     1     -11.789  10.932  69.176  1.00  0.00    -0.317 C  
HETATM   24  O   UNL     1     -12.666  10.984  70.029  1.00  0.00    -0.230 OA 
BRANCH  23  25
HETATM   25  C   UNL     1     -10.501  10.169  69.345  1.00  0.00    -0.254 C  
BRANCH  25  26
HETATM   26  C   UNL     1     -10.388   9.561  70.729  1.00  0.00    -0.377 C  
HETATM   27  C   UNL     1      -9.086   8.832  70.945  1.00  0.00    -0.208 C  
HETATM   28  O   UNL     1      -7.997   9.627  70.923  1.00  0.00    -0.307 OA 
HETATM   29  O   UNL     1      -9.021   7.631  71.151  1.00  0.00    -0.136 OA 
ENDBRANCH  25  26
ENDBRANCH  23  25
ENDBRANCH  22  23
ENDBRANCH  21  22
ENDBRANCH  13  21
ENDBRANCH   2  13
TORSDOF 8
ENDMDL
MODEL      238
REMARK 921   NORMALIZED FREE ENERGY PREDICTED BY IDOCK:   -4.26 KCAL/MOL
REMARK 922        TOTAL FREE ENERGY PREDICTED BY IDOCK:   -7.72 KCAL/MOL
REMARK 923 INTER-LIGAND FREE ENERGY PREDICTED BY IDOCK:   -6.85 KCAL/MOL
REMARK 924 INTRA-LIGAND FREE ENERGY PREDICTED BY IDOCK:   -0.87 KCAL/MOL
REMARK 927      BINDING AFFINITY PREDICTED BY RF-SCORE:    0.00 PKD
ROOT
HETATM    1  O   UNL     1     -10.374   7.409  66.227  1.00  0.00    -0.460 OA 
HETATM    2  C   UNL     1      -9.617   8.192  67.161  1.00  0.00    -0.174 C  
HETATM    3  H   UNL     1     -10.299   6.488  66.442  1.00  0.00     0.000 HD 
ENDROOT
BRANCH   2   4
HETATM    4  C   UNL     1     -10.117   7.807  68.538  1.00  0.00    -0.216 A  
HETATM    5  C   UNL     1     -10.909   7.007  71.111  1.00  0.00    -0.237 A  
HETATM    6  C   UNL     1      -9.688   8.518  69.672  1.00  0.00    -0.179 A  
HETATM    7  O   UNL     1     -10.818   7.185  73.423  1.00  0.00    -0.351 OA 
HETATM    8  O   UNL     1     -12.032   5.578  72.555  1.00  0.00    -0.223 OA 
HETATM    9  C   UNL     1     -10.967   6.700  68.716  1.00  0.00    -0.322 A  
HETATM   10  C   UNL     1     -10.079   8.124  70.955  1.00  0.00    -0.215 A  
HETATM   11  N   UNL     1     -11.279   6.558  72.460  1.00  0.00    -0.257 N  
HETATM   12  C   UNL     1     -11.366   6.298  69.994  1.00  0.00    -0.486 A  
ENDBRANCH   2   4
BRANCH   2  13
HETATM   13  C   UNL     1      -9.741   9.700  66.809  1.00  0.00    -0.197 C  
BRANCH  13  14
HETATM   14  N   UNL     1      -8.694  10.456  67.539  1.00  0.00    -0.125 N  
HETATM   15  C   UNL     1      -6.622  11.827  67.765  1.00  0.00    -0.075 C  
HETATM   16  C   UNL     1      -7.565  10.961  66.917  1.00  0.00    -0.128 C  
HETATM   17  H   UNL     1      -8.811  10.610  68.541  1.00  0.00     0.000 HD 
HETATM   18  O   UNL     1      -7.337  10.751  65.725  1.00  0.00    -0.135 OA 
HETATM   19 CL   UNL     1      -6.781  11.472  69.499  1.00  0.00    -0.121 Cl 
HETATM   20 CL   UNL     1      -6.958  13.537  67.442  1.00  0.00    -0.152 Cl 
ENDBRANCH  13  14
BRANCH  13  21
HETATM   21  C   UNL     1     -11.158  10.222  67.134  1.00  0.00    -0.091 C  
BRANCH  21  22
HETATM   22  O   UNL     1     -11.149  11.593  67.577  1.00  0.00    -0.240 OA 
BRANCH  22  23
HETATM   23  C   UNL     1     -11.700  12.489  66.717  1.00  0.00    -0.384 C  
HETATM   24  O   UNL     1     -12.350  12.200  65.720  1.00  0.00    -0.564 OA 
BRANCH  23  25
HETATM   25  C   UNL     1     -11.422  13.902  67.154  1.00  0.00    -0.370 C  
BRANCH  25  26
HETATM   26  C   UNL     1     -10.550  13.943  68.393  1.00  0.00    -0.262 C  
HETATM   27  C   UNL     1     -11.246  14.563  69.579  1.00  0.00    -0.264 C  
HETATM   28  O   UNL     1     -12.302  13.857  70.032  1.00  0.00    -0.330 OA 
HETATM   29  O   UNL     1     -10.869  15.598  70.106  1.00  0.00    -0.294 OA 
ENDBRANCH  25  26
ENDBRANCH  23  25
ENDBRANCH  22  23
ENDBRANCH  21  22
ENDBRANCH  13  21
ENDBRANCH   2  13
TORSDOF 8
ENDMDL
MODEL      239
REMARK 921   NORMALIZED FREE ENERGY PREDICTED BY IDOCK:   -4.26 KCAL/MOL
REMARK 922        TOTAL FREE ENERGY PREDICTED BY IDOCK:   -7.72 KCAL/MOL
REMARK 923 INTER-LIGAND FREE ENERGY PREDICTED BY IDOCK:   -7.06 KCAL/MOL
REMARK 924 INTRA-LIGAND FREE ENERGY PREDICTED BY IDOCK:   -0.66 KCAL/MOL
REMARK 927      BINDING AFFINITY PREDICTED BY RF-SCORE:    0.00 PKD
ROOT
HETATM    1  O   UNL     1      -9.728   6.862  66.260  1.00  0.00    -0.366 OA 
HETATM    2  C   UNL     1      -9.098   7.773  67.171  1.00  0.00    -0.134 C  
HETATM    3  H   UNL     1      -9.688   5.979  66.607  1.00  0.00     0.000 HD 
ENDROOT
BRANCH   2   4
HETATM    4  C   UNL     1      -9.781   7.573  68.508  1.00  0.00    -0.159 A  
HETATM    5  C   UNL     1     -10.929   7.098  71.027  1.00  0.00    -0.252 A  
HETATM    6  C   UNL     1      -9.358   8.298  69.635  1.00  0.00    -0.158 A  
HETATM    7  O   UNL     1     -11.034   7.439  73.320  1.00  0.00    -0.376 OA 
HETATM    8  O   UNL     1     -12.392   5.965  72.429  1.00  0.00    -0.198 OA 
HETATM    9  C   UNL     1     -10.804   6.620  68.663  1.00  0.00    -0.319 A  
HETATM   10  C   UNL     1      -9.926   8.066  70.891  1.00  0.00    -0.207 A  
HETATM   11  N   UNL     1     -11.492   6.814  72.354  1.00  0.00    -0.273 N  
HETATM   12  C   UNL     1     -11.380   6.381  69.913  1.00  0.00    -0.500 A  
ENDBRANCH   2   4
BRANCH   2  13
HETATM   13  C   UNL     1      -9.162   9.218  66.604  1.00  0.00    -0.148 C  
BRANCH  13  14
HETATM   14  N   UNL     1      -8.310  10.103  67.434  1.00  0.00    -0.118 N  
HETATM   15  C   UNL     1      -6.568  11.840  67.853  1.00  0.00    -0.068 C  
HETATM   16  C   UNL     1      -7.294  10.878  66.901  1.00  0.00    -0.128 C  
HETATM   17  H   UNL     1      -8.480  10.144  68.439  1.00  0.00     0.000 HD 
HETATM   18  O   UNL     1      -7.000  10.822  65.706  1.00  0.00    -0.122 OA 
HETATM   19 CL   UNL     1      -6.693  11.312  69.545  1.00  0.00    -0.124 Cl 
HETATM   20 CL   UNL     1      -7.240  13.468  67.654  1.00  0.00    -0.161 Cl 
ENDBRANCH  13  14
BRANCH  13  21
HETATM   21  C   UNL     1     -10.624   9.716  66.546  1.00  0.00    -0.072 C  
BRANCH  21  22
HETATM   22  O   UNL     1     -10.717  11.151  66.639  1.00  0.00    -0.258 OA 
BRANCH  22  23
HETATM   23  C   UNL     1     -10.719  11.815  65.453  1.00  0.00    -0.283 C  
HETATM   24  O   UNL     1      -9.784  11.847  64.663  1.00  0.00    -0.212 OA 
BRANCH  23  25
HETATM   25  C   UNL     1     -12.037  12.503  65.219  1.00  0.00    -0.500 C  
BRANCH  25  26
HETATM   26  C   UNL     1     -12.020  13.326  63.946  1.00  0.00    -0.541 C  
HETATM   27  C   UNL     1     -11.974  14.811  64.208  1.00  0.00    -0.368 C  
HETATM   28  O   UNL     1     -10.839  15.233  64.802  1.00  0.00    -0.411 OA 
HETATM   29  O   UNL     1     -12.872  15.572  63.885  1.00  0.00    -0.605 OA 
ENDBRANCH  25  26
ENDBRANCH  23  25
ENDBRANCH  22  23
ENDBRANCH  21  22
ENDBRANCH  13  21
ENDBRANCH   2  13
TORSDOF 8
ENDMDL
MODEL      240
REMARK 921   NORMALIZED FREE ENERGY PREDICTED BY IDOCK:   -4.25 KCAL/MOL
REMARK 922        TOTAL FREE ENERGY PREDICTED BY IDOCK:   -7.71 KCAL/MOL
REMARK 923 INTER-LIGAND FREE ENERGY PREDICTED BY IDOCK:   -8.08 KCAL/MOL
REMARK 924 INTRA-LIGAND FREE ENERGY PREDICTED BY IDOCK:    0.37 KCAL/MOL
REMARK 927      BINDING AFFINITY PREDICTED BY RF-SCORE:    0.00 PKD
ROOT
HETATM    1  O   UNL     1      -9.282  12.761  68.831  1.00  0.00    -0.389 OA 
HETATM    2  C   UNL     1     -10.480  12.171  68.309  1.00  0.00    -0.213 C  
HETATM    3  H   UNL     1      -9.456  13.145  69.682  1.00  0.00     0.000 HD 
ENDROOT
BRANCH   2   4
HETATM    4  C   UNL     1     -10.972  11.205  69.366  1.00  0.00    -0.298 A  
HETATM    5  C   UNL     1     -11.841   9.521  71.439  1.00  0.00    -0.389 A  
HETATM    6  C   UNL     1     -12.269  11.330  69.893  1.00  0.00    -0.358 A  
HETATM    7  O   UNL     1     -13.409   8.877  73.025  1.00  0.00    -0.308 OA 
HETATM    8  O   UNL     1     -11.491   7.814  72.973  1.00  0.00    -0.372 OA 
HETATM    9  C   UNL     1     -10.126  10.207  69.884  1.00  0.00    -0.268 A  
HETATM   10  C   UNL     1     -12.707  10.495  70.925  1.00  0.00    -0.495 A  
HETATM   11  N   UNL     1     -12.279   8.678  72.559  1.00  0.00    -0.359 N  
HETATM   12  C   UNL     1     -10.554   9.365  70.914  1.00  0.00    -0.390 A  
ENDBRANCH   2   4
BRANCH   2  13
HETATM   13  C   UNL     1     -10.196  11.542  66.917  1.00  0.00    -0.217 C  
BRANCH  13  14
HETATM   14  N   UNL     1     -10.867  12.352  65.872  1.00  0.00    -0.262 N  
HETATM   15  C   UNL     1     -12.259  14.228  64.994  1.00  0.00    -0.433 C  
HETATM   16  C   UNL     1     -11.727  13.395  66.170  1.00  0.00    -0.368 C  
HETATM   17  H   UNL     1     -10.688  12.131  64.891  1.00  0.00     0.000 HD 
HETATM   18  O   UNL     1     -12.031  13.666  67.332  1.00  0.00    -0.376 OA 
HETATM   19 CL   UNL     1     -12.225  13.314  63.471  1.00  0.00    -0.568 Cl 
HETATM   20 CL   UNL     1     -11.300  15.713  64.856  1.00  0.00    -0.354 Cl 
ENDBRANCH  13  14
BRANCH  13  21
HETATM   21  C   UNL     1     -10.652  10.066  66.882  1.00  0.00    -0.192 C  
BRANCH  21  22
HETATM   22  O   UNL     1      -9.891   9.279  65.945  1.00  0.00    -0.281 OA 
BRANCH  22  23
HETATM   23  C   UNL     1      -8.621   8.982  66.327  1.00  0.00    -0.128 C  
HETATM   24  O   UNL     1      -7.632   9.656  66.069  1.00  0.00    -0.099 OA 
BRANCH  23  25
HETATM   25  C   UNL     1      -8.581   7.710  67.131  1.00  0.00    -0.121 C  
BRANCH  25  26
HETATM   26  C   UNL     1      -9.005   6.512  66.304  1.00  0.00    -0.168 C  
HETATM   27  C   UNL     1     -10.145   5.745  66.925  1.00  0.00    -0.192 C  
HETATM   28  O   UNL     1     -11.303   6.433  66.992  1.00  0.00    -0.314 OA 
HETATM   29  O   UNL     1     -10.041   4.590  67.307  1.00  0.00    -0.168 OA 
ENDBRANCH  25  26
ENDBRANCH  23  25
ENDBRANCH  22  23
ENDBRANCH  21  22
ENDBRANCH  13  21
ENDBRANCH   2  13
TORSDOF 8
ENDMDL
MODEL      241
REMARK 921   NORMALIZED FREE ENERGY PREDICTED BY IDOCK:   -4.25 KCAL/MOL
REMARK 922        TOTAL FREE ENERGY PREDICTED BY IDOCK:   -7.71 KCAL/MOL
REMARK 923 INTER-LIGAND FREE ENERGY PREDICTED BY IDOCK:   -7.59 KCAL/MOL
REMARK 924 INTRA-LIGAND FREE ENERGY PREDICTED BY IDOCK:   -0.12 KCAL/MOL
REMARK 927      BINDING AFFINITY PREDICTED BY RF-SCORE:    0.00 PKD
ROOT
HETATM    1  O   UNL     1     -12.258  12.992  63.343  1.00  0.00    -0.615 OA 
HETATM    2  C   UNL     1     -11.112  13.269  64.160  1.00  0.00    -0.365 C  
HETATM    3  H   UNL     1     -11.979  12.694  62.486  1.00  0.00     0.000 HD 
ENDROOT
BRANCH   2   4
HETATM    4  C   UNL     1     -10.275  12.007  64.156  1.00  0.00    -0.367 A  
HETATM    5  C   UNL     1      -8.592   9.759  64.128  1.00  0.00    -0.194 A  
HETATM    6  C   UNL     1      -9.638  11.576  65.332  1.00  0.00    -0.249 A  
HETATM    7  O   UNL     1      -7.086   8.322  65.156  1.00  0.00    -0.072 OA 
HETATM    8  O   UNL     1      -7.529   8.012  63.030  1.00  0.00    -0.101 OA 
HETATM    9  C   UNL     1     -10.069  11.279  62.970  1.00  0.00    -0.327 A  
HETATM   10  C   UNL     1      -8.798  10.458  65.324  1.00  0.00    -0.203 A  
HETATM   11  N   UNL     1      -7.670   8.616  64.103  1.00  0.00    -0.122 N  
HETATM   12  C   UNL     1      -9.234  10.159  62.951  1.00  0.00    -0.316 A  
ENDBRANCH   2   4
BRANCH   2  13
HETATM   13  C   UNL     1     -11.569  13.757  65.563  1.00  0.00    -0.326 C  
BRANCH  13  14
HETATM   14  N   UNL     1     -10.481  14.555  66.177  1.00  0.00    -0.289 N  
HETATM   15  C   UNL     1      -9.034  16.564  66.491  1.00  0.00    -0.278 C  
HETATM   16  C   UNL     1     -10.091  15.790  65.689  1.00  0.00    -0.371 C  
HETATM   17  H   UNL     1      -9.999  14.179  66.995  1.00  0.00     0.000 HD 
HETATM   18  O   UNL     1     -10.591  16.266  64.668  1.00  0.00    -0.621 OA 
HETATM   19 CL   UNL     1      -8.039  15.481  67.486  1.00  0.00    -0.169 Cl 
HETATM   20 CL   UNL     1      -9.846  17.774  67.501  1.00  0.00    -0.295 Cl 
ENDBRANCH  13  14
BRANCH  13  21
HETATM   21  C   UNL     1     -11.975  12.559  66.451  1.00  0.00    -0.318 C  
BRANCH  21  22
HETATM   22  O   UNL     1     -12.329  12.964  67.788  1.00  0.00    -0.174 OA 
BRANCH  22  23
HETATM   23  C   UNL     1     -11.441  12.621  68.757  1.00  0.00    -0.306 C  
HETATM   24  O   UNL     1     -10.429  13.250  69.041  1.00  0.00    -0.151 OA 
BRANCH  23  25
HETATM   25  C   UNL     1     -11.867  11.360  69.462  1.00  0.00    -0.426 C  
BRANCH  25  26
HETATM   26  C   UNL     1     -10.678  10.498  69.836  1.00  0.00    -0.301 C  
HETATM   27  C   UNL     1     -10.786   9.089  69.308  1.00  0.00    -0.174 C  
HETATM   28  O   UNL     1     -10.756   8.999  67.963  1.00  0.00    -0.208 OA 
HETATM   29  O   UNL     1     -10.863   8.111  70.034  1.00  0.00    -0.247 OA 
ENDBRANCH  25  26
ENDBRANCH  23  25
ENDBRANCH  22  23
ENDBRANCH  21  22
ENDBRANCH  13  21
ENDBRANCH   2  13
TORSDOF 8
ENDMDL
MODEL      242
REMARK 921   NORMALIZED FREE ENERGY PREDICTED BY IDOCK:   -4.25 KCAL/MOL
REMARK 922        TOTAL FREE ENERGY PREDICTED BY IDOCK:   -7.70 KCAL/MOL
REMARK 923 INTER-LIGAND FREE ENERGY PREDICTED BY IDOCK:   -6.87 KCAL/MOL
REMARK 924 INTRA-LIGAND FREE ENERGY PREDICTED BY IDOCK:   -0.83 KCAL/MOL
REMARK 927      BINDING AFFINITY PREDICTED BY RF-SCORE:    0.00 PKD
ROOT
HETATM    1  O   UNL     1     -12.435  13.980  67.456  1.00  0.00    -0.506 OA 
HETATM    2  C   UNL     1     -11.080  13.815  67.016  1.00  0.00    -0.302 C  
HETATM    3  H   UNL     1     -13.009  13.419  66.949  1.00  0.00     0.000 HD 
ENDROOT
BRANCH   2   4
HETATM    4  C   UNL     1     -10.783  12.333  67.109  1.00  0.00    -0.265 A  
HETATM    5  C   UNL     1     -10.349   9.559  67.173  1.00  0.00    -0.253 A  
HETATM    6  C   UNL     1      -9.946  11.718  66.162  1.00  0.00    -0.254 A  
HETATM    7  O   UNL     1      -9.468   7.609  66.275  1.00  0.00    -0.176 OA 
HETATM    8  O   UNL     1     -10.715   7.451  68.073  1.00  0.00    -0.194 OA 
HETATM    9  C   UNL     1     -11.382  11.536  68.101  1.00  0.00    -0.367 A  
HETATM   10  C   UNL     1      -9.727  10.337  66.189  1.00  0.00    -0.266 A  
HETATM   11  N   UNL     1     -10.164   8.102  67.174  1.00  0.00    -0.266 N  
HETATM   12  C   UNL     1     -11.168  10.155  68.139  1.00  0.00    -0.245 A  
ENDBRANCH   2   4
BRANCH   2  13
HETATM   13  C   UNL     1     -10.140  14.733  67.845  1.00  0.00    -0.221 C  
BRANCH  13  14
HETATM   14  N   UNL     1      -8.748  14.234  67.728  1.00  0.00    -0.169 N  
HETATM   15  C   UNL     1      -6.278  14.436  67.441  1.00  0.00     0.208 C  
HETATM   16  C   UNL     1      -7.682  15.058  67.411  1.00  0.00    -0.200 C  
HETATM   17  H   UNL     1      -8.569  13.242  67.888  1.00  0.00     0.000 HD 
HETATM   18  O   UNL     1      -7.845  16.249  67.144  1.00  0.00    -0.156 OA 
HETATM   19 CL   UNL     1      -6.332  12.675  67.214  1.00  0.00    -0.149 Cl 
HETATM   20 CL   UNL     1      -5.495  14.846  68.978  1.00  0.00    -0.093 Cl 
ENDBRANCH  13  14
BRANCH  13  21
HETATM   21  C   UNL     1     -10.604  14.802  69.317  1.00  0.00    -0.240 C  
BRANCH  21  22
HETATM   22  O   UNL     1     -11.785  15.611  69.481  1.00  0.00    -0.328 OA 
BRANCH  22  23
HETATM   23  C   UNL     1     -12.370  15.550  70.707  1.00  0.00    -0.414 C  
HETATM   24  O   UNL     1     -13.518  15.893  70.957  1.00  0.00    -0.493 OA 
BRANCH  23  25
HETATM   25  C   UNL     1     -11.422  14.987  71.732  1.00  0.00    -0.376 C  
BRANCH  25  26
HETATM   26  C   UNL     1     -12.159  14.236  72.823  1.00  0.00     0.115 C  
HETATM   27  C   UNL     1     -13.153  13.240  72.281  1.00  0.00    -0.371 C  
HETATM   28  O   UNL     1     -12.597  12.219  71.598  1.00  0.00    -0.222 OA 
HETATM   29  O   UNL     1     -14.356  13.330  72.468  1.00  0.00    -0.662 OA 
ENDBRANCH  25  26
ENDBRANCH  23  25
ENDBRANCH  22  23
ENDBRANCH  21  22
ENDBRANCH  13  21
ENDBRANCH   2  13
TORSDOF 8
ENDMDL
MODEL      243
REMARK 921   NORMALIZED FREE ENERGY PREDICTED BY IDOCK:   -4.24 KCAL/MOL
REMARK 922        TOTAL FREE ENERGY PREDICTED BY IDOCK:   -7.70 KCAL/MOL
REMARK 923 INTER-LIGAND FREE ENERGY PREDICTED BY IDOCK:   -6.20 KCAL/MOL
REMARK 924 INTRA-LIGAND FREE ENERGY PREDICTED BY IDOCK:   -1.50 KCAL/MOL
REMARK 927      BINDING AFFINITY PREDICTED BY RF-SCORE:    0.00 PKD
ROOT
HETATM    1  O   UNL     1      -7.203   8.437  65.113  1.00  0.00    -0.077 OA 
HETATM    2  C   UNL     1      -7.631   9.800  65.240  1.00  0.00    -0.119 C  
HETATM    3  H   UNL     1      -6.263   8.381  65.238  1.00  0.00     0.000 HD 
ENDROOT
BRANCH   2   4
HETATM    4  C   UNL     1      -7.129  10.277  66.587  1.00  0.00    -0.108 A  
HETATM    5  C   UNL     1      -6.351  11.162  69.136  1.00  0.00    -0.064 A  
HETATM    6  C   UNL     1      -6.913   9.358  67.628  1.00  0.00    -0.081 A  
HETATM    7  O   UNL     1      -5.883  10.777  71.377  1.00  0.00    -0.342 OA 
HETATM    8  O   UNL     1      -5.830  12.845  70.648  1.00  0.00    -0.175 OA 
HETATM    9  C   UNL     1      -6.927  11.645  66.841  1.00  0.00    -0.123 A  
HETATM   10  C   UNL     1      -6.527   9.793  68.899  1.00  0.00    -0.045 A  
HETATM   11  N   UNL     1      -5.996  11.628  70.483  1.00  0.00    -0.136 N  
HETATM   12  C   UNL     1      -6.539  12.091  68.107  1.00  0.00    -0.055 A  
ENDBRANCH   2   4
BRANCH   2  13
HETATM   13  C   UNL     1      -9.168   9.892  65.036  1.00  0.00    -0.240 C  
BRANCH  13  14
HETATM   14  N   UNL     1      -9.606  11.289  65.269  1.00  0.00    -0.227 N  
HETATM   15  C   UNL     1     -10.646  13.476  64.667  1.00  0.00    -0.427 C  
HETATM   16  C   UNL     1     -10.119  12.091  64.264  1.00  0.00    -0.293 C  
HETATM   17  H   UNL     1      -9.526  11.676  66.210  1.00  0.00     0.000 HD 
HETATM   18  O   UNL     1     -10.180  11.701  63.097  1.00  0.00    -0.385 OA 
HETATM   19 CL   UNL     1      -9.903  14.050  66.175  1.00  0.00    -0.314 Cl 
HETATM   20 CL   UNL     1     -12.410  13.400  64.827  1.00  0.00    -0.440 Cl 
ENDBRANCH  13  14
BRANCH  13  21
HETATM   21  C   UNL     1      -9.902   8.897  65.963  1.00  0.00    -0.207 C  
BRANCH  21  22
HETATM   22  O   UNL     1     -10.607   9.561  67.030  1.00  0.00    -0.248 OA 
BRANCH  22  23
HETATM   23  C   UNL     1     -10.337   9.105  68.281  1.00  0.00    -0.214 C  
HETATM   24  O   UNL     1     -10.244   7.925  68.597  1.00  0.00    -0.197 OA 
BRANCH  23  25
HETATM   25  C   UNL     1     -10.147  10.246  69.245  1.00  0.00    -0.244 C  
BRANCH  25  26
HETATM   26  C   UNL     1     -11.461  10.679  69.865  1.00  0.00    -0.393 C  
HETATM   27  C   UNL     1     -11.885  12.061  69.434  1.00  0.00    -0.324 C  
HETATM   28  O   UNL     1     -12.173  12.168  68.121  1.00  0.00    -0.388 OA 
HETATM   29  O   UNL     1     -11.989  12.998  70.210  1.00  0.00    -0.337 OA 
ENDBRANCH  25  26
ENDBRANCH  23  25
ENDBRANCH  22  23
ENDBRANCH  21  22
ENDBRANCH  13  21
ENDBRANCH   2  13
TORSDOF 8
ENDMDL
MODEL      244
REMARK 921   NORMALIZED FREE ENERGY PREDICTED BY IDOCK:   -4.24 KCAL/MOL
REMARK 922        TOTAL FREE ENERGY PREDICTED BY IDOCK:   -7.70 KCAL/MOL
REMARK 923 INTER-LIGAND FREE ENERGY PREDICTED BY IDOCK:   -6.69 KCAL/MOL
REMARK 924 INTRA-LIGAND FREE ENERGY PREDICTED BY IDOCK:   -1.00 KCAL/MOL
REMARK 927      BINDING AFFINITY PREDICTED BY RF-SCORE:    0.00 PKD
ROOT
HETATM    1  O   UNL     1      -9.431  10.788  69.638  1.00  0.00    -0.421 OA 
HETATM    2  C   UNL     1      -9.682  10.258  68.329  1.00  0.00    -0.142 C  
HETATM    3  H   UNL     1      -8.745  11.442  69.595  1.00  0.00     0.000 HD 
ENDROOT
BRANCH   2   4
HETATM    4  C   UNL     1      -9.981  11.449  67.443  1.00  0.00    -0.207 A  
HETATM    5  C   UNL     1     -10.597  13.733  65.928  1.00  0.00    -0.289 A  
HETATM    6  C   UNL     1      -9.088  12.532  67.387  1.00  0.00    -0.185 A  
HETATM    7  O   UNL     1     -10.144  15.896  65.219  1.00  0.00    -0.433 OA 
HETATM    8  O   UNL     1     -12.010  14.955  64.551  1.00  0.00    -0.447 OA 
HETATM    9  C   UNL     1     -11.179  11.523  66.709  1.00  0.00    -0.350 A  
HETATM   10  C   UNL     1      -9.389  13.672  66.635  1.00  0.00    -0.265 A  
HETATM   11  N   UNL     1     -10.941  14.948  65.179  1.00  0.00    -0.374 N  
HETATM   12  C   UNL     1     -11.490  12.656  65.952  1.00  0.00    -0.407 A  
ENDBRANCH   2   4
BRANCH   2  13
HETATM   13  C   UNL     1     -10.805   9.186  68.400  1.00  0.00    -0.048 C  
BRANCH  13  14
HETATM   14  N   UNL     1     -11.243   9.035  69.808  1.00  0.00    -0.423 N  
HETATM   15  C   UNL     1     -12.625   9.534  71.825  1.00  0.00    -0.405 C  
HETATM   16  C   UNL     1     -12.171   9.876  70.398  1.00  0.00    -0.114 C  
HETATM   17  H   UNL     1     -10.845   8.278  70.366  1.00  0.00     0.000 HD 
HETATM   18  O   UNL     1     -12.638  10.844  69.796  1.00  0.00    -0.270 OA 
HETATM   19 CL   UNL     1     -11.417   8.555  72.684  1.00  0.00    -0.371 Cl 
HETATM   20 CL   UNL     1     -14.180   8.685  71.750  1.00  0.00    -0.488 Cl 
ENDBRANCH  13  14
BRANCH  13  21
HETATM   21  C   UNL     1     -10.319   7.847  67.801  1.00  0.00    -0.226 C  
BRANCH  21  22
HETATM   22  O   UNL     1      -9.022   7.464  68.300  1.00  0.00    -0.131 OA 
BRANCH  22  23
HETATM   23  C   UNL     1      -8.966   6.251  68.910  1.00  0.00    -0.126 C  
HETATM   24  O   UNL     1      -9.578   5.253  68.551  1.00  0.00    -0.122 OA 
BRANCH  23  25
HETATM   25  C   UNL     1      -8.032   6.281  70.091  1.00  0.00    -0.108 C  
BRANCH  25  26
HETATM   26  C   UNL     1      -8.576   7.144  71.212  1.00  0.00    -0.124 C  
HETATM   27  C   UNL     1      -7.489   7.765  72.053  1.00  0.00    -0.076 C  
HETATM   28  O   UNL     1      -6.719   8.655  71.394  1.00  0.00    -0.062 OA 
HETATM   29  O   UNL     1      -7.335   7.510  73.237  1.00  0.00    -0.078 OA 
ENDBRANCH  25  26
ENDBRANCH  23  25
ENDBRANCH  22  23
ENDBRANCH  21  22
ENDBRANCH  13  21
ENDBRANCH   2  13
TORSDOF 8
ENDMDL
MODEL      245
REMARK 921   NORMALIZED FREE ENERGY PREDICTED BY IDOCK:   -4.24 KCAL/MOL
REMARK 922        TOTAL FREE ENERGY PREDICTED BY IDOCK:   -7.69 KCAL/MOL
REMARK 923 INTER-LIGAND FREE ENERGY PREDICTED BY IDOCK:   -6.65 KCAL/MOL
REMARK 924 INTRA-LIGAND FREE ENERGY PREDICTED BY IDOCK:   -1.03 KCAL/MOL
REMARK 927      BINDING AFFINITY PREDICTED BY RF-SCORE:    0.00 PKD
ROOT
HETATM    1  O   UNL     1     -11.880  10.470  69.068  1.00  0.00    -0.483 OA 
HETATM    2  C   UNL     1     -11.100  10.576  67.869  1.00  0.00    -0.304 C  
HETATM    3  H   UNL     1     -12.396   9.674  69.048  1.00  0.00     0.000 HD 
ENDROOT
BRANCH   2   4
HETATM    4  C   UNL     1     -10.303   9.292  67.769  1.00  0.00    -0.292 A  
HETATM    5  C   UNL     1      -8.959   6.837  67.534  1.00  0.00    -0.115 A  
HETATM    6  C   UNL     1      -9.768   8.885  66.534  1.00  0.00    -0.322 A  
HETATM    7  O   UNL     1      -7.910   5.196  66.271  1.00  0.00    -0.101 OA 
HETATM    8  O   UNL     1      -8.182   4.837  68.418  1.00  0.00    -0.084 OA 
HETATM    9  C   UNL     1     -10.134   8.456  68.887  1.00  0.00    -0.209 A  
HETATM   10  C   UNL     1      -9.099   7.664  66.412  1.00  0.00    -0.214 A  
HETATM   11  N   UNL     1      -8.303   5.530  67.397  1.00  0.00    -0.104 N  
HETATM   12  C   UNL     1      -9.465   7.234  68.776  1.00  0.00    -0.142 A  
ENDBRANCH   2   4
BRANCH   2  13
HETATM   13  C   UNL     1     -10.255  11.880  67.901  1.00  0.00    -0.193 C  
BRANCH  13  14
HETATM   14  N   UNL     1      -9.048  11.655  68.732  1.00  0.00    -0.374 N  
HETATM   15  C   UNL     1      -6.655  11.929  69.386  1.00  0.00    -0.108 C  
HETATM   16  C   UNL     1      -7.796  12.128  68.377  1.00  0.00    -0.149 C  
HETATM   17  H   UNL     1      -9.143  11.129  69.601  1.00  0.00     0.000 HD 
HETATM   18  O   UNL     1      -7.607  12.713  67.309  1.00  0.00    -0.153 OA 
HETATM   19 CL   UNL     1      -6.978  10.572  70.486  1.00  0.00     0.041 Cl 
HETATM   20 CL   UNL     1      -6.419  13.431  70.297  1.00  0.00     0.059 Cl 
ENDBRANCH  13  14
BRANCH  13  21
HETATM   21  C   UNL     1     -11.099  13.064  68.423  1.00  0.00    -0.262 C  
BRANCH  21  22
HETATM   22  O   UNL     1     -12.253  13.319  67.598  1.00  0.00    -0.292 OA 
BRANCH  22  23
HETATM   23  C   UNL     1     -12.026  14.082  66.497  1.00  0.00    -0.444 C  
HETATM   24  O   UNL     1     -12.728  14.097  65.493  1.00  0.00    -0.507 OA 
BRANCH  23  25
HETATM   25  C   UNL     1     -10.796  14.932  66.670  1.00  0.00    -0.319 C  
BRANCH  25  26
HETATM   26  C   UNL     1     -11.141  16.405  66.763  1.00  0.00     0.135 C  
HETATM   27  C   UNL     1     -10.517  17.224  65.661  1.00  0.00    -0.181 C  
HETATM   28  O   UNL     1     -10.975  16.930  64.426  1.00  0.00    -1.016 OA 
HETATM   29  O   UNL     1      -9.692  18.099  65.867  1.00  0.00    -0.521 OA 
ENDBRANCH  25  26
ENDBRANCH  23  25
ENDBRANCH  22  23
ENDBRANCH  21  22
ENDBRANCH  13  21
ENDBRANCH   2  13
TORSDOF 8
ENDMDL
MODEL      246
REMARK 921   NORMALIZED FREE ENERGY PREDICTED BY IDOCK:   -4.24 KCAL/MOL
REMARK 922        TOTAL FREE ENERGY PREDICTED BY IDOCK:   -7.69 KCAL/MOL
REMARK 923 INTER-LIGAND FREE ENERGY PREDICTED BY IDOCK:   -7.58 KCAL/MOL
REMARK 924 INTRA-LIGAND FREE ENERGY PREDICTED BY IDOCK:   -0.11 KCAL/MOL
REMARK 927      BINDING AFFINITY PREDICTED BY RF-SCORE:    0.00 PKD
ROOT
HETATM    1  O   UNL     1     -11.535   6.311  67.253  1.00  0.00    -0.647 OA 
HETATM    2  C   UNL     1     -10.439   7.183  67.564  1.00  0.00    -0.260 C  
HETATM    3  H   UNL     1     -11.367   5.446  67.605  1.00  0.00     0.000 HD 
ENDROOT
BRANCH   2   4
HETATM    4  C   UNL     1     -10.262   7.120  69.067  1.00  0.00    -0.191 A  
HETATM    5  C   UNL     1      -9.986   7.156  71.861  1.00  0.00    -0.167 A  
HETATM    6  C   UNL     1     -11.361   6.841  69.898  1.00  0.00    -0.374 A  
HETATM    7  O   UNL     1     -10.872   7.036  74.003  1.00  0.00    -0.189 OA 
HETATM    8  O   UNL     1      -8.734   7.474  73.790  1.00  0.00    -0.177 OA 
HETATM    9  C   UNL     1      -9.018   7.397  69.661  1.00  0.00    -0.141 A  
HETATM   10  C   UNL     1     -11.229   6.859  71.289  1.00  0.00    -0.306 A  
HETATM   11  N   UNL     1      -9.855   7.227  73.322  1.00  0.00    -0.227 N  
HETATM   12  C   UNL     1      -8.874   7.415  71.051  1.00  0.00    -0.143 A  
ENDBRANCH   2   4
BRANCH   2  13
HETATM   13  C   UNL     1     -10.712   8.601  66.988  1.00  0.00    -0.120 C  
BRANCH  13  14
HETATM   14  N   UNL     1      -9.800   8.843  65.844  1.00  0.00    -0.452 N  
HETATM   15  C   UNL     1      -7.593   9.139  64.720  1.00  0.00    -0.108 C  
HETATM   16  C   UNL     1      -8.436   9.016  65.997  1.00  0.00    -0.130 C  
HETATM   17  H   UNL     1     -10.195   8.884  64.903  1.00  0.00     0.000 HD 
HETATM   18  O   UNL     1      -7.911   9.042  67.112  1.00  0.00    -0.098 OA 
HETATM   19 CL   UNL     1      -8.562   9.704  63.342  1.00  0.00    -0.193 Cl 
HETATM   20 CL   UNL     1      -6.851   7.569  64.362  1.00  0.00    -0.053 Cl 
ENDBRANCH  13  14
BRANCH  13  21
HETATM   21  C   UNL     1     -10.554   9.675  68.086  1.00  0.00    -0.226 C  
BRANCH  21  22
HETATM   22  O   UNL     1     -11.436  10.797  67.886  1.00  0.00    -0.421 OA 
BRANCH  22  23
HETATM   23  C   UNL     1     -10.911  11.835  67.183  1.00  0.00    -0.258 C  
HETATM   24  O   UNL     1      -9.720  11.996  66.947  1.00  0.00    -0.197 OA 
BRANCH  23  25
HETATM   25  C   UNL     1     -11.991  12.771  66.710  1.00  0.00    -0.389 C  
BRANCH  25  26
HETATM   26  C   UNL     1     -12.283  12.587  65.234  1.00  0.00    -0.493 C  
HETATM   27  C   UNL     1     -11.785  13.734  64.390  1.00  0.00    -0.408 C  
HETATM   28  O   UNL     1     -10.443  13.865  64.372  1.00  0.00    -0.397 OA 
HETATM   29  O   UNL     1     -12.528  14.463  63.753  1.00  0.00    -0.814 OA 
ENDBRANCH  25  26
ENDBRANCH  23  25
ENDBRANCH  22  23
ENDBRANCH  21  22
ENDBRANCH  13  21
ENDBRANCH   2  13
TORSDOF 8
ENDMDL
MODEL      247
REMARK 921   NORMALIZED FREE ENERGY PREDICTED BY IDOCK:   -4.23 KCAL/MOL
REMARK 922        TOTAL FREE ENERGY PREDICTED BY IDOCK:   -7.68 KCAL/MOL
REMARK 923 INTER-LIGAND FREE ENERGY PREDICTED BY IDOCK:   -7.20 KCAL/MOL
REMARK 924 INTRA-LIGAND FREE ENERGY PREDICTED BY IDOCK:   -0.48 KCAL/MOL
REMARK 927      BINDING AFFINITY PREDICTED BY RF-SCORE:    0.00 PKD
ROOT
HETATM    1  O   UNL     1      -9.503   6.738  66.477  1.00  0.00    -0.164 OA 
HETATM    2  C   UNL     1      -9.316   7.960  67.204  1.00  0.00    -0.153 C  
HETATM    3  H   UNL     1      -9.316   5.996  67.039  1.00  0.00     0.000 HD 
ENDROOT
BRANCH   2   4
HETATM    4  C   UNL     1     -10.182   7.852  68.441  1.00  0.00    -0.232 A  
HETATM    5  C   UNL     1     -11.919   7.680  70.642  1.00  0.00    -0.099 A  
HETATM    6  C   UNL     1     -10.818   6.639  68.757  1.00  0.00    -0.321 A  
HETATM    7  O   UNL     1     -13.447   6.524  71.951  1.00  0.00    -0.139 OA 
HETATM    8  O   UNL     1     -13.033   8.620  72.448  1.00  0.00    -0.374 OA 
HETATM    9  C   UNL     1     -10.417   8.972  69.260  1.00  0.00    -0.238 A  
HETATM   10  C   UNL     1     -11.684   6.548  69.851  1.00  0.00    -0.349 A  
HETATM   11  N   UNL     1     -12.868   7.602  71.760  1.00  0.00    -0.333 N  
HETATM   12  C   UNL     1     -11.278   8.891  70.357  1.00  0.00    -0.259 A  
ENDBRANCH   2   4
BRANCH   2  13
HETATM   13  C   UNL     1      -9.622   9.174  66.284  1.00  0.00    -0.255 C  
BRANCH  13  14
HETATM   14  N   UNL     1      -9.045   8.924  64.941  1.00  0.00    -0.432 N  
HETATM   15  C   UNL     1      -8.619   9.389  62.527  1.00  0.00    -0.215 C  
HETATM   16  C   UNL     1      -9.381   9.677  63.829  1.00  0.00    -0.011 C  
HETATM   17  H   UNL     1      -8.371   8.165  64.832  1.00  0.00     0.000 HD 
HETATM   18  O   UNL     1     -10.235  10.562  63.885  1.00  0.00    -0.303 OA 
HETATM   19 CL   UNL     1      -7.953   7.742  62.503  1.00  0.00    -0.134 Cl 
HETATM   20 CL   UNL     1      -7.328  10.589  62.334  1.00  0.00    -0.161 Cl 
ENDBRANCH  13  14
BRANCH  13  21
HETATM   21  C   UNL     1      -9.083  10.481  66.907  1.00  0.00    -0.147 C  
BRANCH  21  22
HETATM   22  O   UNL     1     -10.090  11.509  66.980  1.00  0.00    -0.204 OA 
BRANCH  22  23
HETATM   23  C   UNL     1      -9.621  12.785  67.009  1.00  0.00    -0.229 C  
HETATM   24  O   UNL     1      -8.480  13.109  67.313  1.00  0.00    -0.189 OA 
BRANCH  23  25
HETATM   25  C   UNL     1     -10.690  13.764  66.602  1.00  0.00    -0.277 C  
BRANCH  25  26
HETATM   26  C   UNL     1     -11.154  13.526  65.178  1.00  0.00    -0.326 C  
HETATM   27  C   UNL     1     -12.606  13.128  65.094  1.00  0.00    -0.465 C  
HETATM   28  O   UNL     1     -13.467  14.089  65.487  1.00  0.00    -0.677 OA 
HETATM   29  O   UNL     1     -12.976  12.043  64.677  1.00  0.00    -0.519 OA 
ENDBRANCH  25  26
ENDBRANCH  23  25
ENDBRANCH  22  23
ENDBRANCH  21  22
ENDBRANCH  13  21
ENDBRANCH   2  13
TORSDOF 8
ENDMDL
MODEL      248
REMARK 921   NORMALIZED FREE ENERGY PREDICTED BY IDOCK:   -4.23 KCAL/MOL
REMARK 922        TOTAL FREE ENERGY PREDICTED BY IDOCK:   -7.68 KCAL/MOL
REMARK 923 INTER-LIGAND FREE ENERGY PREDICTED BY IDOCK:   -6.17 KCAL/MOL
REMARK 924 INTRA-LIGAND FREE ENERGY PREDICTED BY IDOCK:   -1.51 KCAL/MOL
REMARK 927      BINDING AFFINITY PREDICTED BY RF-SCORE:    0.00 PKD
ROOT
HETATM    1  O   UNL     1     -11.147   9.564  67.703  1.00  0.00    -0.481 OA 
HETATM    2  C   UNL     1     -10.521   8.455  67.044  1.00  0.00    -0.305 C  
HETATM    3  H   UNL     1     -11.935   9.273  68.146  1.00  0.00     0.000 HD 
ENDROOT
BRANCH   2   4
HETATM    4  C   UNL     1     -10.310   7.397  68.107  1.00  0.00    -0.235 A  
HETATM    5  C   UNL     1     -10.064   5.373  70.039  1.00  0.00    -0.254 A  
HETATM    6  C   UNL     1      -9.819   6.127  67.755  1.00  0.00    -0.131 A  
HETATM    7  O   UNL     1      -9.607   3.183  70.655  1.00  0.00    -0.167 OA 
HETATM    8  O   UNL     1     -10.301   4.571  72.204  1.00  0.00    -0.192 OA 
HETATM    9  C   UNL     1     -10.656   7.639  69.448  1.00  0.00    -0.217 A  
HETATM   10  C   UNL     1      -9.695   5.116  68.712  1.00  0.00    -0.215 A  
HETATM   11  N   UNL     1      -9.985   4.299  71.037  1.00  0.00    -0.182 N  
HETATM   12  C   UNL     1     -10.534   6.637  70.414  1.00  0.00    -0.249 A  
ENDBRANCH   2   4
BRANCH   2  13
HETATM   13  C   UNL     1      -9.232   8.931  66.318  1.00  0.00    -0.207 C  
BRANCH  13  14
HETATM   14  N   UNL     1      -8.431   9.763  67.248  1.00  0.00    -0.124 N  
HETATM   15  C   UNL     1      -6.346  10.785  68.162  1.00  0.00    -0.057 C  
HETATM   16  C   UNL     1      -7.047   9.789  67.226  1.00  0.00    -0.085 C  
HETATM   17  H   UNL     1      -8.920  10.340  67.933  1.00  0.00     0.000 HD 
HETATM   18  O   UNL     1      -6.400   9.066  66.466  1.00  0.00    -0.063 OA 
HETATM   19 CL   UNL     1      -7.370  11.221  69.547  1.00  0.00    -0.036 Cl 
HETATM   20 CL   UNL     1      -5.894  12.229  67.238  1.00  0.00    -0.147 Cl 
ENDBRANCH  13  14
BRANCH  13  21
HETATM   21  C   UNL     1      -9.586   9.695  65.023  1.00  0.00    -0.214 C  
BRANCH  21  22
HETATM   22  O   UNL     1     -10.745  10.537  65.183  1.00  0.00    -0.153 OA 
BRANCH  22  23
HETATM   23  C   UNL     1     -10.829  11.586  64.324  1.00  0.00    -0.359 C  
HETATM   24  O   UNL     1     -10.099  11.765  63.357  1.00  0.00    -0.388 OA 
BRANCH  23  25
HETATM   25  C   UNL     1     -11.957  12.508  64.702  1.00  0.00    -0.468 C  
BRANCH  25  26
HETATM   26  C   UNL     1     -11.957  12.812  66.188  1.00  0.00    -0.476 C  
HETATM   27  C   UNL     1     -10.620  13.300  66.686  1.00  0.00    -0.281 C  
HETATM   28  O   UNL     1     -10.242  14.492  66.181  1.00  0.00    -0.282 OA 
HETATM   29  O   UNL     1      -9.948  12.687  67.501  1.00  0.00    -0.201 OA 
ENDBRANCH  25  26
ENDBRANCH  23  25
ENDBRANCH  22  23
ENDBRANCH  21  22
ENDBRANCH  13  21
ENDBRANCH   2  13
TORSDOF 8
ENDMDL
MODEL      249
REMARK 921   NORMALIZED FREE ENERGY PREDICTED BY IDOCK:   -4.21 KCAL/MOL
REMARK 922        TOTAL FREE ENERGY PREDICTED BY IDOCK:   -7.65 KCAL/MOL
REMARK 923 INTER-LIGAND FREE ENERGY PREDICTED BY IDOCK:   -6.65 KCAL/MOL
REMARK 924 INTRA-LIGAND FREE ENERGY PREDICTED BY IDOCK:   -1.00 KCAL/MOL
REMARK 927      BINDING AFFINITY PREDICTED BY RF-SCORE:    0.00 PKD
ROOT
HETATM    1  O   UNL     1     -12.247  15.871  68.547  1.00  0.00    -0.438 OA 
HETATM    2  C   UNL     1     -10.941  15.280  68.610  1.00  0.00    -0.257 C  
HETATM    3  H   UNL     1     -12.236  16.722  68.967  1.00  0.00     0.000 HD 
ENDROOT
BRANCH   2   4
HETATM    4  C   UNL     1      -9.991  16.289  68.000  1.00  0.00    -0.240 A  
HETATM    5  C   UNL     1      -8.307  18.276  66.949  1.00  0.00    -0.245 A  
HETATM    6  C   UNL     1      -8.860  16.720  68.715  1.00  0.00    -0.258 A  
HETATM    7  O   UNL     1      -6.511  19.736  67.129  1.00  0.00    -0.192 OA 
HETATM    8  O   UNL     1      -7.732  19.814  65.308  1.00  0.00    -0.317 OA 
HETATM    9  C   UNL     1     -10.250  16.857  66.739  1.00  0.00    -0.306 A  
HETATM   10  C   UNL     1      -8.019  17.709  68.197  1.00  0.00    -0.256 A  
HETATM   11  N   UNL     1      -7.456  19.352  66.425  1.00  0.00    -0.246 N  
HETATM   12  C   UNL     1      -9.415  17.845  66.211  1.00  0.00    -0.234 A  
ENDBRANCH   2   4
BRANCH   2  13
HETATM   13  C   UNL     1     -10.958  13.886  67.923  1.00  0.00    -0.250 C  
BRANCH  13  14
HETATM   14  N   UNL     1     -11.420  12.870  68.899  1.00  0.00    -0.284 N  
HETATM   15  C   UNL     1     -12.205  10.619  69.638  1.00  0.00    -0.206 C  
HETATM   16  C   UNL     1     -11.870  11.617  68.520  1.00  0.00    -0.292 C  
HETATM   17  H   UNL     1     -11.405  13.103  69.893  1.00  0.00     0.000 HD 
HETATM   18  O   UNL     1     -11.972  11.301  67.333  1.00  0.00    -0.581 OA 
HETATM   19 CL   UNL     1     -12.595  11.444  71.162  1.00  0.00    -0.506 Cl 
HETATM   20 CL   UNL     1     -10.835   9.514  69.857  1.00  0.00    -0.256 Cl 
ENDBRANCH  13  14
BRANCH  13  21
HETATM   21  C   UNL     1      -9.565  13.542  67.352  1.00  0.00    -0.227 C  
BRANCH  21  22
HETATM   22  O   UNL     1      -8.702  12.940  68.337  1.00  0.00    -0.178 OA 
BRANCH  22  23
HETATM   23  C   UNL     1      -7.530  12.443  67.861  1.00  0.00    -0.120 C  
HETATM   24  O   UNL     1      -7.364  11.980  66.740  1.00  0.00    -0.088 OA 
BRANCH  23  25
HETATM   25  C   UNL     1      -6.439  12.547  68.894  1.00  0.00    -0.091 C  
BRANCH  25  26
HETATM   26  C   UNL     1      -5.179  13.162  68.317  1.00  0.00    -0.086 C  
HETATM   27  C   UNL     1      -5.263  14.663  68.193  1.00  0.00    -0.119 C  
HETATM   28  O   UNL     1      -5.349  15.312  69.372  1.00  0.00    -0.093 OA 
HETATM   29  O   UNL     1      -5.226  15.245  67.121  1.00  0.00    -0.285 OA 
ENDBRANCH  25  26
ENDBRANCH  23  25
ENDBRANCH  22  23
ENDBRANCH  21  22
ENDBRANCH  13  21
ENDBRANCH   2  13
TORSDOF 8
ENDMDL
MODEL      250
REMARK 921   NORMALIZED FREE ENERGY PREDICTED BY IDOCK:   -4.21 KCAL/MOL
REMARK 922        TOTAL FREE ENERGY PREDICTED BY IDOCK:   -7.65 KCAL/MOL
REMARK 923 INTER-LIGAND FREE ENERGY PREDICTED BY IDOCK:   -6.77 KCAL/MOL
REMARK 924 INTRA-LIGAND FREE ENERGY PREDICTED BY IDOCK:   -0.87 KCAL/MOL
REMARK 927      BINDING AFFINITY PREDICTED BY RF-SCORE:    0.00 PKD
ROOT
HETATM    1  O   UNL     1      -9.742   6.862  70.446  1.00  0.00    -0.172 OA 
HETATM    2  C   UNL     1      -9.427   7.903  69.511  1.00  0.00    -0.160 C  
HETATM    3  H   UNL     1      -9.677   7.194  71.333  1.00  0.00     0.000 HD 
ENDROOT
BRANCH   2   4
HETATM    4  C   UNL     1     -10.351   9.058  69.838  1.00  0.00    -0.219 A  
HETATM    5  C   UNL     1     -11.941  11.270  70.520  1.00  0.00    -0.371 A  
HETATM    6  C   UNL     1     -10.361  10.207  69.030  1.00  0.00    -0.230 A  
HETATM    7  O   UNL     1     -12.650  13.455  70.189  1.00  0.00    -0.209 OA 
HETATM    8  O   UNL     1     -13.433  12.364  71.923  1.00  0.00    -0.423 OA 
HETATM    9  C   UNL     1     -11.168   9.029  70.983  1.00  0.00    -0.361 A  
HETATM   10  C   UNL     1     -11.151  11.312  69.365  1.00  0.00    -0.316 A  
HETATM   11  N   UNL     1     -12.731  12.447  70.904  1.00  0.00    -0.246 N  
HETATM   12  C   UNL     1     -11.962  10.127  71.327  1.00  0.00    -0.473 A  
ENDBRANCH   2   4
BRANCH   2  13
HETATM   13  C   UNL     1      -9.533   7.361  68.059  1.00  0.00    -0.141 C  
BRANCH  13  14
HETATM   14  N   UNL     1      -9.306   5.895  68.071  1.00  0.00    -0.111 N  
HETATM   15  C   UNL     1      -9.598   3.544  67.289  1.00  0.00    -0.122 C  
HETATM   16  C   UNL     1     -10.015   5.021  67.265  1.00  0.00    -0.186 C  
HETATM   17  H   UNL     1      -8.598   5.515  68.700  1.00  0.00     0.000 HD 
HETATM   18  O   UNL     1     -10.926   5.414  66.534  1.00  0.00    -0.239 OA 
HETATM   19 CL   UNL     1      -8.766   3.119  68.800  1.00  0.00    -0.127 Cl 
HETATM   20 CL   UNL     1      -8.562   3.212  65.889  1.00  0.00    -0.113 Cl 
ENDBRANCH  13  14
BRANCH  13  21
HETATM   21  C   UNL     1      -8.536   8.089  67.131  1.00  0.00    -0.124 C  
BRANCH  21  22
HETATM   22  O   UNL     1      -8.926   8.019  65.745  1.00  0.00    -0.165 OA 
BRANCH  22  23
HETATM   23  C   UNL     1      -8.654   9.125  65.005  1.00  0.00    -0.180 C  
HETATM   24  O   UNL     1      -7.626   9.311  64.367  1.00  0.00    -0.108 OA 
BRANCH  23  25
HETATM   25  C   UNL     1      -9.797  10.104  65.053  1.00  0.00    -0.392 C  
BRANCH  25  26
HETATM   26  C   UNL     1     -10.021  10.770  63.709  1.00  0.00    -0.411 C  
HETATM   27  C   UNL     1     -11.004  11.912  63.778  1.00  0.00    -0.425 C  
HETATM   28  O   UNL     1     -10.585  12.959  64.516  1.00  0.00    -0.337 OA 
HETATM   29  O   UNL     1     -12.075  11.905  63.191  1.00  0.00    -0.411 OA 
ENDBRANCH  25  26
ENDBRANCH  23  25
ENDBRANCH  22  23
ENDBRANCH  21  22
ENDBRANCH  13  21
ENDBRANCH   2  13
TORSDOF 8
ENDMDL
MODEL      251
REMARK 921   NORMALIZED FREE ENERGY PREDICTED BY IDOCK:   -4.17 KCAL/MOL
REMARK 922        TOTAL FREE ENERGY PREDICTED BY IDOCK:   -7.59 KCAL/MOL
REMARK 923 INTER-LIGAND FREE ENERGY PREDICTED BY IDOCK:   -5.85 KCAL/MOL
REMARK 924 INTRA-LIGAND FREE ENERGY PREDICTED BY IDOCK:   -1.74 KCAL/MOL
REMARK 927      BINDING AFFINITY PREDICTED BY RF-SCORE:    0.00 PKD
ROOT
HETATM    1  O   UNL     1      -7.143   8.799  72.796  1.00  0.00    -0.319 OA 
HETATM    2  C   UNL     1      -7.623   8.563  71.465  1.00  0.00    -0.108 C  
HETATM    3  H   UNL     1      -7.442   9.647  73.101  1.00  0.00     0.000 HD 
ENDROOT
BRANCH   2   4
HETATM    4  C   UNL     1      -9.127   8.734  71.523  1.00  0.00    -0.322 A  
HETATM    5  C   UNL     1     -11.892   9.195  71.701  1.00  0.00    -0.372 A  
HETATM    6  C   UNL     1      -9.792   9.482  70.536  1.00  0.00    -0.331 A  
HETATM    7  O   UNL     1     -13.847  10.200  70.956  1.00  0.00    -0.069 OA 
HETATM    8  O   UNL     1     -13.936   8.986  72.781  1.00  0.00    -0.450 OA 
HETATM    9  C   UNL     1      -9.876   8.205  72.589  1.00  0.00    -0.364 A  
HETATM   10  C   UNL     1     -11.168   9.714  70.620  1.00  0.00    -0.385 A  
HETATM   11  N   UNL     1     -13.327   9.481  71.821  1.00  0.00    -0.399 N  
HETATM   12  C   UNL     1     -11.252   8.429  72.682  1.00  0.00    -0.339 A  
ENDBRANCH   2   4
BRANCH   2  13
HETATM   13  C   UNL     1      -7.133   7.176  70.966  1.00  0.00    -0.069 C  
BRANCH  13  14
HETATM   14  N   UNL     1      -8.253   6.482  70.285  1.00  0.00    -0.124 N  
HETATM   15  C   UNL     1      -9.297   4.802  68.764  1.00  0.00    -0.134 C  
HETATM   16  C   UNL     1      -8.055   5.528  69.301  1.00  0.00    -0.095 C  
HETATM   17  H   UNL     1      -9.209   6.717  70.552  1.00  0.00     0.000 HD 
HETATM   18  O   UNL     1      -6.927   5.250  68.890  1.00  0.00    -0.053 OA 
HETATM   19 CL   UNL     1     -10.774   5.760  68.999  1.00  0.00    -0.358 Cl 
HETATM   20 CL   UNL     1      -9.438   3.227  69.566  1.00  0.00    -0.232 Cl 
ENDBRANCH  13  14
BRANCH  13  21
HETATM   21  C   UNL     1      -6.568   6.342  72.137  1.00  0.00    -0.063 C  
BRANCH  21  22
HETATM   22  O   UNL     1      -7.580   6.001  73.104  1.00  0.00    -0.097 OA 
BRANCH  22  23
HETATM   23  C   UNL     1      -7.944   4.691  73.133  1.00  0.00    -0.100 C  
HETATM   24  O   UNL     1      -7.643   3.859  72.286  1.00  0.00    -0.066 OA 
BRANCH  23  25
HETATM   25  C   UNL     1      -8.760   4.382  74.359  1.00  0.00    -0.098 C  
BRANCH  25  26
HETATM   26  C   UNL     1     -10.095   5.101  74.338  1.00  0.00    -0.270 C  
HETATM   27  C   UNL     1     -11.054   4.527  73.325  1.00  0.00    -0.304 C  
HETATM   28  O   UNL     1     -11.447   3.264  73.588  1.00  0.00    -0.200 OA 
HETATM   29  O   UNL     1     -11.466   5.160  72.366  1.00  0.00    -0.134 OA 
ENDBRANCH  25  26
ENDBRANCH  23  25
ENDBRANCH  22  23
ENDBRANCH  21  22
ENDBRANCH  13  21
ENDBRANCH   2  13
TORSDOF 8
ENDMDL
MODEL      252
REMARK 921   NORMALIZED FREE ENERGY PREDICTED BY IDOCK:   -4.15 KCAL/MOL
REMARK 922        TOTAL FREE ENERGY PREDICTED BY IDOCK:   -7.56 KCAL/MOL
REMARK 923 INTER-LIGAND FREE ENERGY PREDICTED BY IDOCK:   -6.36 KCAL/MOL
REMARK 924 INTRA-LIGAND FREE ENERGY PREDICTED BY IDOCK:   -1.19 KCAL/MOL
REMARK 927      BINDING AFFINITY PREDICTED BY RF-SCORE:    0.00 PKD
ROOT
HETATM    1  O   UNL     1     -11.241   9.522  68.233  1.00  0.00    -0.502 OA 
HETATM    2  C   UNL     1     -10.449  10.648  68.636  1.00  0.00    -0.191 C  
HETATM    3  H   UNL     1     -12.145   9.788  68.120  1.00  0.00     0.000 HD 
ENDROOT
BRANCH   2   4
HETATM    4  C   UNL     1     -10.679  11.721  67.594  1.00  0.00    -0.254 A  
HETATM    5  C   UNL     1     -11.197  13.793  65.769  1.00  0.00    -0.297 A  
HETATM    6  C   UNL     1      -9.883  12.879  67.581  1.00  0.00    -0.211 A  
HETATM    7  O   UNL     1     -10.804  15.921  64.931  1.00  0.00    -0.474 OA 
HETATM    8  O   UNL     1     -12.433  14.746  64.051  1.00  0.00    -0.803 OA 
HETATM    9  C   UNL     1     -11.727  11.612  66.662  1.00  0.00    -0.066 A  
HETATM   10  C   UNL     1     -10.136  13.914  66.676  1.00  0.00    -0.273 A  
HETATM   11  N   UNL     1     -11.499  14.899  64.852  1.00  0.00    -0.395 N  
HETATM   12  C   UNL     1     -11.988  12.639  65.750  1.00  0.00    -0.503 A  
ENDBRANCH   2   4
BRANCH   2  13
HETATM   13  C   UNL     1      -8.969  10.212  68.823  1.00  0.00    -0.147 C  
BRANCH  13  14
HETATM   14  N   UNL     1      -8.531   9.456  67.625  1.00  0.00    -0.119 N  
HETATM   15  C   UNL     1      -7.028   8.899  65.712  1.00  0.00    -0.080 C  
HETATM   16  C   UNL     1      -7.446   9.837  66.854  1.00  0.00    -0.091 C  
HETATM   17  H   UNL     1      -9.050   8.619  67.358  1.00  0.00     0.000 HD 
HETATM   18  O   UNL     1      -6.821  10.872  67.089  1.00  0.00    -0.082 OA 
HETATM   19 CL   UNL     1      -8.377   7.876  65.173  1.00  0.00    -0.145 Cl 
HETATM   20 CL   UNL     1      -5.664   7.903  66.252  1.00  0.00    -0.036 Cl 
ENDBRANCH  13  14
BRANCH  13  21
HETATM   21  C   UNL     1      -8.802   9.385  70.117  1.00  0.00    -0.223 C  
BRANCH  21  22
HETATM   22  O   UNL     1      -9.901   8.478  70.332  1.00  0.00    -0.174 OA 
BRANCH  22  23
HETATM   23  C   UNL     1     -10.362   8.410  71.609  1.00  0.00    -0.243 C  
HETATM   24  O   UNL     1     -11.350   8.996  72.033  1.00  0.00    -0.364 OA 
BRANCH  23  25
HETATM   25  C   UNL     1      -9.505   7.498  72.446  1.00  0.00    -0.202 C  
BRANCH  25  26
HETATM   26  C   UNL     1      -9.220   6.190  71.737  1.00  0.00    -0.149 C  
HETATM   27  C   UNL     1      -8.821   5.085  72.683  1.00  0.00    -0.122 C  
HETATM   28  O   UNL     1      -9.796   4.707  73.535  1.00  0.00    -0.136 OA 
HETATM   29  O   UNL     1      -7.722   4.554  72.662  1.00  0.00    -0.083 OA 
ENDBRANCH  25  26
ENDBRANCH  23  25
ENDBRANCH  22  23
ENDBRANCH  21  22
ENDBRANCH  13  21
ENDBRANCH   2  13
TORSDOF 8
ENDMDL
MODEL      253
REMARK 921   NORMALIZED FREE ENERGY PREDICTED BY IDOCK:   -4.11 KCAL/MOL
REMARK 922        TOTAL FREE ENERGY PREDICTED BY IDOCK:   -7.50 KCAL/MOL
REMARK 923 INTER-LIGAND FREE ENERGY PREDICTED BY IDOCK:   -7.48 KCAL/MOL
REMARK 924 INTRA-LIGAND FREE ENERGY PREDICTED BY IDOCK:   -0.02 KCAL/MOL
REMARK 927      BINDING AFFINITY PREDICTED BY RF-SCORE:    0.00 PKD
ROOT
HETATM    1  O   UNL     1      -8.320  11.476  69.288  1.00  0.00    -0.369 OA 
HETATM    2  C   UNL     1      -8.657  10.532  68.262  1.00  0.00    -0.127 C  
HETATM    3  H   UNL     1      -7.992  12.276  68.896  1.00  0.00     0.000 HD 
ENDROOT
BRANCH   2   4
HETATM    4  C   UNL     1      -9.625  11.242  67.338  1.00  0.00    -0.182 A  
HETATM    5  C   UNL     1     -11.535  12.453  65.673  1.00  0.00    -0.367 A  
HETATM    6  C   UNL     1     -10.482  12.237  67.839  1.00  0.00    -0.227 A  
HETATM    7  O   UNL     1     -13.339  13.874  65.331  1.00  0.00    -0.710 OA 
HETATM    8  O   UNL     1     -12.613  12.693  63.631  1.00  0.00    -0.678 OA 
HETATM    9  C   UNL     1      -9.729  10.880  65.983  1.00  0.00    -0.268 A  
HETATM   10  C   UNL     1     -11.435  12.843  67.015  1.00  0.00    -0.390 A  
HETATM   11  N   UNL     1     -12.570  13.050  64.818  1.00  0.00    -0.424 N  
HETATM   12  C   UNL     1     -10.677  11.481  65.149  1.00  0.00    -0.348 A  
ENDBRANCH   2   4
BRANCH   2  13
HETATM   13  C   UNL     1      -9.193   9.223  68.904  1.00  0.00    -0.143 C  
BRANCH  13  14
HETATM   14  N   UNL     1      -8.728   8.065  68.103  1.00  0.00    -0.126 N  
HETATM   15  C   UNL     1      -8.881   6.328  66.318  1.00  0.00    -0.147 C  
HETATM   16  C   UNL     1      -9.526   7.437  67.161  1.00  0.00    -0.149 C  
HETATM   17  H   UNL     1      -7.781   7.715  68.251  1.00  0.00     0.000 HD 
HETATM   18  O   UNL     1     -10.698   7.772  66.984  1.00  0.00    -0.347 OA 
HETATM   19 CL   UNL     1      -7.480   5.606  67.138  1.00  0.00    -0.083 Cl 
HETATM   20 CL   UNL     1      -8.409   6.997  64.745  1.00  0.00    -0.043 Cl 
ENDBRANCH  13  14
BRANCH  13  21
HETATM   21  C   UNL     1     -10.733   9.262  69.018  1.00  0.00    -0.167 C  
BRANCH  21  22
HETATM   22  O   UNL     1     -11.189   8.989  70.358  1.00  0.00    -0.254 OA 
BRANCH  22  23
HETATM   23  C   UNL     1     -10.994   7.717  70.794  1.00  0.00    -0.252 C  
HETATM   24  O   UNL     1     -11.433   6.710  70.251  1.00  0.00    -0.343 OA 
BRANCH  23  25
HETATM   25  C   UNL     1     -10.147   7.694  72.038  1.00  0.00    -0.233 C  
BRANCH  25  26
HETATM   26  C   UNL     1     -10.903   7.122  73.220  1.00  0.00    -0.378 C  
HETATM   27  C   UNL     1     -10.546   5.684  73.503  1.00  0.00    -0.269 C  
HETATM   28  O   UNL     1      -9.271   5.497  73.899  1.00  0.00    -0.126 OA 
HETATM   29  O   UNL     1     -11.349   4.769  73.412  1.00  0.00    -0.331 OA 
ENDBRANCH  25  26
ENDBRANCH  23  25
ENDBRANCH  22  23
ENDBRANCH  21  22
ENDBRANCH  13  21
ENDBRANCH   2  13
TORSDOF 8
ENDMDL
MODEL      254
REMARK 921   NORMALIZED FREE ENERGY PREDICTED BY IDOCK:   -4.11 KCAL/MOL
REMARK 922        TOTAL FREE ENERGY PREDICTED BY IDOCK:   -7.49 KCAL/MOL
REMARK 923 INTER-LIGAND FREE ENERGY PREDICTED BY IDOCK:   -6.71 KCAL/MOL
REMARK 924 INTRA-LIGAND FREE ENERGY PREDICTED BY IDOCK:   -0.79 KCAL/MOL
REMARK 927      BINDING AFFINITY PREDICTED BY RF-SCORE:    0.00 PKD
ROOT
HETATM    1  O   UNL     1      -7.865  11.031  68.159  1.00  0.00    -0.106 OA 
HETATM    2  C   UNL     1      -8.139  10.283  66.966  1.00  0.00    -0.121 C  
HETATM    3  H   UNL     1      -7.674  11.934  67.938  1.00  0.00     0.000 HD 
ENDROOT
BRANCH   2   4
HETATM    4  C   UNL     1      -9.250  11.022  66.251  1.00  0.00    -0.200 A  
HETATM    5  C   UNL     1     -11.201  12.453  64.823  1.00  0.00    -0.310 A  
HETATM    6  C   UNL     1      -9.832  10.478  65.093  1.00  0.00    -0.359 A  
HETATM    7  O   UNL     1     -12.611  12.718  62.999  1.00  0.00    -0.507 OA 
HETATM    8  O   UNL     1     -12.522  14.330  64.483  1.00  0.00    -0.607 OA 
HETATM    9  C   UNL     1      -9.679  12.288  66.691  1.00  0.00    -0.229 A  
HETATM   10  C   UNL     1     -10.803  11.186  64.378  1.00  0.00    -0.340 A  
HETATM   11  N   UNL     1     -12.181  13.222  64.046  1.00  0.00    -0.420 N  
HETATM   12  C   UNL     1     -10.650  13.003  65.985  1.00  0.00    -0.292 A  
ENDBRANCH   2   4
BRANCH   2  13
HETATM   13  C   UNL     1      -8.452   8.805  67.329  1.00  0.00    -0.111 C  
BRANCH  13  14
HETATM   14  N   UNL     1      -8.358   7.975  66.103  1.00  0.00    -0.118 N  
HETATM   15  C   UNL     1      -8.002   5.876  64.802  1.00  0.00    -0.126 C  
HETATM   16  C   UNL     1      -7.937   6.656  66.123  1.00  0.00    -0.110 C  
HETATM   17  H   UNL     1      -8.615   8.393  65.208  1.00  0.00     0.000 HD 
HETATM   18  O   UNL     1      -7.553   6.118  67.162  1.00  0.00    -0.090 OA 
HETATM   19 CL   UNL     1      -7.958   6.959  63.394  1.00  0.00    -0.104 Cl 
HETATM   20 CL   UNL     1      -9.474   4.887  64.785  1.00  0.00    -0.034 Cl 
ENDBRANCH  13  14
BRANCH  13  21
HETATM   21  C   UNL     1      -9.841   8.690  67.996  1.00  0.00    -0.169 C  
BRANCH  21  22
HETATM   22  O   UNL     1      -9.756   8.670  69.435  1.00  0.00    -0.171 OA 
BRANCH  22  23
HETATM   23  C   UNL     1     -10.546   7.753  70.054  1.00  0.00    -0.238 C  
HETATM   24  O   UNL     1     -11.093   6.807  69.502  1.00  0.00    -0.268 OA 
BRANCH  23  25
HETATM   25  C   UNL     1     -10.655   8.040  71.528  1.00  0.00    -0.273 C  
BRANCH  25  26
HETATM   26  C   UNL     1     -11.259   9.405  71.790  1.00  0.00    -0.359 C  
HETATM   27  C   UNL     1     -12.703   9.499  71.363  1.00  0.00    -0.358 C  
HETATM   28  O   UNL     1     -13.540   8.708  72.066  1.00  0.00    -0.365 OA 
HETATM   29  O   UNL     1     -13.089  10.247  70.479  1.00  0.00    -0.320 OA 
ENDBRANCH  25  26
ENDBRANCH  23  25
ENDBRANCH  22  23
ENDBRANCH  21  22
ENDBRANCH  13  21
ENDBRANCH   2  13
TORSDOF 8
ENDMDL
MODEL      255
REMARK 921   NORMALIZED FREE ENERGY PREDICTED BY IDOCK:   -4.10 KCAL/MOL
REMARK 922        TOTAL FREE ENERGY PREDICTED BY IDOCK:   -7.48 KCAL/MOL
REMARK 923 INTER-LIGAND FREE ENERGY PREDICTED BY IDOCK:   -6.37 KCAL/MOL
REMARK 924 INTRA-LIGAND FREE ENERGY PREDICTED BY IDOCK:   -1.11 KCAL/MOL
REMARK 927      BINDING AFFINITY PREDICTED BY RF-SCORE:    0.00 PKD
ROOT
HETATM    1  O   UNL     1     -12.367  15.613  68.665  1.00  0.00    -0.534 OA 
HETATM    2  C   UNL     1     -11.006  15.210  68.868  1.00  0.00    -0.254 C  
HETATM    3  H   UNL     1     -12.497  16.492  69.000  1.00  0.00     0.000 HD 
ENDROOT
BRANCH   2   4
HETATM    4  C   UNL     1     -10.149  16.280  68.223  1.00  0.00    -0.243 A  
HETATM    5  C   UNL     1      -8.651  18.374  67.101  1.00  0.00    -0.262 A  
HETATM    6  C   UNL     1      -9.079  16.853  68.931  1.00  0.00    -0.223 A  
HETATM    7  O   UNL     1      -7.011  20.011  67.235  1.00  0.00    -0.216 OA 
HETATM    8  O   UNL     1      -8.202  19.885  65.397  1.00  0.00    -0.246 OA 
HETATM    9  C   UNL     1     -10.441  16.762  66.934  1.00  0.00    -0.269 A  
HETATM   10  C   UNL     1      -8.330  17.896  68.378  1.00  0.00    -0.307 A  
HETATM   11  N   UNL     1      -7.901  19.504  66.538  1.00  0.00    -0.275 N  
HETATM   12  C   UNL     1      -9.698  17.802  66.370  1.00  0.00    -0.315 A  
ENDBRANCH   2   4
BRANCH   2  13
HETATM   13  C   UNL     1     -10.793  13.772  68.321  1.00  0.00    -0.250 C  
BRANCH  13  14
HETATM   14  N   UNL     1     -11.244  12.793  69.340  1.00  0.00    -0.430 N  
HETATM   15  C   UNL     1     -11.967  10.559  70.182  1.00  0.00    -0.316 C  
HETATM   16  C   UNL     1     -11.638  11.506  69.019  1.00  0.00    -0.318 C  
HETATM   17  H   UNL     1     -11.265  13.081  70.319  1.00  0.00     0.000 HD 
HETATM   18  O   UNL     1     -11.695  11.122  67.849  1.00  0.00    -0.542 OA 
HETATM   19 CL   UNL     1     -12.429  11.450  71.647  1.00  0.00    -0.299 Cl 
HETATM   20 CL   UNL     1     -10.565   9.520  70.497  1.00  0.00    -0.331 Cl 
ENDBRANCH  13  14
BRANCH  13  21
HETATM   21  C   UNL     1      -9.315  13.551  67.926  1.00  0.00    -0.215 C  
BRANCH  21  22
HETATM   22  O   UNL     1      -8.488  13.228  69.062  1.00  0.00     0.177 OA 
BRANCH  22  23
HETATM   23  C   UNL     1      -7.149  13.241  68.832  1.00  0.00    -0.079 C  
HETATM   24  O   UNL     1      -6.294  13.513  69.665  1.00  0.00    -0.118 OA 
BRANCH  23  25
HETATM   25  C   UNL     1      -6.840  12.860  67.408  1.00  0.00    -0.133 C  
BRANCH  25  26
HETATM   26  C   UNL     1      -6.290  11.451  67.313  1.00  0.00    -0.097 C  
HETATM   27  C   UNL     1      -7.249  10.411  67.834  1.00  0.00    -0.085 C  
HETATM   28  O   UNL     1      -8.383  10.293  67.113  1.00  0.00    -0.121 OA 
HETATM   29  O   UNL     1      -7.010   9.712  68.806  1.00  0.00    -0.064 OA 
ENDBRANCH  25  26
ENDBRANCH  23  25
ENDBRANCH  22  23
ENDBRANCH  21  22
ENDBRANCH  13  21
ENDBRANCH   2  13
TORSDOF 8
ENDMDL
MODEL      256
REMARK 921   NORMALIZED FREE ENERGY PREDICTED BY IDOCK:   -4.09 KCAL/MOL
REMARK 922        TOTAL FREE ENERGY PREDICTED BY IDOCK:   -7.47 KCAL/MOL
REMARK 923 INTER-LIGAND FREE ENERGY PREDICTED BY IDOCK:   -6.39 KCAL/MOL
REMARK 924 INTRA-LIGAND FREE ENERGY PREDICTED BY IDOCK:   -1.08 KCAL/MOL
REMARK 927      BINDING AFFINITY PREDICTED BY RF-SCORE:    0.00 PKD
ROOT
HETATM    1  O   UNL     1      -8.409  11.920  69.225  1.00  0.00    -0.307 OA 
HETATM    2  C   UNL     1      -9.614  11.332  68.716  1.00  0.00    -0.151 C  
HETATM    3  H   UNL     1      -8.470  12.016  70.168  1.00  0.00     0.000 HD 
ENDROOT
BRANCH   2   4
HETATM    4  C   UNL     1      -9.811  10.041  69.485  1.00  0.00    -0.249 A  
HETATM    5  C   UNL     1     -10.101   7.571  70.789  1.00  0.00    -0.192 A  
HETATM    6  C   UNL     1      -8.779   9.534  70.293  1.00  0.00    -0.270 A  
HETATM    7  O   UNL     1      -9.262   5.830  72.076  1.00  0.00    -0.147 OA 
HETATM    8  O   UNL     1     -11.300   5.647  71.285  1.00  0.00    -0.165 OA 
HETATM    9  C   UNL     1     -10.998   9.298  69.359  1.00  0.00    -0.138 A  
HETATM   10  C   UNL     1      -8.918   8.305  70.944  1.00  0.00    -0.174 A  
HETATM   11  N   UNL     1     -10.230   6.255  71.429  1.00  0.00    -0.198 N  
HETATM   12  C   UNL     1     -11.149   8.069  70.007  1.00  0.00    -0.154 A  
ENDBRANCH   2   4
BRANCH   2  13
HETATM   13  C   UNL     1      -9.515  11.175  67.174  1.00  0.00    -0.172 C  
BRANCH  13  14
HETATM   14  N   UNL     1      -8.305  10.384  66.843  1.00  0.00    -0.123 N  
HETATM   15  C   UNL     1      -7.044   8.427  65.945  1.00  0.00    -0.072 C  
HETATM   16  C   UNL     1      -8.367   9.088  66.360  1.00  0.00    -0.115 C  
HETATM   17  H   UNL     1      -7.388  10.812  66.977  1.00  0.00     0.000 HD 
HETATM   18  O   UNL     1      -9.440   8.496  66.239  1.00  0.00    -0.207 OA 
HETATM   19 CL   UNL     1      -5.652   9.162  66.769  1.00  0.00    -0.040 Cl 
HETATM   20 CL   UNL     1      -6.865   8.546  64.185  1.00  0.00    -0.074 Cl 
ENDBRANCH  13  14
BRANCH  13  21
HETATM   21  C   UNL     1      -9.503  12.558  66.485  1.00  0.00    -0.240 C  
BRANCH  21  22
HETATM   22  O   UNL     1     -10.341  12.593  65.313  1.00  0.00    -0.281 OA 
BRANCH  22  23
HETATM   23  C   UNL     1     -11.663  12.804  65.546  1.00  0.00    -0.395 C  
HETATM   24  O   UNL     1     -12.502  11.923  65.692  1.00  0.00    -0.237 OA 
BRANCH  23  25
HETATM   25  C   UNL     1     -11.973  14.275  65.618  1.00  0.00    -0.390 C  
BRANCH  25  26
HETATM   26  C   UNL     1     -11.282  15.047  64.512  1.00  0.00    -0.276 C  
HETATM   27  C   UNL     1     -10.799  16.405  64.958  1.00  0.00    -0.273 C  
HETATM   28  O   UNL     1      -9.826  16.366  65.891  1.00  0.00    -0.333 OA 
HETATM   29  O   UNL     1     -11.228  17.450  64.495  1.00  0.00    -1.018 OA 
ENDBRANCH  25  26
ENDBRANCH  23  25
ENDBRANCH  22  23
ENDBRANCH  21  22
ENDBRANCH  13  21
ENDBRANCH   2  13
TORSDOF 8
ENDMDL
MODEL      257
REMARK 921   NORMALIZED FREE ENERGY PREDICTED BY IDOCK:   -4.06 KCAL/MOL
REMARK 922        TOTAL FREE ENERGY PREDICTED BY IDOCK:   -7.43 KCAL/MOL
REMARK 923 INTER-LIGAND FREE ENERGY PREDICTED BY IDOCK:   -6.06 KCAL/MOL
REMARK 924 INTRA-LIGAND FREE ENERGY PREDICTED BY IDOCK:   -1.37 KCAL/MOL
REMARK 927      BINDING AFFINITY PREDICTED BY RF-SCORE:    0.00 PKD
ROOT
HETATM    1  O   UNL     1      -7.431   7.087  70.100  1.00  0.00    -0.082 OA 
HETATM    2  C   UNL     1      -8.065   8.311  69.703  1.00  0.00    -0.116 C  
HETATM    3  H   UNL     1      -7.470   6.995  71.044  1.00  0.00     0.000 HD 
ENDROOT
BRANCH   2   4
HETATM    4  C   UNL     1      -9.460   8.274  70.290  1.00  0.00    -0.164 A  
HETATM    5  C   UNL     1     -12.107   8.225  71.229  1.00  0.00    -0.280 A  
HETATM    6  C   UNL     1     -10.200   7.078  70.283  1.00  0.00    -0.206 A  
HETATM    7  O   UNL     1     -14.129   7.141  71.580  1.00  0.00    -0.400 OA 
HETATM    8  O   UNL     1     -13.986   9.266  72.108  1.00  0.00    -0.409 OA 
HETATM    9  C   UNL     1     -10.064   9.439  70.796  1.00  0.00    -0.366 A  
HETATM   10  C   UNL     1     -11.518   7.048  70.749  1.00  0.00    -0.360 A  
HETATM   11  N   UNL     1     -13.508   8.209  71.671  1.00  0.00    -0.341 N  
HETATM   12  C   UNL     1     -11.380   9.420  71.266  1.00  0.00    -0.436 A  
ENDBRANCH   2   4
BRANCH   2  13
HETATM   13  C   UNL     1      -8.000   8.463  68.158  1.00  0.00    -0.119 C  
BRANCH  13  14
HETATM   14  N   UNL     1      -9.107   9.341  67.710  1.00  0.00    -0.127 N  
HETATM   15  C   UNL     1     -10.147  11.215  66.431  1.00  0.00    -0.226 C  
HETATM   16  C   UNL     1      -8.902  10.462  66.924  1.00  0.00    -0.133 C  
HETATM   17  H   UNL     1     -10.060   9.110  67.992  1.00  0.00     0.000 HD 
HETATM   18  O   UNL     1      -7.769  10.828  66.606  1.00  0.00    -0.127 OA 
HETATM   19 CL   UNL     1     -11.550  10.926  67.481  1.00  0.00    -0.232 Cl 
HETATM   20 CL   UNL     1     -10.500  10.721  64.765  1.00  0.00    -0.381 Cl 
ENDBRANCH  13  14
BRANCH  13  21
HETATM   21  C   UNL     1      -8.050   7.079  67.472  1.00  0.00    -0.113 C  
BRANCH  21  22
HETATM   22  O   UNL     1      -9.033   7.025  66.419  1.00  0.00    -0.145 OA 
BRANCH  22  23
HETATM   23  C   UNL     1     -10.202   6.413  66.742  1.00  0.00    -0.195 C  
HETATM   24  O   UNL     1     -11.271   6.985  66.919  1.00  0.00    -0.302 OA 
BRANCH  23  25
HETATM   25  C   UNL     1     -10.024   4.922  66.842  1.00  0.00    -0.244 C  
BRANCH  25  26
HETATM   26  C   UNL     1     -10.204   4.245  65.498  1.00  0.00    -0.224 C  
HETATM   27  C   UNL     1      -8.900   4.024  64.774  1.00  0.00    -0.130 C  
HETATM   28  O   UNL     1      -8.066   3.159  65.387  1.00  0.00    -0.085 OA 
HETATM   29  O   UNL     1      -8.631   4.556  63.709  1.00  0.00    -0.115 OA 
ENDBRANCH  25  26
ENDBRANCH  23  25
ENDBRANCH  22  23
ENDBRANCH  21  22
ENDBRANCH  13  21
ENDBRANCH   2  13
TORSDOF 8
ENDMDL
MODEL      258
REMARK 921   NORMALIZED FREE ENERGY PREDICTED BY IDOCK:   -4.04 KCAL/MOL
REMARK 922        TOTAL FREE ENERGY PREDICTED BY IDOCK:   -7.40 KCAL/MOL
REMARK 923 INTER-LIGAND FREE ENERGY PREDICTED BY IDOCK:   -5.70 KCAL/MOL
REMARK 924 INTRA-LIGAND FREE ENERGY PREDICTED BY IDOCK:   -1.70 KCAL/MOL
REMARK 927      BINDING AFFINITY PREDICTED BY RF-SCORE:    0.00 PKD
ROOT
HETATM    1  O   UNL     1      -7.760   6.026  70.522  1.00  0.00    -0.096 OA 
HETATM    2  C   UNL     1      -8.015   7.436  70.449  1.00  0.00    -0.103 C  
HETATM    3  H   UNL     1      -8.048   5.690  71.362  1.00  0.00     0.000 HD 
ENDROOT
BRANCH   2   4
HETATM    4  C   UNL     1      -9.490   7.614  70.745  1.00  0.00    -0.162 A  
HETATM    5  C   UNL     1     -12.199   7.875  71.437  1.00  0.00    -0.313 A  
HETATM    6  C   UNL     1      -9.935   8.722  71.486  1.00  0.00    -0.370 A  
HETATM    7  O   UNL     1     -13.928   8.950  72.553  1.00  0.00    -0.462 OA 
HETATM    8  O   UNL     1     -14.390   7.107  71.457  1.00  0.00    -0.406 OA 
HETATM    9  C   UNL     1     -10.431   6.650  70.339  1.00  0.00    -0.249 A  
HETATM   10  C   UNL     1     -11.283   8.856  71.834  1.00  0.00    -0.447 A  
HETATM   11  N   UNL     1     -13.606   7.985  71.845  1.00  0.00    -0.333 N  
HETATM   12  C   UNL     1     -11.780   6.775  70.680  1.00  0.00    -0.440 A  
ENDBRANCH   2   4
BRANCH   2  13
HETATM   13  C   UNL     1      -7.544   7.988  69.075  1.00  0.00    -0.098 C  
BRANCH  13  14
HETATM   14  N   UNL     1      -8.567   8.924  68.551  1.00  0.00    -0.133 N  
HETATM   15  C   UNL     1      -9.486  11.145  67.883  1.00  0.00    -0.175 C  
HETATM   16  C   UNL     1      -8.403  10.298  68.566  1.00  0.00    -0.116 C  
HETATM   17  H   UNL     1      -9.429   8.539  68.163  1.00  0.00     0.000 HD 
HETATM   18  O   UNL     1      -7.413  10.823  69.079  1.00  0.00    -0.098 OA 
HETATM   19 CL   UNL     1     -11.039  10.287  67.801  1.00  0.00    -0.362 Cl 
HETATM   20 CL   UNL     1      -8.933  11.594  66.259  1.00  0.00    -0.204 Cl 
ENDBRANCH  13  14
BRANCH  13  21
HETATM   21  C   UNL     1      -7.264   6.831  68.090  1.00  0.00    -0.091 C  
BRANCH  21  22
HETATM   22  O   UNL     1      -8.468   6.143  67.698  1.00  0.00    -0.109 OA 
BRANCH  22  23
HETATM   23  C   UNL     1      -8.311   4.835  67.362  1.00  0.00    -0.105 C  
HETATM   24  O   UNL     1      -7.303   4.353  66.860  1.00  0.00    -0.077 OA 
BRANCH  23  25
HETATM   25  C   UNL     1      -9.541   4.036  67.703  1.00  0.00    -0.210 C  
BRANCH  25  26
HETATM   26  C   UNL     1      -9.193   2.767  68.455  1.00  0.00    -0.241 C  
HETATM   27  C   UNL     1      -8.785   3.026  69.884  1.00  0.00    -0.076 C  
HETATM   28  O   UNL     1      -9.769   3.524  70.659  1.00  0.00    -0.180 OA 
HETATM   29  O   UNL     1      -7.669   2.779  70.312  1.00  0.00    -0.043 OA 
ENDBRANCH  25  26
ENDBRANCH  23  25
ENDBRANCH  22  23
ENDBRANCH  21  22
ENDBRANCH  13  21
ENDBRANCH   2  13
TORSDOF 8
ENDMDL
MODEL      259
REMARK 921   NORMALIZED FREE ENERGY PREDICTED BY IDOCK:   -4.03 KCAL/MOL
REMARK 922        TOTAL FREE ENERGY PREDICTED BY IDOCK:   -7.38 KCAL/MOL
REMARK 923 INTER-LIGAND FREE ENERGY PREDICTED BY IDOCK:   -6.37 KCAL/MOL
REMARK 924 INTRA-LIGAND FREE ENERGY PREDICTED BY IDOCK:   -1.02 KCAL/MOL
REMARK 927      BINDING AFFINITY PREDICTED BY RF-SCORE:    0.00 PKD
ROOT
HETATM    1  O   UNL     1     -12.219  14.142  67.623  1.00  0.00    -0.550 OA 
HETATM    2  C   UNL     1     -11.124  14.559  68.450  1.00  0.00    -0.256 C  
HETATM    3  H   UNL     1     -12.932  14.765  67.693  1.00  0.00     0.000 HD 
ENDROOT
BRANCH   2   4
HETATM    4  C   UNL     1     -10.789  15.974  68.026  1.00  0.00    -0.335 A  
HETATM    5  C   UNL     1     -10.324  18.634  67.256  1.00  0.00    -0.400 A  
HETATM    6  C   UNL     1     -10.567  16.969  68.992  1.00  0.00    -0.314 A  
HETATM    7  O   UNL     1     -10.008  20.879  67.755  1.00  0.00    -0.271 OA 
HETATM    8  O   UNL     1     -10.109  20.291  65.644  1.00  0.00    -0.359 OA 
HETATM    9  C   UNL     1     -10.753  16.332  66.666  1.00  0.00    -0.197 A  
HETATM   10  C   UNL     1     -10.336  18.296  68.615  1.00  0.00    -0.301 A  
HETATM   11  N   UNL     1     -10.133  20.035  66.857  1.00  0.00    -0.440 N  
HETATM   12  C   UNL     1     -10.520  17.654  66.277  1.00  0.00    -0.292 A  
ENDBRANCH   2   4
BRANCH   2  13
HETATM   13  C   UNL     1      -9.957  13.539  68.337  1.00  0.00    -0.232 C  
BRANCH  13  14
HETATM   14  N   UNL     1      -8.707  14.266  68.010  1.00  0.00    -0.168 N  
HETATM   15  C   UNL     1      -6.323  14.936  68.312  1.00  0.00    -0.121 C  
HETATM   16  C   UNL     1      -7.590  14.238  68.827  1.00  0.00    -0.130 C  
HETATM   17  H   UNL     1      -8.668  14.810  67.148  1.00  0.00     0.000 HD 
HETATM   18  O   UNL     1      -7.598  13.652  69.911  1.00  0.00     0.614 OA 
HETATM   19 CL   UNL     1      -6.703  16.194  67.117  1.00  0.00    -0.232 Cl 
HETATM   20 CL   UNL     1      -5.234  13.722  67.618  1.00  0.00    -0.007 Cl 
ENDBRANCH  13  14
BRANCH  13  21
HETATM   21  C   UNL     1     -10.282  12.454  67.285  1.00  0.00    -0.215 C  
BRANCH  21  22
HETATM   22  O   UNL     1     -10.905  11.294  67.871  1.00  0.00    -0.199 OA 
BRANCH  22  23
HETATM   23  C   UNL     1     -10.275  10.778  68.959  1.00  0.00    -0.213 C  
HETATM   24  O   UNL     1      -9.082  10.511  69.021  1.00  0.00    -0.171 OA 
BRANCH  23  25
HETATM   25  C   UNL     1     -11.236  10.587  70.102  1.00  0.00    -0.389 C  
BRANCH  25  26
HETATM   26  C   UNL     1     -10.750   9.528  71.071  1.00  0.00    -0.411 C  
HETATM   27  C   UNL     1     -11.261   8.149  70.737  1.00  0.00    -0.261 C  
HETATM   28  O   UNL     1     -10.803   7.657  69.568  1.00  0.00    -0.234 OA 
HETATM   29  O   UNL     1     -12.001   7.517  71.474  1.00  0.00    -0.283 OA 
ENDBRANCH  25  26
ENDBRANCH  23  25
ENDBRANCH  22  23
ENDBRANCH  21  22
ENDBRANCH  13  21
ENDBRANCH   2  13
TORSDOF 8
ENDMDL
MODEL      260
REMARK 921   NORMALIZED FREE ENERGY PREDICTED BY IDOCK:   -4.02 KCAL/MOL
REMARK 922        TOTAL FREE ENERGY PREDICTED BY IDOCK:   -7.38 KCAL/MOL
REMARK 923 INTER-LIGAND FREE ENERGY PREDICTED BY IDOCK:   -6.47 KCAL/MOL
REMARK 924 INTRA-LIGAND FREE ENERGY PREDICTED BY IDOCK:   -0.90 KCAL/MOL
REMARK 927      BINDING AFFINITY PREDICTED BY RF-SCORE:    0.00 PKD
ROOT
HETATM    1  O   UNL     1      -9.484   8.819  65.452  1.00  0.00    -0.443 OA 
HETATM    2  C   UNL     1      -9.119   8.848  66.839  1.00  0.00    -0.133 C  
HETATM    3  H   UNL     1      -8.846   8.313  64.962  1.00  0.00     0.000 HD 
ENDROOT
BRANCH   2   4
HETATM    4  C   UNL     1      -8.972   7.403  67.268  1.00  0.00    -0.128 A  
HETATM    5  C   UNL     1      -8.827   4.745  68.162  1.00  0.00    -0.104 A  
HETATM    6  C   UNL     1      -9.763   6.404  66.674  1.00  0.00    -0.197 A  
HETATM    7  O   UNL     1      -9.557   2.541  68.145  1.00  0.00    -0.204 OA 
HETATM    8  O   UNL     1      -7.995   3.104  69.579  1.00  0.00    -0.049 OA 
HETATM    9  C   UNL     1      -8.093   7.041  68.305  1.00  0.00    -0.123 A  
HETATM   10  C   UNL     1      -9.695   5.079  67.115  1.00  0.00    -0.180 A  
HETATM   11  N   UNL     1      -8.791   3.365  68.664  1.00  0.00    -0.102 N  
HETATM   12  C   UNL     1      -8.015   5.720  68.752  1.00  0.00    -0.101 A  
ENDBRANCH   2   4
BRANCH   2  13
HETATM   13  C   UNL     1     -10.161   9.675  67.642  1.00  0.00    -0.216 C  
BRANCH  13  14
HETATM   14  N   UNL     1     -10.833   8.788  68.623  1.00  0.00    -0.435 N  
HETATM   15  C   UNL     1     -11.646   8.098  70.878  1.00  0.00    -0.267 C  
HETATM   16  C   UNL     1     -10.810   9.027  69.986  1.00  0.00    -0.231 C  
HETATM   17  H   UNL     1     -11.333   7.968  68.278  1.00  0.00     0.000 HD 
HETATM   18  O   UNL     1     -10.170   9.964  70.466  1.00  0.00    -0.278 OA 
HETATM   19 CL   UNL     1     -11.934   6.525  70.105  1.00  0.00    -0.359 Cl 
HETATM   20 CL   UNL     1     -13.182   8.895  71.266  1.00  0.00    -0.274 Cl 
ENDBRANCH  13  14
BRANCH  13  21
HETATM   21  C   UNL     1     -11.174  10.349  66.689  1.00  0.00     0.288 C  
BRANCH  21  22
HETATM   22  O   UNL     1     -11.684  11.587  67.220  1.00  0.00    -0.576 OA 
BRANCH  22  23
HETATM   23  C   UNL     1     -11.927  12.560  66.302  1.00  0.00    -0.343 C  
HETATM   24  O   UNL     1     -12.094  12.373  65.104  1.00  0.00    -0.424 OA 
BRANCH  23  25
HETATM   25  C   UNL     1     -11.982  13.917  66.953  1.00  0.00    -0.467 C  
BRANCH  25  26
HETATM   26  C   UNL     1     -11.077  13.993  68.166  1.00  0.00    -0.280 C  
HETATM   27  C   UNL     1     -10.896  15.401  68.675  1.00  0.00    -0.259 C  
HETATM   28  O   UNL     1     -12.023  15.963  69.160  1.00  0.00    -0.380 OA 
HETATM   29  O   UNL     1      -9.819  15.975  68.679  1.00  0.00    -0.206 OA 
ENDBRANCH  25  26
ENDBRANCH  23  25
ENDBRANCH  22  23
ENDBRANCH  21  22
ENDBRANCH  13  21
ENDBRANCH   2  13
TORSDOF 8
ENDMDL
MODEL      261
REMARK 921   NORMALIZED FREE ENERGY PREDICTED BY IDOCK:   -4.01 KCAL/MOL
REMARK 922        TOTAL FREE ENERGY PREDICTED BY IDOCK:   -7.35 KCAL/MOL
REMARK 923 INTER-LIGAND FREE ENERGY PREDICTED BY IDOCK:   -5.66 KCAL/MOL
REMARK 924 INTRA-LIGAND FREE ENERGY PREDICTED BY IDOCK:   -1.69 KCAL/MOL
REMARK 927      BINDING AFFINITY PREDICTED BY RF-SCORE:    0.00 PKD
ROOT
HETATM    1  O   UNL     1      -9.881  11.299  69.657  1.00  0.00    -0.362 OA 
HETATM    2  C   UNL     1      -9.596  10.662  68.404  1.00  0.00    -0.168 C  
HETATM    3  H   UNL     1     -10.617  10.871  70.077  1.00  0.00     0.000 HD 
ENDROOT
BRANCH   2   4
HETATM    4  C   UNL     1      -9.397   9.193  68.713  1.00  0.00    -0.139 A  
HETATM    5  C   UNL     1      -9.092   6.495  69.432  1.00  0.00    -0.141 A  
HETATM    6  C   UNL     1     -10.455   8.284  68.545  1.00  0.00    -0.199 A  
HETATM    7  O   UNL     1      -9.938   4.357  69.746  1.00  0.00    -0.225 OA 
HETATM    8  O   UNL     1      -7.851   4.737  70.303  1.00  0.00    -0.057 OA 
HETATM    9  C   UNL     1      -8.176   8.721  69.229  1.00  0.00    -0.108 A  
HETATM   10  C   UNL     1     -10.309   6.940  68.902  1.00  0.00    -0.198 A  
HETATM   11  N   UNL     1      -8.951   5.096  69.857  1.00  0.00    -0.106 N  
HETATM   12  C   UNL     1      -8.018   7.380  69.587  1.00  0.00    -0.126 A  
ENDBRANCH   2   4
BRANCH   2  13
HETATM   13  C   UNL     1      -8.392  11.364  67.716  1.00  0.00    -0.127 C  
BRANCH  13  14
HETATM   14  N   UNL     1      -8.435  12.813  68.024  1.00  0.00    -0.168 N  
HETATM   15  C   UNL     1      -7.479  15.038  68.627  1.00  0.00    -0.122 C  
HETATM   16  C   UNL     1      -7.327  13.519  68.460  1.00  0.00    -0.114 C  
HETATM   17  H   UNL     1      -9.318  13.312  67.910  1.00  0.00     0.000 HD 
HETATM   18  O   UNL     1      -6.251  12.959  68.678  1.00  0.00    -0.064 OA 
HETATM   19 CL   UNL     1      -9.174  15.506  68.883  1.00  0.00    -0.202 Cl 
HETATM   20 CL   UNL     1      -6.815  15.848  67.196  1.00  0.00    -0.230 Cl 
ENDBRANCH  13  14
BRANCH  13  21
HETATM   21  C   UNL     1      -8.404  11.099  66.194  1.00  0.00    -0.144 C  
BRANCH  21  22
HETATM   22  O   UNL     1      -9.683  10.623  65.731  1.00  0.00    -0.198 OA 
BRANCH  22  23
HETATM   23  C   UNL     1     -10.235  11.329  64.709  1.00  0.00    -0.292 C  
HETATM   24  O   UNL     1     -10.387  10.914  63.567  1.00  0.00    -0.352 OA 
BRANCH  23  25
HETATM   25  C   UNL     1     -10.657  12.700  65.165  1.00  0.00    -0.324 C  
BRANCH  25  26
HETATM   26  C   UNL     1     -11.872  12.640  66.070  1.00  0.00    -0.492 C  
HETATM   27  C   UNL     1     -11.802  13.625  67.210  1.00  0.00    -0.391 C  
HETATM   28  O   UNL     1     -11.831  14.918  66.827  1.00  0.00    -0.304 OA 
HETATM   29  O   UNL     1     -11.755  13.286  68.381  1.00  0.00    -0.313 OA 
ENDBRANCH  25  26
ENDBRANCH  23  25
ENDBRANCH  22  23
ENDBRANCH  21  22
ENDBRANCH  13  21
ENDBRANCH   2  13
TORSDOF 8
ENDMDL
MODEL      262
REMARK 921   NORMALIZED FREE ENERGY PREDICTED BY IDOCK:   -3.99 KCAL/MOL
REMARK 922        TOTAL FREE ENERGY PREDICTED BY IDOCK:   -7.32 KCAL/MOL
REMARK 923 INTER-LIGAND FREE ENERGY PREDICTED BY IDOCK:   -5.62 KCAL/MOL
REMARK 924 INTRA-LIGAND FREE ENERGY PREDICTED BY IDOCK:   -1.70 KCAL/MOL
REMARK 927      BINDING AFFINITY PREDICTED BY RF-SCORE:    0.00 PKD
ROOT
HETATM    1  O   UNL     1     -11.689   9.638  69.550  1.00  0.00    -0.450 OA 
HETATM    2  C   UNL     1     -10.453  10.365  69.508  1.00  0.00    -0.247 C  
HETATM    3  H   UNL     1     -12.416  10.227  69.390  1.00  0.00     0.000 HD 
ENDROOT
BRANCH   2   4
HETATM    4  C   UNL     1     -10.426  11.076  68.171  1.00  0.00    -0.216 A  
HETATM    5  C   UNL     1     -10.538  12.388  65.691  1.00  0.00    -0.265 A  
HETATM    6  C   UNL     1     -10.600  12.469  68.106  1.00  0.00    -0.239 A  
HETATM    7  O   UNL     1     -10.868  14.288  64.398  1.00  0.00    -0.329 OA 
HETATM    8  O   UNL     1     -10.519  12.382  63.369  1.00  0.00    -0.426 OA 
HETATM    9  C   UNL     1     -10.289  10.356  66.971  1.00  0.00    -0.295 A  
HETATM   10  C   UNL     1     -10.657  13.128  66.874  1.00  0.00    -0.265 A  
HETATM   11  N   UNL     1     -10.650  13.069  64.394  1.00  0.00    -0.390 N  
HETATM   12  C   UNL     1     -10.342  11.004  65.734  1.00  0.00    -0.316 A  
ENDBRANCH   2   4
BRANCH   2  13
HETATM   13  C   UNL     1      -9.263   9.401  69.770  1.00  0.00    -0.196 C  
BRANCH  13  14
HETATM   14  N   UNL     1      -9.542   8.607  70.991  1.00  0.00    -0.191 N  
HETATM   15  C   UNL     1      -9.451   6.595  72.464  1.00  0.00    -0.147 C  
HETATM   16  C   UNL     1      -9.217   7.266  71.103  1.00  0.00    -0.156 C  
HETATM   17  H   UNL     1      -9.991   9.069  71.783  1.00  0.00     0.000 HD 
HETATM   18  O   UNL     1      -8.733   6.640  70.159  1.00  0.00    -0.138 OA 
HETATM   19 CL   UNL     1     -10.686   7.447  73.415  1.00  0.00    -0.435 Cl 
HETATM   20 CL   UNL     1      -7.915   6.530  73.349  1.00  0.00    -0.098 Cl 
ENDBRANCH  13  14
BRANCH  13  21
HETATM   21  C   UNL     1      -7.939  10.188  69.885  1.00  0.00    -0.135 C  
BRANCH  21  22
HETATM   22  O   UNL     1      -6.821   9.460  69.341  1.00  0.00    -0.047 OA 
BRANCH  22  23
HETATM   23  C   UNL     1      -6.775   9.386  67.985  1.00  0.00    -0.063 C  
HETATM   24  O   UNL     1      -6.757  10.348  67.227  1.00  0.00    -0.074 OA 
BRANCH  23  25
HETATM   25  C   UNL     1      -6.733   7.955  67.521  1.00  0.00    -0.069 C  
BRANCH  25  26
HETATM   26  C   UNL     1      -7.983   7.580  66.749  1.00  0.00    -0.115 C  
HETATM   27  C   UNL     1      -7.778   7.605  65.254  1.00  0.00    -0.110 C  
HETATM   28  O   UNL     1      -6.908   6.680  64.800  1.00  0.00    -0.047 OA 
HETATM   29  O   UNL     1      -8.369   8.374  64.514  1.00  0.00    -0.166 OA 
ENDBRANCH  25  26
ENDBRANCH  23  25
ENDBRANCH  22  23
ENDBRANCH  21  22
ENDBRANCH  13  21
ENDBRANCH   2  13
TORSDOF 8
ENDMDL
MODEL      263
REMARK 921   NORMALIZED FREE ENERGY PREDICTED BY IDOCK:   -3.96 KCAL/MOL
REMARK 922        TOTAL FREE ENERGY PREDICTED BY IDOCK:   -7.28 KCAL/MOL
REMARK 923 INTER-LIGAND FREE ENERGY PREDICTED BY IDOCK:   -5.75 KCAL/MOL
REMARK 924 INTRA-LIGAND FREE ENERGY PREDICTED BY IDOCK:   -1.53 KCAL/MOL
REMARK 927      BINDING AFFINITY PREDICTED BY RF-SCORE:    0.00 PKD
ROOT
HETATM    1  O   UNL     1      -6.638   9.802  66.941  1.00  0.00    -0.066 OA 
HETATM    2  C   UNL     1      -6.962   9.093  68.145  1.00  0.00    -0.076 C  
HETATM    3  H   UNL     1      -6.121   9.247  66.370  1.00  0.00     0.000 HD 
ENDROOT
BRANCH   2   4
HETATM    4  C   UNL     1      -7.635   7.808  67.710  1.00  0.00    -0.113 A  
HETATM    5  C   UNL     1      -8.762   5.402  66.798  1.00  0.00    -0.113 A  
HETATM    6  C   UNL     1      -7.228   6.576  68.252  1.00  0.00    -0.085 A  
HETATM    7  O   UNL     1      -8.868   3.084  66.755  1.00  0.00    -0.129 OA 
HETATM    8  O   UNL     1     -10.189   4.207  65.412  1.00  0.00    -0.218 OA 
HETATM    9  C   UNL     1      -8.632   7.813  66.718  1.00  0.00    -0.133 A  
HETATM   10  C   UNL     1      -7.785   5.376  67.801  1.00  0.00    -0.092 A  
HETATM   11  N   UNL     1      -9.312   4.141  66.285  1.00  0.00    -0.156 N  
HETATM   12  C   UNL     1      -9.198   6.619  66.261  1.00  0.00    -0.158 A  
ENDBRANCH   2   4
BRANCH   2  13
HETATM   13  C   UNL     1      -7.808  10.000  69.081  1.00  0.00    -0.112 C  
BRANCH  13  14
HETATM   14  N   UNL     1      -8.977   9.232  69.573  1.00  0.00    -0.144 N  
HETATM   15  C   UNL     1     -10.431   8.161  71.295  1.00  0.00    -0.209 C  
HETATM   16  C   UNL     1      -9.116   8.846  70.896  1.00  0.00    -0.230 C  
HETATM   17  H   UNL     1      -9.711   8.978  68.910  1.00  0.00     0.000 HD 
HETATM   18  O   UNL     1      -8.235   9.067  71.727  1.00  0.00    -0.351 OA 
HETATM   19 CL   UNL     1     -11.227   7.398  69.902  1.00  0.00    -0.205 Cl 
HETATM   20 CL   UNL     1     -11.501   9.357  72.050  1.00  0.00    -0.308 Cl 
ENDBRANCH  13  14
BRANCH  13  21
HETATM   21  C   UNL     1      -8.236  11.291  68.348  1.00  0.00    -0.149 C  
BRANCH  21  22
HETATM   22  O   UNL     1      -9.404  11.093  67.527  1.00  0.00    -0.165 OA 
BRANCH  22  23
HETATM   23  C   UNL     1      -9.302  11.542  66.248  1.00  0.00    -0.213 C  
HETATM   24  O   UNL     1      -8.734  10.953  65.337  1.00  0.00    -0.188 OA 
BRANCH  23  25
HETATM   25  C   UNL     1      -9.998  12.867  66.082  1.00  0.00    -0.274 C  
BRANCH  25  26
HETATM   26  C   UNL     1     -11.475  12.768  66.407  1.00  0.00    -0.409 C  
HETATM   27  C   UNL     1     -12.350  12.822  65.179  1.00  0.00    -0.496 C  
HETATM   28  O   UNL     1     -12.200  11.773  64.346  1.00  0.00    -0.211 OA 
HETATM   29  O   UNL     1     -13.149  13.721  64.970  1.00  0.00    -0.751 OA 
ENDBRANCH  25  26
ENDBRANCH  23  25
ENDBRANCH  22  23
ENDBRANCH  21  22
ENDBRANCH  13  21
ENDBRANCH   2  13
TORSDOF 8
ENDMDL
MODEL      264
REMARK 921   NORMALIZED FREE ENERGY PREDICTED BY IDOCK:   -3.95 KCAL/MOL
REMARK 922        TOTAL FREE ENERGY PREDICTED BY IDOCK:   -7.27 KCAL/MOL
REMARK 923 INTER-LIGAND FREE ENERGY PREDICTED BY IDOCK:   -6.13 KCAL/MOL
REMARK 924 INTRA-LIGAND FREE ENERGY PREDICTED BY IDOCK:   -1.15 KCAL/MOL
REMARK 927      BINDING AFFINITY PREDICTED BY RF-SCORE:    0.00 PKD
ROOT
HETATM    1  O   UNL     1     -11.336  13.847  69.174  1.00  0.00    -0.259 OA 
HETATM    2  C   UNL     1     -10.018  14.065  68.653  1.00  0.00    -0.203 C  
HETATM    3  H   UNL     1     -11.478  14.399  69.933  1.00  0.00     0.000 HD 
ENDROOT
BRANCH   2   4
HETATM    4  C   UNL     1      -9.906  15.553  68.397  1.00  0.00    -0.210 A  
HETATM    5  C   UNL     1      -9.574  18.318  68.029  1.00  0.00    -0.304 A  
HETATM    6  C   UNL     1      -8.973  16.044  67.468  1.00  0.00    -0.201 A  
HETATM    7  O   UNL     1      -8.480  20.135  67.087  1.00  0.00    -0.320 OA 
HETATM    8  O   UNL     1     -10.077  20.525  68.539  1.00  0.00    -0.161 OA 
HETATM    9  C   UNL     1     -10.683  16.473  69.124  1.00  0.00    -0.335 A  
HETATM   10  C   UNL     1      -8.803  17.419  67.280  1.00  0.00    -0.238 A  
HETATM   11  N   UNL     1      -9.362  19.763  67.873  1.00  0.00    -0.336 N  
HETATM   12  C   UNL     1     -10.523  17.850  68.943  1.00  0.00    -0.162 A  
ENDBRANCH   2   4
BRANCH   2  13
HETATM   13  C   UNL     1      -9.785  13.160  67.411  1.00  0.00    -0.220 C  
BRANCH  13  14
HETATM   14  N   UNL     1     -10.930  13.309  66.480  1.00  0.00    -0.284 N  
HETATM   15  C   UNL     1     -12.031  13.667  64.270  1.00  0.00    -0.445 C  
HETATM   16  C   UNL     1     -10.774  13.666  65.152  1.00  0.00    -0.353 C  
HETATM   17  H   UNL     1     -11.873  13.141  66.834  1.00  0.00     0.000 HD 
HETATM   18  O   UNL     1      -9.668  13.945  64.685  1.00  0.00    -0.012 OA 
HETATM   19 CL   UNL     1     -13.511  13.869  65.232  1.00  0.00     0.204 Cl 
HETATM   20 CL   UNL     1     -12.088  12.158  63.342  1.00  0.00    -0.609 Cl 
ENDBRANCH  13  14
BRANCH  13  21
HETATM   21  C   UNL     1      -9.579  11.690  67.838  1.00  0.00    -0.180 C  
BRANCH  21  22
HETATM   22  O   UNL     1      -9.108  10.865  66.754  1.00  0.00    -0.149 OA 
BRANCH  22  23
HETATM   23  C   UNL     1      -9.514   9.569  66.787  1.00  0.00    -0.167 C  
HETATM   24  O   UNL     1      -9.841   8.958  67.796  1.00  0.00    -0.152 OA 
BRANCH  23  25
HETATM   25  C   UNL     1      -9.527   8.970  65.405  1.00  0.00    -0.163 C  
BRANCH  25  26
HETATM   26  C   UNL     1      -9.437  10.036  64.332  1.00  0.00    -0.349 C  
HETATM   27  C   UNL     1      -8.418   9.712  63.268  1.00  0.00    -0.190 C  
HETATM   28  O   UNL     1      -8.718   8.627  62.527  1.00  0.00    -0.182 OA 
HETATM   29  O   UNL     1      -7.422  10.390  63.072  1.00  0.00    -0.145 OA 
ENDBRANCH  25  26
ENDBRANCH  23  25
ENDBRANCH  22  23
ENDBRANCH  21  22
ENDBRANCH  13  21
ENDBRANCH   2  13
TORSDOF 8
ENDMDL
MODEL      265
REMARK 921   NORMALIZED FREE ENERGY PREDICTED BY IDOCK:   -3.95 KCAL/MOL
REMARK 922        TOTAL FREE ENERGY PREDICTED BY IDOCK:   -7.27 KCAL/MOL
REMARK 923 INTER-LIGAND FREE ENERGY PREDICTED BY IDOCK:   -6.06 KCAL/MOL
REMARK 924 INTRA-LIGAND FREE ENERGY PREDICTED BY IDOCK:   -1.22 KCAL/MOL
REMARK 927      BINDING AFFINITY PREDICTED BY RF-SCORE:    0.00 PKD
ROOT
HETATM    1  O   UNL     1      -8.415   9.538  67.735  1.00  0.00    -0.118 OA 
HETATM    2  C   UNL     1      -9.504   9.630  66.807  1.00  0.00    -0.161 C  
HETATM    3  H   UNL     1      -7.652   9.980  67.382  1.00  0.00     0.000 HD 
ENDROOT
BRANCH   2   4
HETATM    4  C   UNL     1      -9.689  11.106  66.519  1.00  0.00    -0.228 A  
HETATM    5  C   UNL     1     -10.128  13.850  66.116  1.00  0.00    -0.308 A  
HETATM    6  C   UNL     1      -8.903  12.061  67.185  1.00  0.00    -0.188 A  
HETATM    7  O   UNL     1      -9.710  16.079  66.609  1.00  0.00    -0.225 OA 
HETATM    8  O   UNL     1     -11.282  15.618  65.150  1.00  0.00    -0.340 OA 
HETATM    9  C   UNL     1     -10.686  11.551  65.632  1.00  0.00    -0.323 A  
HETATM   10  C   UNL     1      -9.117  13.429  66.988  1.00  0.00    -0.245 A  
HETATM   11  N   UNL     1     -10.392  15.285  65.946  1.00  0.00    -0.306 N  
HETATM   12  C   UNL     1     -10.908  12.915  65.426  1.00  0.00    -0.307 A  
ENDBRANCH   2   4
BRANCH   2  13
HETATM   13  C   UNL     1     -10.752   8.906  67.383  1.00  0.00    -0.155 C  
BRANCH  13  14
HETATM   14  N   UNL     1     -10.831   9.162  68.842  1.00  0.00    -0.408 N  
HETATM   15  C   UNL     1     -11.632  10.308  70.908  1.00  0.00    -0.365 C  
HETATM   16  C   UNL     1     -11.532  10.229  69.378  1.00  0.00    -0.186 C  
HETATM   17  H   UNL     1     -10.349   8.525  69.477  1.00  0.00     0.000 HD 
HETATM   18  O   UNL     1     -12.079  11.067  68.659  1.00  0.00    -0.551 OA 
HETATM   19 CL   UNL     1     -10.305   9.434  71.702  1.00  0.00    -0.300 Cl 
HETATM   20 CL   UNL     1     -13.202   9.661  71.420  1.00  0.00    -0.453 Cl 
ENDBRANCH  13  14
BRANCH  13  21
HETATM   21  C   UNL     1     -10.700   7.395  67.066  1.00  0.00    -0.319 C  
BRANCH  21  22
HETATM   22  O   UNL     1     -10.574   6.590  68.255  1.00  0.00    -0.198 OA 
BRANCH  22  23
HETATM   23  C   UNL     1      -9.352   6.030  68.455  1.00  0.00    -0.119 C  
HETATM   24  O   UNL     1      -8.288   6.511  68.086  1.00  0.00    -0.116 OA 
BRANCH  23  25
HETATM   25  C   UNL     1      -9.467   4.732  69.209  1.00  0.00    -0.221 C  
BRANCH  25  26
HETATM   26  C   UNL     1     -10.143   3.660  68.378  1.00  0.00     0.484 C  
HETATM   27  C   UNL     1      -9.168   2.851  67.560  1.00  0.00    -0.193 C  
HETATM   28  O   UNL     1      -8.314   2.107  68.293  1.00  0.00    -0.057 OA 
HETATM   29  O   UNL     1      -9.169   2.842  66.340  1.00  0.00    -0.151 OA 
ENDBRANCH  25  26
ENDBRANCH  23  25
ENDBRANCH  22  23
ENDBRANCH  21  22
ENDBRANCH  13  21
ENDBRANCH   2  13
TORSDOF 8
ENDMDL
MODEL      266
REMARK 921   NORMALIZED FREE ENERGY PREDICTED BY IDOCK:   -3.95 KCAL/MOL
REMARK 922        TOTAL FREE ENERGY PREDICTED BY IDOCK:   -7.27 KCAL/MOL
REMARK 923 INTER-LIGAND FREE ENERGY PREDICTED BY IDOCK:   -6.04 KCAL/MOL
REMARK 924 INTRA-LIGAND FREE ENERGY PREDICTED BY IDOCK:   -1.23 KCAL/MOL
REMARK 927      BINDING AFFINITY PREDICTED BY RF-SCORE:    0.00 PKD
ROOT
HETATM    1  O   UNL     1      -8.683   9.270  70.501  1.00  0.00    -0.201 OA 
HETATM    2  C   UNL     1      -9.964   8.664  70.280  1.00  0.00    -0.186 C  
HETATM    3  H   UNL     1      -8.567   9.450  71.426  1.00  0.00     0.000 HD 
ENDROOT
BRANCH   2   4
HETATM    4  C   UNL     1     -10.019   7.451  71.185  1.00  0.00    -0.188 A  
HETATM    5  C   UNL     1     -10.110   5.108  72.731  1.00  0.00    -0.170 A  
HETATM    6  C   UNL     1      -8.833   6.810  71.583  1.00  0.00    -0.129 A  
HETATM    7  O   UNL     1      -9.081   3.299  73.760  1.00  0.00    -0.089 OA 
HETATM    8  O   UNL     1     -11.270   3.423  73.827  1.00  0.00    -0.222 OA 
HETATM    9  C   UNL     1     -11.250   6.907  71.592  1.00  0.00    -0.280 A  
HETATM   10  C   UNL     1      -8.872   5.643  72.352  1.00  0.00    -0.135 A  
HETATM   11  N   UNL     1     -10.157   3.854  73.494  1.00  0.00    -0.126 N  
HETATM   12  C   UNL     1     -11.301   5.742  72.363  1.00  0.00    -0.348 A  
ENDBRANCH   2   4
BRANCH   2  13
HETATM   13  C   UNL     1     -10.155   8.370  68.766  1.00  0.00    -0.196 C  
BRANCH  13  14
HETATM   14  N   UNL     1      -9.909   6.929  68.516  1.00  0.00    -0.142 N  
HETATM   15  C   UNL     1     -10.109   4.770  67.283  1.00  0.00    -0.146 C  
HETATM   16  C   UNL     1     -10.545   6.225  67.509  1.00  0.00    -0.278 C  
HETATM   17  H   UNL     1      -9.243   6.436  69.112  1.00  0.00     0.000 HD 
HETATM   18  O   UNL     1     -11.406   6.749  66.800  1.00  0.00    -0.239 OA 
HETATM   19 CL   UNL     1      -9.383   4.065  68.743  1.00  0.00    -0.213 Cl 
HETATM   20 CL   UNL     1      -8.970   4.710  65.926  1.00  0.00    -0.123 Cl 
ENDBRANCH  13  14
BRANCH  13  21
HETATM   21  C   UNL     1      -9.228   9.267  67.915  1.00  0.00    -0.129 C  
BRANCH  21  22
HETATM   22  O   UNL     1      -9.916  10.415  67.381  1.00  0.00    -0.176 OA 
BRANCH  22  23
HETATM   23  C   UNL     1      -9.507  11.618  67.863  1.00  0.00    -0.181 C  
HETATM   24  O   UNL     1      -8.612  11.782  68.683  1.00  0.00    -0.142 OA 
BRANCH  23  25
HETATM   25  C   UNL     1     -10.291  12.745  67.243  1.00  0.00    -0.235 C  
BRANCH  25  26
HETATM   26  C   UNL     1     -11.577  12.251  66.611  1.00  0.00    -0.438 C  
HETATM   27  C   UNL     1     -11.830  12.851  65.251  1.00  0.00    -0.392 C  
HETATM   28  O   UNL     1     -10.929  12.494  64.313  1.00  0.00    -0.313 OA 
HETATM   29  O   UNL     1     -12.783  13.573  65.008  1.00  0.00    -0.621 OA 
ENDBRANCH  25  26
ENDBRANCH  23  25
ENDBRANCH  22  23
ENDBRANCH  21  22
ENDBRANCH  13  21
ENDBRANCH   2  13
TORSDOF 8
ENDMDL
MODEL      267
REMARK 921   NORMALIZED FREE ENERGY PREDICTED BY IDOCK:   -3.94 KCAL/MOL
REMARK 922        TOTAL FREE ENERGY PREDICTED BY IDOCK:   -7.24 KCAL/MOL
REMARK 923 INTER-LIGAND FREE ENERGY PREDICTED BY IDOCK:   -6.14 KCAL/MOL
REMARK 924 INTRA-LIGAND FREE ENERGY PREDICTED BY IDOCK:   -1.11 KCAL/MOL
REMARK 927      BINDING AFFINITY PREDICTED BY RF-SCORE:    0.00 PKD
ROOT
HETATM    1  O   UNL     1      -8.517  10.960  69.463  1.00  0.00    -0.380 OA 
HETATM    2  C   UNL     1      -9.526  10.673  68.486  1.00  0.00    -0.176 C  
HETATM    3  H   UNL     1      -8.596  10.359  70.194  1.00  0.00     0.000 HD 
ENDROOT
BRANCH   2   4
HETATM    4  C   UNL     1      -9.371   9.207  68.137  1.00  0.00    -0.147 A  
HETATM    5  C   UNL     1      -9.160   6.453  67.628  1.00  0.00    -0.114 A  
HETATM    6  C   UNL     1     -10.424   8.511  67.518  1.00  0.00    -0.328 A  
HETATM    7  O   UNL     1     -10.057   4.432  66.921  1.00  0.00    -0.209 OA 
HETATM    8  O   UNL     1      -8.017   4.435  67.728  1.00  0.00    -0.087 OA 
HETATM    9  C   UNL     1      -8.203   8.502  68.477  1.00  0.00    -0.123 A  
HETATM   10  C   UNL     1     -10.324   7.140  67.263  1.00  0.00    -0.342 A  
HETATM   11  N   UNL     1      -9.072   5.003  67.410  1.00  0.00    -0.113 N  
HETATM   12  C   UNL     1      -8.091   7.132  68.224  1.00  0.00    -0.124 A  
ENDBRANCH   2   4
BRANCH   2  13
HETATM   13  C   UNL     1      -9.397  11.656  67.289  1.00  0.00    -0.169 C  
BRANCH  13  14
HETATM   14  N   UNL     1      -9.151  10.881  66.049  1.00  0.00    -0.184 N  
HETATM   15  C   UNL     1      -9.527  10.212  63.675  1.00  0.00    -0.267 C  
HETATM   16  C   UNL     1      -9.964  10.978  64.932  1.00  0.00    -0.288 C  
HETATM   17  H   UNL     1      -8.350  10.250  66.017  1.00  0.00     0.000 HD 
HETATM   18  O   UNL     1     -10.981  11.672  64.934  1.00  0.00    -0.303 OA 
HETATM   19 CL   UNL     1      -8.467   8.843  64.071  1.00  0.00    -0.169 Cl 
HETATM   20 CL   UNL     1      -8.714  11.333  62.567  1.00  0.00    -0.307 Cl 
ENDBRANCH  13  14
BRANCH  13  21
HETATM   21  C   UNL     1      -8.281  12.691  67.551  1.00  0.00    -0.178 C  
BRANCH  21  22
HETATM   22  O   UNL     1      -8.767  13.857  68.244  1.00  0.00    -0.174 OA 
BRANCH  22  23
HETATM   23  C   UNL     1      -8.453  15.049  67.674  1.00  0.00    -0.160 C  
HETATM   24  O   UNL     1      -7.531  15.777  68.023  1.00  0.00    -0.119 OA 
BRANCH  23  25
HETATM   25  C   UNL     1      -9.382  15.365  66.532  1.00  0.00    -0.311 C  
BRANCH  25  26
HETATM   26  C   UNL     1     -10.821  15.472  66.995  1.00  0.00    -0.314 C  
HETATM   27  C   UNL     1     -10.997  16.431  68.145  1.00  0.00    -0.339 C  
HETATM   28  O   UNL     1     -10.729  17.717  67.840  1.00  0.00    -0.388 OA 
HETATM   29  O   UNL     1     -11.379  16.082  69.251  1.00  0.00    -0.325 OA 
ENDBRANCH  25  26
ENDBRANCH  23  25
ENDBRANCH  22  23
ENDBRANCH  21  22
ENDBRANCH  13  21
ENDBRANCH   2  13
TORSDOF 8
ENDMDL
MODEL      268
REMARK 921   NORMALIZED FREE ENERGY PREDICTED BY IDOCK:   -3.93 KCAL/MOL
REMARK 922        TOTAL FREE ENERGY PREDICTED BY IDOCK:   -7.24 KCAL/MOL
REMARK 923 INTER-LIGAND FREE ENERGY PREDICTED BY IDOCK:   -6.24 KCAL/MOL
REMARK 924 INTRA-LIGAND FREE ENERGY PREDICTED BY IDOCK:   -1.00 KCAL/MOL
REMARK 927      BINDING AFFINITY PREDICTED BY RF-SCORE:    0.00 PKD
ROOT
HETATM    1  O   UNL     1      -8.403   9.924  67.432  1.00  0.00    -0.117 OA 
HETATM    2  C   UNL     1      -9.543   9.307  66.817  1.00  0.00    -0.183 C  
HETATM    3  H   UNL     1      -7.965  10.487  66.806  1.00  0.00     0.000 HD 
ENDROOT
BRANCH   2   4
HETATM    4  C   UNL     1     -10.386  10.437  66.263  1.00  0.00    -0.270 A  
HETATM    5  C   UNL     1     -11.824  12.630  65.257  1.00  0.00    -0.408 A  
HETATM    6  C   UNL     1     -10.283  10.799  64.909  1.00  0.00    -0.388 A  
HETATM    7  O   UNL     1     -12.352  14.118  63.556  1.00  0.00    -0.738 OA 
HETATM    8  O   UNL     1     -13.272  14.424  65.523  1.00  0.00    -0.557 OA 
HETATM    9  C   UNL     1     -11.239  11.181  67.098  1.00  0.00    -0.320 A  
HETATM   10  C   UNL     1     -10.995  11.890  64.403  1.00  0.00    -0.392 A  
HETATM   11  N   UNL     1     -12.533  13.808  64.741  1.00  0.00    -0.376 N  
HETATM   12  C   UNL     1     -11.958  12.272  66.603  1.00  0.00    -0.257 A  
ENDBRANCH   2   4
BRANCH   2  13
HETATM   13  C   UNL     1     -10.261   8.385  67.842  1.00  0.00    -0.217 C  
BRANCH  13  14
HETATM   14  N   UNL     1      -9.456   8.321  69.085  1.00  0.00    -0.155 N  
HETATM   15  C   UNL     1      -8.999   8.642  71.517  1.00  0.00    -0.234 C  
HETATM   16  C   UNL     1      -9.873   8.886  70.278  1.00  0.00    -0.183 C  
HETATM   17  H   UNL     1      -8.556   7.840  69.060  1.00  0.00     0.000 HD 
HETATM   18  O   UNL     1     -10.918   9.534  70.353  1.00  0.00    -0.239 OA 
HETATM   19 CL   UNL     1      -7.318   8.272  71.075  1.00  0.00    -0.057 Cl 
HETATM   20 CL   UNL     1      -9.701   7.322  72.470  1.00  0.00    -0.178 Cl 
ENDBRANCH  13  14
BRANCH  13  21
HETATM   21  C   UNL     1     -10.501   6.983  67.239  1.00  0.00    -0.293 C  
BRANCH  21  22
HETATM   22  O   UNL     1      -9.285   6.379  66.757  1.00  0.00    -0.133 OA 
BRANCH  22  23
HETATM   23  C   UNL     1      -9.193   5.034  66.928  1.00  0.00    -0.120 C  
HETATM   24  O   UNL     1     -10.144   4.275  67.071  1.00  0.00    -0.178 OA 
BRANCH  23  25
HETATM   25  C   UNL     1      -7.758   4.581  66.904  1.00  0.00    -0.094 C  
BRANCH  25  26
HETATM   26  C   UNL     1      -6.904   5.473  66.024  1.00  0.00    -0.058 C  
HETATM   27  C   UNL     1      -6.244   6.593  66.789  1.00  0.00    -0.040 C  
HETATM   28  O   UNL     1      -5.336   6.183  67.697  1.00  0.00    -0.004 OA 
HETATM   29  O   UNL     1      -6.487   7.771  66.585  1.00  0.00    -0.048 OA 
ENDBRANCH  25  26
ENDBRANCH  23  25
ENDBRANCH  22  23
ENDBRANCH  21  22
ENDBRANCH  13  21
ENDBRANCH   2  13
TORSDOF 8
ENDMDL
MODEL      269
REMARK 921   NORMALIZED FREE ENERGY PREDICTED BY IDOCK:   -3.93 KCAL/MOL
REMARK 922        TOTAL FREE ENERGY PREDICTED BY IDOCK:   -7.24 KCAL/MOL
REMARK 923 INTER-LIGAND FREE ENERGY PREDICTED BY IDOCK:   -5.96 KCAL/MOL
REMARK 924 INTRA-LIGAND FREE ENERGY PREDICTED BY IDOCK:   -1.28 KCAL/MOL
REMARK 927      BINDING AFFINITY PREDICTED BY RF-SCORE:    0.00 PKD
ROOT
HETATM    1  O   UNL     1      -7.935   8.437  69.194  1.00  0.00    -0.106 OA 
HETATM    2  C   UNL     1      -8.966   8.542  68.202  1.00  0.00    -0.142 C  
HETATM    3  H   UNL     1      -7.254   7.849  68.890  1.00  0.00     0.000 HD 
ENDROOT
BRANCH   2   4
HETATM    4  C   UNL     1      -8.277   8.960  66.920  1.00  0.00    -0.112 A  
HETATM    5  C   UNL     1      -6.891   9.620  64.568  1.00  0.00    -0.107 A  
HETATM    6  C   UNL     1      -8.540   8.278  65.719  1.00  0.00    -0.182 A  
HETATM    7  O   UNL     1      -6.358   9.249  62.339  1.00  0.00    -0.095 OA 
HETATM    8  O   UNL     1      -5.302  10.848  63.405  1.00  0.00    -0.156 OA 
HETATM    9  C   UNL     1      -7.322   9.993  66.915  1.00  0.00    -0.092 A  
HETATM   10  C   UNL     1      -7.853   8.602  64.546  1.00  0.00    -0.132 A  
HETATM   11  N   UNL     1      -6.129   9.927  63.350  1.00  0.00    -0.112 N  
HETATM   12  C   UNL     1      -6.631  10.326  65.747  1.00  0.00    -0.119 A  
ENDBRANCH   2   4
BRANCH   2  13
HETATM   13  C   UNL     1     -10.081   9.503  68.699  1.00  0.00    -0.181 C  
BRANCH  13  14
HETATM   14  N   UNL     1     -10.975   8.770  69.628  1.00  0.00    -0.396 N  
HETATM   15  C   UNL     1     -11.885   8.103  71.854  1.00  0.00    -0.317 C  
HETATM   16  C   UNL     1     -10.819   8.809  71.004  1.00  0.00    -0.260 C  
HETATM   17  H   UNL     1     -11.736   8.214  69.238  1.00  0.00     0.000 HD 
HETATM   18  O   UNL     1      -9.881   9.411  71.529  1.00  0.00    -0.245 OA 
HETATM   19 CL   UNL     1     -12.719   6.828  70.940  1.00  0.00    -0.265 Cl 
HETATM   20 CL   UNL     1     -13.043   9.307  72.448  1.00  0.00    -0.491 Cl 
ENDBRANCH  13  14
BRANCH  13  21
HETATM   21  C   UNL     1     -10.859  10.100  67.505  1.00  0.00    -0.290 C  
BRANCH  21  22
HETATM   22  O   UNL     1     -10.749  11.535  67.442  1.00  0.00    -0.210 OA 
BRANCH  22  23
HETATM   23  C   UNL     1     -10.421  12.044  66.226  1.00  0.00    -0.238 C  
HETATM   24  O   UNL     1     -10.656  11.506  65.151  1.00  0.00    -0.276 OA 
BRANCH  23  25
HETATM   25  C   UNL     1      -9.737  13.378  66.362  1.00  0.00    -0.282 C  
BRANCH  25  26
HETATM   26  C   UNL     1     -10.729  14.523  66.316  1.00  0.00    -0.309 C  
HETATM   27  C   UNL     1     -10.819  15.274  67.621  1.00  0.00    -0.295 C  
HETATM   28  O   UNL     1      -9.689  15.926  67.964  1.00  0.00    -0.214 OA 
HETATM   29  O   UNL     1     -11.835  15.315  68.296  1.00  0.00    -0.336 OA 
ENDBRANCH  25  26
ENDBRANCH  23  25
ENDBRANCH  22  23
ENDBRANCH  21  22
ENDBRANCH  13  21
ENDBRANCH   2  13
TORSDOF 8
ENDMDL
MODEL      270
REMARK 921   NORMALIZED FREE ENERGY PREDICTED BY IDOCK:   -3.93 KCAL/MOL
REMARK 922        TOTAL FREE ENERGY PREDICTED BY IDOCK:   -7.24 KCAL/MOL
REMARK 923 INTER-LIGAND FREE ENERGY PREDICTED BY IDOCK:   -5.64 KCAL/MOL
REMARK 924 INTRA-LIGAND FREE ENERGY PREDICTED BY IDOCK:   -1.60 KCAL/MOL
REMARK 927      BINDING AFFINITY PREDICTED BY RF-SCORE:    0.00 PKD
ROOT
HETATM    1  O   UNL     1      -7.487   7.378  71.307  1.00  0.00    -0.078 OA 
HETATM    2  C   UNL     1      -8.126   8.165  70.293  1.00  0.00    -0.109 C  
HETATM    3  H   UNL     1      -7.696   7.726  72.165  1.00  0.00     0.000 HD 
ENDROOT
BRANCH   2   4
HETATM    4  C   UNL     1      -9.600   8.184  70.639  1.00  0.00    -0.179 A  
HETATM    5  C   UNL     1     -12.295   8.169  71.431  1.00  0.00    -0.298 A  
HETATM    6  C   UNL     1     -10.159   9.295  71.294  1.00  0.00    -0.361 A  
HETATM    7  O   UNL     1     -14.108   9.123  72.521  1.00  0.00    -0.472 OA 
HETATM    8  O   UNL     1     -14.365   7.137  71.626  1.00  0.00    -0.417 OA 
HETATM    9  C   UNL     1     -10.421   7.073  70.371  1.00  0.00    -0.225 A  
HETATM   10  C   UNL     1     -11.500   9.292  71.690  1.00  0.00    -0.468 A  
HETATM   11  N   UNL     1     -13.689   8.141  71.893  1.00  0.00    -0.352 N  
HETATM   12  C   UNL     1     -11.763   7.061  70.761  1.00  0.00    -0.394 A  
ENDBRANCH   2   4
BRANCH   2  13
HETATM   13  C   UNL     1      -7.783   7.595  68.888  1.00  0.00    -0.117 C  
BRANCH  13  14
HETATM   14  N   UNL     1      -7.105   6.286  69.047  1.00  0.00    -0.079 N  
HETATM   15  C   UNL     1      -6.709   3.863  68.605  1.00  0.00    -0.046 C  
HETATM   16  C   UNL     1      -7.572   5.124  68.458  1.00  0.00    -0.079 C  
HETATM   17  H   UNL     1      -6.257   6.240  69.615  1.00  0.00     0.000 HD 
HETATM   18  O   UNL     1      -8.624   5.105  67.817  1.00  0.00    -0.105 OA 
HETATM   19 CL   UNL     1      -5.649   3.951  70.028  1.00  0.00    -0.015 Cl 
HETATM   20 CL   UNL     1      -5.755   3.639  67.127  1.00  0.00    -0.022 Cl 
ENDBRANCH  13  14
BRANCH  13  21
HETATM   21  C   UNL     1      -6.919   8.597  68.090  1.00  0.00    -0.074 C  
BRANCH  21  22
HETATM   22  O   UNL     1      -7.049   9.946  68.581  1.00  0.00    -0.069 OA 
BRANCH  22  23
HETATM   23  C   UNL     1      -7.618  10.829  67.720  1.00  0.00    -0.095 C  
HETATM   24  O   UNL     1      -7.196  11.095  66.602  1.00  0.00    -0.137 OA 
BRANCH  23  25
HETATM   25  C   UNL     1      -8.860  11.441  68.313  1.00  0.00    -0.167 C  
BRANCH  25  26
HETATM   26  C   UNL     1     -10.116  10.901  67.660  1.00  0.00    -0.206 C  
HETATM   27  C   UNL     1     -10.854  11.943  66.857  1.00  0.00    -0.263 C  
HETATM   28  O   UNL     1     -10.178  12.392  65.780  1.00  0.00    -0.250 OA 
HETATM   29  O   UNL     1     -11.979  12.326  67.136  1.00  0.00    -0.564 OA 
ENDBRANCH  25  26
ENDBRANCH  23  25
ENDBRANCH  22  23
ENDBRANCH  21  22
ENDBRANCH  13  21
ENDBRANCH   2  13
TORSDOF 8
ENDMDL
MODEL      271
REMARK 921   NORMALIZED FREE ENERGY PREDICTED BY IDOCK:   -3.92 KCAL/MOL
REMARK 922        TOTAL FREE ENERGY PREDICTED BY IDOCK:   -7.22 KCAL/MOL
REMARK 923 INTER-LIGAND FREE ENERGY PREDICTED BY IDOCK:   -7.29 KCAL/MOL
REMARK 924 INTRA-LIGAND FREE ENERGY PREDICTED BY IDOCK:    0.07 KCAL/MOL
REMARK 927      BINDING AFFINITY PREDICTED BY RF-SCORE:    0.00 PKD
ROOT
HETATM    1  O   UNL     1      -9.741  14.904  69.957  1.00  0.00    -0.456 OA 
HETATM    2  C   UNL     1      -9.394  15.671  68.796  1.00  0.00    -0.213 C  
HETATM    3  H   UNL     1     -10.674  14.972  70.121  1.00  0.00     0.000 HD 
ENDROOT
BRANCH   2   4
HETATM    4  C   UNL     1     -10.283  15.169  67.677  1.00  0.00    -0.241 A  
HETATM    5  C   UNL     1     -11.815  14.134  65.563  1.00  0.00    -0.364 A  
HETATM    6  C   UNL     1     -11.067  14.016  67.859  1.00  0.00    -0.274 A  
HETATM    7  O   UNL     1     -13.195  12.509  64.645  1.00  0.00    -0.848 OA 
HETATM    8  O   UNL     1     -12.551  14.167  63.361  1.00  0.00    -0.818 OA 
HETATM    9  C   UNL     1     -10.297  15.805  66.423  1.00  0.00    -0.306 A  
HETATM   10  C   UNL     1     -11.831  13.497  66.810  1.00  0.00    -0.450 A  
HETATM   11  N   UNL     1     -12.574  13.562  64.443  1.00  0.00    -0.235 N  
HETATM   12  C   UNL     1     -11.059  15.295  65.367  1.00  0.00    -0.351 A  
ENDBRANCH   2   4
BRANCH   2  13
HETATM   13  C   UNL     1      -7.867  15.561  68.528  1.00  0.00    -0.135 C  
BRANCH  13  14
HETATM   14  N   UNL     1      -7.452  16.663  67.627  1.00  0.00    -0.145 N  
HETATM   15  C   UNL     1      -7.040  19.038  66.981  1.00  0.00    -0.204 C  
HETATM   16  C   UNL     1      -7.623  17.999  67.950  1.00  0.00    -0.231 C  
HETATM   17  H   UNL     1      -7.023  16.428  66.731  1.00  0.00     0.000 HD 
HETATM   18  O   UNL     1      -8.194  18.343  68.986  1.00  0.00    -0.214 OA 
HETATM   19 CL   UNL     1      -6.861  18.382  65.340  1.00  0.00    -0.220 Cl 
HETATM   20 CL   UNL     1      -5.479  19.600  67.605  1.00  0.00    -0.186 Cl 
ENDBRANCH  13  14
BRANCH  13  21
HETATM   21  C   UNL     1      -7.514  14.176  67.941  1.00  0.00    -0.152 C  
BRANCH  21  22
HETATM   22  O   UNL     1      -6.297  13.640  68.497  1.00  0.00    -0.079 OA 
BRANCH  22  23
HETATM   23  C   UNL     1      -5.792  14.319  69.560  1.00  0.00    -0.100 C  
HETATM   24  O   UNL     1      -5.320  15.448  69.515  1.00  0.00    -0.097 OA 
BRANCH  23  25
HETATM   25  C   UNL     1      -5.898  13.506  70.823  1.00  0.00    -0.161 C  
BRANCH  25  26
HETATM   26  C   UNL     1      -5.163  14.163  71.974  1.00  0.00    -0.203 C  
HETATM   27  C   UNL     1      -5.524  13.571  73.314  1.00  0.00     0.152 C  
HETATM   28  O   UNL     1      -5.150  12.285  73.470  1.00  0.00    -0.357 OA 
HETATM   29  O   UNL     1      -6.080  14.207  74.195  1.00  0.00    -0.406 OA 
ENDBRANCH  25  26
ENDBRANCH  23  25
ENDBRANCH  22  23
ENDBRANCH  21  22
ENDBRANCH  13  21
ENDBRANCH   2  13
TORSDOF 8
ENDMDL
MODEL      272
REMARK 921   NORMALIZED FREE ENERGY PREDICTED BY IDOCK:   -3.91 KCAL/MOL
REMARK 922        TOTAL FREE ENERGY PREDICTED BY IDOCK:   -7.21 KCAL/MOL
REMARK 923 INTER-LIGAND FREE ENERGY PREDICTED BY IDOCK:   -6.57 KCAL/MOL
REMARK 924 INTRA-LIGAND FREE ENERGY PREDICTED BY IDOCK:   -0.64 KCAL/MOL
REMARK 927      BINDING AFFINITY PREDICTED BY RF-SCORE:    0.00 PKD
ROOT
HETATM    1  O   UNL     1     -11.282   8.793  68.450  1.00  0.00    -0.375 OA 
HETATM    2  C   UNL     1     -10.362   7.947  67.746  1.00  0.00    -0.226 C  
HETATM    3  H   UNL     1     -12.069   8.306  68.663  1.00  0.00     0.000 HD 
ENDROOT
BRANCH   2   4
HETATM    4  C   UNL     1     -10.151   6.730  68.622  1.00  0.00    -0.163 A  
HETATM    5  C   UNL     1      -9.895   4.410  70.183  1.00  0.00    -0.217 A  
HETATM    6  C   UNL     1      -9.521   5.585  68.104  1.00  0.00    -0.133 A  
HETATM    7  O   UNL     1      -9.300   2.182  70.448  1.00  0.00    -0.111 OA 
HETATM    8  O   UNL     1     -10.247   3.210  72.139  1.00  0.00    -0.154 OA 
HETATM    9  C   UNL     1     -10.631   6.697  69.943  1.00  0.00    -0.268 A  
HETATM   10  C   UNL     1      -9.391   4.427  68.877  1.00  0.00    -0.216 A  
HETATM   11  N   UNL     1      -9.807   3.179  70.980  1.00  0.00    -0.110 N  
HETATM   12  C   UNL     1     -10.505   5.546  70.725  1.00  0.00    -0.330 A  
ENDBRANCH   2   4
BRANCH   2  13
HETATM   13  C   UNL     1      -9.074   8.744  67.397  1.00  0.00    -0.133 C  
BRANCH  13  14
HETATM   14  N   UNL     1      -8.172   8.748  68.574  1.00  0.00    -0.116 N  
HETATM   15  C   UNL     1      -7.413   9.421  70.854  1.00  0.00    -0.072 C  
HETATM   16  C   UNL     1      -8.346   9.604  69.648  1.00  0.00    -0.168 C  
HETATM   17  H   UNL     1      -7.391   8.091  68.594  1.00  0.00     0.000 HD 
HETATM   18  O   UNL     1      -9.230  10.461  69.652  1.00  0.00    -0.169 OA 
HETATM   19 CL   UNL     1      -5.891   8.626  70.395  1.00  0.00    -0.027 Cl 
HETATM   20 CL   UNL     1      -8.256   8.485  72.101  1.00  0.00    -0.198 Cl 
ENDBRANCH  13  14
BRANCH  13  21
HETATM   21  C   UNL     1      -9.426  10.177  66.938  1.00  0.00    -0.169 C  
BRANCH  21  22
HETATM   22  O   UNL     1     -10.395  10.187  65.872  1.00  0.00    -0.229 OA 
BRANCH  22  23
HETATM   23  C   UNL     1      -9.904  10.473  64.638  1.00  0.00    -0.340 C  
HETATM   24  O   UNL     1      -8.868  10.017  64.169  1.00  0.00    -0.183 OA 
BRANCH  23  25
HETATM   25  C   UNL     1     -10.810  11.421  63.899  1.00  0.00    -0.463 C  
BRANCH  25  26
HETATM   26  C   UNL     1     -11.544  12.348  64.848  1.00  0.00    -0.392 C  
HETATM   27  C   UNL     1     -11.804  13.710  64.254  1.00  0.00    -0.425 C  
HETATM   28  O   UNL     1     -12.646  13.701  63.201  1.00  0.00    -0.792 OA 
HETATM   29  O   UNL     1     -11.320  14.736  64.703  1.00  0.00    -0.389 OA 
ENDBRANCH  25  26
ENDBRANCH  23  25
ENDBRANCH  22  23
ENDBRANCH  21  22
ENDBRANCH  13  21
ENDBRANCH   2  13
TORSDOF 8
ENDMDL
MODEL      273
REMARK 921   NORMALIZED FREE ENERGY PREDICTED BY IDOCK:   -3.91 KCAL/MOL
REMARK 922        TOTAL FREE ENERGY PREDICTED BY IDOCK:   -7.20 KCAL/MOL
REMARK 923 INTER-LIGAND FREE ENERGY PREDICTED BY IDOCK:   -6.07 KCAL/MOL
REMARK 924 INTRA-LIGAND FREE ENERGY PREDICTED BY IDOCK:   -1.13 KCAL/MOL
REMARK 927      BINDING AFFINITY PREDICTED BY RF-SCORE:    0.00 PKD
ROOT
HETATM    1  O   UNL     1     -12.729  10.654  69.064  1.00  0.00    -0.675 OA 
HETATM    2  C   UNL     1     -11.361  10.276  68.856  1.00  0.00    -0.173 C  
HETATM    3  H   UNL     1     -13.283   9.883  69.045  1.00  0.00     0.000 HD 
ENDROOT
BRANCH   2   4
HETATM    4  C   UNL     1     -11.047   9.229  69.904  1.00  0.00    -0.200 A  
HETATM    5  C   UNL     1     -10.326   7.364  71.876  1.00  0.00    -0.192 A  
HETATM    6  C   UNL     1     -11.319   9.481  71.260  1.00  0.00    -0.446 A  
HETATM    7  O   UNL     1     -10.109   6.720  74.096  1.00  0.00    -0.317 OA 
HETATM    8  O   UNL     1      -9.361   5.362  72.545  1.00  0.00    -0.142 OA 
HETATM    9  C   UNL     1     -10.427   8.016  69.553  1.00  0.00    -0.226 A  
HETATM   10  C   UNL     1     -10.961   8.557  72.246  1.00  0.00    -0.426 A  
HETATM   11  N   UNL     1      -9.902   6.414  72.913  1.00  0.00    -0.165 N  
HETATM   12  C   UNL     1     -10.067   7.084  70.530  1.00  0.00    -0.202 A  
ENDBRANCH   2   4
BRANCH   2  13
HETATM   13  C   UNL     1     -10.454  11.537  68.887  1.00  0.00    -0.187 C  
BRANCH  13  14
HETATM   14  N   UNL     1     -10.987  12.542  67.936  1.00  0.00    -0.218 N  
HETATM   15  C   UNL     1     -11.499  14.839  67.106  1.00  0.00    -0.364 C  
HETATM   16  C   UNL     1     -11.035  13.895  68.225  1.00  0.00    -0.255 C  
HETATM   17  H   UNL     1     -11.334  12.224  67.031  1.00  0.00     0.000 HD 
HETATM   18  O   UNL     1     -10.691  14.332  69.325  1.00  0.00    -0.232 OA 
HETATM   19 CL   UNL     1     -12.508  13.998  65.910  1.00  0.00    -0.516 Cl 
HETATM   20 CL   UNL     1     -10.078  15.561  66.330  1.00  0.00    -0.283 Cl 
ENDBRANCH  13  14
BRANCH  13  21
HETATM   21  C   UNL     1      -8.989  11.164  68.566  1.00  0.00    -0.168 C  
BRANCH  21  22
HETATM   22  O   UNL     1      -8.859  10.503  67.292  1.00  0.00    -0.135 OA 
BRANCH  22  23
HETATM   23  C   UNL     1      -7.588  10.208  66.914  1.00  0.00    -0.100 C  
HETATM   24  O   UNL     1      -6.860  10.942  66.257  1.00  0.00    -0.130 OA 
BRANCH  23  25
HETATM   25  C   UNL     1      -7.171   8.854  67.422  1.00  0.00    -0.080 C  
BRANCH  25  26
HETATM   26  C   UNL     1      -7.444   7.765  66.403  1.00  0.00    -0.084 C  
HETATM   27  C   UNL     1      -6.772   6.459  66.745  1.00  0.00    -0.060 C  
HETATM   28  O   UNL     1      -7.232   5.878  67.871  1.00  0.00    -0.070 OA 
HETATM   29  O   UNL     1      -5.906   5.954  66.048  1.00  0.00    -0.025 OA 
ENDBRANCH  25  26
ENDBRANCH  23  25
ENDBRANCH  22  23
ENDBRANCH  21  22
ENDBRANCH  13  21
ENDBRANCH   2  13
TORSDOF 8
ENDMDL
MODEL      274
REMARK 921   NORMALIZED FREE ENERGY PREDICTED BY IDOCK:   -3.90 KCAL/MOL
REMARK 922        TOTAL FREE ENERGY PREDICTED BY IDOCK:   -7.19 KCAL/MOL
REMARK 923 INTER-LIGAND FREE ENERGY PREDICTED BY IDOCK:   -6.57 KCAL/MOL
REMARK 924 INTRA-LIGAND FREE ENERGY PREDICTED BY IDOCK:   -0.62 KCAL/MOL
REMARK 927      BINDING AFFINITY PREDICTED BY RF-SCORE:    0.00 PKD
ROOT
HETATM    1  O   UNL     1     -11.387   6.106  66.358  1.00  0.00    -0.715 OA 
HETATM    2  C   UNL     1     -10.189   6.576  66.991  1.00  0.00    -0.215 C  
HETATM    3  H   UNL     1     -11.502   5.180  66.533  1.00  0.00     0.000 HD 
ENDROOT
BRANCH   2   4
HETATM    4  C   UNL     1     -10.311   6.205  68.455  1.00  0.00    -0.240 A  
HETATM    5  C   UNL     1     -10.617   5.384  71.123  1.00  0.00    -0.206 A  
HETATM    6  C   UNL     1      -9.393   5.316  69.039  1.00  0.00    -0.171 A  
HETATM    7  O   UNL     1     -10.002   4.080  72.942  1.00  0.00    -0.136 OA 
HETATM    8  O   UNL     1     -11.759   5.377  73.144  1.00  0.00    -0.233 OA 
HETATM    9  C   UNL     1     -11.374   6.691  69.238  1.00  0.00    -0.301 A  
HETATM   10  C   UNL     1      -9.541   4.904  70.367  1.00  0.00    -0.259 A  
HETATM   11  N   UNL     1     -10.806   4.913  72.502  1.00  0.00    -0.198 N  
HETATM   12  C   UNL     1     -11.530   6.287  70.567  1.00  0.00    -0.407 A  
ENDBRANCH   2   4
BRANCH   2  13
HETATM   13  C   UNL     1     -10.000   8.091  66.705  1.00  0.00    -0.274 C  
BRANCH  13  14
HETATM   14  N   UNL     1      -9.297   8.256  65.410  1.00  0.00    -0.391 N  
HETATM   15  C   UNL     1      -8.295   9.532  63.514  1.00  0.00    -0.176 C  
HETATM   16  C   UNL     1      -9.148   9.485  64.790  1.00  0.00    -0.218 C  
HETATM   17  H   UNL     1      -8.905   7.430  64.957  1.00  0.00     0.000 HD 
HETATM   18  O   UNL     1      -9.655  10.507  65.256  1.00  0.00    -0.209 OA 
HETATM   19 CL   UNL     1      -8.222   7.949  62.711  1.00  0.00    -0.131 Cl 
HETATM   20 CL   UNL     1      -6.667  10.101  63.927  1.00  0.00    -0.130 Cl 
ENDBRANCH  13  14
BRANCH  13  21
HETATM   21  C   UNL     1      -9.239   8.774  67.864  1.00  0.00    -0.139 C  
BRANCH  21  22
HETATM   22  O   UNL     1      -9.953   9.909  68.394  1.00  0.00    -0.151 OA 
BRANCH  22  23
HETATM   23  C   UNL     1      -9.251  11.072  68.438  1.00  0.00    -0.175 C  
HETATM   24  O   UNL     1      -8.038  11.158  68.582  1.00  0.00    -0.137 OA 
BRANCH  23  25
HETATM   25  C   UNL     1     -10.161  12.260  68.270  1.00  0.00    -0.218 C  
BRANCH  25  26
HETATM   26  C   UNL     1     -11.612  11.891  68.506  1.00  0.00    -0.375 C  
HETATM   27  C   UNL     1     -12.181  12.520  69.754  1.00  0.00    -0.132 C  
HETATM   28  O   UNL     1     -12.261  13.865  69.708  1.00  0.00    -0.330 OA 
HETATM   29  O   UNL     1     -12.565  11.868  70.712  1.00  0.00    -0.308 OA 
ENDBRANCH  25  26
ENDBRANCH  23  25
ENDBRANCH  22  23
ENDBRANCH  21  22
ENDBRANCH  13  21
ENDBRANCH   2  13
TORSDOF 8
ENDMDL
MODEL      275
REMARK 921   NORMALIZED FREE ENERGY PREDICTED BY IDOCK:   -3.90 KCAL/MOL
REMARK 922        TOTAL FREE ENERGY PREDICTED BY IDOCK:   -7.19 KCAL/MOL
REMARK 923 INTER-LIGAND FREE ENERGY PREDICTED BY IDOCK:   -6.23 KCAL/MOL
REMARK 924 INTRA-LIGAND FREE ENERGY PREDICTED BY IDOCK:   -0.96 KCAL/MOL
REMARK 927      BINDING AFFINITY PREDICTED BY RF-SCORE:    0.00 PKD
ROOT
HETATM    1  O   UNL     1      -8.219  11.667  68.064  1.00  0.00    -0.131 OA 
HETATM    2  C   UNL     1      -9.643  11.702  67.898  1.00  0.00    -0.180 C  
HETATM    3  H   UNL     1      -7.994  11.867  68.965  1.00  0.00     0.000 HD 
ENDROOT
BRANCH   2   4
HETATM    4  C   UNL     1     -10.213  10.753  68.931  1.00  0.00    -0.219 A  
HETATM    5  C   UNL     1     -11.236   9.103  70.961  1.00  0.00    -0.312 A  
HETATM    6  C   UNL     1     -11.543  10.891  69.363  1.00  0.00    -0.387 A  
HETATM    7  O   UNL     1     -12.915   8.489  72.441  1.00  0.00    -0.351 OA 
HETATM    8  O   UNL     1     -11.004   7.417  72.540  1.00  0.00    -0.254 OA 
HETATM    9  C   UNL     1      -9.411   9.759  69.522  1.00  0.00    -0.226 A  
HETATM   10  C   UNL     1     -12.057  10.073  70.374  1.00  0.00    -0.284 A  
HETATM   11  N   UNL     1     -11.756   8.278  72.059  1.00  0.00    -0.321 N  
HETATM   12  C   UNL     1      -9.915   8.934  70.531  1.00  0.00    -0.243 A  
ENDBRANCH   2   4
BRANCH   2  13
HETATM   13  C   UNL     1     -10.011  11.375  66.424  1.00  0.00    -0.214 C  
BRANCH  13  14
HETATM   14  N   UNL     1      -8.862  10.698  65.776  1.00  0.00    -0.178 N  
HETATM   15  C   UNL     1      -7.647   9.563  63.915  1.00  0.00    -0.122 C  
HETATM   16  C   UNL     1      -8.943  10.125  64.518  1.00  0.00    -0.221 C  
HETATM   17  H   UNL     1      -7.974  10.654  66.277  1.00  0.00     0.000 HD 
HETATM   18  O   UNL     1     -10.003  10.090  63.893  1.00  0.00    -0.108 OA 
HETATM   19 CL   UNL     1      -6.461   9.147  65.171  1.00  0.00    -0.068 Cl 
HETATM   20 CL   UNL     1      -6.971  10.751  62.786  1.00  0.00    -0.011 Cl 
ENDBRANCH  13  14
BRANCH  13  21
HETATM   21  C   UNL     1     -10.424  12.657  65.668  1.00  0.00    -0.275 C  
BRANCH  21  22
HETATM   22  O   UNL     1      -9.665  13.808  66.086  1.00  0.00    -0.290 OA 
BRANCH  22  23
HETATM   23  C   UNL     1     -10.116  15.005  65.626  1.00  0.00    -0.362 C  
HETATM   24  O   UNL     1     -10.875  15.154  64.677  1.00  0.00    -0.377 OA 
BRANCH  23  25
HETATM   25  C   UNL     1      -9.570  16.142  66.447  1.00  0.00    -0.312 C  
BRANCH  25  26
HETATM   26  C   UNL     1      -8.074  16.017  66.652  1.00  0.00    -0.311 C  
HETATM   27  C   UNL     1      -7.670  16.115  68.103  1.00  0.00    -0.141 C  
HETATM   28  O   UNL     1      -8.120  15.102  68.871  1.00  0.00    -0.152 OA 
HETATM   29  O   UNL     1      -6.971  17.014  68.540  1.00  0.00    -0.179 OA 
ENDBRANCH  25  26
ENDBRANCH  23  25
ENDBRANCH  22  23
ENDBRANCH  21  22
ENDBRANCH  13  21
ENDBRANCH   2  13
TORSDOF 8
ENDMDL
MODEL      276
REMARK 921   NORMALIZED FREE ENERGY PREDICTED BY IDOCK:   -3.89 KCAL/MOL
REMARK 922        TOTAL FREE ENERGY PREDICTED BY IDOCK:   -7.18 KCAL/MOL
REMARK 923 INTER-LIGAND FREE ENERGY PREDICTED BY IDOCK:   -7.44 KCAL/MOL
REMARK 924 INTRA-LIGAND FREE ENERGY PREDICTED BY IDOCK:    0.26 KCAL/MOL
REMARK 927      BINDING AFFINITY PREDICTED BY RF-SCORE:    0.00 PKD
ROOT
HETATM    1  O   UNL     1     -13.002  13.656  65.207  1.00  0.00    -0.719 OA 
HETATM    2  C   UNL     1     -11.594  13.922  65.256  1.00  0.00    -0.327 C  
HETATM    3  H   UNL     1     -13.203  13.118  64.450  1.00  0.00     0.000 HD 
ENDROOT
BRANCH   2   4
HETATM    4  C   UNL     1     -10.908  12.572  65.223  1.00  0.00    -0.321 A  
HETATM    5  C   UNL     1      -9.516  10.133  65.251  1.00  0.00    -0.248 A  
HETATM    6  C   UNL     1     -11.069  11.669  66.288  1.00  0.00    -0.345 A  
HETATM    7  O   UNL     1      -8.883   8.155  66.288  1.00  0.00    -0.146 OA 
HETATM    8  O   UNL     1      -8.012   8.624  64.330  1.00  0.00    -0.130 OA 
HETATM    9  C   UNL     1     -10.052  12.221  64.163  1.00  0.00    -0.329 A  
HETATM   10  C   UNL     1     -10.379  10.454  66.307  1.00  0.00    -0.270 A  
HETATM   11  N   UNL     1      -8.749   8.881  65.293  1.00  0.00    -0.183 N  
HETATM   12  C   UNL     1      -9.359  11.008  64.171  1.00  0.00    -0.235 A  
ENDBRANCH   2   4
BRANCH   2  13
HETATM   13  C   UNL     1     -11.266  14.802  66.494  1.00  0.00    -0.342 C  
BRANCH  13  14
HETATM   14  N   UNL     1      -9.841  14.612  66.860  1.00  0.00    -0.243 N  
HETATM   15  C   UNL     1      -7.420  15.205  66.952  1.00  0.00     0.120 C  
HETATM   16  C   UNL     1      -8.833  15.441  66.400  1.00  0.00    -0.305 C  
HETATM   17  H   UNL     1      -9.594  13.837  67.478  1.00  0.00     0.000 HD 
HETATM   18  O   UNL     1      -9.061  16.351  65.602  1.00  0.00    -0.446 OA 
HETATM   19 CL   UNL     1      -7.209  13.540  67.535  1.00  0.00    -0.177 Cl 
HETATM   20 CL   UNL     1      -7.104  16.368  68.253  1.00  0.00    -0.138 Cl 
ENDBRANCH  13  14
BRANCH  13  21
HETATM   21  C   UNL     1     -12.211  14.465  67.669  1.00  0.00    -0.165 C  
BRANCH  21  22
HETATM   22  O   UNL     1     -11.549  14.550  68.946  1.00  0.00    -0.276 OA 
BRANCH  22  23
HETATM   23  C   UNL     1     -11.556  15.778  69.527  1.00  0.00    -0.363 C  
HETATM   24  O   UNL     1     -11.911  16.011  70.676  1.00  0.00    -0.370 OA 
BRANCH  23  25
HETATM   25  C   UNL     1     -11.052  16.831  68.577  1.00  0.00    -0.260 C  
BRANCH  25  26
HETATM   26  C   UNL     1     -10.161  17.837  69.277  1.00  0.00    -0.135 C  
HETATM   27  C   UNL     1      -9.678  18.932  68.359  1.00  0.00    -0.379 C  
HETATM   28  O   UNL     1     -10.657  19.735  67.894  1.00  0.00    -0.416 OA 
HETATM   29  O   UNL     1      -8.501  19.098  68.082  1.00  0.00    -0.297 OA 
ENDBRANCH  25  26
ENDBRANCH  23  25
ENDBRANCH  22  23
ENDBRANCH  21  22
ENDBRANCH  13  21
ENDBRANCH   2  13
TORSDOF 8
ENDMDL
MODEL      277
REMARK 921   NORMALIZED FREE ENERGY PREDICTED BY IDOCK:   -3.89 KCAL/MOL
REMARK 922        TOTAL FREE ENERGY PREDICTED BY IDOCK:   -7.18 KCAL/MOL
REMARK 923 INTER-LIGAND FREE ENERGY PREDICTED BY IDOCK:   -6.08 KCAL/MOL
REMARK 924 INTRA-LIGAND FREE ENERGY PREDICTED BY IDOCK:   -1.09 KCAL/MOL
REMARK 927      BINDING AFFINITY PREDICTED BY RF-SCORE:    0.00 PKD
ROOT
HETATM    1  O   UNL     1      -8.411  11.843  65.792  1.00  0.00    -0.377 OA 
HETATM    2  C   UNL     1      -7.868  11.393  67.042  1.00  0.00    -0.158 C  
HETATM    3  H   UNL     1      -8.206  11.218  65.108  1.00  0.00     0.000 HD 
ENDROOT
BRANCH   2   4
HETATM    4  C   UNL     1      -8.411   9.996  67.259  1.00  0.00    -0.121 A  
HETATM    5  C   UNL     1      -9.547   7.472  67.732  1.00  0.00    -0.142 A  
HETATM    6  C   UNL     1      -9.321   9.439  66.345  1.00  0.00    -0.241 A  
HETATM    7  O   UNL     1     -11.026   5.765  67.194  1.00  0.00    -0.268 OA 
HETATM    8  O   UNL     1      -9.838   5.568  69.028  1.00  0.00    -0.140 OA 
HETATM    9  C   UNL     1      -8.065   9.256  68.405  1.00  0.00    -0.106 A  
HETATM   10  C   UNL     1      -9.890   8.183  66.575  1.00  0.00    -0.309 A  
HETATM   11  N   UNL     1     -10.183   6.176  68.004  1.00  0.00    -0.157 N  
HETATM   12  C   UNL     1      -8.626   7.999  68.644  1.00  0.00    -0.128 A  
ENDBRANCH   2   4
BRANCH   2  13
HETATM   13  C   UNL     1      -8.204  12.416  68.162  1.00  0.00    -0.173 C  
BRANCH  13  14
HETATM   14  N   UNL     1      -9.509  13.054  67.862  1.00  0.00    -0.211 N  
HETATM   15  C   UNL     1     -11.959  13.446  68.119  1.00  0.00    -0.321 C  
HETATM   16  C   UNL     1     -10.699  12.621  68.421  1.00  0.00    -0.242 C  
HETATM   17  H   UNL     1      -9.530  13.845  67.217  1.00  0.00     0.000 HD 
HETATM   18  O   UNL     1     -10.745  11.633  69.154  1.00  0.00    -0.208 OA 
HETATM   19 CL   UNL     1     -11.796  14.372  66.612  1.00  0.00    -0.417 Cl 
HETATM   20 CL   UNL     1     -12.285  14.526  69.486  1.00  0.00    -0.332 Cl 
ENDBRANCH  13  14
BRANCH  13  21
HETATM   21  C   UNL     1      -7.073  13.460  68.304  1.00  0.00    -0.109 C  
BRANCH  21  22
HETATM   22  O   UNL     1      -7.315  14.640  67.514  1.00  0.00    -0.175 OA 
BRANCH  22  23
HETATM   23  C   UNL     1      -7.524  15.783  68.219  1.00  0.00    -0.116 C  
HETATM   24  O   UNL     1      -6.917  16.107  69.232  1.00  0.00    -0.189 OA 
BRANCH  23  25
HETATM   25  C   UNL     1      -8.600  16.623  67.583  1.00  0.00    -0.207 C  
BRANCH  25  26
HETATM   26  C   UNL     1      -8.070  17.974  67.145  1.00  0.00    -0.225 C  
HETATM   27  C   UNL     1      -9.027  19.102  67.437  1.00  0.00    -0.293 C  
HETATM   28  O   UNL     1      -9.237  19.323  68.751  1.00  0.00    -0.365 OA 
HETATM   29  O   UNL     1      -9.545  19.779  66.563  1.00  0.00    -0.353 OA 
ENDBRANCH  25  26
ENDBRANCH  23  25
ENDBRANCH  22  23
ENDBRANCH  21  22
ENDBRANCH  13  21
ENDBRANCH   2  13
TORSDOF 8
ENDMDL
MODEL      278
REMARK 921   NORMALIZED FREE ENERGY PREDICTED BY IDOCK:   -3.88 KCAL/MOL
REMARK 922        TOTAL FREE ENERGY PREDICTED BY IDOCK:   -7.16 KCAL/MOL
REMARK 923 INTER-LIGAND FREE ENERGY PREDICTED BY IDOCK:   -7.00 KCAL/MOL
REMARK 924 INTRA-LIGAND FREE ENERGY PREDICTED BY IDOCK:   -0.16 KCAL/MOL
REMARK 927      BINDING AFFINITY PREDICTED BY RF-SCORE:    0.00 PKD
ROOT
HETATM    1  O   UNL     1      -7.858  14.117  67.561  1.00  0.00    -0.167 OA 
HETATM    2  C   UNL     1      -8.426  12.802  67.498  1.00  0.00    -0.181 C  
HETATM    3  H   UNL     1      -7.504  14.357  66.713  1.00  0.00     0.000 HD 
ENDROOT
BRANCH   2   4
HETATM    4  C   UNL     1      -9.429  12.829  66.364  1.00  0.00    -0.229 A  
HETATM    5  C   UNL     1     -11.405  12.904  64.370  1.00  0.00    -0.358 A  
HETATM    6  C   UNL     1      -9.844  14.054  65.814  1.00  0.00    -0.280 A  
HETATM    7  O   UNL     1     -12.846  14.062  62.965  1.00  0.00    -0.392 OA 
HETATM    8  O   UNL     1     -12.947  11.871  62.976  1.00  0.00    -0.525 OA 
HETATM    9  C   UNL     1     -10.007  11.641  65.881  1.00  0.00    -0.264 A  
HETATM   10  C   UNL     1     -10.828  14.097  64.822  1.00  0.00    -0.426 A  
HETATM   11  N   UNL     1     -12.476  12.949  63.365  1.00  0.00    -0.391 N  
HETATM   12  C   UNL     1     -10.990  11.673  64.887  1.00  0.00    -0.345 A  
ENDBRANCH   2   4
BRANCH   2  13
HETATM   13  C   UNL     1      -9.005  12.409  68.885  1.00  0.00     0.304 C  
BRANCH  13  14
HETATM   14  N   UNL     1      -8.494  11.070  69.263  1.00  0.00    -0.381 N  
HETATM   15  C   UNL     1      -6.833   9.443  70.169  1.00  0.00    -0.071 C  
HETATM   16  C   UNL     1      -7.196  10.858  69.695  1.00  0.00    -0.095 C  
HETATM   17  H   UNL     1      -9.126  10.270  69.203  1.00  0.00     0.000 HD 
HETATM   18  O   UNL     1      -6.370  11.772  69.727  1.00  0.00    -0.125 OA 
HETATM   19 CL   UNL     1      -7.904   8.215  69.461  1.00  0.00    -0.102 Cl 
HETATM   20 CL   UNL     1      -6.903   9.390  71.940  1.00  0.00     0.224 Cl 
ENDBRANCH  13  14
BRANCH  13  21
HETATM   21  C   UNL     1     -10.549  12.450  68.863  1.00  0.00    -0.126 C  
BRANCH  21  22
HETATM   22  O   UNL     1     -11.059  13.785  68.676  1.00  0.00    -0.246 OA 
BRANCH  22  23
HETATM   23  C   UNL     1     -11.003  14.591  69.769  1.00  0.00    -0.151 C  
HETATM   24  O   UNL     1     -10.185  15.485  69.944  1.00  0.00    -0.287 OA 
BRANCH  23  25
HETATM   25  C   UNL     1     -12.098  14.254  70.746  1.00  0.00    -0.418 C  
BRANCH  25  26
HETATM   26  C   UNL     1     -13.038  15.424  70.958  1.00  0.00    -0.565 C  
HETATM   27  C   UNL     1     -12.988  15.969  72.363  1.00  0.00    -0.367 C  
HETATM   28  O   UNL     1     -11.806  16.526  72.698  1.00  0.00    -0.541 OA 
HETATM   29  O   UNL     1     -13.942  15.939  73.124  1.00  0.00    -0.500 OA 
ENDBRANCH  25  26
ENDBRANCH  23  25
ENDBRANCH  22  23
ENDBRANCH  21  22
ENDBRANCH  13  21
ENDBRANCH   2  13
TORSDOF 8
ENDMDL
MODEL      279
REMARK 921   NORMALIZED FREE ENERGY PREDICTED BY IDOCK:   -3.88 KCAL/MOL
REMARK 922        TOTAL FREE ENERGY PREDICTED BY IDOCK:   -7.16 KCAL/MOL
REMARK 923 INTER-LIGAND FREE ENERGY PREDICTED BY IDOCK:   -7.05 KCAL/MOL
REMARK 924 INTRA-LIGAND FREE ENERGY PREDICTED BY IDOCK:   -0.10 KCAL/MOL
REMARK 927      BINDING AFFINITY PREDICTED BY RF-SCORE:    0.00 PKD
ROOT
HETATM    1  O   UNL     1     -12.530  14.790  67.801  1.00  0.00    -0.533 OA 
HETATM    2  C   UNL     1     -11.360  14.926  68.620  1.00  0.00    -0.292 C  
HETATM    3  H   UNL     1     -13.024  15.600  67.809  1.00  0.00     0.000 HD 
ENDROOT
BRANCH   2   4
HETATM    4  C   UNL     1     -10.619  16.140  68.099  1.00  0.00    -0.290 A  
HETATM    5  C   UNL     1      -9.387  18.466  67.119  1.00  0.00    -0.271 A  
HETATM    6  C   UNL     1     -10.284  17.192  68.968  1.00  0.00    -0.315 A  
HETATM    7  O   UNL     1      -8.579  20.623  67.403  1.00  0.00    -0.329 OA 
HETATM    8  O   UNL     1      -8.537  19.758  65.388  1.00  0.00    -0.161 OA 
HETATM    9  C   UNL     1     -10.306  16.266  66.733  1.00  0.00    -0.296 A  
HETATM   10  C   UNL     1      -9.672  18.353  68.486  1.00  0.00    -0.386 A  
HETATM   11  N   UNL     1      -8.792  19.704  66.600  1.00  0.00    -0.335 N  
HETATM   12  C   UNL     1      -9.692  17.420  66.240  1.00  0.00    -0.276 A  
ENDBRANCH   2   4
BRANCH   2  13
HETATM   13  C   UNL     1     -10.550  13.600  68.608  1.00  0.00    -0.248 C  
BRANCH  13  14
HETATM   14  N   UNL     1      -9.107  13.911  68.755  1.00  0.00    -0.376 N  
HETATM   15  C   UNL     1      -6.756  14.212  67.976  1.00  0.00    -0.148 C  
HETATM   16  C   UNL     1      -8.195  13.738  67.728  1.00  0.00    -0.174 C  
HETATM   17  H   UNL     1      -8.773  14.267  69.651  1.00  0.00     0.000 HD 
HETATM   18  O   UNL     1      -8.528  13.251  66.646  1.00  0.00    -0.038 OA 
HETATM   19 CL   UNL     1      -6.369  14.265  69.709  1.00  0.00    -0.135 Cl 
HETATM   20 CL   UNL     1      -6.536  15.809  67.237  1.00  0.00    -0.210 Cl 
ENDBRANCH  13  14
BRANCH  13  21
HETATM   21  C   UNL     1     -10.836  12.797  67.318  1.00  0.00    -0.251 C  
BRANCH  21  22
HETATM   22  O   UNL     1     -11.607  11.607  67.574  1.00  0.00    -0.456 OA 
BRANCH  22  23
HETATM   23  C   UNL     1     -10.946  10.608  68.215  1.00  0.00    -0.263 C  
HETATM   24  O   UNL     1     -11.295  10.097  69.272  1.00  0.00    -0.217 OA 
BRANCH  23  25
HETATM   25  C   UNL     1      -9.720  10.191  67.448  1.00  0.00    -0.192 C  
BRANCH  25  26
HETATM   26  C   UNL     1     -10.081   9.533  66.131  1.00  0.00    -0.326 C  
HETATM   27  C   UNL     1      -9.020   9.716  65.074  1.00  0.00    -0.212 C  
HETATM   28  O   UNL     1      -7.850   9.106  65.353  1.00  0.00    -0.096 OA 
HETATM   29  O   UNL     1      -9.210  10.335  64.040  1.00  0.00    -0.225 OA 
ENDBRANCH  25  26
ENDBRANCH  23  25
ENDBRANCH  22  23
ENDBRANCH  21  22
ENDBRANCH  13  21
ENDBRANCH   2  13
TORSDOF 8
ENDMDL
MODEL      280
REMARK 921   NORMALIZED FREE ENERGY PREDICTED BY IDOCK:   -3.88 KCAL/MOL
REMARK 922        TOTAL FREE ENERGY PREDICTED BY IDOCK:   -7.16 KCAL/MOL
REMARK 923 INTER-LIGAND FREE ENERGY PREDICTED BY IDOCK:   -7.06 KCAL/MOL
REMARK 924 INTRA-LIGAND FREE ENERGY PREDICTED BY IDOCK:   -0.10 KCAL/MOL
REMARK 927      BINDING AFFINITY PREDICTED BY RF-SCORE:    0.00 PKD
ROOT
HETATM    1  O   UNL     1     -12.163  11.565  70.119  1.00  0.00    -0.317 OA 
HETATM    2  C   UNL     1     -11.843  12.071  68.816  1.00  0.00    -0.302 C  
HETATM    3  H   UNL     1     -12.488  10.676  70.048  1.00  0.00     0.000 HD 
ENDROOT
BRANCH   2   4
HETATM    4  C   UNL     1     -10.879  11.078  68.201  1.00  0.00    -0.274 A  
HETATM    5  C   UNL     1      -9.213   9.130  67.053  1.00  0.00    -0.135 A  
HETATM    6  C   UNL     1     -10.806  10.932  66.805  1.00  0.00    -0.283 A  
HETATM    7  O   UNL     1      -8.409   7.954  65.221  1.00  0.00    -0.141 OA 
HETATM    8  O   UNL     1      -7.705   7.373  67.215  1.00  0.00    -0.111 OA 
HETATM    9  C   UNL     1     -10.086  10.243  69.010  1.00  0.00    -0.225 A  
HETATM   10  C   UNL     1      -9.979   9.964  66.228  1.00  0.00    -0.322 A  
HETATM   11  N   UNL     1      -8.383   8.077  66.453  1.00  0.00    -0.118 N  
HETATM   12  C   UNL     1      -9.254   9.274  68.444  1.00  0.00    -0.132 A  
ENDBRANCH   2   4
BRANCH   2  13
HETATM   13  C   UNL     1     -11.311  13.527  68.930  1.00  0.00    -0.289 C  
BRANCH  13  14
HETATM   14  N   UNL     1     -11.656  14.065  70.268  1.00  0.00    -0.466 N  
HETATM   15  C   UNL     1     -12.550  15.747  71.880  1.00  0.00    -0.457 C  
HETATM   16  C   UNL     1     -12.116  15.357  70.460  1.00  0.00    -0.371 C  
HETATM   17  H   UNL     1     -11.550  13.458  71.082  1.00  0.00     0.000 HD 
HETATM   18  O   UNL     1     -12.202  16.155  69.525  1.00  0.00    -0.151 OA 
HETATM   19 CL   UNL     1     -11.770  14.730  73.110  1.00  0.00    -0.168 Cl 
HETATM   20 CL   UNL     1     -14.315  15.631  71.999  1.00  0.00    -0.557 Cl 
ENDBRANCH  13  14
BRANCH  13  21
HETATM   21  C   UNL     1     -11.878  14.406  67.793  1.00  0.00    -0.368 C  
BRANCH  21  22
HETATM   22  O   UNL     1     -11.092  14.317  66.589  1.00  0.00    -0.308 OA 
BRANCH  22  23
HETATM   23  C   UNL     1      -9.779  14.638  66.722  1.00  0.00    -0.257 C  
HETATM   24  O   UNL     1      -8.843  13.867  66.552  1.00  0.00    -0.141 OA 
BRANCH  23  25
HETATM   25  C   UNL     1      -9.611  16.087  67.097  1.00  0.00    -0.224 C  
BRANCH  25  26
HETATM   26  C   UNL     1      -8.398  16.701  66.428  1.00  0.00    -0.353 C  
HETATM   27  C   UNL     1      -7.617  17.606  67.348  1.00  0.00    -0.198 C  
HETATM   28  O   UNL     1      -7.042  16.973  68.391  1.00  0.00    -0.172 OA 
HETATM   29  O   UNL     1      -7.488  18.804  67.152  1.00  0.00    -0.222 OA 
ENDBRANCH  25  26
ENDBRANCH  23  25
ENDBRANCH  22  23
ENDBRANCH  21  22
ENDBRANCH  13  21
ENDBRANCH   2  13
TORSDOF 8
ENDMDL
MODEL      281
REMARK 921   NORMALIZED FREE ENERGY PREDICTED BY IDOCK:   -3.85 KCAL/MOL
REMARK 922        TOTAL FREE ENERGY PREDICTED BY IDOCK:   -7.12 KCAL/MOL
REMARK 923 INTER-LIGAND FREE ENERGY PREDICTED BY IDOCK:   -6.47 KCAL/MOL
REMARK 924 INTRA-LIGAND FREE ENERGY PREDICTED BY IDOCK:   -0.65 KCAL/MOL
REMARK 927      BINDING AFFINITY PREDICTED BY RF-SCORE:    0.00 PKD
ROOT
HETATM    1  O   UNL     1      -9.080  11.173  69.260  1.00  0.00    -0.391 OA 
HETATM    2  C   UNL     1     -10.079  10.161  69.447  1.00  0.00    -0.231 C  
HETATM    3  H   UNL     1      -8.930  11.633  70.078  1.00  0.00     0.000 HD 
ENDROOT
BRANCH   2   4
HETATM    4  C   UNL     1      -9.596   9.298  70.594  1.00  0.00    -0.334 A  
HETATM    5  C   UNL     1      -8.734   7.566  72.629  1.00  0.00    -0.126 A  
HETATM    6  C   UNL     1      -8.279   8.808  70.605  1.00  0.00    -0.159 A  
HETATM    7  O   UNL     1      -7.145   6.170  73.586  1.00  0.00    -0.083 OA 
HETATM    8  O   UNL     1      -9.107   6.323  74.554  1.00  0.00    -0.145 OA 
HETATM    9  C   UNL     1     -10.467   8.920  71.632  1.00  0.00    -0.408 A  
HETATM   10  C   UNL     1      -7.844   7.945  71.616  1.00  0.00    -0.102 A  
HETATM   11  N   UNL     1      -8.297   6.618  73.664  1.00  0.00    -0.113 N  
HETATM   12  C   UNL     1     -10.043   8.060  72.648  1.00  0.00    -0.370 A  
ENDBRANCH   2   4
BRANCH   2  13
HETATM   13  C   UNL     1     -10.325   9.410  68.109  1.00  0.00    -0.211 C  
BRANCH  13  14
HETATM   14  N   UNL     1      -9.760   8.042  68.210  1.00  0.00    -0.160 N  
HETATM   15  C   UNL     1      -9.801   5.551  68.085  1.00  0.00    -0.143 C  
HETATM   16  C   UNL     1     -10.533   6.901  68.080  1.00  0.00    -0.211 C  
HETATM   17  H   UNL     1      -8.759   7.938  68.382  1.00  0.00     0.000 HD 
HETATM   18  O   UNL     1     -11.755   6.963  67.936  1.00  0.00     0.424 OA 
HETATM   19 CL   UNL     1      -8.233   5.654  68.914  1.00  0.00    -0.100 Cl 
HETATM   20 CL   UNL     1      -9.591   4.999  66.413  1.00  0.00    -0.154 Cl 
ENDBRANCH  13  14
BRANCH  13  21
HETATM   21  C   UNL     1      -9.723  10.195  66.923  1.00  0.00    -0.187 C  
BRANCH  21  22
HETATM   22  O   UNL     1     -10.737  10.757  66.067  1.00  0.00    -0.196 OA 
BRANCH  22  23
HETATM   23  C   UNL     1     -10.284  11.592  65.095  1.00  0.00    -0.274 C  
HETATM   24  O   UNL     1      -9.993  11.254  63.955  1.00  0.00    -0.261 OA 
BRANCH  23  25
HETATM   25  C   UNL     1     -10.197  13.009  65.596  1.00  0.00    -0.296 C  
BRANCH  25  26
HETATM   26  C   UNL     1     -10.734  13.996  64.579  1.00  0.00    -0.355 C  
HETATM   27  C   UNL     1     -12.203  13.803  64.293  1.00  0.00    -0.400 C  
HETATM   28  O   UNL     1     -13.008  14.054  65.345  1.00  0.00    -0.726 OA 
HETATM   29  O   UNL     1     -12.631  13.478  63.198  1.00  0.00    -0.762 OA 
ENDBRANCH  25  26
ENDBRANCH  23  25
ENDBRANCH  22  23
ENDBRANCH  21  22
ENDBRANCH  13  21
ENDBRANCH   2  13
TORSDOF 8
ENDMDL
MODEL      282
REMARK 921   NORMALIZED FREE ENERGY PREDICTED BY IDOCK:   -3.84 KCAL/MOL
REMARK 922        TOTAL FREE ENERGY PREDICTED BY IDOCK:   -7.11 KCAL/MOL
REMARK 923 INTER-LIGAND FREE ENERGY PREDICTED BY IDOCK:   -5.91 KCAL/MOL
REMARK 924 INTRA-LIGAND FREE ENERGY PREDICTED BY IDOCK:   -1.20 KCAL/MOL
REMARK 927      BINDING AFFINITY PREDICTED BY RF-SCORE:    0.00 PKD
ROOT
HETATM    1  O   UNL     1     -11.116   9.693  68.177  1.00  0.00    -0.473 OA 
HETATM    2  C   UNL     1     -10.775   9.139  66.899  1.00  0.00    -0.079 C  
HETATM    3  H   UNL     1     -11.725   9.119  68.625  1.00  0.00     0.000 HD 
ENDROOT
BRANCH   2   4
HETATM    4  C   UNL     1     -10.265   7.739  67.167  1.00  0.00    -0.365 A  
HETATM    5  C   UNL     1      -9.421   5.088  67.553  1.00  0.00    -0.135 A  
HETATM    6  C   UNL     1      -9.263   7.182  66.354  1.00  0.00    -0.196 A  
HETATM    7  O   UNL     1      -8.175   3.230  66.931  1.00  0.00    -0.083 OA 
HETATM    8  O   UNL     1      -9.540   3.039  68.638  1.00  0.00    -0.164 OA 
HETATM    9  C   UNL     1     -10.821   6.949  68.190  1.00  0.00    -0.258 A  
HETATM   10  C   UNL     1      -8.839   5.863  66.541  1.00  0.00    -0.128 A  
HETATM   11  N   UNL     1      -9.016   3.686  67.719  1.00  0.00    -0.122 N  
HETATM   12  C   UNL     1     -10.404   5.630  68.387  1.00  0.00    -0.258 A  
ENDBRANCH   2   4
BRANCH   2  13
HETATM   13  C   UNL     1      -9.778  10.078  66.165  1.00  0.00    -0.227 C  
BRANCH  13  14
HETATM   14  N   UNL     1      -8.793  10.600  67.143  1.00  0.00    -0.137 N  
HETATM   15  C   UNL     1      -6.630  11.605  67.876  1.00  0.00    -0.065 C  
HETATM   16  C   UNL     1      -7.507  10.967  66.788  1.00  0.00    -0.139 C  
HETATM   17  H   UNL     1      -9.076  10.692  68.120  1.00  0.00     0.000 HD 
HETATM   18  O   UNL     1      -7.088  10.818  65.639  1.00  0.00    -0.113 OA 
HETATM   19 CL   UNL     1      -7.165  11.146  69.506  1.00  0.00    -0.099 Cl 
HETATM   20 CL   UNL     1      -6.655  13.367  67.681  1.00  0.00    -0.167 Cl 
ENDBRANCH  13  14
BRANCH  13  21
HETATM   21  C   UNL     1     -10.532  11.218  65.444  1.00  0.00    -0.268 C  
BRANCH  21  22
HETATM   22  O   UNL     1     -11.079  12.181  66.366  1.00  0.00    -0.284 OA 
BRANCH  22  23
HETATM   23  C   UNL     1     -10.560  13.433  66.281  1.00  0.00    -0.291 C  
HETATM   24  O   UNL     1     -10.323  14.028  65.237  1.00  0.00    -0.342 OA 
BRANCH  23  25
HETATM   25  C   UNL     1     -10.320  14.016  67.648  1.00  0.00    -0.242 C  
BRANCH  25  26
HETATM   26  C   UNL     1     -11.356  15.065  67.999  1.00  0.00    -0.339 C  
HETATM   27  C   UNL     1     -11.490  15.283  69.485  1.00  0.00    -0.305 C  
HETATM   28  O   UNL     1     -10.391  15.801  70.070  1.00  0.00    -0.299 OA 
HETATM   29  O   UNL     1     -12.515  15.041  70.103  1.00  0.00    -0.333 OA 
ENDBRANCH  25  26
ENDBRANCH  23  25
ENDBRANCH  22  23
ENDBRANCH  21  22
ENDBRANCH  13  21
ENDBRANCH   2  13
TORSDOF 8
ENDMDL
MODEL      283
REMARK 921   NORMALIZED FREE ENERGY PREDICTED BY IDOCK:   -3.83 KCAL/MOL
REMARK 922        TOTAL FREE ENERGY PREDICTED BY IDOCK:   -7.08 KCAL/MOL
REMARK 923 INTER-LIGAND FREE ENERGY PREDICTED BY IDOCK:   -6.85 KCAL/MOL
REMARK 924 INTRA-LIGAND FREE ENERGY PREDICTED BY IDOCK:   -0.23 KCAL/MOL
REMARK 927      BINDING AFFINITY PREDICTED BY RF-SCORE:    0.00 PKD
ROOT
HETATM    1  O   UNL     1      -8.109  11.403  68.178  1.00  0.00    -0.123 OA 
HETATM    2  C   UNL     1      -8.413  10.718  66.954  1.00  0.00    -0.131 C  
HETATM    3  H   UNL     1      -7.821  12.287  67.989  1.00  0.00     0.000 HD 
ENDROOT
BRANCH   2   4
HETATM    4  C   UNL     1      -9.419  11.584  66.225  1.00  0.00    -0.235 A  
HETATM    5  C   UNL     1     -11.180  13.197  64.747  1.00  0.00    -0.324 A  
HETATM    6  C   UNL     1     -10.301  11.012  65.292  1.00  0.00    -0.338 A  
HETATM    7  O   UNL     1     -12.773  13.490  63.084  1.00  0.00    -0.718 OA 
HETATM    8  O   UNL     1     -12.050  15.265  64.151  1.00  0.00    -0.554 OA 
HETATM    9  C   UNL     1      -9.450  12.977  66.418  1.00  0.00    -0.228 A  
HETATM   10  C   UNL     1     -11.180  11.810  64.553  1.00  0.00    -0.368 A  
HETATM   11  N   UNL     1     -12.064  14.045  63.936  1.00  0.00    -0.396 N  
HETATM   12  C   UNL     1     -10.326  13.784  65.686  1.00  0.00    -0.321 A  
ENDBRANCH   2   4
BRANCH   2  13
HETATM   13  C   UNL     1      -8.886   9.270  67.263  1.00  0.00    -0.124 C  
BRANCH  13  14
HETATM   14  N   UNL     1      -8.512   8.387  66.132  1.00  0.00    -0.124 N  
HETATM   15  C   UNL     1      -7.398   6.439  65.041  1.00  0.00    -0.078 C  
HETATM   16  C   UNL     1      -7.603   7.351  66.259  1.00  0.00    -0.088 C  
HETATM   17  H   UNL     1      -8.944   8.549  65.221  1.00  0.00     0.000 HD 
HETATM   18  O   UNL     1      -7.002   7.148  67.315  1.00  0.00    -0.073 OA 
HETATM   19 CL   UNL     1      -7.834   7.257  63.525  1.00  0.00    -0.124 Cl 
HETATM   20 CL   UNL     1      -8.357   4.963  65.254  1.00  0.00    -0.125 Cl 
ENDBRANCH  13  14
BRANCH  13  21
HETATM   21  C   UNL     1     -10.406   9.240  67.539  1.00  0.00    -0.262 C  
BRANCH  21  22
HETATM   22  O   UNL     1     -10.713   8.741  68.855  1.00  0.00    -0.187 OA 
BRANCH  22  23
HETATM   23  C   UNL     1     -10.545   9.629  69.870  1.00  0.00    -0.249 C  
HETATM   24  O   UNL     1     -10.364  10.833  69.731  1.00  0.00    -0.171 OA 
BRANCH  23  25
HETATM   25  C   UNL     1     -10.626   8.945  71.209  1.00  0.00    -0.351 C  
BRANCH  25  26
HETATM   26  C   UNL     1      -9.374   8.142  71.503  1.00  0.00    -0.210 C  
HETATM   27  C   UNL     1      -9.075   8.042  72.978  1.00  0.00    -0.265 C  
HETATM   28  O   UNL     1      -9.994   7.352  73.683  1.00  0.00    -0.305 OA 
HETATM   29  O   UNL     1      -8.073   8.517  73.488  1.00  0.00    -0.378 OA 
ENDBRANCH  25  26
ENDBRANCH  23  25
ENDBRANCH  22  23
ENDBRANCH  21  22
ENDBRANCH  13  21
ENDBRANCH   2  13
TORSDOF 8
ENDMDL
MODEL      284
REMARK 921   NORMALIZED FREE ENERGY PREDICTED BY IDOCK:   -3.82 KCAL/MOL
REMARK 922        TOTAL FREE ENERGY PREDICTED BY IDOCK:   -7.07 KCAL/MOL
REMARK 923 INTER-LIGAND FREE ENERGY PREDICTED BY IDOCK:   -5.38 KCAL/MOL
REMARK 924 INTRA-LIGAND FREE ENERGY PREDICTED BY IDOCK:   -1.69 KCAL/MOL
REMARK 927      BINDING AFFINITY PREDICTED BY RF-SCORE:    0.00 PKD
ROOT
HETATM    1  O   UNL     1      -6.841   9.914  70.445  1.00  0.00    -0.117 OA 
HETATM    2  C   UNL     1      -7.858   9.814  69.439  1.00  0.00    -0.114 C  
HETATM    3  H   UNL     1      -7.028  10.645  71.021  1.00  0.00     0.000 HD 
ENDROOT
BRANCH   2   4
HETATM    4  C   UNL     1      -9.177   9.731  70.178  1.00  0.00    -0.253 A  
HETATM    5  C   UNL     1     -11.653   9.439  71.471  1.00  0.00    -0.397 A  
HETATM    6  C   UNL     1      -9.288   8.953  71.344  1.00  0.00    -0.338 A  
HETATM    7  O   UNL     1     -13.006   8.494  73.103  1.00  0.00    -0.102 OA 
HETATM    8  O   UNL     1     -13.934   9.838  71.639  1.00  0.00    -0.161 OA 
HETATM    9  C   UNL     1     -10.325  10.376  69.684  1.00  0.00    -0.261 A  
HETATM   10  C   UNL     1     -10.519   8.804  71.991  1.00  0.00    -0.414 A  
HETATM   11  N   UNL     1     -12.958   9.243  72.117  1.00  0.00    -0.408 N  
HETATM   12  C   UNL     1     -11.560  10.236  70.324  1.00  0.00    -0.396 A  
ENDBRANCH   2   4
BRANCH   2  13
HETATM   13  C   UNL     1      -7.551   8.617  68.495  1.00  0.00    -0.095 C  
BRANCH  13  14
HETATM   14  N   UNL     1      -8.746   7.742  68.418  1.00  0.00    -0.128 N  
HETATM   15  C   UNL     1     -10.696   6.651  67.308  1.00  0.00    -0.357 C  
HETATM   16  C   UNL     1      -9.563   7.688  67.302  1.00  0.00    -0.157 C  
HETATM   17  H   UNL     1      -8.975   7.155  69.221  1.00  0.00     0.000 HD 
HETATM   18  O   UNL     1      -9.375   8.420  66.329  1.00  0.00    -0.196 OA 
HETATM   19 CL   UNL     1     -11.163   6.195  68.960  1.00  0.00    -0.447 Cl 
HETATM   20 CL   UNL     1     -10.181   5.226  66.387  1.00  0.00    -0.259 Cl 
ENDBRANCH  13  14
BRANCH  13  21
HETATM   21  C   UNL     1      -6.304   7.846  68.981  1.00  0.00    -0.036 C  
BRANCH  21  22
HETATM   22  O   UNL     1      -6.522   7.192  70.246  1.00  0.00    -0.041 OA 
BRANCH  22  23
HETATM   23  C   UNL     1      -6.830   5.871  70.176  1.00  0.00    -0.053 C  
HETATM   24  O   UNL     1      -6.740   5.179  69.170  1.00  0.00    -0.049 OA 
BRANCH  23  25
HETATM   25  C   UNL     1      -7.287   5.349  71.512  1.00  0.00    -0.085 C  
BRANCH  25  26
HETATM   26  C   UNL     1      -8.797   5.237  71.582  1.00  0.00    -0.144 C  
HETATM   27  C   UNL     1      -9.313   5.157  72.997  1.00  0.00    -0.132 C  
HETATM   28  O   UNL     1      -9.104   6.271  73.727  1.00  0.00    -0.126 OA 
HETATM   29  O   UNL     1      -9.898   4.180  73.438  1.00  0.00    -0.119 OA 
ENDBRANCH  25  26
ENDBRANCH  23  25
ENDBRANCH  22  23
ENDBRANCH  21  22
ENDBRANCH  13  21
ENDBRANCH   2  13
TORSDOF 8
ENDMDL
MODEL      285
REMARK 921   NORMALIZED FREE ENERGY PREDICTED BY IDOCK:   -3.81 KCAL/MOL
REMARK 922        TOTAL FREE ENERGY PREDICTED BY IDOCK:   -7.06 KCAL/MOL
REMARK 923 INTER-LIGAND FREE ENERGY PREDICTED BY IDOCK:   -6.27 KCAL/MOL
REMARK 924 INTRA-LIGAND FREE ENERGY PREDICTED BY IDOCK:   -0.79 KCAL/MOL
REMARK 927      BINDING AFFINITY PREDICTED BY RF-SCORE:    0.00 PKD
ROOT
HETATM    1  O   UNL     1      -8.368   9.432  71.167  1.00  0.00    -0.310 OA 
HETATM    2  C   UNL     1      -9.642   8.864  70.834  1.00  0.00    -0.238 C  
HETATM    3  H   UNL     1      -8.262   9.455  72.111  1.00  0.00     0.000 HD 
ENDROOT
BRANCH   2   4
HETATM    4  C   UNL     1      -9.698   7.517  71.523  1.00  0.00    -0.184 A  
HETATM    5  C   UNL     1      -9.894   5.085  72.915  1.00  0.00    -0.153 A  
HETATM    6  C   UNL     1     -10.788   6.656  71.309  1.00  0.00    -0.279 A  
HETATM    7  O   UNL     1     -11.040   3.152  73.497  1.00  0.00    -0.213 OA 
HETATM    8  O   UNL     1      -9.112   3.546  74.466  1.00  0.00    -0.085 OA 
HETATM    9  C   UNL     1      -8.698   7.127  72.432  1.00  0.00    -0.138 A  
HETATM   10  C   UNL     1     -10.891   5.445  71.999  1.00  0.00    -0.266 A  
HETATM   11  N   UNL     1     -10.025   3.839  73.681  1.00  0.00    -0.112 N  
HETATM   12  C   UNL     1      -8.789   5.917  73.126  1.00  0.00    -0.121 A  
ENDBRANCH   2   4
BRANCH   2  13
HETATM   13  C   UNL     1      -9.816   8.827  69.290  1.00  0.00    -0.180 C  
BRANCH  13  14
HETATM   14  N   UNL     1      -8.478   8.821  68.651  1.00  0.00    -0.128 N  
HETATM   15  C   UNL     1      -6.841   8.433  66.809  1.00  0.00    -0.069 C  
HETATM   16  C   UNL     1      -8.246   8.264  67.405  1.00  0.00    -0.121 C  
HETATM   17  H   UNL     1      -7.696   9.245  69.151  1.00  0.00     0.000 HD 
HETATM   18  O   UNL     1      -9.136   7.681  66.784  1.00  0.00    -0.137 OA 
HETATM   19 CL   UNL     1      -5.618   8.704  68.069  1.00  0.00    -0.035 Cl 
HETATM   20 CL   UNL     1      -6.859   9.779  65.655  1.00  0.00    -0.091 Cl 
ENDBRANCH  13  14
BRANCH  13  21
HETATM   21  C   UNL     1     -10.678  10.016  68.809  1.00  0.00    -0.223 C  
BRANCH  21  22
HETATM   22  O   UNL     1     -11.359  10.673  69.896  1.00  0.00    -0.266 OA 
BRANCH  22  23
HETATM   23  C   UNL     1     -11.839  11.914  69.619  1.00  0.00    -0.337 C  
HETATM   24  O   UNL     1     -11.716  12.494  68.548  1.00  0.00    -0.290 OA 
BRANCH  23  25
HETATM   25  C   UNL     1     -12.565  12.491  70.805  1.00  0.00    -0.299 C  
BRANCH  25  26
HETATM   26  C   UNL     1     -12.166  13.930  71.060  1.00  0.00    -0.421 C  
HETATM   27  C   UNL     1     -13.262  14.737  71.710  1.00  0.00    -0.348 C  
HETATM   28  O   UNL     1     -13.581  14.334  72.957  1.00  0.00    -0.643 OA 
HETATM   29  O   UNL     1     -13.797  15.691  71.169  1.00  0.00    -0.583 OA 
ENDBRANCH  25  26
ENDBRANCH  23  25
ENDBRANCH  22  23
ENDBRANCH  21  22
ENDBRANCH  13  21
ENDBRANCH   2  13
TORSDOF 8
ENDMDL
MODEL      286
REMARK 921   NORMALIZED FREE ENERGY PREDICTED BY IDOCK:   -3.79 KCAL/MOL
REMARK 922        TOTAL FREE ENERGY PREDICTED BY IDOCK:   -7.03 KCAL/MOL
REMARK 923 INTER-LIGAND FREE ENERGY PREDICTED BY IDOCK:   -6.18 KCAL/MOL
REMARK 924 INTRA-LIGAND FREE ENERGY PREDICTED BY IDOCK:   -0.85 KCAL/MOL
REMARK 927      BINDING AFFINITY PREDICTED BY RF-SCORE:    0.00 PKD
ROOT
HETATM    1  O   UNL     1      -6.848  15.509  68.791  1.00  0.00    -0.109 OA 
HETATM    2  C   UNL     1      -7.805  14.514  69.179  1.00  0.00    -0.071 C  
HETATM    3  H   UNL     1      -5.981  15.256  69.086  1.00  0.00     0.000 HD 
ENDROOT
BRANCH   2   4
HETATM    4  C   UNL     1      -7.294  13.199  68.628  1.00  0.00    -0.102 A  
HETATM    5  C   UNL     1      -6.449  10.779  67.481  1.00  0.00    -0.058 A  
HETATM    6  C   UNL     1      -6.296  13.187  67.637  1.00  0.00    -0.163 A  
HETATM    7  O   UNL     1      -5.209   9.577  65.930  1.00  0.00    -0.035 OA 
HETATM    8  O   UNL     1      -6.564   8.471  67.255  1.00  0.00    -0.057 OA 
HETATM    9  C   UNL     1      -7.845  11.975  69.047  1.00  0.00     0.136 A  
HETATM   10  C   UNL     1      -5.873  11.984  67.063  1.00  0.00    -0.131 A  
HETATM   11  N   UNL     1      -6.045   9.519  66.843  1.00  0.00    -0.063 N  
HETATM   12  C   UNL     1      -7.427  10.767  68.481  1.00  0.00    -0.100 A  
ENDBRANCH   2   4
BRANCH   2  13
HETATM   13  C   UNL     1      -9.223  14.928  68.698  1.00  0.00    -0.193 C  
BRANCH  13  14
HETATM   14  N   UNL     1     -10.114  15.067  69.875  1.00  0.00    -0.473 N  
HETATM   15  C   UNL     1     -11.976  16.050  71.212  1.00  0.00    -0.424 C  
HETATM   16  C   UNL     1     -11.034  16.093  70.000  1.00  0.00    -0.364 C  
HETATM   17  H   UNL     1     -10.046  14.377  70.624  1.00  0.00     0.000 HD 
HETATM   18  O   UNL     1     -11.117  16.991  69.160  1.00  0.00    -0.165 OA 
HETATM   19 CL   UNL     1     -11.289  15.104  72.549  1.00  0.00    -0.391 Cl 
HETATM   20 CL   UNL     1     -13.538  15.378  70.708  1.00  0.00    -0.381 Cl 
ENDBRANCH  13  14
BRANCH  13  21
HETATM   21  C   UNL     1      -9.772  13.906  67.678  1.00  0.00    -0.226 C  
BRANCH  21  22
HETATM   22  O   UNL     1     -11.203  13.995  67.530  1.00  0.00    -0.289 OA 
BRANCH  22  23
HETATM   23  C   UNL     1     -11.824  12.850  67.143  1.00  0.00    -0.362 C  
HETATM   24  O   UNL     1     -12.536  12.734  66.153  1.00  0.00    -0.512 OA 
BRANCH  23  25
HETATM   25  C   UNL     1     -11.511  11.719  68.086  1.00  0.00    -0.382 C  
BRANCH  25  26
HETATM   26  C   UNL     1     -12.119  11.947  69.455  1.00  0.00    -0.288 C  
HETATM   27  C   UNL     1     -12.165  10.693  70.293  1.00  0.00    -0.334 C  
HETATM   28  O   UNL     1     -10.953  10.207  70.628  1.00  0.00    -0.308 OA 
HETATM   29  O   UNL     1     -13.208  10.178  70.663  1.00  0.00    -0.336 OA 
ENDBRANCH  25  26
ENDBRANCH  23  25
ENDBRANCH  22  23
ENDBRANCH  21  22
ENDBRANCH  13  21
ENDBRANCH   2  13
TORSDOF 8
ENDMDL
MODEL      287
REMARK 921   NORMALIZED FREE ENERGY PREDICTED BY IDOCK:   -3.78 KCAL/MOL
REMARK 922        TOTAL FREE ENERGY PREDICTED BY IDOCK:   -7.02 KCAL/MOL
REMARK 923 INTER-LIGAND FREE ENERGY PREDICTED BY IDOCK:   -6.40 KCAL/MOL
REMARK 924 INTRA-LIGAND FREE ENERGY PREDICTED BY IDOCK:   -0.62 KCAL/MOL
REMARK 927      BINDING AFFINITY PREDICTED BY RF-SCORE:    0.00 PKD
ROOT
HETATM    1  O   UNL     1     -12.654  10.808  69.109  1.00  0.00    -0.704 OA 
HETATM    2  C   UNL     1     -11.247  10.918  68.850  1.00  0.00    -0.267 C  
HETATM    3  H   UNL     1     -12.974  11.613  69.497  1.00  0.00     0.000 HD 
ENDROOT
BRANCH   2   4
HETATM    4  C   UNL     1     -11.069  12.160  68.003  1.00  0.00    -0.292 A  
HETATM    5  C   UNL     1     -10.884  14.514  66.482  1.00  0.00    -0.314 A  
HETATM    6  C   UNL     1     -10.584  13.347  68.579  1.00  0.00    -0.264 A  
HETATM    7  O   UNL     1     -10.462  16.788  66.282  1.00  0.00    -0.307 OA 
HETATM    8  O   UNL     1     -11.174  15.706  64.512  1.00  0.00    -0.413 OA 
HETATM    9  C   UNL     1     -11.440  12.170  66.646  1.00  0.00    -0.426 A  
HETATM   10  C   UNL     1     -10.491  14.522  67.826  1.00  0.00    -0.242 A  
HETATM   11  N   UNL     1     -10.836  15.759  65.703  1.00  0.00    -0.328 N  
HETATM   12  C   UNL     1     -11.348  13.338  65.884  1.00  0.00    -0.333 A  
ENDBRANCH   2   4
BRANCH   2  13
HETATM   13  C   UNL     1     -10.722   9.601  68.214  1.00  0.00    -0.217 C  
BRANCH  13  14
HETATM   14  N   UNL     1     -10.841   8.503  69.204  1.00  0.00    -0.418 N  
HETATM   15  C   UNL     1     -10.881   6.130  69.972  1.00  0.00    -0.341 C  
HETATM   16  C   UNL     1     -10.878   7.168  68.841  1.00  0.00    -0.129 C  
HETATM   17  H   UNL     1     -10.896   8.742  70.195  1.00  0.00     0.000 HD 
HETATM   18  O   UNL     1     -10.880   6.822  67.658  1.00  0.00    -0.255 OA 
HETATM   19 CL   UNL     1     -11.505   6.810  71.490  1.00  0.00    -0.310 Cl 
HETATM   20 CL   UNL     1      -9.235   5.510  70.193  1.00  0.00    -0.164 Cl 
ENDBRANCH  13  14
BRANCH  13  21
HETATM   21  C   UNL     1      -9.268   9.775  67.721  1.00  0.00    -0.130 C  
BRANCH  21  22
HETATM   22  O   UNL     1      -8.377   8.794  68.285  1.00  0.00    -0.123 OA 
BRANCH  22  23
HETATM   23  C   UNL     1      -7.056   8.994  68.040  1.00  0.00    -0.079 C  
HETATM   24  O   UNL     1      -6.428  10.003  68.338  1.00  0.00    -0.053 OA 
BRANCH  23  25
HETATM   25  C   UNL     1      -6.444   7.800  67.357  1.00  0.00    -0.056 C  
BRANCH  25  26
HETATM   26  C   UNL     1      -7.440   6.667  67.212  1.00  0.00    -0.092 C  
HETATM   27  C   UNL     1      -6.796   5.305  67.296  1.00  0.00    -0.060 C  
HETATM   28  O   UNL     1      -6.257   5.021  68.499  1.00  0.00    -0.029 OA 
HETATM   29  O   UNL     1      -6.789   4.515  66.366  1.00  0.00    -0.055 OA 
ENDBRANCH  25  26
ENDBRANCH  23  25
ENDBRANCH  22  23
ENDBRANCH  21  22
ENDBRANCH  13  21
ENDBRANCH   2  13
TORSDOF 8
ENDMDL
MODEL      288
REMARK 921   NORMALIZED FREE ENERGY PREDICTED BY IDOCK:   -3.78 KCAL/MOL
REMARK 922        TOTAL FREE ENERGY PREDICTED BY IDOCK:   -7.02 KCAL/MOL
REMARK 923 INTER-LIGAND FREE ENERGY PREDICTED BY IDOCK:   -6.56 KCAL/MOL
REMARK 924 INTRA-LIGAND FREE ENERGY PREDICTED BY IDOCK:   -0.46 KCAL/MOL
REMARK 927      BINDING AFFINITY PREDICTED BY RF-SCORE:    0.00 PKD
ROOT
HETATM    1  O   UNL     1      -9.757  14.855  69.624  1.00  0.00    -0.414 OA 
HETATM    2  C   UNL     1      -9.420  15.669  68.492  1.00  0.00    -0.200 C  
HETATM    3  H   UNL     1     -10.698  14.850  69.748  1.00  0.00     0.000 HD 
ENDROOT
BRANCH   2   4
HETATM    4  C   UNL     1     -10.222  15.127  67.328  1.00  0.00    -0.243 A  
HETATM    5  C   UNL     1     -11.571  14.061  65.107  1.00  0.00    -0.342 A  
HETATM    6  C   UNL     1     -10.659  13.791  67.330  1.00  0.00    -0.275 A  
HETATM    7  O   UNL     1     -12.534  12.288  63.960  1.00  0.00    -0.470 OA 
HETATM    8  O   UNL     1     -12.442  14.239  62.963  1.00  0.00    -0.438 OA 
HETATM    9  C   UNL     1     -10.491  15.924  66.200  1.00  0.00    -0.336 A  
HETATM   10  C   UNL     1     -11.331  13.256  66.227  1.00  0.00    -0.336 A  
HETATM   11  N   UNL     1     -12.229  13.488  63.926  1.00  0.00    -0.436 N  
HETATM   12  C   UNL     1     -11.164  15.400  65.093  1.00  0.00    -0.354 A  
ENDBRANCH   2   4
BRANCH   2  13
HETATM   13  C   UNL     1      -7.879  15.679  68.289  1.00  0.00    -0.128 C  
BRANCH  13  14
HETATM   14  N   UNL     1      -7.436  17.065  68.006  1.00  0.00    -0.178 N  
HETATM   15  C   UNL     1      -7.399  19.543  68.295  1.00  0.00    -0.311 C  
HETATM   16  C   UNL     1      -8.034  18.174  68.579  1.00  0.00    -0.300 C  
HETATM   17  H   UNL     1      -6.656  17.208  67.363  1.00  0.00     0.000 HD 
HETATM   18  O   UNL     1      -9.018  18.068  69.313  1.00  0.00     0.042 OA 
HETATM   19 CL   UNL     1      -6.460  19.534  66.787  1.00  0.00    -0.190 Cl 
HETATM   20 CL   UNL     1      -6.375  20.003  69.667  1.00  0.00    -0.383 Cl 
ENDBRANCH  13  14
BRANCH  13  21
HETATM   21  C   UNL     1      -7.472  14.704  67.161  1.00  0.00     0.000 C  
BRANCH  21  22
HETATM   22  O   UNL     1      -6.380  13.846  67.547  1.00  0.00    -0.276 OA 
BRANCH  22  23
HETATM   23  C   UNL     1      -6.719  12.781  68.320  1.00  0.00    -0.087 C  
HETATM   24  O   UNL     1      -6.375  12.617  69.484  1.00  0.00    -0.117 OA 
BRANCH  23  25
HETATM   25  C   UNL     1      -7.594  11.818  67.563  1.00  0.00    -0.135 C  
BRANCH  25  26
HETATM   26  C   UNL     1      -8.069  10.680  68.445  1.00  0.00    -0.123 C  
HETATM   27  C   UNL     1      -9.550  10.423  68.323  1.00  0.00    -0.144 C  
HETATM   28  O   UNL     1      -9.938   9.985  67.108  1.00  0.00    -0.183 OA 
HETATM   29  O   UNL     1     -10.329  10.568  69.251  1.00  0.00    -0.206 OA 
ENDBRANCH  25  26
ENDBRANCH  23  25
ENDBRANCH  22  23
ENDBRANCH  21  22
ENDBRANCH  13  21
ENDBRANCH   2  13
TORSDOF 8
ENDMDL
MODEL      289
REMARK 921   NORMALIZED FREE ENERGY PREDICTED BY IDOCK:   -3.78 KCAL/MOL
REMARK 922        TOTAL FREE ENERGY PREDICTED BY IDOCK:   -7.01 KCAL/MOL
REMARK 923 INTER-LIGAND FREE ENERGY PREDICTED BY IDOCK:   -5.02 KCAL/MOL
REMARK 924 INTRA-LIGAND FREE ENERGY PREDICTED BY IDOCK:   -1.99 KCAL/MOL
REMARK 927      BINDING AFFINITY PREDICTED BY RF-SCORE:    0.00 PKD
ROOT
HETATM    1  O   UNL     1      -7.377   7.833  72.458  1.00  0.00    -0.074 OA 
HETATM    2  C   UNL     1      -7.944   8.480  71.310  1.00  0.00    -0.132 C  
HETATM    3  H   UNL     1      -7.745   8.203  73.251  1.00  0.00     0.000 HD 
ENDROOT
BRANCH   2   4
HETATM    4  C   UNL     1      -9.446   8.345  71.449  1.00  0.00    -0.251 A  
HETATM    5  C   UNL     1     -12.235   8.032  71.558  1.00  0.00    -0.299 A  
HETATM    6  C   UNL     1     -10.014   7.124  71.853  1.00  0.00    -0.180 A  
HETATM    7  O   UNL     1     -14.134   6.733  71.867  1.00  0.00    -0.237 OA 
HETATM    8  O   UNL     1     -14.397   8.826  71.267  1.00  0.00    -0.310 OA 
HETATM    9  C   UNL     1     -10.302   9.412  71.120  1.00  0.00    -0.377 A  
HETATM   10  C   UNL     1     -11.401   6.963  71.909  1.00  0.00    -0.297 A  
HETATM   11  N   UNL     1     -13.693   7.850  71.565  1.00  0.00    -0.342 N  
HETATM   12  C   UNL     1     -11.690   9.262  71.175  1.00  0.00    -0.394 A  
ENDBRANCH   2   4
BRANCH   2  13
HETATM   13  C   UNL     1      -7.342   7.875  70.011  1.00  0.00    -0.070 C  
BRANCH  13  14
HETATM   14  N   UNL     1      -8.443   7.549  69.072  1.00  0.00    -0.132 N  
HETATM   15  C   UNL     1      -9.669   7.607  66.900  1.00  0.00    -0.213 C  
HETATM   16  C   UNL     1      -8.550   8.122  67.817  1.00  0.00    -0.131 C  
HETATM   17  H   UNL     1      -9.151   6.875  69.364  1.00  0.00     0.000 HD 
HETATM   18  O   UNL     1      -7.763   8.990  67.435  1.00  0.00    -0.091 OA 
HETATM   19 CL   UNL     1     -11.000   6.884  67.828  1.00  0.00    -0.300 Cl 
HETATM   20 CL   UNL     1      -8.989   6.431  65.761  1.00  0.00    -0.116 Cl 
ENDBRANCH  13  14
BRANCH  13  21
HETATM   21  C   UNL     1      -6.479   6.635  70.336  1.00  0.00    -0.044 C  
BRANCH  21  22
HETATM   22  O   UNL     1      -7.208   5.403  70.176  1.00  0.00    -0.063 OA 
BRANCH  22  23
HETATM   23  C   UNL     1      -7.417   4.695  71.317  1.00  0.00    -0.075 C  
HETATM   24  O   UNL     1      -6.971   4.987  72.419  1.00  0.00    -0.066 OA 
BRANCH  23  25
HETATM   25  C   UNL     1      -8.289   3.495  71.058  1.00  0.00    -0.088 C  
BRANCH  25  26
HETATM   26  C   UNL     1      -9.463   3.840  70.163  1.00  0.00    -0.259 C  
HETATM   27  C   UNL     1      -9.404   3.146  68.825  1.00  0.00    -0.165 C  
HETATM   28  O   UNL     1      -9.517   1.803  68.893  1.00  0.00    -0.150 OA 
HETATM   29  O   UNL     1      -9.293   3.746  67.768  1.00  0.00    -0.162 OA 
ENDBRANCH  25  26
ENDBRANCH  23  25
ENDBRANCH  22  23
ENDBRANCH  21  22
ENDBRANCH  13  21
ENDBRANCH   2  13
TORSDOF 8
ENDMDL
MODEL      290
REMARK 921   NORMALIZED FREE ENERGY PREDICTED BY IDOCK:   -3.77 KCAL/MOL
REMARK 922        TOTAL FREE ENERGY PREDICTED BY IDOCK:   -7.00 KCAL/MOL
REMARK 923 INTER-LIGAND FREE ENERGY PREDICTED BY IDOCK:   -6.15 KCAL/MOL
REMARK 924 INTRA-LIGAND FREE ENERGY PREDICTED BY IDOCK:   -0.85 KCAL/MOL
REMARK 927      BINDING AFFINITY PREDICTED BY RF-SCORE:    0.00 PKD
ROOT
HETATM    1  O   UNL     1      -9.797   4.754  70.380  1.00  0.00    -0.201 OA 
HETATM    2  C   UNL     1      -9.481   6.044  69.840  1.00  0.00    -0.151 C  
HETATM    3  H   UNL     1      -9.875   4.810  71.325  1.00  0.00     0.000 HD 
ENDROOT
BRANCH   2   4
HETATM    4  C   UNL     1     -10.553   6.987  70.344  1.00  0.00    -0.244 A  
HETATM    5  C   UNL     1     -12.454   8.755  71.415  1.00  0.00    -0.303 A  
HETATM    6  C   UNL     1     -10.398   8.377  70.201  1.00  0.00    -0.214 A  
HETATM    7  O   UNL     1     -13.197  10.896  71.918  1.00  0.00    -0.467 OA 
HETATM    8  O   UNL     1     -14.402   9.194  72.598  1.00  0.00    -0.561 OA 
HETATM    9  C   UNL     1     -11.689   6.500  71.016  1.00  0.00    -0.402 A  
HETATM   10  C   UNL     1     -11.341   9.261  70.733  1.00  0.00    -0.349 A  
HETATM   11  N   UNL     1     -13.420   9.682  72.020  1.00  0.00    -0.427 N  
HETATM   12  C   UNL     1     -12.639   7.375  71.549  1.00  0.00    -0.401 A  
ENDBRANCH   2   4
BRANCH   2  13
HETATM   13  C   UNL     1      -9.353   5.952  68.294  1.00  0.00    -0.116 C  
BRANCH  13  14
HETATM   14  N   UNL     1      -9.065   4.548  67.913  1.00  0.00    -0.117 N  
HETATM   15  C   UNL     1      -8.913   2.599  66.363  1.00  0.00    -0.139 C  
HETATM   16  C   UNL     1      -9.374   4.032  66.666  1.00  0.00    -0.184 C  
HETATM   17  H   UNL     1      -8.621   3.937  68.599  1.00  0.00     0.000 HD 
HETATM   18  O   UNL     1      -9.969   4.703  65.821  1.00  0.00    -0.195 OA 
HETATM   19 CL   UNL     1      -8.679   1.654  67.848  1.00  0.00    -0.103 Cl 
HETATM   20 CL   UNL     1      -7.415   2.661  65.417  1.00  0.00    -0.071 Cl 
ENDBRANCH  13  14
BRANCH  13  21
HETATM   21  C   UNL     1      -8.266   6.922  67.778  1.00  0.00    -0.117 C  
BRANCH  21  22
HETATM   22  O   UNL     1      -8.492   7.321  66.412  1.00  0.00    -0.117 OA 
BRANCH  22  23
HETATM   23  C   UNL     1      -9.138   8.505  66.248  1.00  0.00    -0.185 C  
HETATM   24  O   UNL     1     -10.352   8.638  66.152  1.00  0.00    -0.123 OA 
BRANCH  23  25
HETATM   25  C   UNL     1      -8.166   9.654  66.215  1.00  0.00    -0.116 C  
BRANCH  25  26
HETATM   26  C   UNL     1      -8.699  10.815  65.400  1.00  0.00    -0.190 C  
HETATM   27  C   UNL     1      -9.373  11.865  66.248  1.00  0.00    -0.227 C  
HETATM   28  O   UNL     1      -8.544  12.506  67.098  1.00  0.00    -0.188 OA 
HETATM   29  O   UNL     1     -10.559  12.136  66.155  1.00  0.00    -0.243 OA 
ENDBRANCH  25  26
ENDBRANCH  23  25
ENDBRANCH  22  23
ENDBRANCH  21  22
ENDBRANCH  13  21
ENDBRANCH   2  13
TORSDOF 8
ENDMDL
MODEL      291
REMARK 921   NORMALIZED FREE ENERGY PREDICTED BY IDOCK:   -3.76 KCAL/MOL
REMARK 922        TOTAL FREE ENERGY PREDICTED BY IDOCK:   -6.99 KCAL/MOL
REMARK 923 INTER-LIGAND FREE ENERGY PREDICTED BY IDOCK:   -5.90 KCAL/MOL
REMARK 924 INTRA-LIGAND FREE ENERGY PREDICTED BY IDOCK:   -1.09 KCAL/MOL
REMARK 927      BINDING AFFINITY PREDICTED BY RF-SCORE:    0.00 PKD
ROOT
HETATM    1  O   UNL     1      -9.465   6.155  66.257  1.00  0.00    -0.185 OA 
HETATM    2  C   UNL     1      -8.789   7.061  67.139  1.00  0.00    -0.121 C  
HETATM    3  H   UNL     1      -9.598   5.321  66.691  1.00  0.00     0.000 HD 
ENDROOT
BRANCH   2   4
HETATM    4  C   UNL     1      -9.618   7.117  68.405  1.00  0.00    -0.137 A  
HETATM    5  C   UNL     1     -11.252   7.330  70.679  1.00  0.00    -0.274 A  
HETATM    6  C   UNL     1     -10.793   6.353  68.516  1.00  0.00    -0.382 A  
HETATM    7  O   UNL     1     -13.188   6.830  71.857  1.00  0.00    -0.291 OA 
HETATM    8  O   UNL     1     -11.772   8.249  72.747  1.00  0.00    -0.397 OA 
HETATM    9  C   UNL     1      -9.267   7.974  69.463  1.00  0.00    -0.152 A  
HETATM   10  C   UNL     1     -11.610   6.456  69.646  1.00  0.00    -0.351 A  
HETATM   11  N   UNL     1     -12.134   7.480  71.844  1.00  0.00    -0.296 N  
HETATM   12  C   UNL     1     -10.075   8.083  70.598  1.00  0.00    -0.203 A  
ENDBRANCH   2   4
BRANCH   2  13
HETATM   13  C   UNL     1      -8.571   8.426  66.428  1.00  0.00    -0.127 C  
BRANCH  13  14
HETATM   14  N   UNL     1      -7.621   9.240  67.223  1.00  0.00    -0.091 N  
HETATM   15  C   UNL     1      -5.512  10.505  67.646  1.00  0.00    -0.043 C  
HETATM   16  C   UNL     1      -6.349   9.555  66.777  1.00  0.00    -0.066 C  
HETATM   17  H   UNL     1      -7.917   9.584  68.138  1.00  0.00     0.000 HD 
HETATM   18  O   UNL     1      -5.912   9.115  65.712  1.00  0.00    -0.050 OA 
HETATM   19 CL   UNL     1      -6.042  10.487  69.341  1.00  0.00    -0.042 Cl 
HETATM   20 CL   UNL     1      -5.614  12.144  66.975  1.00  0.00    -0.120 Cl 
ENDBRANCH  13  14
BRANCH  13  21
HETATM   21  C   UNL     1      -9.918   9.153  66.221  1.00  0.00    -0.282 C  
BRANCH  21  22
HETATM   22  O   UNL     1      -9.887  10.511  66.702  1.00  0.00    -0.186 OA 
BRANCH  22  23
HETATM   23  C   UNL     1     -10.790  10.808  67.673  1.00  0.00    -0.279 C  
HETATM   24  O   UNL     1     -11.756  10.117  67.972  1.00  0.00    -0.194 OA 
BRANCH  23  25
HETATM   25  C   UNL     1     -10.446  12.105  68.356  1.00  0.00    -0.242 C  
BRANCH  25  26
HETATM   26  C   UNL     1     -11.639  12.687  69.087  1.00  0.00    -0.374 C  
HETATM   27  C   UNL     1     -11.824  14.161  68.829  1.00  0.00    -0.349 C  
HETATM   28  O   UNL     1     -12.133  14.464  67.551  1.00  0.00    -0.377 OA 
HETATM   29  O   UNL     1     -11.732  15.007  69.704  1.00  0.00    -0.284 OA 
ENDBRANCH  25  26
ENDBRANCH  23  25
ENDBRANCH  22  23
ENDBRANCH  21  22
ENDBRANCH  13  21
ENDBRANCH   2  13
TORSDOF 8
ENDMDL
MODEL      292
REMARK 921   NORMALIZED FREE ENERGY PREDICTED BY IDOCK:   -3.72 KCAL/MOL
REMARK 922        TOTAL FREE ENERGY PREDICTED BY IDOCK:   -6.93 KCAL/MOL
REMARK 923 INTER-LIGAND FREE ENERGY PREDICTED BY IDOCK:   -5.64 KCAL/MOL
REMARK 924 INTRA-LIGAND FREE ENERGY PREDICTED BY IDOCK:   -1.29 KCAL/MOL
REMARK 927      BINDING AFFINITY PREDICTED BY RF-SCORE:    0.00 PKD
ROOT
HETATM    1  O   UNL     1      -8.210  11.211  68.620  1.00  0.00    -0.141 OA 
HETATM    2  C   UNL     1      -9.578  10.836  68.836  1.00  0.00    -0.195 C  
HETATM    3  H   UNL     1      -7.854  11.601  69.408  1.00  0.00     0.000 HD 
ENDROOT
BRANCH   2   4
HETATM    4  C   UNL     1      -9.582   9.941  70.057  1.00  0.00    -0.260 A  
HETATM    5  C   UNL     1      -9.596   8.154  72.224  1.00  0.00    -0.251 A  
HETATM    6  C   UNL     1      -8.385   9.369  70.520  1.00  0.00    -0.233 A  
HETATM    7  O   UNL     1      -8.532   6.657  73.644  1.00  0.00    -0.119 OA 
HETATM    8  O   UNL     1     -10.697   6.933  73.863  1.00  0.00    -0.323 OA 
HETATM    9  C   UNL     1     -10.783   9.617  70.713  1.00  0.00    -0.401 A  
HETATM   10  C   UNL     1      -8.386   8.478  71.598  1.00  0.00    -0.218 A  
HETATM   11  N   UNL     1      -9.609   7.178  73.322  1.00  0.00    -0.176 N  
HETATM   12  C   UNL     1     -10.796   8.730  71.793  1.00  0.00    -0.416 A  
ENDBRANCH   2   4
BRANCH   2  13
HETATM   13  C   UNL     1     -10.161  10.197  67.545  1.00  0.00    -0.201 C  
BRANCH  13  14
HETATM   14  N   UNL     1      -9.044   9.750  66.678  1.00  0.00    -0.145 N  
HETATM   15  C   UNL     1      -7.506   8.090  65.628  1.00  0.00    -0.081 C  
HETATM   16  C   UNL     1      -8.587   8.444  66.659  1.00  0.00    -0.120 C  
HETATM   17  H   UNL     1      -8.593  10.434  66.069  1.00  0.00     0.000 HD 
HETATM   18  O   UNL     1      -9.048   7.589  67.417  1.00  0.00    -0.125 OA 
HETATM   19 CL   UNL     1      -6.579   9.520  65.128  1.00  0.00    -0.079 Cl 
HETATM   20 CL   UNL     1      -8.272   7.318  64.227  1.00  0.00    -0.038 Cl 
ENDBRANCH  13  14
BRANCH  13  21
HETATM   21  C   UNL     1     -11.091  11.193  66.816  1.00  0.00    -0.214 C  
BRANCH  21  22
HETATM   22  O   UNL     1     -10.426  12.430  66.496  1.00  0.00    -0.227 OA 
BRANCH  22  23
HETATM   23  C   UNL     1     -10.984  13.549  67.030  1.00  0.00    -0.288 C  
HETATM   24  O   UNL     1     -12.186  13.766  67.111  1.00  0.00    -0.391 OA 
BRANCH  23  25
HETATM   25  C   UNL     1      -9.926  14.497  67.530  1.00  0.00    -0.224 C  
BRANCH  25  26
HETATM   26  C   UNL     1      -8.550  14.119  67.019  1.00  0.00    -0.204 C  
HETATM   27  C   UNL     1      -7.444  14.905  67.679  1.00  0.00    -0.185 C  
HETATM   28  O   UNL     1      -7.304  14.662  68.998  1.00  0.00    -0.120 OA 
HETATM   29  O   UNL     1      -6.717  15.672  67.069  1.00  0.00    -0.267 OA 
ENDBRANCH  25  26
ENDBRANCH  23  25
ENDBRANCH  22  23
ENDBRANCH  21  22
ENDBRANCH  13  21
ENDBRANCH   2  13
TORSDOF 8
ENDMDL
MODEL      293
REMARK 921   NORMALIZED FREE ENERGY PREDICTED BY IDOCK:   -3.70 KCAL/MOL
REMARK 922        TOTAL FREE ENERGY PREDICTED BY IDOCK:   -6.90 KCAL/MOL
REMARK 923 INTER-LIGAND FREE ENERGY PREDICTED BY IDOCK:   -6.90 KCAL/MOL
REMARK 924 INTRA-LIGAND FREE ENERGY PREDICTED BY IDOCK:    0.00 KCAL/MOL
REMARK 927      BINDING AFFINITY PREDICTED BY RF-SCORE:    0.00 PKD
ROOT
HETATM    1  O   UNL     1     -12.186  16.089  68.765  1.00  0.00    -0.443 OA 
HETATM    2  C   UNL     1     -11.041  15.225  68.731  1.00  0.00    -0.270 C  
HETATM    3  H   UNL     1     -12.935  15.647  68.384  1.00  0.00     0.000 HD 
ENDROOT
BRANCH   2   4
HETATM    4  C   UNL     1     -11.457  13.945  69.425  1.00  0.00    -0.334 A  
HETATM    5  C   UNL     1     -12.359  11.567  70.618  1.00  0.00    -0.364 A  
HETATM    6  C   UNL     1     -11.151  12.698  68.854  1.00  0.00    -0.307 A  
HETATM    7  O   UNL     1     -12.628   9.262  70.627  1.00  0.00    -0.082 OA 
HETATM    8  O   UNL     1     -13.527  10.417  72.261  1.00  0.00    -0.363 OA 
HETATM    9  C   UNL     1     -12.206  13.978  70.616  1.00  0.00    -0.442 A  
HETATM   10  C   UNL     1     -11.598  11.511  69.443  1.00  0.00    -0.388 A  
HETATM   11  N   UNL     1     -12.875  10.326  71.211  1.00  0.00    -0.389 N  
HETATM   12  C   UNL     1     -12.655  12.798  71.214  1.00  0.00    -0.347 A  
ENDBRANCH   2   4
BRANCH   2  13
HETATM   13  C   UNL     1      -9.815  15.948  69.353  1.00  0.00    -0.280 C  
BRANCH  13  14
HETATM   14  N   UNL     1      -9.514  17.164  68.559  1.00  0.00    -0.274 N  
HETATM   15  C   UNL     1      -9.405  18.560  66.495  1.00  0.00    -0.313 C  
HETATM   16  C   UNL     1      -9.631  17.205  67.180  1.00  0.00    -0.255 C  
HETATM   17  H   UNL     1      -9.208  18.005  69.049  1.00  0.00     0.000 HD 
HETATM   18  O   UNL     1      -9.933  16.204  66.529  1.00  0.00    -0.253 OA 
HETATM   19 CL   UNL     1      -8.398  19.640  67.483  1.00  0.00    -0.328 Cl 
HETATM   20 CL   UNL     1     -10.976  19.307  66.154  1.00  0.00    -0.306 Cl 
ENDBRANCH  13  14
BRANCH  13  21
HETATM   21  C   UNL     1      -8.601  14.996  69.429  1.00  0.00    -0.121 C  
BRANCH  21  22
HETATM   22  O   UNL     1      -8.536  14.100  68.302  1.00  0.00    -0.156 OA 
BRANCH  22  23
HETATM   23  C   UNL     1      -7.399  13.362  68.207  1.00  0.00    -0.113 C  
HETATM   24  O   UNL     1      -6.261  13.808  68.273  1.00  0.00    -0.087 OA 
BRANCH  23  25
HETATM   25  C   UNL     1      -7.716  11.901  68.023  1.00  0.00    -0.132 C  
BRANCH  25  26
HETATM   26  C   UNL     1      -7.277  11.078  69.217  1.00  0.00    -0.124 C  
HETATM   27  C   UNL     1      -8.031   9.778  69.343  1.00  0.00    -0.125 C  
HETATM   28  O   UNL     1      -7.807   8.909  68.336  1.00  0.00    -0.101 OA 
HETATM   29  O   UNL     1      -8.759   9.519  70.287  1.00  0.00    -0.207 OA 
ENDBRANCH  25  26
ENDBRANCH  23  25
ENDBRANCH  22  23
ENDBRANCH  21  22
ENDBRANCH  13  21
ENDBRANCH   2  13
TORSDOF 8
ENDMDL
MODEL      294
REMARK 921   NORMALIZED FREE ENERGY PREDICTED BY IDOCK:   -3.69 KCAL/MOL
REMARK 922        TOTAL FREE ENERGY PREDICTED BY IDOCK:   -6.89 KCAL/MOL
REMARK 923 INTER-LIGAND FREE ENERGY PREDICTED BY IDOCK:   -5.93 KCAL/MOL
REMARK 924 INTRA-LIGAND FREE ENERGY PREDICTED BY IDOCK:   -0.96 KCAL/MOL
REMARK 927      BINDING AFFINITY PREDICTED BY RF-SCORE:    0.00 PKD
ROOT
HETATM    1  O   UNL     1      -8.384  11.277  65.851  1.00  0.00    -0.303 OA 
HETATM    2  C   UNL     1      -7.675  10.404  66.741  1.00  0.00    -0.114 C  
HETATM    3  H   UNL     1      -8.163  11.068  64.951  1.00  0.00     0.000 HD 
ENDROOT
BRANCH   2   4
HETATM    4  C   UNL     1      -8.009   8.993  66.305  1.00  0.00    -0.103 A  
HETATM    5  C   UNL     1      -8.632   6.333  65.651  1.00  0.00    -0.139 A  
HETATM    6  C   UNL     1      -9.345   8.557  66.280  1.00  0.00    -0.287 A  
HETATM    7  O   UNL     1     -10.145   4.588  65.418  1.00  0.00    -0.203 OA 
HETATM    8  O   UNL     1      -8.019   4.169  65.077  1.00  0.00    -0.091 OA 
HETATM    9  C   UNL     1      -6.993   8.077  65.976  1.00  0.00    -0.058 A  
HETATM   10  C   UNL     1      -9.660   7.234  65.955  1.00  0.00     0.084 A  
HETATM   11  N   UNL     1      -8.955   4.930  65.361  1.00  0.00    -0.148 N  
HETATM   12  C   UNL     1      -7.297   6.753  65.648  1.00  0.00    -0.079 A  
ENDBRANCH   2   4
BRANCH   2  13
HETATM   13  C   UNL     1      -8.037  10.745  68.214  1.00  0.00    -0.121 C  
BRANCH  13  14
HETATM   14  N   UNL     1      -7.708   9.583  69.075  1.00  0.00    -0.074 N  
HETATM   15  C   UNL     1      -6.912   8.443  71.147  1.00  0.00    -0.063 C  
HETATM   16  C   UNL     1      -7.085   9.715  70.304  1.00  0.00    -0.127 C  
HETATM   17  H   UNL     1      -7.952   8.648  68.749  1.00  0.00     0.000 HD 
HETATM   18  O   UNL     1      -6.709  10.812  70.721  1.00  0.00    -0.281 OA 
HETATM   19 CL   UNL     1      -6.923   6.979  70.140  1.00  0.00    -0.064 Cl 
HETATM   20 CL   UNL     1      -8.200   8.376  72.364  1.00  0.00    -0.216 Cl 
ENDBRANCH  13  14
BRANCH  13  21
HETATM   21  C   UNL     1      -9.524  11.146  68.331  1.00  0.00    -0.189 C  
BRANCH  21  22
HETATM   22  O   UNL     1      -9.700  12.572  68.432  1.00  0.00    -0.221 OA 
BRANCH  22  23
HETATM   23  C   UNL     1     -10.917  13.039  68.047  1.00  0.00    -0.250 C  
HETATM   24  O   UNL     1     -11.961  12.881  68.668  1.00  0.00    -0.313 OA 
BRANCH  23  25
HETATM   25  C   UNL     1     -10.821  13.800  66.751  1.00  0.00    -0.284 C  
BRANCH  25  26
HETATM   26  C   UNL     1     -12.147  14.428  66.371  1.00  0.00    -0.390 C  
HETATM   27  C   UNL     1     -12.648  13.971  65.024  1.00  0.00    -0.390 C  
HETATM   28  O   UNL     1     -12.959  12.660  64.965  1.00  0.00    -0.812 OA 
HETATM   29  O   UNL     1     -12.790  14.725  64.076  1.00  0.00    -0.697 OA 
ENDBRANCH  25  26
ENDBRANCH  23  25
ENDBRANCH  22  23
ENDBRANCH  21  22
ENDBRANCH  13  21
ENDBRANCH   2  13
TORSDOF 8
ENDMDL
MODEL      295
REMARK 921   NORMALIZED FREE ENERGY PREDICTED BY IDOCK:   -3.69 KCAL/MOL
REMARK 922        TOTAL FREE ENERGY PREDICTED BY IDOCK:   -6.88 KCAL/MOL
REMARK 923 INTER-LIGAND FREE ENERGY PREDICTED BY IDOCK:   -6.56 KCAL/MOL
REMARK 924 INTRA-LIGAND FREE ENERGY PREDICTED BY IDOCK:   -0.33 KCAL/MOL
REMARK 927      BINDING AFFINITY PREDICTED BY RF-SCORE:    0.00 PKD
ROOT
HETATM    1  O   UNL     1      -8.230  11.279  68.493  1.00  0.00    -0.138 OA 
HETATM    2  C   UNL     1      -9.619  10.985  68.694  1.00  0.00    -0.195 C  
HETATM    3  H   UNL     1      -7.860  11.647  69.286  1.00  0.00     0.000 HD 
ENDROOT
BRANCH   2   4
HETATM    4  C   UNL     1      -9.689  10.092  69.916  1.00  0.00    -0.245 A  
HETATM    5  C   UNL     1      -9.848   8.310  72.081  1.00  0.00    -0.272 A  
HETATM    6  C   UNL     1      -8.561   9.360  70.324  1.00  0.00    -0.249 A  
HETATM    7  O   UNL     1      -8.933   6.676  73.452  1.00  0.00    -0.123 OA 
HETATM    8  O   UNL     1     -11.028   7.241  73.770  1.00  0.00    -0.255 OA 
HETATM    9  C   UNL     1     -10.893   9.930  70.626  1.00  0.00    -0.400 A  
HETATM   10  C   UNL     1      -8.634   8.471  71.401  1.00  0.00    -0.224 A  
HETATM   11  N   UNL     1      -9.943   7.339  73.179  1.00  0.00    -0.221 N  
HETATM   12  C   UNL     1     -10.977   9.046  71.705  1.00  0.00    -0.443 A  
ENDBRANCH   2   4
BRANCH   2  13
HETATM   13  C   UNL     1     -10.225  10.381  67.397  1.00  0.00    -0.214 C  
BRANCH  13  14
HETATM   14  N   UNL     1      -9.176   9.613  66.684  1.00  0.00    -0.147 N  
HETATM   15  C   UNL     1      -7.932   8.774  64.690  1.00  0.00    -0.135 C  
HETATM   16  C   UNL     1      -9.140   9.496  65.305  1.00  0.00    -0.224 C  
HETATM   17  H   UNL     1      -8.449   9.151  67.232  1.00  0.00     0.000 HD 
HETATM   18  O   UNL     1     -10.024   9.977  64.594  1.00  0.00    -0.309 OA 
HETATM   19 CL   UNL     1      -7.172   7.660  65.845  1.00  0.00    -0.068 Cl 
HETATM   20 CL   UNL     1      -6.764   9.980  64.121  1.00  0.00    -0.127 Cl 
ENDBRANCH  13  14
BRANCH  13  21
HETATM   21  C   UNL     1     -10.827  11.492  66.508  1.00  0.00    -0.288 C  
BRANCH  21  22
HETATM   22  O   UNL     1     -10.095  12.729  66.607  1.00  0.00    -0.235 OA 
BRANCH  22  23
HETATM   23  C   UNL     1     -10.422  13.677  65.689  1.00  0.00    -0.299 C  
HETATM   24  O   UNL     1     -10.502  13.491  64.482  1.00  0.00    -0.418 OA 
BRANCH  23  25
HETATM   25  C   UNL     1     -10.694  15.002  66.352  1.00  0.00    -0.322 C  
BRANCH  25  26
HETATM   26  C   UNL     1     -10.222  15.014  67.792  1.00  0.00    -0.236 C  
HETATM   27  C   UNL     1     -10.793  16.163  68.586  1.00  0.00    -0.311 C  
HETATM   28  O   UNL     1     -12.130  16.108  68.754  1.00  0.00    -0.184 OA 
HETATM   29  O   UNL     1     -10.104  17.050  69.062  1.00  0.00    -0.278 OA 
ENDBRANCH  25  26
ENDBRANCH  23  25
ENDBRANCH  22  23
ENDBRANCH  21  22
ENDBRANCH  13  21
ENDBRANCH   2  13
TORSDOF 8
ENDMDL
MODEL      296
REMARK 921   NORMALIZED FREE ENERGY PREDICTED BY IDOCK:   -3.68 KCAL/MOL
REMARK 922        TOTAL FREE ENERGY PREDICTED BY IDOCK:   -6.87 KCAL/MOL
REMARK 923 INTER-LIGAND FREE ENERGY PREDICTED BY IDOCK:   -7.37 KCAL/MOL
REMARK 924 INTRA-LIGAND FREE ENERGY PREDICTED BY IDOCK:    0.49 KCAL/MOL
REMARK 927      BINDING AFFINITY PREDICTED BY RF-SCORE:    0.00 PKD
ROOT
HETATM    1  O   UNL     1      -9.144  11.953  69.090  1.00  0.00    -0.364 OA 
HETATM    2  C   UNL     1      -9.867  11.631  67.894  1.00  0.00    -0.184 C  
HETATM    3  H   UNL     1      -9.615  11.632  69.848  1.00  0.00     0.000 HD 
ENDROOT
BRANCH   2   4
HETATM    4  C   UNL     1     -10.092  10.133  67.927  1.00  0.00    -0.207 A  
HETATM    5  C   UNL     1     -10.353   7.339  68.028  1.00  0.00    -0.197 A  
HETATM    6  C   UNL     1     -10.346   9.483  69.146  1.00  0.00    -0.218 A  
HETATM    7  O   UNL     1     -10.597   5.352  69.202  1.00  0.00    -0.234 OA 
HETATM    8  O   UNL     1     -10.343   5.245  67.026  1.00  0.00    -0.212 OA 
HETATM    9  C   UNL     1      -9.992   9.360  66.756  1.00  0.00    -0.305 A  
HETATM   10  C   UNL     1     -10.476   8.092  69.202  1.00  0.00    -0.217 A  
HETATM   11  N   UNL     1     -10.437   5.874  68.090  1.00  0.00    -0.212 N  
HETATM   12  C   UNL     1     -10.123   7.970  66.800  1.00  0.00    -0.357 A  
ENDBRANCH   2   4
BRANCH   2  13
HETATM   13  C   UNL     1      -9.095  12.157  66.652  1.00  0.00    -0.206 C  
BRANCH  13  14
HETATM   14  N   UNL     1      -8.311  13.354  67.040  1.00  0.00    -0.370 N  
HETATM   15  C   UNL     1      -7.864  15.478  68.270  1.00  0.00    -0.127 C  
HETATM   16  C   UNL     1      -8.822  14.355  67.848  1.00  0.00    -0.179 C  
HETATM   17  H   UNL     1      -7.354  13.444  66.697  1.00  0.00     0.000 HD 
HETATM   18  O   UNL     1      -9.990  14.333  68.239  1.00  0.00    -0.225 OA 
HETATM   19 CL   UNL     1      -6.511  15.653  67.133  1.00  0.00    -0.085 Cl 
HETATM   20 CL   UNL     1      -7.267  15.146  69.907  1.00  0.00    -0.152 Cl 
ENDBRANCH  13  14
BRANCH  13  21
HETATM   21  C   UNL     1     -10.070  12.460  65.492  1.00  0.00    -0.267 C  
BRANCH  21  22
HETATM   22  O   UNL     1     -11.259  13.141  65.939  1.00  0.00    -0.284 OA 
BRANCH  22  23
HETATM   23  C   UNL     1     -11.660  14.184  65.167  1.00  0.00    -0.344 C  
HETATM   24  O   UNL     1     -12.779  14.316  64.687  1.00  0.00    -0.655 OA 
BRANCH  23  25
HETATM   25  C   UNL     1     -10.548  15.182  64.983  1.00  0.00    -0.439 C  
BRANCH  25  26
HETATM   26  C   UNL     1     -11.020  16.600  65.234  1.00  0.00    -0.127 C  
HETATM   27  C   UNL     1     -10.144  17.346  66.210  1.00  0.00    -0.322 C  
HETATM   28  O   UNL     1      -8.889  17.567  65.769  1.00  0.00    -0.514 OA 
HETATM   29  O   UNL     1     -10.542  17.743  67.293  1.00  0.00    -0.362 OA 
ENDBRANCH  25  26
ENDBRANCH  23  25
ENDBRANCH  22  23
ENDBRANCH  21  22
ENDBRANCH  13  21
ENDBRANCH   2  13
TORSDOF 8
ENDMDL
MODEL      297
REMARK 921   NORMALIZED FREE ENERGY PREDICTED BY IDOCK:   -3.66 KCAL/MOL
REMARK 922        TOTAL FREE ENERGY PREDICTED BY IDOCK:   -6.85 KCAL/MOL
REMARK 923 INTER-LIGAND FREE ENERGY PREDICTED BY IDOCK:   -6.53 KCAL/MOL
REMARK 924 INTRA-LIGAND FREE ENERGY PREDICTED BY IDOCK:   -0.31 KCAL/MOL
REMARK 927      BINDING AFFINITY PREDICTED BY RF-SCORE:    0.00 PKD
ROOT
HETATM    1  O   UNL     1     -12.488  14.825  70.929  1.00  0.00    -0.286 OA 
HETATM    2  C   UNL     1     -11.541  14.044  70.188  1.00  0.00    -0.204 C  
HETATM    3  H   UNL     1     -12.046  15.546  71.359  1.00  0.00     0.000 HD 
ENDROOT
BRANCH   2   4
HETATM    4  C   UNL     1     -10.830  15.008  69.262  1.00  0.00    -0.263 A  
HETATM    5  C   UNL     1      -9.515  16.907  67.664  1.00  0.00    -0.241 A  
HETATM    6  C   UNL     1      -9.433  15.146  69.319  1.00  0.00    -0.212 A  
HETATM    7  O   UNL     1      -7.606  18.053  67.008  1.00  0.00    -0.206 OA 
HETATM    8  O   UNL     1      -9.521  18.625  66.103  1.00  0.00    -0.443 OA 
HETATM    9  C   UNL     1     -11.554  15.826  68.375  1.00  0.00    -0.343 A  
HETATM   10  C   UNL     1      -8.773  16.089  68.526  1.00  0.00    -0.195 A  
HETATM   11  N   UNL     1      -8.831  17.935  66.868  1.00  0.00    -0.247 N  
HETATM   12  C   UNL     1     -10.905  16.771  67.576  1.00  0.00    -0.216 A  
ENDBRANCH   2   4
BRANCH   2  13
HETATM   13  C   UNL     1     -12.264  12.862  69.486  1.00  0.00    -0.119 C  
BRANCH  13  14
HETATM   14  N   UNL     1     -12.113  11.640  70.312  1.00  0.00    -0.358 N  
HETATM   15  C   UNL     1     -12.711  10.034  72.125  1.00  0.00    -0.265 C  
HETATM   16  C   UNL     1     -12.889  11.392  71.431  1.00  0.00    -0.397 C  
HETATM   17  H   UNL     1     -11.408  10.952  70.044  1.00  0.00     0.000 HD 
HETATM   18  O   UNL     1     -13.711  12.214  71.841  1.00  0.00    -0.183 OA 
HETATM   19 CL   UNL     1     -11.117   9.326  71.791  1.00  0.00    -0.439 Cl 
HETATM   20 CL   UNL     1     -14.005   8.941  71.599  1.00  0.00    -0.436 Cl 
ENDBRANCH  13  14
BRANCH  13  21
HETATM   21  C   UNL     1     -11.716  12.660  68.055  1.00  0.00    -0.350 C  
BRANCH  21  22
HETATM   22  O   UNL     1     -10.277  12.586  68.026  1.00  0.00    -0.211 OA 
BRANCH  22  23
HETATM   23  C   UNL     1      -9.760  11.351  67.797  1.00  0.00    -0.175 C  
HETATM   24  O   UNL     1      -9.984  10.665  66.808  1.00  0.00    -0.194 OA 
BRANCH  23  25
HETATM   25  C   UNL     1      -8.850  10.928  68.920  1.00  0.00    -0.143 C  
BRANCH  25  26
HETATM   26  C   UNL     1      -7.394  10.949  68.499  1.00  0.00    -0.098 C  
HETATM   27  C   UNL     1      -6.857  12.346  68.316  1.00  0.00    -0.080 C  
HETATM   28  O   UNL     1      -6.806  13.072  69.451  1.00  0.00    -0.067 OA 
HETATM   29  O   UNL     1      -6.471  12.776  67.240  1.00  0.00    -0.160 OA 
ENDBRANCH  25  26
ENDBRANCH  23  25
ENDBRANCH  22  23
ENDBRANCH  21  22
ENDBRANCH  13  21
ENDBRANCH   2  13
TORSDOF 8
ENDMDL
MODEL      298
REMARK 921   NORMALIZED FREE ENERGY PREDICTED BY IDOCK:   -3.65 KCAL/MOL
REMARK 922        TOTAL FREE ENERGY PREDICTED BY IDOCK:   -6.83 KCAL/MOL
REMARK 923 INTER-LIGAND FREE ENERGY PREDICTED BY IDOCK:   -5.41 KCAL/MOL
REMARK 924 INTRA-LIGAND FREE ENERGY PREDICTED BY IDOCK:   -1.42 KCAL/MOL
REMARK 927      BINDING AFFINITY PREDICTED BY RF-SCORE:    0.00 PKD
ROOT
HETATM    1  O   UNL     1      -6.281  14.590  68.066  1.00  0.00    -0.127 OA 
HETATM    2  C   UNL     1      -7.532  13.956  68.365  1.00  0.00    -0.117 C  
HETATM    3  H   UNL     1      -5.573  14.122  68.492  1.00  0.00     0.000 HD 
ENDROOT
BRANCH   2   4
HETATM    4  C   UNL     1      -7.379  12.505  67.956  1.00  0.00    -0.111 A  
HETATM    5  C   UNL     1      -7.200   9.843  67.079  1.00  0.00    -0.090 A  
HETATM    6  C   UNL     1      -6.497  12.151  66.920  1.00  0.00    -0.007 A  
HETATM    7  O   UNL     1      -6.397   8.221  65.625  1.00  0.00    -0.048 OA 
HETATM    8  O   UNL     1      -7.849   7.616  67.154  1.00  0.00    -0.112 OA 
HETATM    9  C   UNL     1      -8.153  11.498  68.558  1.00  0.00    -0.146 A  
HETATM   10  C   UNL     1      -6.405  10.828  66.479  1.00  0.00    -0.115 A  
HETATM   11  N   UNL     1      -7.145   8.461  66.584  1.00  0.00    -0.072 N  
HETATM   12  C   UNL     1      -8.067  10.171  68.127  1.00  0.00    -0.105 A  
ENDBRANCH   2   4
BRANCH   2  13
HETATM   13  C   UNL     1      -8.692  14.721  67.668  1.00  0.00    -0.178 C  
BRANCH  13  14
HETATM   14  N   UNL     1      -9.541  13.752  66.934  1.00  0.00    -0.253 N  
HETATM   15  C   UNL     1     -11.599  12.963  65.764  1.00  0.00    -0.368 C  
HETATM   16  C   UNL     1     -10.869  13.998  66.633  1.00  0.00    -0.297 C  
HETATM   17  H   UNL     1      -9.128  12.866  66.638  1.00  0.00     0.000 HD 
HETATM   18  O   UNL     1     -11.439  15.020  67.020  1.00  0.00    -0.344 OA 
HETATM   19 CL   UNL     1     -10.838  11.361  65.870  1.00  0.00    -0.316 Cl 
HETATM   20 CL   UNL     1     -11.627  13.533  64.086  1.00  0.00    -0.418 Cl 
ENDBRANCH  13  14
BRANCH  13  21
HETATM   21  C   UNL     1      -8.137  15.821  66.736  1.00  0.00    -0.262 C  
BRANCH  21  22
HETATM   22  O   UNL     1      -8.692  17.118  67.029  1.00  0.00    -0.212 OA 
BRANCH  22  23
HETATM   23  C   UNL     1      -8.002  18.176  66.528  1.00  0.00    -0.262 C  
HETATM   24  O   UNL     1      -8.498  19.238  66.175  1.00  0.00    -0.354 OA 
BRANCH  23  25
HETATM   25  C   UNL     1      -6.526  17.883  66.474  1.00  0.00    -0.245 C  
BRANCH  25  26
HETATM   26  C   UNL     1      -5.752  18.721  67.473  1.00  0.00    -0.157 C  
HETATM   27  C   UNL     1      -6.123  18.420  68.903  1.00  0.00    -0.217 C  
HETATM   28  O   UNL     1      -5.801  17.174  69.308  1.00  0.00    -0.178 OA 
HETATM   29  O   UNL     1      -6.643  19.240  69.643  1.00  0.00    -0.296 OA 
ENDBRANCH  25  26
ENDBRANCH  23  25
ENDBRANCH  22  23
ENDBRANCH  21  22
ENDBRANCH  13  21
ENDBRANCH   2  13
TORSDOF 8
ENDMDL
MODEL      299
REMARK 921   NORMALIZED FREE ENERGY PREDICTED BY IDOCK:   -3.64 KCAL/MOL
REMARK 922        TOTAL FREE ENERGY PREDICTED BY IDOCK:   -6.81 KCAL/MOL
REMARK 923 INTER-LIGAND FREE ENERGY PREDICTED BY IDOCK:   -5.27 KCAL/MOL
REMARK 924 INTRA-LIGAND FREE ENERGY PREDICTED BY IDOCK:   -1.54 KCAL/MOL
REMARK 927      BINDING AFFINITY PREDICTED BY RF-SCORE:    0.00 PKD
ROOT
HETATM    1  O   UNL     1      -6.354   8.968  70.913  1.00  0.00    -0.046 OA 
HETATM    2  C   UNL     1      -6.792   8.500  69.629  1.00  0.00    -0.043 C  
HETATM    3  H   UNL     1      -6.261   9.913  70.897  1.00  0.00     0.000 HD 
ENDROOT
BRANCH   2   4
HETATM    4  C   UNL     1      -8.057   9.269  69.308  1.00  0.00    -0.106 A  
HETATM    5  C   UNL     1     -10.473  10.553  68.677  1.00  0.00    -0.191 A  
HETATM    6  C   UNL     1      -9.072   9.397  70.272  1.00  0.00    -0.283 A  
HETATM    7  O   UNL     1     -12.638  11.204  69.203  1.00  0.00    -0.358 OA 
HETATM    8  O   UNL     1     -11.885  11.642  67.190  1.00  0.00    -0.608 OA 
HETATM    9  C   UNL     1      -8.267   9.814  68.029  1.00  0.00    -0.109 A  
HETATM   10  C   UNL     1     -10.277  10.035  69.963  1.00  0.00    -0.306 A  
HETATM   11  N   UNL     1     -11.757  11.178  68.332  1.00  0.00    -0.299 N  
HETATM   12  C   UNL     1      -9.467  10.456  67.710  1.00  0.00    -0.159 A  
ENDBRANCH   2   4
BRANCH   2  13
HETATM   13  C   UNL     1      -6.945   6.954  69.655  1.00  0.00    -0.063 C  
BRANCH  13  14
HETATM   14  N   UNL     1      -8.221   6.582  68.997  1.00  0.00    -0.115 N  
HETATM   15  C   UNL     1      -9.655   5.685  67.163  1.00  0.00    -0.131 C  
HETATM   16  C   UNL     1      -8.288   6.153  67.683  1.00  0.00    -0.112 C  
HETATM   17  H   UNL     1      -9.085   6.644  69.536  1.00  0.00     0.000 HD 
HETATM   18  O   UNL     1      -7.288   6.120  66.964  1.00  0.00    -0.080 OA 
HETATM   19 CL   UNL     1     -10.992   6.394  68.093  1.00  0.00    -0.382 Cl 
HETATM   20 CL   UNL     1      -9.722   3.914  67.224  1.00  0.00    -0.226 Cl 
ENDBRANCH  13  14
BRANCH  13  21
HETATM   21  C   UNL     1      -6.869   6.422  71.104  1.00  0.00    -0.067 C  
BRANCH  21  22
HETATM   22  O   UNL     1      -8.012   6.810  71.890  1.00  0.00    -0.100 OA 
BRANCH  22  23
HETATM   23  C   UNL     1      -8.657   5.795  72.523  1.00  0.00    -0.120 C  
HETATM   24  O   UNL     1      -8.683   4.631  72.144  1.00  0.00    -0.116 OA 
BRANCH  23  25
HETATM   25  C   UNL     1      -9.335   6.282  73.776  1.00  0.00    -0.144 C  
BRANCH  25  26
HETATM   26  C   UNL     1     -10.532   7.158  73.461  1.00  0.00    -0.422 C  
HETATM   27  C   UNL     1     -11.467   6.534  72.456  1.00  0.00    -0.239 C  
HETATM   28  O   UNL     1     -12.077   5.412  72.891  1.00  0.00    -0.172 OA 
HETATM   29  O   UNL     1     -11.680   7.015  71.355  1.00  0.00    -0.272 OA 
ENDBRANCH  25  26
ENDBRANCH  23  25
ENDBRANCH  22  23
ENDBRANCH  21  22
ENDBRANCH  13  21
ENDBRANCH   2  13
TORSDOF 8
ENDMDL
MODEL      300
REMARK 921   NORMALIZED FREE ENERGY PREDICTED BY IDOCK:   -3.63 KCAL/MOL
REMARK 922        TOTAL FREE ENERGY PREDICTED BY IDOCK:   -6.79 KCAL/MOL
REMARK 923 INTER-LIGAND FREE ENERGY PREDICTED BY IDOCK:   -5.86 KCAL/MOL
REMARK 924 INTRA-LIGAND FREE ENERGY PREDICTED BY IDOCK:   -0.93 KCAL/MOL
REMARK 927      BINDING AFFINITY PREDICTED BY RF-SCORE:    0.00 PKD
ROOT
HETATM    1  O   UNL     1      -5.985  10.975  67.825  1.00  0.00    -0.046 OA 
HETATM    2  C   UNL     1      -7.397  10.737  67.733  1.00  0.00    -0.093 C  
HETATM    3  H   UNL     1      -5.552  10.209  68.182  1.00  0.00     0.000 HD 
ENDROOT
BRANCH   2   4
HETATM    4  C   UNL     1      -7.559   9.468  66.922  1.00  0.00    -0.095 A  
HETATM    5  C   UNL     1      -7.988   7.182  65.348  1.00  0.00    -0.125 A  
HETATM    6  C   UNL     1      -7.033   9.386  65.622  1.00  0.00    -0.086 A  
HETATM    7  O   UNL     1      -7.823   6.022  63.344  1.00  0.00    -0.097 OA 
HETATM    8  O   UNL     1      -8.903   5.077  65.003  1.00  0.00    -0.152 OA 
HETATM    9  C   UNL     1      -8.287   8.375  67.427  1.00  0.00    -0.124 A  
HETATM   10  C   UNL     1      -7.244   8.251  64.833  1.00  0.00    -0.081 A  
HETATM   11  N   UNL     1      -8.257   6.010  64.504  1.00  0.00    -0.123 N  
HETATM   12  C   UNL     1      -8.502   7.234  66.648  1.00  0.00    -0.124 A  
ENDBRANCH   2   4
BRANCH   2  13
HETATM   13  C   UNL     1      -8.106  11.990  67.150  1.00  0.00    -0.177 C  
BRANCH  13  14
HETATM   14  N   UNL     1      -7.910  13.133  68.075  1.00  0.00    -0.133 N  
HETATM   15  C   UNL     1      -8.014  15.520  68.792  1.00  0.00    -0.163 C  
HETATM   16  C   UNL     1      -8.140  14.446  67.702  1.00  0.00    -0.177 C  
HETATM   17  H   UNL     1      -7.593  12.943  69.027  1.00  0.00     0.000 HD 
HETATM   18  O   UNL     1      -8.461  14.742  66.550  1.00  0.00    -0.147 OA 
HETATM   19 CL   UNL     1      -6.967  14.988  70.125  1.00  0.00    -0.103 Cl 
HETATM   20 CL   UNL     1      -9.632  15.929  69.392  1.00  0.00    -0.266 Cl 
ENDBRANCH  13  14
BRANCH  13  21
HETATM   21  C   UNL     1      -9.604  11.703  66.901  1.00  0.00    -0.186 C  
BRANCH  21  22
HETATM   22  O   UNL     1     -10.063  12.241  65.646  1.00  0.00    -0.246 OA 
BRANCH  22  23
HETATM   23  C   UNL     1     -10.369  11.323  64.692  1.00  0.00    -0.315 C  
HETATM   24  O   UNL     1     -10.175  10.117  64.788  1.00  0.00    -0.296 OA 
BRANCH  23  25
HETATM   25  C   UNL     1     -10.998  11.977  63.491  1.00  0.00    -0.514 C  
BRANCH  25  26
HETATM   26  C   UNL     1     -12.468  12.265  63.717  1.00  0.00    -0.619 C  
HETATM   27  C   UNL     1     -12.711  13.610  64.357  1.00  0.00    -0.037 C  
HETATM   28  O   UNL     1     -12.358  14.660  63.588  1.00  0.00    -0.674 OA 
HETATM   29  O   UNL     1     -13.211  13.740  65.462  1.00  0.00    -0.662 OA 
ENDBRANCH  25  26
ENDBRANCH  23  25
ENDBRANCH  22  23
ENDBRANCH  21  22
ENDBRANCH  13  21
ENDBRANCH   2  13
TORSDOF 8
ENDMDL
MODEL      301
REMARK 921   NORMALIZED FREE ENERGY PREDICTED BY IDOCK:   -3.61 KCAL/MOL
REMARK 922        TOTAL FREE ENERGY PREDICTED BY IDOCK:   -6.77 KCAL/MOL
REMARK 923 INTER-LIGAND FREE ENERGY PREDICTED BY IDOCK:   -5.70 KCAL/MOL
REMARK 924 INTRA-LIGAND FREE ENERGY PREDICTED BY IDOCK:   -1.08 KCAL/MOL
REMARK 927      BINDING AFFINITY PREDICTED BY RF-SCORE:    0.00 PKD
ROOT
HETATM    1  O   UNL     1      -7.338   8.488  68.435  1.00  0.00    -0.090 OA 
HETATM    2  C   UNL     1      -8.768   8.423  68.353  1.00  0.00    -0.136 C  
HETATM    3  H   UNL     1      -7.076   8.726  69.316  1.00  0.00     0.000 HD 
ENDROOT
BRANCH   2   4
HETATM    4  C   UNL     1      -9.209   7.463  69.439  1.00  0.00    -0.145 A  
HETATM    5  C   UNL     1     -10.156   5.647  71.361  1.00  0.00    -0.200 A  
HETATM    6  C   UNL     1      -8.903   6.095  69.342  1.00  0.00    -0.126 A  
HETATM    7  O   UNL     1     -10.445   3.488  72.163  1.00  0.00    -0.081 OA 
HETATM    8  O   UNL     1     -11.368   5.139  73.274  1.00  0.00    -0.321 OA 
HETATM    9  C   UNL     1      -9.982   7.908  70.527  1.00  0.00    -0.191 A  
HETATM   10  C   UNL     1      -9.372   5.187  70.296  1.00  0.00    -0.209 A  
HETATM   11  N   UNL     1     -10.695   4.690  72.336  1.00  0.00    -0.161 N  
HETATM   12  C   UNL     1     -10.454   7.009  71.487  1.00  0.00    -0.222 A  
ENDBRANCH   2   4
BRANCH   2  13
HETATM   13  C   UNL     1      -9.198   8.034  66.911  1.00  0.00    -0.154 C  
BRANCH  13  14
HETATM   14  N   UNL     1      -7.997   7.989  66.043  1.00  0.00    -0.097 N  
HETATM   15  C   UNL     1      -6.593   7.178  64.147  1.00  0.00    -0.043 C  
HETATM   16  C   UNL     1      -7.825   7.038  65.052  1.00  0.00    -0.125 C  
HETATM   17  H   UNL     1      -7.267   8.689  66.180  1.00  0.00     0.000 HD 
HETATM   18  O   UNL     1      -8.640   6.130  64.882  1.00  0.00    -0.090 OA 
HETATM   19 CL   UNL     1      -5.296   8.101  64.936  1.00  0.00    -0.036 Cl 
HETATM   20 CL   UNL     1      -7.076   7.953  62.627  1.00  0.00    -0.085 Cl 
ENDBRANCH  13  14
BRANCH  13  21
HETATM   21  C   UNL     1     -10.259   9.021  66.374  1.00  0.00    -0.227 C  
BRANCH  21  22
HETATM   22  O   UNL     1      -9.743  10.359  66.239  1.00  0.00    -0.187 OA 
BRANCH  22  23
HETATM   23  C   UNL     1     -10.579  11.352  66.644  1.00  0.00    -0.258 C  
HETATM   24  O   UNL     1     -11.524  11.208  67.409  1.00  0.00    -0.466 OA 
BRANCH  23  25
HETATM   25  C   UNL     1     -10.185  12.673  66.039  1.00  0.00    -0.287 C  
BRANCH  25  26
HETATM   26  C   UNL     1     -10.445  12.705  64.546  1.00  0.00    -0.379 C  
HETATM   27  C   UNL     1     -11.890  12.449  64.198  1.00  0.00    -0.413 C  
HETATM   28  O   UNL     1     -12.741  13.403  64.627  1.00  0.00    -0.637 OA 
HETATM   29  O   UNL     1     -12.258  11.478  63.555  1.00  0.00    -0.333 OA 
ENDBRANCH  25  26
ENDBRANCH  23  25
ENDBRANCH  22  23
ENDBRANCH  21  22
ENDBRANCH  13  21
ENDBRANCH   2  13
TORSDOF 8
ENDMDL
MODEL      302
REMARK 921   NORMALIZED FREE ENERGY PREDICTED BY IDOCK:   -3.60 KCAL/MOL
REMARK 922        TOTAL FREE ENERGY PREDICTED BY IDOCK:   -6.75 KCAL/MOL
REMARK 923 INTER-LIGAND FREE ENERGY PREDICTED BY IDOCK:   -6.77 KCAL/MOL
REMARK 924 INTRA-LIGAND FREE ENERGY PREDICTED BY IDOCK:    0.02 KCAL/MOL
REMARK 927      BINDING AFFINITY PREDICTED BY RF-SCORE:    0.00 PKD
ROOT
HETATM    1  O   UNL     1     -11.284  12.735  69.457  1.00  0.00    -0.428 OA 
HETATM    2  C   UNL     1     -10.417  13.656  68.782  1.00  0.00    -0.202 C  
HETATM    3  H   UNL     1     -11.687  12.150  68.828  1.00  0.00     0.000 HD 
ENDROOT
BRANCH   2   4
HETATM    4  C   UNL     1      -9.452  12.812  67.975  1.00  0.00    -0.213 A  
HETATM    5  C   UNL     1      -7.744  11.117  66.527  1.00  0.00    -0.146 A  
HETATM    6  C   UNL     1      -9.791  12.394  66.676  1.00  0.00    -0.231 A  
HETATM    7  O   UNL     1      -7.259   9.803  64.676  1.00  0.00    -0.118 OA 
HETATM    8  O   UNL     1      -5.813   9.845  66.324  1.00  0.00    -0.055 OA 
HETATM    9  C   UNL     1      -8.231  12.382  68.526  1.00  0.00    -0.086 A  
HETATM   10  C   UNL     1      -8.945  11.550  65.951  1.00  0.00    -0.152 A  
HETATM   11  N   UNL     1      -6.877  10.189  65.789  1.00  0.00    -0.111 N  
HETATM   12  C   UNL     1      -7.377  11.540  67.809  1.00  0.00    -0.096 A  
ENDBRANCH   2   4
BRANCH   2  13
HETATM   13  C   UNL     1      -9.758  14.614  69.812  1.00  0.00     0.334 C  
BRANCH  13  14
HETATM   14  N   UNL     1     -10.736  14.922  70.883  1.00  0.00    -0.524 N  
HETATM   15  C   UNL     1     -12.962  15.558  71.814  1.00  0.00    -0.449 C  
HETATM   16  C   UNL     1     -12.010  15.395  70.620  1.00  0.00    -0.356 C  
HETATM   17  H   UNL     1     -10.459  14.779  71.855  1.00  0.00     0.000 HD 
HETATM   18  O   UNL     1     -12.379  15.647  69.472  1.00  0.00    -0.294 OA 
HETATM   19 CL   UNL     1     -12.076  15.758  73.340  1.00  0.00    -0.576 Cl 
HETATM   20 CL   UNL     1     -14.038  14.151  71.893  1.00  0.00    -0.549 Cl 
ENDBRANCH  13  14
BRANCH  13  21
HETATM   21  C   UNL     1      -9.245  15.894  69.116  1.00  0.00    -0.253 C  
BRANCH  21  22
HETATM   22  O   UNL     1      -8.797  15.643  67.769  1.00  0.00    -0.169 OA 
BRANCH  22  23
HETATM   23  C   UNL     1      -9.471  16.310  66.796  1.00  0.00    -0.235 C  
HETATM   24  O   UNL     1      -9.600  15.927  65.639  1.00  0.00    -0.337 OA 
BRANCH  23  25
HETATM   25  C   UNL     1     -10.062  17.589  67.324  1.00  0.00    -0.327 C  
BRANCH  25  26
HETATM   26  C   UNL     1     -10.244  18.617  66.225  1.00  0.00    -0.462 C  
HETATM   27  C   UNL     1      -9.260  19.756  66.319  1.00  0.00    -0.388 C  
HETATM   28  O   UNL     1      -7.976  19.395  66.122  1.00  0.00    -0.302 OA 
HETATM   29  O   UNL     1      -9.596  20.912  66.524  1.00  0.00    -0.044 OA 
ENDBRANCH  25  26
ENDBRANCH  23  25
ENDBRANCH  22  23
ENDBRANCH  21  22
ENDBRANCH  13  21
ENDBRANCH   2  13
TORSDOF 8
ENDMDL
MODEL      303
REMARK 921   NORMALIZED FREE ENERGY PREDICTED BY IDOCK:   -3.56 KCAL/MOL
REMARK 922        TOTAL FREE ENERGY PREDICTED BY IDOCK:   -6.70 KCAL/MOL
REMARK 923 INTER-LIGAND FREE ENERGY PREDICTED BY IDOCK:   -6.71 KCAL/MOL
REMARK 924 INTRA-LIGAND FREE ENERGY PREDICTED BY IDOCK:    0.01 KCAL/MOL
REMARK 927      BINDING AFFINITY PREDICTED BY RF-SCORE:    0.00 PKD
ROOT
HETATM    1  O   UNL     1      -8.598  13.386  68.835  1.00  0.00    -0.368 OA 
HETATM    2  C   UNL     1      -8.564  12.148  68.111  1.00  0.00    -0.177 C  
HETATM    3  H   UNL     1      -8.452  14.112  68.240  1.00  0.00     0.000 HD 
ENDROOT
BRANCH   2   4
HETATM    4  C   UNL     1      -9.579  12.283  66.996  1.00  0.00    -0.208 A  
HETATM    5  C   UNL     1     -11.340  12.519  64.820  1.00  0.00    -0.313 A  
HETATM    6  C   UNL     1     -10.094  11.137  66.365  1.00  0.00    -0.269 A  
HETATM    7  O   UNL     1     -12.589  11.597  63.095  1.00  0.00    -0.453 OA 
HETATM    8  O   UNL     1     -12.539  13.781  63.285  1.00  0.00    -0.830 OA 
HETATM    9  C   UNL     1      -9.979  13.548  66.529  1.00  0.00    -0.287 A  
HETATM   10  C   UNL     1     -10.970  11.249  65.281  1.00  0.00    -0.207 A  
HETATM   11  N   UNL     1     -12.219  12.641  63.650  1.00  0.00    -0.515 N  
HETATM   12  C   UNL     1     -10.856  13.672  65.449  1.00  0.00    -0.302 A  
ENDBRANCH   2   4
BRANCH   2  13
HETATM   13  C   UNL     1      -8.802  10.960  69.084  1.00  0.00    -0.037 C  
BRANCH  13  14
HETATM   14  N   UNL     1      -7.741   9.945  68.880  1.00  0.00    -0.081 N  
HETATM   15  C   UNL     1      -6.489   7.839  69.353  1.00  0.00    -0.035 C  
HETATM   16  C   UNL     1      -7.543   8.884  69.747  1.00  0.00    -0.069 C  
HETATM   17  H   UNL     1      -7.131  10.032  68.066  1.00  0.00     0.000 HD 
HETATM   18  O   UNL     1      -8.205   8.763  70.779  1.00  0.00    -0.123 OA 
HETATM   19 CL   UNL     1      -5.276   8.513  68.244  1.00  0.00    -0.033 Cl 
HETATM   20 CL   UNL     1      -7.301   6.444  68.619  1.00  0.00    -0.085 Cl 
ENDBRANCH  13  14
BRANCH  13  21
HETATM   21  C   UNL     1     -10.214  10.365  68.883  1.00  0.00    -0.205 C  
BRANCH  21  22
HETATM   22  O   UNL     1     -11.045  10.521  70.050  1.00  0.00    -0.277 OA 
BRANCH  22  23
HETATM   23  C   UNL     1     -12.007  11.476  69.959  1.00  0.00    -0.357 C  
HETATM   24  O   UNL     1     -12.583  11.801  68.928  1.00  0.00    -0.044 OA 
BRANCH  23  25
HETATM   25  C   UNL     1     -12.294  12.086  71.305  1.00  0.00    -0.195 C  
BRANCH  25  26
HETATM   26  C   UNL     1     -13.073  13.380  71.179  1.00  0.00    -0.254 C  
HETATM   27  C   UNL     1     -12.413  14.534  71.891  1.00  0.00    -0.332 C  
HETATM   28  O   UNL     1     -11.224  14.899  71.369  1.00  0.00    -0.265 OA 
HETATM   29  O   UNL     1     -12.922  15.111  72.838  1.00  0.00    -0.384 OA 
ENDBRANCH  25  26
ENDBRANCH  23  25
ENDBRANCH  22  23
ENDBRANCH  21  22
ENDBRANCH  13  21
ENDBRANCH   2  13
TORSDOF 8
ENDMDL
MODEL      304
REMARK 921   NORMALIZED FREE ENERGY PREDICTED BY IDOCK:   -3.54 KCAL/MOL
REMARK 922        TOTAL FREE ENERGY PREDICTED BY IDOCK:   -6.66 KCAL/MOL
REMARK 923 INTER-LIGAND FREE ENERGY PREDICTED BY IDOCK:   -6.06 KCAL/MOL
REMARK 924 INTRA-LIGAND FREE ENERGY PREDICTED BY IDOCK:   -0.60 KCAL/MOL
REMARK 927      BINDING AFFINITY PREDICTED BY RF-SCORE:    0.00 PKD
ROOT
HETATM    1  O   UNL     1      -6.898  13.234  68.783  1.00  0.00    -0.093 OA 
HETATM    2  C   UNL     1      -7.569  13.329  67.519  1.00  0.00    -0.164 C  
HETATM    3  H   UNL     1      -6.334  13.988  68.906  1.00  0.00     0.000 HD 
ENDROOT
BRANCH   2   4
HETATM    4  C   UNL     1      -8.273  14.669  67.513  1.00  0.00    -0.203 A  
HETATM    5  C   UNL     1      -9.444  17.221  67.443  1.00  0.00    -0.245 A  
HETATM    6  C   UNL     1      -8.880  15.146  66.339  1.00  0.00    -0.277 A  
HETATM    7  O   UNL     1     -10.473  18.966  66.309  1.00  0.00    -0.417 OA 
HETATM    8  O   UNL     1      -9.989  19.251  68.430  1.00  0.00    -0.368 OA 
HETATM    9  C   UNL     1      -8.281  15.487  68.658  1.00  0.00    -0.162 A  
HETATM   10  C   UNL     1      -9.464  16.415  66.298  1.00  0.00    -0.347 A  
HETATM   11  N   UNL     1     -10.009  18.576  67.390  1.00  0.00    -0.316 N  
HETATM   12  C   UNL     1      -8.864  16.757  68.629  1.00  0.00    -0.255 A  
ENDBRANCH   2   4
BRANCH   2  13
HETATM   13  C   UNL     1      -8.491  12.095  67.317  1.00  0.00    -0.178 C  
BRANCH  13  14
HETATM   14  N   UNL     1      -8.328  11.588  65.933  1.00  0.00    -0.375 N  
HETATM   15  C   UNL     1      -8.639   9.983  64.048  1.00  0.00    -0.190 C  
HETATM   16  C   UNL     1      -8.762  10.334  65.538  1.00  0.00    -0.162 C  
HETATM   17  H   UNL     1      -7.876  12.189  65.242  1.00  0.00     0.000 HD 
HETATM   18  O   UNL     1      -9.256   9.541  66.341  1.00  0.00    -0.150 OA 
HETATM   19 CL   UNL     1      -7.380  10.944  63.246  1.00  0.00     0.251 Cl 
HETATM   20 CL   UNL     1     -10.211  10.228  63.264  1.00  0.00     0.166 Cl 
ENDBRANCH  13  14
BRANCH  13  21
HETATM   21  C   UNL     1      -9.961  12.457  67.626  1.00  0.00    -0.200 C  
BRANCH  21  22
HETATM   22  O   UNL     1     -10.671  11.372  68.255  1.00  0.00    -0.184 OA 
BRANCH  22  23
HETATM   23  C   UNL     1     -11.814  11.719  68.904  1.00  0.00    -0.320 C  
HETATM   24  O   UNL     1     -12.629  10.930  69.366  1.00  0.00    -0.335 OA 
BRANCH  23  25
HETATM   25  C   UNL     1     -11.949  13.215  69.000  1.00  0.00    -0.329 C  
BRANCH  25  26
HETATM   26  C   UNL     1     -11.560  13.726  70.373  1.00  0.00    -0.143 C  
HETATM   27  C   UNL     1     -12.496  14.791  70.889  1.00  0.00    -0.328 C  
HETATM   28  O   UNL     1     -13.752  14.358  71.122  1.00  0.00    -0.345 OA 
HETATM   29  O   UNL     1     -12.142  15.938  71.107  1.00  0.00    -0.393 OA 
ENDBRANCH  25  26
ENDBRANCH  23  25
ENDBRANCH  22  23
ENDBRANCH  21  22
ENDBRANCH  13  21
ENDBRANCH   2  13
TORSDOF 8
ENDMDL
MODEL      305
REMARK 921   NORMALIZED FREE ENERGY PREDICTED BY IDOCK:   -3.52 KCAL/MOL
REMARK 922        TOTAL FREE ENERGY PREDICTED BY IDOCK:   -6.63 KCAL/MOL
REMARK 923 INTER-LIGAND FREE ENERGY PREDICTED BY IDOCK:   -5.71 KCAL/MOL
REMARK 924 INTRA-LIGAND FREE ENERGY PREDICTED BY IDOCK:   -0.92 KCAL/MOL
REMARK 927      BINDING AFFINITY PREDICTED BY RF-SCORE:    0.00 PKD
ROOT
HETATM    1  O   UNL     1      -8.182   5.961  71.256  1.00  0.00    -0.119 OA 
HETATM    2  C   UNL     1      -8.528   6.959  70.286  1.00  0.00    -0.139 C  
HETATM    3  H   UNL     1      -8.048   6.367  72.103  1.00  0.00     0.000 HD 
ENDROOT
BRANCH   2   4
HETATM    4  C   UNL     1      -9.728   7.694  70.847  1.00  0.00    -0.175 A  
HETATM    5  C   UNL     1     -12.034   9.015  71.753  1.00  0.00    -0.368 A  
HETATM    6  C   UNL     1     -10.729   6.992  71.539  1.00  0.00    -0.244 A  
HETATM    7  O   UNL     1     -14.141   9.010  72.729  1.00  0.00    -0.524 OA 
HETATM    8  O   UNL     1     -13.356  10.912  71.969  1.00  0.00    -0.448 OA 
HETATM    9  C   UNL     1      -9.894   9.075  70.635  1.00  0.00    -0.284 A  
HETATM   10  C   UNL     1     -11.879   7.644  71.992  1.00  0.00    -0.342 A  
HETATM   11  N   UNL     1     -13.265   9.694  72.181  1.00  0.00    -0.441 N  
HETATM   12  C   UNL     1     -11.039   9.738  71.086  1.00  0.00    -0.414 A  
ENDBRANCH   2   4
BRANCH   2  13
HETATM   13  C   UNL     1      -8.747   6.295  68.899  1.00  0.00    -0.125 C  
BRANCH  13  14
HETATM   14  N   UNL     1      -9.061   7.347  67.902  1.00  0.00    -0.130 N  
HETATM   15  C   UNL     1      -8.540   9.059  66.163  1.00  0.00    -0.135 C  
HETATM   16  C   UNL     1      -8.083   8.086  67.260  1.00  0.00    -0.121 C  
HETATM   17  H   UNL     1     -10.040   7.533  67.679  1.00  0.00     0.000 HD 
HETATM   18  O   UNL     1      -6.889   7.952  67.534  1.00  0.00    -0.066 OA 
HETATM   19 CL   UNL     1     -10.235   9.546  66.378  1.00  0.00    -0.327 Cl 
HETATM   20 CL   UNL     1      -8.304   8.297  64.579  1.00  0.00    -0.134 Cl 
ENDBRANCH  13  14
BRANCH  13  21
HETATM   21  C   UNL     1      -9.859   5.225  68.975  1.00  0.00    -0.167 C  
BRANCH  21  22
HETATM   22  O   UNL     1      -9.655   4.155  68.033  1.00  0.00    -0.166 OA 
BRANCH  22  23
HETATM   23  C   UNL     1      -9.967   4.445  66.742  1.00  0.00    -0.195 C  
HETATM   24  O   UNL     1     -10.824   5.245  66.387  1.00  0.00    -0.292 OA 
BRANCH  23  25
HETATM   25  C   UNL     1      -9.107   3.661  65.787  1.00  0.00    -0.152 C  
BRANCH  25  26
HETATM   26  C   UNL     1      -8.225   4.570  64.954  1.00  0.00    -0.107 C  
HETATM   27  C   UNL     1      -6.763   4.455  65.310  1.00  0.00    -0.049 C  
HETATM   28  O   UNL     1      -6.221   3.251  65.039  1.00  0.00    -0.022 OA 
HETATM   29  O   UNL     1      -6.117   5.380  65.776  1.00  0.00    -0.031 OA 
ENDBRANCH  25  26
ENDBRANCH  23  25
ENDBRANCH  22  23
ENDBRANCH  21  22
ENDBRANCH  13  21
ENDBRANCH   2  13
TORSDOF 8
ENDMDL
MODEL      306
REMARK 921   NORMALIZED FREE ENERGY PREDICTED BY IDOCK:   -3.51 KCAL/MOL
REMARK 922        TOTAL FREE ENERGY PREDICTED BY IDOCK:   -6.62 KCAL/MOL
REMARK 923 INTER-LIGAND FREE ENERGY PREDICTED BY IDOCK:   -4.93 KCAL/MOL
REMARK 924 INTRA-LIGAND FREE ENERGY PREDICTED BY IDOCK:   -1.69 KCAL/MOL
REMARK 927      BINDING AFFINITY PREDICTED BY RF-SCORE:    0.00 PKD
ROOT
HETATM    1  O   UNL     1      -7.658   9.705  69.150  1.00  0.00    -0.075 OA 
HETATM    2  C   UNL     1      -8.152   8.368  68.990  1.00  0.00    -0.116 C  
HETATM    3  H   UNL     1      -8.293  10.325  68.813  1.00  0.00     0.000 HD 
ENDROOT
BRANCH   2   4
HETATM    4  C   UNL     1      -9.508   8.335  69.665  1.00  0.00    -0.163 A  
HETATM    5  C   UNL     1     -11.950   8.212  71.046  1.00  0.00    -0.240 A  
HETATM    6  C   UNL     1      -9.898   9.378  70.522  1.00  0.00    -0.331 A  
HETATM    7  O   UNL     1     -13.462   9.043  72.599  1.00  0.00    -0.463 OA 
HETATM    8  O   UNL     1     -13.925   7.136  71.620  1.00  0.00    -0.380 OA 
HETATM    9  C   UNL     1     -10.374   7.239  69.497  1.00  0.00    -0.230 A  
HETATM   10  C   UNL     1     -11.112   9.322  71.212  1.00  0.00    -0.427 A  
HETATM   11  N   UNL     1     -13.202   8.124  71.810  1.00  0.00    -0.337 N  
HETATM   12  C   UNL     1     -11.591   7.173  70.180  1.00  0.00    -0.211 A  
ENDBRANCH   2   4
BRANCH   2  13
HETATM   13  C   UNL     1      -7.114   7.352  69.541  1.00  0.00    -0.069 C  
BRANCH  13  14
HETATM   14  N   UNL     1      -7.726   6.001  69.574  1.00  0.00    -0.096 N  
HETATM   15  C   UNL     1      -7.751   3.512  69.401  1.00  0.00    -0.051 C  
HETATM   16  C   UNL     1      -7.038   4.858  69.206  1.00  0.00    -0.055 C  
HETATM   17  H   UNL     1      -8.695   5.911  69.881  1.00  0.00     0.000 HD 
HETATM   18  O   UNL     1      -5.888   4.912  68.766  1.00  0.00    -0.019 OA 
HETATM   19 CL   UNL     1      -9.518   3.700  69.420  1.00  0.00    -0.254 Cl 
HETATM   20 CL   UNL     1      -7.184   2.770  70.908  1.00  0.00    -0.033 Cl 
ENDBRANCH  13  14
BRANCH  13  21
HETATM   21  C   UNL     1      -6.610   7.788  70.935  1.00  0.00    -0.038 C  
BRANCH  21  22
HETATM   22  O   UNL     1      -7.446   7.293  71.999  1.00  0.00    -0.079 OA 
BRANCH  22  23
HETATM   23  C   UNL     1      -6.895   6.319  72.771  1.00  0.00    -0.074 C  
HETATM   24  O   UNL     1      -5.695   6.164  72.959  1.00  0.00    -0.036 OA 
BRANCH  23  25
HETATM   25  C   UNL     1      -7.958   5.450  73.387  1.00  0.00    -0.111 C  
BRANCH  25  26
HETATM   26  C   UNL     1      -9.247   5.493  72.592  1.00  0.00    -0.143 C  
HETATM   27  C   UNL     1     -10.445   5.849  73.437  1.00  0.00    -0.246 C  
HETATM   28  O   UNL     1     -10.414   7.098  73.944  1.00  0.00    -0.370 OA 
HETATM   29  O   UNL     1     -11.379   5.085  73.623  1.00  0.00    -0.286 OA 
ENDBRANCH  25  26
ENDBRANCH  23  25
ENDBRANCH  22  23
ENDBRANCH  21  22
ENDBRANCH  13  21
ENDBRANCH   2  13
TORSDOF 8
ENDMDL
MODEL      307
REMARK 921   NORMALIZED FREE ENERGY PREDICTED BY IDOCK:   -3.49 KCAL/MOL
REMARK 922        TOTAL FREE ENERGY PREDICTED BY IDOCK:   -6.59 KCAL/MOL
REMARK 923 INTER-LIGAND FREE ENERGY PREDICTED BY IDOCK:   -7.12 KCAL/MOL
REMARK 924 INTRA-LIGAND FREE ENERGY PREDICTED BY IDOCK:    0.53 KCAL/MOL
REMARK 927      BINDING AFFINITY PREDICTED BY RF-SCORE:    0.00 PKD
ROOT
HETATM    1  O   UNL     1     -10.161  11.271  69.462  1.00  0.00    -0.437 OA 
HETATM    2  C   UNL     1      -9.887  10.821  68.128  1.00  0.00    -0.158 C  
HETATM    3  H   UNL     1     -10.981  10.901  69.765  1.00  0.00     0.000 HD 
ENDROOT
BRANCH   2   4
HETATM    4  C   UNL     1      -9.934   9.308  68.175  1.00  0.00    -0.206 A  
HETATM    5  C   UNL     1      -9.866   6.500  68.219  1.00  0.00    -0.132 A  
HETATM    6  C   UNL     1      -9.501   8.621  69.322  1.00  0.00    -0.158 A  
HETATM    7  O   UNL     1      -9.329   4.486  69.241  1.00  0.00    -0.121 OA 
HETATM    8  O   UNL     1     -10.164   4.430  67.213  1.00  0.00    -0.108 OA 
HETATM    9  C   UNL     1     -10.353   8.561  67.058  1.00  0.00    -0.379 A  
HETATM   10  C   UNL     1      -9.464   7.223  69.349  1.00  0.00    -0.154 A  
HETATM   11  N   UNL     1      -9.780   5.034  68.225  1.00  0.00    -0.140 N  
HETATM   12  C   UNL     1     -10.323   7.164  67.075  1.00  0.00    -0.368 A  
ENDBRANCH   2   4
BRANCH   2  13
HETATM   13  C   UNL     1      -8.545  11.426  67.631  1.00  0.00    -0.130 C  
BRANCH  13  14
HETATM   14  N   UNL     1      -8.272  12.678  68.378  1.00  0.00    -0.230 N  
HETATM   15  C   UNL     1      -8.519  15.101  68.920  1.00  0.00    -0.199 C  
HETATM   16  C   UNL     1      -8.779  13.906  67.991  1.00  0.00    -0.183 C  
HETATM   17  H   UNL     1      -7.685  12.632  69.212  1.00  0.00     0.000 HD 
HETATM   18  O   UNL     1      -9.439  14.035  66.959  1.00  0.00    -0.231 OA 
HETATM   19 CL   UNL     1      -7.085  14.844  69.937  1.00  0.00    -0.162 Cl 
HETATM   20 CL   UNL     1      -9.955  15.380  69.922  1.00  0.00    -0.270 Cl 
ENDBRANCH  13  14
BRANCH  13  21
HETATM   21  C   UNL     1      -8.586  11.664  66.105  1.00  0.00    -0.053 C  
BRANCH  21  22
HETATM   22  O   UNL     1      -9.772  11.116  65.497  1.00  0.00    -0.208 OA 
BRANCH  22  23
HETATM   23  C   UNL     1     -10.017  11.522  64.224  1.00  0.00    -0.271 C  
HETATM   24  O   UNL     1      -9.305  11.279  63.257  1.00  0.00    -0.275 OA 
BRANCH  23  25
HETATM   25  C   UNL     1     -11.298  12.308  64.142  1.00  0.00    -0.442 C  
BRANCH  25  26
HETATM   26  C   UNL     1     -11.111  13.734  64.621  1.00  0.00    -0.391 C  
HETATM   27  C   UNL     1     -12.375  14.553  64.532  1.00  0.00    -0.414 C  
HETATM   28  O   UNL     1     -13.364  14.134  65.349  1.00  0.00    -0.705 OA 
HETATM   29  O   UNL     1     -12.487  15.528  63.808  1.00  0.00    -0.592 OA 
ENDBRANCH  25  26
ENDBRANCH  23  25
ENDBRANCH  22  23
ENDBRANCH  21  22
ENDBRANCH  13  21
ENDBRANCH   2  13
TORSDOF 8
ENDMDL
MODEL      308
REMARK 921   NORMALIZED FREE ENERGY PREDICTED BY IDOCK:   -3.49 KCAL/MOL
REMARK 922        TOTAL FREE ENERGY PREDICTED BY IDOCK:   -6.58 KCAL/MOL
REMARK 923 INTER-LIGAND FREE ENERGY PREDICTED BY IDOCK:   -6.80 KCAL/MOL
REMARK 924 INTRA-LIGAND FREE ENERGY PREDICTED BY IDOCK:    0.22 KCAL/MOL
REMARK 927      BINDING AFFINITY PREDICTED BY RF-SCORE:    0.00 PKD
ROOT
HETATM    1  O   UNL     1     -11.276   6.541  67.162  1.00  0.00    -0.596 OA 
HETATM    2  C   UNL     1     -10.330   7.566  67.496  1.00  0.00    -0.252 C  
HETATM    3  H   UNL     1     -10.965   5.701  67.474  1.00  0.00     0.000 HD 
ENDROOT
BRANCH   2   4
HETATM    4  C   UNL     1     -10.116   7.472  68.992  1.00  0.00    -0.192 A  
HETATM    5  C   UNL     1      -9.812   7.429  71.783  1.00  0.00    -0.167 A  
HETATM    6  C   UNL     1     -11.071   6.839  69.806  1.00  0.00    -0.368 A  
HETATM    7  O   UNL     1     -10.587   6.935  73.915  1.00  0.00    -0.369 OA 
HETATM    8  O   UNL     1      -8.672   7.987  73.727  1.00  0.00    -0.258 OA 
HETATM    9  C   UNL     1      -8.995   8.065  69.601  1.00  0.00    -0.145 A  
HETATM   10  C   UNL     1     -10.925   6.815  71.196  1.00  0.00    -0.298 A  
HETATM   11  N   UNL     1      -9.681   7.452  73.246  1.00  0.00    -0.224 N  
HETATM   12  C   UNL     1      -8.838   8.045  70.990  1.00  0.00    -0.153 A  
ENDBRANCH   2   4
BRANCH   2  13
HETATM   13  C   UNL     1     -10.840   8.942  66.985  1.00  0.00     0.031 C  
BRANCH  13  14
HETATM   14  N   UNL     1     -10.032   9.353  65.811  1.00  0.00    -0.381 N  
HETATM   15  C   UNL     1      -7.932   9.760  64.527  1.00  0.00    -0.144 C  
HETATM   16  C   UNL     1      -8.651   9.439  65.845  1.00  0.00    -0.141 C  
HETATM   17  H   UNL     1     -10.515   9.583  64.941  1.00  0.00     0.000 HD 
HETATM   18  O   UNL     1      -8.019   9.237  66.883  1.00  0.00    -0.104 OA 
HETATM   19 CL   UNL     1      -8.996  10.608  63.385  1.00  0.00    -0.206 Cl 
HETATM   20 CL   UNL     1      -7.325   8.253  63.816  1.00  0.00    -0.095 Cl 
ENDBRANCH  13  14
BRANCH  13  21
HETATM   21  C   UNL     1     -10.790   9.996  68.114  1.00  0.00    -0.255 C  
BRANCH  21  22
HETATM   22  O   UNL     1     -11.791  11.020  67.951  1.00  0.00    -0.600 OA 
BRANCH  22  23
HETATM   23  C   UNL     1     -11.322  12.243  67.591  1.00  0.00    -0.311 C  
HETATM   24  O   UNL     1     -11.065  12.590  66.445  1.00  0.00    -0.267 OA 
BRANCH  23  25
HETATM   25  C   UNL     1     -11.168  13.140  68.791  1.00  0.00    -0.323 C  
BRANCH  25  26
HETATM   26  C   UNL     1     -12.307  14.134  68.896  1.00  0.00    -0.115 C  
HETATM   27  C   UNL     1     -12.602  14.539  70.319  1.00  0.00    -0.323 C  
HETATM   28  O   UNL     1     -11.606  15.225  70.916  1.00  0.00    -0.287 OA 
HETATM   29  O   UNL     1     -13.661  14.296  70.875  1.00  0.00    -0.261 OA 
ENDBRANCH  25  26
ENDBRANCH  23  25
ENDBRANCH  22  23
ENDBRANCH  21  22
ENDBRANCH  13  21
ENDBRANCH   2  13
TORSDOF 8
ENDMDL
MODEL      309
REMARK 921   NORMALIZED FREE ENERGY PREDICTED BY IDOCK:   -3.45 KCAL/MOL
REMARK 922        TOTAL FREE ENERGY PREDICTED BY IDOCK:   -6.53 KCAL/MOL
REMARK 923 INTER-LIGAND FREE ENERGY PREDICTED BY IDOCK:   -5.33 KCAL/MOL
REMARK 924 INTRA-LIGAND FREE ENERGY PREDICTED BY IDOCK:   -1.20 KCAL/MOL
REMARK 927      BINDING AFFINITY PREDICTED BY RF-SCORE:    0.00 PKD
ROOT
HETATM    1  O   UNL     1     -12.512  10.536  68.728  1.00  0.00    -0.748 OA 
HETATM    2  C   UNL     1     -11.270  11.033  69.244  1.00  0.00    -0.257 C  
HETATM    3  H   UNL     1     -13.205  11.163  68.894  1.00  0.00     0.000 HD 
ENDROOT
BRANCH   2   4
HETATM    4  C   UNL     1     -11.068  12.397  68.619  1.00  0.00    -0.297 A  
HETATM    5  C   UNL     1     -10.839  14.970  67.517  1.00  0.00    -0.297 A  
HETATM    6  C   UNL     1     -10.578  13.465  69.391  1.00  0.00     0.164 A  
HETATM    7  O   UNL     1     -10.391  17.240  67.706  1.00  0.00    -0.326 OA 
HETATM    8  O   UNL     1     -11.092  16.479  65.772  1.00  0.00    -0.058 OA 
HETATM    9  C   UNL     1     -11.422  12.639  67.279  1.00  0.00    -0.402 A  
HETATM   10  C   UNL     1     -10.463  14.748  68.848  1.00  0.00    -0.249 A  
HETATM   11  N   UNL     1     -10.769  16.327  66.958  1.00  0.00    -0.279 N  
HETATM   12  C   UNL     1     -11.308  13.917  66.725  1.00  0.00    -0.347 A  
ENDBRANCH   2   4
BRANCH   2  13
HETATM   13  C   UNL     1     -10.136  10.005  68.973  1.00  0.00    -0.200 C  
BRANCH  13  14
HETATM   14  N   UNL     1     -10.662   8.635  69.188  1.00  0.00    -0.376 N  
HETATM   15  C   UNL     1     -11.309   6.319  68.523  1.00  0.00    -0.048 C  
HETATM   16  C   UNL     1     -10.877   7.745  68.150  1.00  0.00     0.052 C  
HETATM   17  H   UNL     1     -10.873   8.336  70.141  1.00  0.00     0.000 HD 
HETATM   18  O   UNL     1     -10.703   8.071  66.975  1.00  0.00    -0.328 OA 
HETATM   19 CL   UNL     1     -12.090   6.263  70.117  1.00  0.00     0.000 Cl 
HETATM   20 CL   UNL     1      -9.892   5.255  68.481  1.00  0.00    -0.194 Cl 
ENDBRANCH  13  14
BRANCH  13  21
HETATM   21  C   UNL     1      -8.910  10.298  69.867  1.00  0.00     0.054 C  
BRANCH  21  22
HETATM   22  O   UNL     1      -7.833  10.913  69.134  1.00  0.00    -0.139 OA 
BRANCH  22  23
HETATM   23  C   UNL     1      -6.657  11.022  69.806  1.00  0.00    -0.143 C  
HETATM   24  O   UNL     1      -5.977  10.080  70.195  1.00  0.00    -0.048 OA 
BRANCH  23  25
HETATM   25  C   UNL     1      -6.277  12.465  70.003  1.00  0.00    -0.075 C  
BRANCH  25  26
HETATM   26  C   UNL     1      -6.831  13.346  68.901  1.00  0.00    -0.111 C  
HETATM   27  C   UNL     1      -5.778  13.782  67.913  1.00  0.00    -0.114 C  
HETATM   28  O   UNL     1      -5.243  12.775  67.193  1.00  0.00    -0.326 OA 
HETATM   29  O   UNL     1      -5.457  14.949  67.755  1.00  0.00    -0.239 OA 
ENDBRANCH  25  26
ENDBRANCH  23  25
ENDBRANCH  22  23
ENDBRANCH  21  22
ENDBRANCH  13  21
ENDBRANCH   2  13
TORSDOF 8
ENDMDL
MODEL      310
REMARK 921   NORMALIZED FREE ENERGY PREDICTED BY IDOCK:   -3.45 KCAL/MOL
REMARK 922        TOTAL FREE ENERGY PREDICTED BY IDOCK:   -6.53 KCAL/MOL
REMARK 923 INTER-LIGAND FREE ENERGY PREDICTED BY IDOCK:   -6.07 KCAL/MOL
REMARK 924 INTRA-LIGAND FREE ENERGY PREDICTED BY IDOCK:   -0.47 KCAL/MOL
REMARK 927      BINDING AFFINITY PREDICTED BY RF-SCORE:    0.00 PKD
ROOT
HETATM    1  O   UNL     1      -9.953   8.487  67.992  1.00  0.00    -0.167 OA 
HETATM    2  C   UNL     1      -9.760   8.410  66.573  1.00  0.00    -0.260 C  
HETATM    3  H   UNL     1     -10.604   7.852  68.264  1.00  0.00     0.000 HD 
ENDROOT
BRANCH   2   4
HETATM    4  C   UNL     1      -9.419   6.966  66.271  1.00  0.00    -0.122 A  
HETATM    5  C   UNL     1      -8.879   4.298  65.578  1.00  0.00    -0.124 A  
HETATM    6  C   UNL     1      -8.392   6.657  65.363  1.00  0.00    -0.130 A  
HETATM    7  O   UNL     1      -7.757   2.702  64.322  1.00  0.00    -0.073 OA 
HETATM    8  O   UNL     1      -9.312   2.022  65.712  1.00  0.00    -0.041 OA 
HETATM    9  C   UNL     1     -10.157   5.913  66.841  1.00  0.00    -0.228 A  
HETATM   10  C   UNL     1      -8.119   5.330  65.014  1.00  0.00    -0.120 A  
HETATM   11  N   UNL     1      -8.631   2.908  65.175  1.00  0.00    -0.100 N  
HETATM   12  C   UNL     1      -9.892   4.584  66.501  1.00  0.00    -0.244 A  
ENDBRANCH   2   4
BRANCH   2  13
HETATM   13  C   UNL     1      -8.695   9.450  66.127  1.00  0.00    -0.147 C  
BRANCH  13  14
HETATM   14  N   UNL     1      -7.773   9.715  67.258  1.00  0.00    -0.092 N  
HETATM   15  C   UNL     1      -6.010  10.962  68.509  1.00  0.00    -0.043 C  
HETATM   16  C   UNL     1      -6.818  10.717  67.226  1.00  0.00    -0.081 C  
HETATM   17  H   UNL     1      -7.845   9.135  68.094  1.00  0.00     0.000 HD 
HETATM   18  O   UNL     1      -6.641  11.406  66.221  1.00  0.00    -0.078 OA 
HETATM   19 CL   UNL     1      -5.968   9.520  69.546  1.00  0.00    -0.033 Cl 
HETATM   20 CL   UNL     1      -6.710  12.339  69.380  1.00  0.00    -0.081 Cl 
ENDBRANCH  13  14
BRANCH  13  21
HETATM   21  C   UNL     1      -9.374  10.744  65.624  1.00  0.00    -0.207 C  
BRANCH  21  22
HETATM   22  O   UNL     1     -10.012  11.477  66.687  1.00  0.00    -0.201 OA 
BRANCH  22  23
HETATM   23  C   UNL     1     -10.918  12.410  66.293  1.00  0.00    -0.286 C  
HETATM   24  O   UNL     1     -12.121  12.365  66.520  1.00  0.00    -0.599 OA 
BRANCH  23  25
HETATM   25  C   UNL     1     -10.250  13.531  65.542  1.00  0.00    -0.308 C  
BRANCH  25  26
HETATM   26  C   UNL     1     -10.967  14.850  65.752  1.00  0.00    -0.345 C  
HETATM   27  C   UNL     1     -11.730  15.303  64.532  1.00  0.00    -0.305 C  
HETATM   28  O   UNL     1     -12.760  14.502  64.195  1.00  0.00    -0.711 OA 
HETATM   29  O   UNL     1     -11.459  16.323  63.919  1.00  0.00    -0.940 OA 
ENDBRANCH  25  26
ENDBRANCH  23  25
ENDBRANCH  22  23
ENDBRANCH  21  22
ENDBRANCH  13  21
ENDBRANCH   2  13
TORSDOF 8
ENDMDL
MODEL      311
REMARK 921   NORMALIZED FREE ENERGY PREDICTED BY IDOCK:   -3.44 KCAL/MOL
REMARK 922        TOTAL FREE ENERGY PREDICTED BY IDOCK:   -6.52 KCAL/MOL
REMARK 923 INTER-LIGAND FREE ENERGY PREDICTED BY IDOCK:   -6.24 KCAL/MOL
REMARK 924 INTRA-LIGAND FREE ENERGY PREDICTED BY IDOCK:   -0.28 KCAL/MOL
REMARK 927      BINDING AFFINITY PREDICTED BY RF-SCORE:    0.00 PKD
ROOT
HETATM    1  O   UNL     1     -11.666  10.379  67.330  1.00  0.00    -0.435 OA 
HETATM    2  C   UNL     1     -11.585  11.198  68.505  1.00  0.00    -0.314 C  
HETATM    3  H   UNL     1     -12.180  10.821  66.665  1.00  0.00     0.000 HD 
ENDROOT
BRANCH   2   4
HETATM    4  C   UNL     1     -11.039  12.535  68.051  1.00  0.00    -0.285 A  
HETATM    5  C   UNL     1     -10.177  15.076  67.219  1.00  0.00    -0.242 A  
HETATM    6  C   UNL     1     -10.705  13.522  68.995  1.00  0.00    -0.180 A  
HETATM    7  O   UNL     1      -9.558  17.269  67.663  1.00  0.00    -0.250 OA 
HETATM    8  O   UNL     1      -9.682  16.630  65.568  1.00  0.00    -0.538 OA 
HETATM    9  C   UNL     1     -10.914  12.839  66.683  1.00  0.00    -0.300 A  
HETATM   10  C   UNL     1     -10.276  14.788  68.586  1.00  0.00    -0.236 A  
HETATM   11  N   UNL     1      -9.777  16.421  66.786  1.00  0.00    -0.241 N  
HETATM   12  C   UNL     1     -10.483  14.101  66.263  1.00  0.00    -0.286 A  
ENDBRANCH   2   4
BRANCH   2  13
HETATM   13  C   UNL     1     -10.745  10.475  69.595  1.00  0.00    -0.259 C  
BRANCH  13  14
HETATM   14  N   UNL     1      -9.313  10.809  69.404  1.00  0.00    -0.415 N  
HETATM   15  C   UNL     1      -7.092  10.731  68.270  1.00  0.00    -0.078 C  
HETATM   16  C   UNL     1      -8.525  10.206  68.439  1.00  0.00    -0.118 C  
HETATM   17  H   UNL     1      -8.890  11.513  70.010  1.00  0.00     0.000 HD 
HETATM   18  O   UNL     1      -8.963   9.305  67.722  1.00  0.00    -0.127 OA 
HETATM   19 CL   UNL     1      -6.500  11.519  69.747  1.00  0.00    -0.137 Cl 
HETATM   20 CL   UNL     1      -7.044  11.854  66.898  1.00  0.00    -0.110 Cl 
ENDBRANCH  13  14
BRANCH  13  21
HETATM   21  C   UNL     1     -10.991   8.951  69.551  1.00  0.00    -0.084 C  
BRANCH  21  22
HETATM   22  O   UNL     1     -10.975   8.356  70.864  1.00  0.00    -0.232 OA 
BRANCH  22  23
HETATM   23  C   UNL     1      -9.747   8.228  71.433  1.00  0.00    -0.183 C  
HETATM   24  O   UNL     1      -9.101   9.144  71.926  1.00  0.00    -0.354 OA 
BRANCH  23  25
HETATM   25  C   UNL     1      -9.279   6.798  71.396  1.00  0.00    -0.153 C  
BRANCH  25  26
HETATM   26  C   UNL     1      -9.480   6.109  72.731  1.00  0.00    -0.151 C  
HETATM   27  C   UNL     1     -10.152   4.765  72.602  1.00  0.00    -0.176 C  
HETATM   28  O   UNL     1      -9.422   3.842  71.943  1.00  0.00    -0.123 OA 
HETATM   29  O   UNL     1     -11.250   4.521  73.077  1.00  0.00    -0.232 OA 
ENDBRANCH  25  26
ENDBRANCH  23  25
ENDBRANCH  22  23
ENDBRANCH  21  22
ENDBRANCH  13  21
ENDBRANCH   2  13
TORSDOF 8
ENDMDL
MODEL      312
REMARK 921   NORMALIZED FREE ENERGY PREDICTED BY IDOCK:   -3.44 KCAL/MOL
REMARK 922        TOTAL FREE ENERGY PREDICTED BY IDOCK:   -6.52 KCAL/MOL
REMARK 923 INTER-LIGAND FREE ENERGY PREDICTED BY IDOCK:   -5.60 KCAL/MOL
REMARK 924 INTRA-LIGAND FREE ENERGY PREDICTED BY IDOCK:   -0.91 KCAL/MOL
REMARK 927      BINDING AFFINITY PREDICTED BY RF-SCORE:    0.00 PKD
ROOT
HETATM    1  O   UNL     1     -10.825  10.675  70.639  1.00  0.00    -0.394 OA 
HETATM    2  C   UNL     1     -11.004   9.687  69.614  1.00  0.00    -0.229 C  
HETATM    3  H   UNL     1     -11.153  10.344  71.466  1.00  0.00     0.000 HD 
ENDROOT
BRANCH   2   4
HETATM    4  C   UNL     1     -10.331   8.428  70.119  1.00  0.00    -0.214 A  
HETATM    5  C   UNL     1      -8.972   6.111  70.939  1.00  0.00    -0.143 A  
HETATM    6  C   UNL     1      -9.238   8.513  70.999  1.00  0.00    -0.227 A  
HETATM    7  O   UNL     1      -7.234   5.049  72.051  1.00  0.00    -0.077 OA 
HETATM    8  O   UNL     1      -8.638   3.814  70.905  1.00  0.00    -0.070 OA 
HETATM    9  C   UNL     1     -10.743   7.159  69.674  1.00  0.00    -0.256 A  
HETATM   10  C   UNL     1      -8.558   7.363  71.410  1.00  0.00    -0.118 A  
HETATM   11  N   UNL     1      -8.228   4.905  71.326  1.00  0.00    -0.108 N  
HETATM   12  C   UNL     1     -10.071   6.002  70.080  1.00  0.00    -0.249 A  
ENDBRANCH   2   4
BRANCH   2  13
HETATM   13  C   UNL     1     -10.467  10.228  68.260  1.00  0.00    -0.199 C  
BRANCH  13  14
HETATM   14  N   UNL     1      -9.256  11.047  68.510  1.00  0.00    -0.171 N  
HETATM   15  C   UNL     1      -7.075  12.113  67.936  1.00  0.00    -0.101 C  
HETATM   16  C   UNL     1      -8.212  11.136  67.605  1.00  0.00    -0.118 C  
HETATM   17  H   UNL     1      -9.189  11.567  69.386  1.00  0.00     0.000 HD 
HETATM   18  O   UNL     1      -8.207  10.482  66.561  1.00  0.00    -0.124 OA 
HETATM   19 CL   UNL     1      -6.966  12.433  69.680  1.00  0.00     0.145 Cl 
HETATM   20 CL   UNL     1      -7.327  13.621  67.038  1.00  0.00     0.163 Cl 
ENDBRANCH  13  14
BRANCH  13  21
HETATM   21  C   UNL     1     -11.561  11.031  67.521  1.00  0.00    -0.080 C  
BRANCH  21  22
HETATM   22  O   UNL     1     -11.088  12.315  67.072  1.00  0.00    -0.258 OA 
BRANCH  22  23
HETATM   23  C   UNL     1     -11.871  12.937  66.151  1.00  0.00    -0.429 C  
HETATM   24  O   UNL     1     -12.586  12.369  65.335  1.00  0.00    -0.637 OA 
BRANCH  23  25
HETATM   25  C   UNL     1     -11.762  14.434  66.269  1.00  0.00    -0.394 C  
BRANCH  25  26
HETATM   26  C   UNL     1     -10.689  14.841  67.260  1.00  0.00    -0.294 C  
HETATM   27  C   UNL     1     -11.163  15.883  68.242  1.00  0.00    -0.354 C  
HETATM   28  O   UNL     1     -12.134  15.458  69.075  1.00  0.00    -0.312 OA 
HETATM   29  O   UNL     1     -10.688  17.006  68.301  1.00  0.00    -0.358 OA 
ENDBRANCH  25  26
ENDBRANCH  23  25
ENDBRANCH  22  23
ENDBRANCH  21  22
ENDBRANCH  13  21
ENDBRANCH   2  13
TORSDOF 8
ENDMDL
MODEL      313
REMARK 921   NORMALIZED FREE ENERGY PREDICTED BY IDOCK:   -3.42 KCAL/MOL
REMARK 922        TOTAL FREE ENERGY PREDICTED BY IDOCK:   -6.48 KCAL/MOL
REMARK 923 INTER-LIGAND FREE ENERGY PREDICTED BY IDOCK:   -5.51 KCAL/MOL
REMARK 924 INTRA-LIGAND FREE ENERGY PREDICTED BY IDOCK:   -0.98 KCAL/MOL
REMARK 927      BINDING AFFINITY PREDICTED BY RF-SCORE:    0.00 PKD
ROOT
HETATM    1  O   UNL     1      -7.619   6.450  72.171  1.00  0.00    -0.093 OA 
HETATM    2  C   UNL     1      -7.947   7.372  71.122  1.00  0.00    -0.100 C  
HETATM    3  H   UNL     1      -7.913   6.793  73.006  1.00  0.00     0.000 HD 
ENDROOT
BRANCH   2   4
HETATM    4  C   UNL     1      -9.437   7.620  71.230  1.00  0.00    -0.166 A  
HETATM    5  C   UNL     1     -12.185   8.076  71.590  1.00  0.00    -0.307 A  
HETATM    6  C   UNL     1      -9.926   8.922  71.430  1.00  0.00    -0.378 A  
HETATM    7  O   UNL     1     -13.978   9.471  72.066  1.00  0.00    -0.311 OA 
HETATM    8  O   UNL     1     -14.375   7.332  71.785  1.00  0.00    -0.427 OA 
HETATM    9  C   UNL     1     -10.353   6.553  71.193  1.00  0.00    -0.237 A  
HETATM   10  C   UNL     1     -11.292   9.155  71.610  1.00  0.00    -0.446 A  
HETATM   11  N   UNL     1     -13.615   8.310  71.831  1.00  0.00    -0.356 N  
HETATM   12  C   UNL     1     -11.722   6.774  71.370  1.00  0.00    -0.371 A  
ENDBRANCH   2   4
BRANCH   2  13
HETATM   13  C   UNL     1      -7.466   6.810  69.756  1.00  0.00    -0.091 C  
BRANCH  13  14
HETATM   14  N   UNL     1      -8.290   7.398  68.672  1.00  0.00    -0.128 N  
HETATM   15  C   UNL     1      -8.899   9.092  66.944  1.00  0.00    -0.123 C  
HETATM   16  C   UNL     1      -8.045   8.654  68.143  1.00  0.00    -0.115 C  
HETATM   17  H   UNL     1      -9.070   6.855  68.301  1.00  0.00     0.000 HD 
HETATM   18  O   UNL     1      -7.160   9.382  68.595  1.00  0.00    -0.068 OA 
HETATM   19 CL   UNL     1     -10.449   8.225  66.887  1.00  0.00    -0.390 Cl 
HETATM   20 CL   UNL     1      -7.979   8.830  65.452  1.00  0.00    -0.106 Cl 
ENDBRANCH  13  14
BRANCH  13  21
HETATM   21  C   UNL     1      -7.524   5.266  69.749  1.00  0.00    -0.065 C  
BRANCH  21  22
HETATM   22  O   UNL     1      -8.091   4.745  68.531  1.00  0.00    -0.084 OA 
BRANCH  22  23
HETATM   23  C   UNL     1      -9.072   3.818  68.692  1.00  0.00    -0.142 C  
HETATM   24  O   UNL     1      -9.580   3.509  69.763  1.00  0.00    -0.184 OA 
BRANCH  23  25
HETATM   25  C   UNL     1      -9.474   3.219  67.371  1.00  0.00    -0.198 C  
BRANCH  25  26
HETATM   26  C   UNL     1      -8.743   3.871  66.215  1.00  0.00    -0.115 C  
HETATM   27  C   UNL     1      -9.420   3.640  64.887  1.00  0.00    -0.161 C  
HETATM   28  O   UNL     1     -10.636   4.213  64.779  1.00  0.00    -0.251 OA 
HETATM   29  O   UNL     1      -8.903   3.014  63.976  1.00  0.00    -0.095 OA 
ENDBRANCH  25  26
ENDBRANCH  23  25
ENDBRANCH  22  23
ENDBRANCH  21  22
ENDBRANCH  13  21
ENDBRANCH   2  13
TORSDOF 8
ENDMDL
MODEL      314
REMARK 921   NORMALIZED FREE ENERGY PREDICTED BY IDOCK:   -3.39 KCAL/MOL
REMARK 922        TOTAL FREE ENERGY PREDICTED BY IDOCK:   -6.45 KCAL/MOL
REMARK 923 INTER-LIGAND FREE ENERGY PREDICTED BY IDOCK:   -5.39 KCAL/MOL
REMARK 924 INTRA-LIGAND FREE ENERGY PREDICTED BY IDOCK:   -1.06 KCAL/MOL
REMARK 927      BINDING AFFINITY PREDICTED BY RF-SCORE:    0.00 PKD
ROOT
HETATM    1  O   UNL     1      -7.490  14.352  66.984  1.00  0.00    -0.305 OA 
HETATM    2  C   UNL     1      -7.935  13.665  68.162  1.00  0.00    -0.148 C  
HETATM    3  H   UNL     1      -6.548  14.268  66.898  1.00  0.00     0.000 HD 
ENDROOT
BRANCH   2   4
HETATM    4  C   UNL     1      -7.422  12.246  68.043  1.00  0.00    -0.115 A  
HETATM    5  C   UNL     1      -6.604   9.576  67.740  1.00  0.00    -0.062 A  
HETATM    6  C   UNL     1      -6.738  11.834  66.886  1.00  0.00    -0.105 A  
HETATM    7  O   UNL     1      -5.681   7.853  66.488  1.00  0.00    -0.037 OA 
HETATM    8  O   UNL     1      -6.466   7.381  68.482  1.00  0.00    -0.038 OA 
HETATM    9  C   UNL     1      -7.670  11.299  69.054  1.00  0.00    -0.095 A  
HETATM   10  C   UNL     1      -6.329  10.506  66.730  1.00  0.00    -0.079 A  
HETATM   11  N   UNL     1      -6.223   8.169  67.557  1.00  0.00    -0.051 N  
HETATM   12  C   UNL     1      -7.264   9.970  68.909  1.00  0.00    -0.077 A  
ENDBRANCH   2   4
BRANCH   2  13
HETATM   13  C   UNL     1      -9.477  13.803  68.302  1.00  0.00    -0.214 C  
BRANCH  13  14
HETATM   14  N   UNL     1     -10.094  13.740  66.955  1.00  0.00    -0.252 N  
HETATM   15  C   UNL     1     -11.583  12.817  65.179  1.00  0.00    -0.338 C  
HETATM   16  C   UNL     1     -10.914  12.698  66.555  1.00  0.00    -0.269 C  
HETATM   17  H   UNL     1      -9.908  14.496  66.296  1.00  0.00     0.000 HD 
HETATM   18  O   UNL     1     -11.123  11.727  67.284  1.00  0.00    -0.253 OA 
HETATM   19 CL   UNL     1     -10.682  13.902  64.099  1.00  0.00    -0.128 Cl 
HETATM   20 CL   UNL     1     -13.248  13.388  65.392  1.00  0.00    -0.061 Cl 
ENDBRANCH  13  14
BRANCH  13  21
HETATM   21  C   UNL     1      -9.843  15.109  69.042  1.00  0.00    -0.238 C  
BRANCH  21  22
HETATM   22  O   UNL     1     -11.267  15.307  69.132  1.00  0.00    -0.246 OA 
BRANCH  22  23
HETATM   23  C   UNL     1     -11.934  14.413  69.909  1.00  0.00    -0.335 C  
HETATM   24  O   UNL     1     -12.616  13.486  69.490  1.00  0.00    -0.113 OA 
BRANCH  23  25
HETATM   25  C   UNL     1     -11.715  14.698  71.371  1.00  0.00    -0.298 C  
BRANCH  25  26
HETATM   26  C   UNL     1     -12.938  15.328  72.008  1.00  0.00    -0.455 C  
HETATM   27  C   UNL     1     -12.612  16.108  73.257  1.00  0.00    -0.519 C  
HETATM   28  O   UNL     1     -11.843  17.196  73.045  1.00  0.00    -0.100 OA 
HETATM   29  O   UNL     1     -13.031  15.802  74.361  1.00  0.00    -0.459 OA 
ENDBRANCH  25  26
ENDBRANCH  23  25
ENDBRANCH  22  23
ENDBRANCH  21  22
ENDBRANCH  13  21
ENDBRANCH   2  13
TORSDOF 8
ENDMDL
MODEL      315
REMARK 921   NORMALIZED FREE ENERGY PREDICTED BY IDOCK:   -3.39 KCAL/MOL
REMARK 922        TOTAL FREE ENERGY PREDICTED BY IDOCK:   -6.44 KCAL/MOL
REMARK 923 INTER-LIGAND FREE ENERGY PREDICTED BY IDOCK:   -5.62 KCAL/MOL
REMARK 924 INTRA-LIGAND FREE ENERGY PREDICTED BY IDOCK:   -0.81 KCAL/MOL
REMARK 927      BINDING AFFINITY PREDICTED BY RF-SCORE:    0.00 PKD
ROOT
HETATM    1  O   UNL     1     -10.424  13.042  69.451  1.00  0.00    -0.415 OA 
HETATM    2  C   UNL     1      -9.426  13.399  68.484  1.00  0.00    -0.121 C  
HETATM    3  H   UNL     1     -10.528  13.745  70.081  1.00  0.00     0.000 HD 
ENDROOT
BRANCH   2   4
HETATM    4  C   UNL     1      -9.857  14.729  67.903  1.00  0.00    -0.212 A  
HETATM    5  C   UNL     1     -10.501  17.226  66.789  1.00  0.00    -0.261 A  
HETATM    6  C   UNL     1     -10.076  14.861  66.521  1.00  0.00    -0.279 A  
HETATM    7  O   UNL     1     -10.904  18.606  64.967  1.00  0.00    -0.546 OA 
HETATM    8  O   UNL     1     -10.890  19.507  66.967  1.00  0.00    -0.487 OA 
HETATM    9  C   UNL     1      -9.987  15.868  68.719  1.00  0.00    -0.220 A  
HETATM   10  C   UNL     1     -10.396  16.101  65.961  1.00  0.00    -0.372 A  
HETATM   11  N   UNL     1     -10.785  18.540  66.198  1.00  0.00    -0.300 N  
HETATM   12  C   UNL     1     -10.309  17.112  68.170  1.00  0.00    -0.350 A  
ENDBRANCH   2   4
BRANCH   2  13
HETATM   13  C   UNL     1      -9.255  12.249  67.453  1.00  0.00    -0.182 C  
BRANCH  13  14
HETATM   14  N   UNL     1      -9.726  10.980  68.058  1.00  0.00    -0.168 N  
HETATM   15  C   UNL     1     -11.218   8.996  68.305  1.00  0.00     0.398 C  
HETATM   16  C   UNL     1     -10.909  10.366  67.685  1.00  0.00    -0.306 C  
HETATM   17  H   UNL     1      -9.154  10.541  68.780  1.00  0.00     0.000 HD 
HETATM   18  O   UNL     1     -11.673  10.882  66.867  1.00  0.00    -0.255 OA 
HETATM   19 CL   UNL     1     -10.371   8.765  69.849  1.00  0.00    -0.203 Cl 
HETATM   20 CL   UNL     1     -10.773   7.725  67.151  1.00  0.00    -0.391 Cl 
ENDBRANCH  13  14
BRANCH  13  21
HETATM   21  C   UNL     1      -7.787  12.152  66.983  1.00  0.00    -0.123 C  
BRANCH  21  22
HETATM   22  O   UNL     1      -7.570  11.043  66.089  1.00  0.00    -0.145 OA 
BRANCH  22  23
HETATM   23  C   UNL     1      -6.270  10.719  65.863  1.00  0.00    -0.121 C  
HETATM   24  O   UNL     1      -5.342  11.516  65.824  1.00  0.00    -0.264 OA 
BRANCH  23  25
HETATM   25  C   UNL     1      -6.105   9.233  65.680  1.00  0.00    -0.059 C  
BRANCH  25  26
HETATM   26  C   UNL     1      -5.805   8.537  66.992  1.00  0.00    -0.042 C  
HETATM   27  C   UNL     1      -6.652   7.309  67.211  1.00  0.00    -0.063 C  
HETATM   28  O   UNL     1      -6.420   6.312  66.332  1.00  0.00    -0.043 OA 
HETATM   29  O   UNL     1      -7.458   7.210  68.123  1.00  0.00    -0.094 OA 
ENDBRANCH  25  26
ENDBRANCH  23  25
ENDBRANCH  22  23
ENDBRANCH  21  22
ENDBRANCH  13  21
ENDBRANCH   2  13
TORSDOF 8
ENDMDL
MODEL      316
REMARK 921   NORMALIZED FREE ENERGY PREDICTED BY IDOCK:   -3.33 KCAL/MOL
REMARK 922        TOTAL FREE ENERGY PREDICTED BY IDOCK:   -6.36 KCAL/MOL
REMARK 923 INTER-LIGAND FREE ENERGY PREDICTED BY IDOCK:   -5.42 KCAL/MOL
REMARK 924 INTRA-LIGAND FREE ENERGY PREDICTED BY IDOCK:   -0.94 KCAL/MOL
REMARK 927      BINDING AFFINITY PREDICTED BY RF-SCORE:    0.00 PKD
ROOT
HETATM    1  O   UNL     1     -10.236  14.598  69.939  1.00  0.00    -0.440 OA 
HETATM    2  C   UNL     1      -9.053  15.073  69.281  1.00  0.00    -0.157 C  
HETATM    3  H   UNL     1     -10.605  15.287  70.477  1.00  0.00     0.000 HD 
ENDROOT
BRANCH   2   4
HETATM    4  C   UNL     1      -9.459  16.327  68.536  1.00  0.00    -0.219 A  
HETATM    5  C   UNL     1     -10.070  18.647  67.076  1.00  0.00    -0.363 A  
HETATM    6  C   UNL     1     -10.020  16.236  67.250  1.00  0.00    -0.250 A  
HETATM    7  O   UNL     1     -10.774  19.715  65.139  1.00  0.00    -0.330 OA 
HETATM    8  O   UNL     1     -10.120  20.954  66.827  1.00  0.00    -0.137 OA 
HETATM    9  C   UNL     1      -9.230  17.602  69.084  1.00  0.00     0.070 A  
HETATM   10  C   UNL     1     -10.326  17.388  66.519  1.00  0.00    -0.312 A  
HETATM   11  N   UNL     1     -10.341  19.859  66.291  1.00  0.00    -0.486 N  
HETATM   12  C   UNL     1      -9.533  18.760  68.363  1.00  0.00    -0.391 A  
ENDBRANCH   2   4
BRANCH   2  13
HETATM   13  C   UNL     1      -8.449  13.944  68.400  1.00  0.00    -0.159 C  
BRANCH  13  14
HETATM   14  N   UNL     1      -9.454  12.867  68.236  1.00  0.00    -0.244 N  
HETATM   15  C   UNL     1     -11.006  11.379  66.969  1.00  0.00    -0.292 C  
HETATM   16  C   UNL     1     -10.076  12.600  67.028  1.00  0.00    -0.224 C  
HETATM   17  H   UNL     1      -9.698  12.297  69.047  1.00  0.00     0.000 HD 
HETATM   18  O   UNL     1      -9.871  13.294  66.031  1.00  0.00    -0.285 OA 
HETATM   19 CL   UNL     1     -11.631  10.948  68.574  1.00  0.00    -0.376 Cl 
HETATM   20 CL   UNL     1     -10.128  10.016  66.251  1.00  0.00    -0.309 Cl 
ENDBRANCH  13  14
BRANCH  13  21
HETATM   21  C   UNL     1      -7.135  13.416  69.016  1.00  0.00    -0.053 C  
BRANCH  21  22
HETATM   22  O   UNL     1      -6.518  12.399  68.202  1.00  0.00    -0.062 OA 
BRANCH  22  23
HETATM   23  C   UNL     1      -6.051  11.315  68.875  1.00  0.00    -0.046 C  
HETATM   24  O   UNL     1      -5.735  11.302  70.058  1.00  0.00    -0.076 OA 
BRANCH  23  25
HETATM   25  C   UNL     1      -5.981  10.109  67.977  1.00  0.00    -0.041 C  
BRANCH  25  26
HETATM   26  C   UNL     1      -7.146   9.168  68.212  1.00  0.00    -0.077 C  
HETATM   27  C   UNL     1      -6.708   7.761  68.533  1.00  0.00    -0.058 C  
HETATM   28  O   UNL     1      -6.043   7.642  69.700  1.00  0.00    -0.029 OA 
HETATM   29  O   UNL     1      -6.959   6.805  67.817  1.00  0.00    -0.077 OA 
ENDBRANCH  25  26
ENDBRANCH  23  25
ENDBRANCH  22  23
ENDBRANCH  21  22
ENDBRANCH  13  21
ENDBRANCH   2  13
TORSDOF 8
ENDMDL
MODEL      317
REMARK 921   NORMALIZED FREE ENERGY PREDICTED BY IDOCK:   -3.33 KCAL/MOL
REMARK 922        TOTAL FREE ENERGY PREDICTED BY IDOCK:   -6.35 KCAL/MOL
REMARK 923 INTER-LIGAND FREE ENERGY PREDICTED BY IDOCK:   -5.13 KCAL/MOL
REMARK 924 INTRA-LIGAND FREE ENERGY PREDICTED BY IDOCK:   -1.22 KCAL/MOL
REMARK 927      BINDING AFFINITY PREDICTED BY RF-SCORE:    0.00 PKD
ROOT
HETATM    1  O   UNL     1     -12.466  15.908  68.599  1.00  0.00    -0.354 OA 
HETATM    2  C   UNL     1     -11.220  16.113  69.279  1.00  0.00    -0.337 C  
HETATM    3  H   UNL     1     -12.959  16.719  68.577  1.00  0.00     0.000 HD 
ENDROOT
BRANCH   2   4
HETATM    4  C   UNL     1     -10.537  17.264  68.569  1.00  0.00    -0.350 A  
HETATM    5  C   UNL     1      -9.139  19.305  67.239  1.00  0.00    -0.297 A  
HETATM    6  C   UNL     1     -10.512  17.316  67.165  1.00  0.00    -0.297 A  
HETATM    7  O   UNL     1      -8.326  20.297  65.304  1.00  0.00     0.072 OA 
HETATM    8  O   UNL     1      -7.795  21.197  67.233  1.00  0.00    -0.299 OA 
HETATM    9  C   UNL     1      -9.866  18.266  69.294  1.00  0.00    -0.058 A  
HETATM   10  C   UNL     1      -9.817  18.329  66.498  1.00  0.00    -0.363 A  
HETATM   11  N   UNL     1      -8.365  20.340  66.542  1.00  0.00    -0.244 N  
HETATM   12  C   UNL     1      -9.170  19.284  68.637  1.00  0.00    -0.436 A  
ENDBRANCH   2   4
BRANCH   2  13
HETATM   13  C   UNL     1     -10.413  14.786  69.316  1.00  0.00    -0.224 C  
BRANCH  13  14
HETATM   14  N   UNL     1      -9.193  14.936  68.486  1.00  0.00    -0.186 N  
HETATM   15  C   UNL     1      -6.756  14.773  67.978  1.00  0.00    -0.144 C  
HETATM   16  C   UNL     1      -7.921  14.697  68.976  1.00  0.00    -0.122 C  
HETATM   17  H   UNL     1      -9.296  15.227  67.514  1.00  0.00     0.000 HD 
HETATM   18  O   UNL     1      -7.729  14.405  70.158  1.00  0.00     0.373 OA 
HETATM   19 CL   UNL     1      -7.154  15.788  66.576  1.00  0.00     0.295 Cl 
HETATM   20 CL   UNL     1      -6.328  13.131  67.462  1.00  0.00    -0.164 Cl 
ENDBRANCH  13  14
BRANCH  13  21
HETATM   21  C   UNL     1     -11.288  13.603  68.844  1.00  0.00    -0.290 C  
BRANCH  21  22
HETATM   22  O   UNL     1     -11.476  13.598  67.415  1.00  0.00    -0.303 OA 
BRANCH  22  23
HETATM   23  C   UNL     1     -11.386  12.381  66.818  1.00  0.00    -0.335 C  
HETATM   24  O   UNL     1     -12.223  11.491  66.901  1.00  0.00    -0.135 OA 
BRANCH  23  25
HETATM   25  C   UNL     1     -10.117  12.264  66.016  1.00  0.00    -0.269 C  
BRANCH  25  26
HETATM   26  C   UNL     1     -10.249  11.242  64.904  1.00  0.00    -0.341 C  
HETATM   27  C   UNL     1      -9.001  11.124  64.065  1.00  0.00     0.024 C  
HETATM   28  O   UNL     1      -7.931  10.642  64.730  1.00  0.00    -0.091 OA 
HETATM   29  O   UNL     1      -8.967  11.409  62.879  1.00  0.00    -0.255 OA 
ENDBRANCH  25  26
ENDBRANCH  23  25
ENDBRANCH  22  23
ENDBRANCH  21  22
ENDBRANCH  13  21
ENDBRANCH   2  13
TORSDOF 8
ENDMDL
MODEL      318
REMARK 921   NORMALIZED FREE ENERGY PREDICTED BY IDOCK:   -3.30 KCAL/MOL
REMARK 922        TOTAL FREE ENERGY PREDICTED BY IDOCK:   -6.31 KCAL/MOL
REMARK 923 INTER-LIGAND FREE ENERGY PREDICTED BY IDOCK:   -6.37 KCAL/MOL
REMARK 924 INTRA-LIGAND FREE ENERGY PREDICTED BY IDOCK:    0.06 KCAL/MOL
REMARK 927      BINDING AFFINITY PREDICTED BY RF-SCORE:    0.00 PKD
ROOT
HETATM    1  O   UNL     1      -6.753  13.154  66.749  1.00  0.00    -0.334 OA 
HETATM    2  C   UNL     1      -7.167  12.921  68.102  1.00  0.00    -0.114 C  
HETATM    3  H   UNL     1      -5.997  12.617  66.545  1.00  0.00     0.000 HD 
ENDROOT
BRANCH   2   4
HETATM    4  C   UNL     1      -7.384  11.427  68.226  1.00  0.00    -0.089 A  
HETATM    5  C   UNL     1      -7.947   8.685  68.446  1.00  0.00    -0.113 A  
HETATM    6  C   UNL     1      -7.567  10.641  67.076  1.00  0.00    -0.110 A  
HETATM    7  O   UNL     1      -8.507   6.634  67.514  1.00  0.00    -0.120 OA 
HETATM    8  O   UNL     1      -8.352   6.772  69.697  1.00  0.00    -0.129 OA 
HETATM    9  C   UNL     1      -7.468  10.810  69.487  1.00  0.00    -0.113 A  
HETATM   10  C   UNL     1      -7.848   9.275  67.179  1.00  0.00    -0.099 A  
HETATM   11  N   UNL     1      -8.293   7.262  68.560  1.00  0.00    -0.125 N  
HETATM   12  C   UNL     1      -7.746   9.446  69.603  1.00  0.00    -0.098 A  
ENDBRANCH   2   4
BRANCH   2  13
HETATM   13  C   UNL     1      -8.404  13.801  68.435  1.00  0.00    -0.152 C  
BRANCH  13  14
HETATM   14  N   UNL     1      -9.540  12.921  68.803  1.00  0.00    -0.412 N  
HETATM   15  C   UNL     1     -11.595  11.569  68.385  1.00  0.00    -0.308 C  
HETATM   16  C   UNL     1     -10.544  12.584  67.912  1.00  0.00    -0.218 C  
HETATM   17  H   UNL     1      -9.583  12.548  69.752  1.00  0.00     0.000 HD 
HETATM   18  O   UNL     1     -10.580  13.054  66.773  1.00  0.00    -0.259 OA 
HETATM   19 CL   UNL     1     -11.723  11.531  70.157  1.00  0.00    -0.406 Cl 
HETATM   20 CL   UNL     1     -11.177   9.966  67.754  1.00  0.00    -0.202 Cl 
ENDBRANCH  13  14
BRANCH  13  21
HETATM   21  C   UNL     1      -8.753  14.724  67.247  1.00  0.00    -0.210 C  
BRANCH  21  22
HETATM   22  O   UNL     1      -9.416  15.932  67.668  1.00  0.00    -0.217 OA 
BRANCH  22  23
HETATM   23  C   UNL     1     -10.053  16.622  66.686  1.00  0.00    -0.301 C  
HETATM   24  O   UNL     1      -9.894  16.447  65.485  1.00  0.00    -0.522 OA 
BRANCH  23  25
HETATM   25  C   UNL     1     -11.005  17.634  67.265  1.00  0.00    -0.024 C  
BRANCH  25  26
HETATM   26  C   UNL     1     -10.309  18.946  67.571  1.00  0.00    -0.496 C  
HETATM   27  C   UNL     1      -9.784  19.633  66.335  1.00  0.00    -0.409 C  
HETATM   28  O   UNL     1     -10.743  20.045  65.481  1.00  0.00    -0.426 OA 
HETATM   29  O   UNL     1      -8.596  19.830  66.137  1.00  0.00    -0.360 OA 
ENDBRANCH  25  26
ENDBRANCH  23  25
ENDBRANCH  22  23
ENDBRANCH  21  22
ENDBRANCH  13  21
ENDBRANCH   2  13
TORSDOF 8
ENDMDL
MODEL      319
REMARK 921   NORMALIZED FREE ENERGY PREDICTED BY IDOCK:   -3.25 KCAL/MOL
REMARK 922        TOTAL FREE ENERGY PREDICTED BY IDOCK:   -6.24 KCAL/MOL
REMARK 923 INTER-LIGAND FREE ENERGY PREDICTED BY IDOCK:   -5.30 KCAL/MOL
REMARK 924 INTRA-LIGAND FREE ENERGY PREDICTED BY IDOCK:   -0.95 KCAL/MOL
REMARK 927      BINDING AFFINITY PREDICTED BY RF-SCORE:    0.00 PKD
ROOT
HETATM    1  O   UNL     1      -9.937   8.655  66.332  1.00  0.00    -0.267 OA 
HETATM    2  C   UNL     1      -9.124   8.716  67.512  1.00  0.00    -0.134 C  
HETATM    3  H   UNL     1      -9.428   8.315  65.606  1.00  0.00     0.000 HD 
ENDROOT
BRANCH   2   4
HETATM    4  C   UNL     1      -8.565   7.323  67.711  1.00  0.00    -0.120 A  
HETATM    5  C   UNL     1      -7.440   4.760  67.947  1.00  0.00    -0.078 A  
HETATM    6  C   UNL     1      -7.324   7.142  68.347  1.00  0.00    -0.100 A  
HETATM    7  O   UNL     1      -5.703   3.339  68.538  1.00  0.00    -0.021 OA 
HETATM    8  O   UNL     1      -7.469   2.470  67.571  1.00  0.00    -0.056 OA 
HETATM    9  C   UNL     1      -9.241   6.193  67.215  1.00  0.00    -0.117 A  
HETATM   10  C   UNL     1      -6.760   5.868  68.467  1.00  0.00    -0.057 A  
HETATM   11  N   UNL     1      -6.827   3.428  68.024  1.00  0.00    -0.049 N  
HETATM   12  C   UNL     1      -8.687   4.916  67.331  1.00  0.00    -0.103 A  
ENDBRANCH   2   4
BRANCH   2  13
HETATM   13  C   UNL     1      -9.957   9.272  68.700  1.00  0.00    -0.178 C  
BRANCH  13  14
HETATM   14  N   UNL     1     -10.119   8.207  69.719  1.00  0.00    -0.193 N  
HETATM   15  C   UNL     1      -9.940   7.188  71.989  1.00  0.00    -0.162 C  
HETATM   16  C   UNL     1      -9.596   8.308  70.997  1.00  0.00    -0.160 C  
HETATM   17  H   UNL     1     -10.639   7.365  69.468  1.00  0.00     0.000 HD 
HETATM   18  O   UNL     1      -8.906   9.270  71.336  1.00  0.00    -0.313 OA 
HETATM   19 CL   UNL     1     -10.363   5.676  71.157  1.00  0.00    -0.281 Cl 
HETATM   20 CL   UNL     1     -11.273   7.724  73.028  1.00  0.00    -0.448 Cl 
ENDBRANCH  13  14
BRANCH  13  21
HETATM   21  C   UNL     1     -11.320   9.808  68.206  1.00  0.00     0.102 C  
BRANCH  21  22
HETATM   22  O   UNL     1     -11.436  11.236  68.364  1.00  0.00    -0.257 OA 
BRANCH  22  23
HETATM   23  C   UNL     1     -11.834  11.657  69.593  1.00  0.00    -0.352 C  
HETATM   24  O   UNL     1     -12.013  10.932  70.563  1.00  0.00    -0.313 OA 
BRANCH  23  25
HETATM   25  C   UNL     1     -12.016  13.152  69.621  1.00  0.00    -0.370 C  
BRANCH  25  26
HETATM   26  C   UNL     1     -10.856  13.869  68.959  1.00  0.00    -0.253 C  
HETATM   27  C   UNL     1     -11.286  15.097  68.196  1.00  0.00    -0.320 C  
HETATM   28  O   UNL     1     -11.789  16.081  68.969  1.00  0.00    -0.362 OA 
HETATM   29  O   UNL     1     -11.161  15.207  66.987  1.00  0.00    -0.335 OA 
ENDBRANCH  25  26
ENDBRANCH  23  25
ENDBRANCH  22  23
ENDBRANCH  21  22
ENDBRANCH  13  21
ENDBRANCH   2  13
TORSDOF 8
ENDMDL
MODEL      320
REMARK 921   NORMALIZED FREE ENERGY PREDICTED BY IDOCK:   -3.24 KCAL/MOL
REMARK 922        TOTAL FREE ENERGY PREDICTED BY IDOCK:   -6.22 KCAL/MOL
REMARK 923 INTER-LIGAND FREE ENERGY PREDICTED BY IDOCK:   -6.11 KCAL/MOL
REMARK 924 INTRA-LIGAND FREE ENERGY PREDICTED BY IDOCK:   -0.11 KCAL/MOL
REMARK 927      BINDING AFFINITY PREDICTED BY RF-SCORE:    0.00 PKD
ROOT
HETATM    1  O   UNL     1      -8.977  15.184  66.634  1.00  0.00    -0.251 OA 
HETATM    2  C   UNL     1      -9.728  14.001  66.942  1.00  0.00    -0.271 C  
HETATM    3  H   UNL     1      -9.560  15.931  66.579  1.00  0.00     0.000 HD 
ENDROOT
BRANCH   2   4
HETATM    4  C   UNL     1     -10.502  14.310  68.207  1.00  0.00    -0.247 A  
HETATM    5  C   UNL     1     -12.026  14.989  70.466  1.00  0.00    -0.308 A  
HETATM    6  C   UNL     1     -11.726  13.669  68.463  1.00  0.00    -0.392 A  
HETATM    7  O   UNL     1     -13.949  14.826  71.756  1.00  0.00    -0.390 OA 
HETATM    8  O   UNL     1     -12.396  16.242  72.384  1.00  0.00    -0.464 OA 
HETATM    9  C   UNL     1     -10.046  15.284  69.115  1.00  0.00    -0.240 A  
HETATM   10  C   UNL     1     -12.489  14.003  69.586  1.00  0.00    -0.204 A  
HETATM   11  N   UNL     1     -12.850  15.380  71.618  1.00  0.00    -0.385 N  
HETATM   12  C   UNL     1     -10.800  15.624  70.241  1.00  0.00    -0.366 A  
ENDBRANCH   2   4
BRANCH   2  13
HETATM   13  C   UNL     1      -8.774  12.778  67.032  1.00  0.00    -0.197 C  
BRANCH  13  14
HETATM   14  N   UNL     1      -8.814  12.036  65.749  1.00  0.00    -0.412 N  
HETATM   15  C   UNL     1      -8.093  10.310  64.098  1.00  0.00    -0.138 C  
HETATM   16  C   UNL     1      -7.866  11.089  65.401  1.00  0.00     0.180 C  
HETATM   17  H   UNL     1      -9.572  12.232  65.094  1.00  0.00     0.000 HD 
HETATM   18  O   UNL     1      -6.893  10.857  66.121  1.00  0.00    -0.132 OA 
HETATM   19 CL   UNL     1      -9.128  11.206  62.966  1.00  0.00    -0.284 Cl 
HETATM   20 CL   UNL     1      -8.805   8.733  64.483  1.00  0.00    -0.086 Cl 
ENDBRANCH  13  14
BRANCH  13  21
HETATM   21  C   UNL     1      -9.153  11.877  68.229  1.00  0.00    -0.183 C  
BRANCH  21  22
HETATM   22  O   UNL     1      -8.066  11.720  69.162  1.00  0.00     0.058 OA 
BRANCH  22  23
HETATM   23  C   UNL     1      -7.697  10.438  69.418  1.00  0.00    -0.158 C  
HETATM   24  O   UNL     1      -6.727   9.872  68.929  1.00  0.00    -0.052 OA 
BRANCH  23  25
HETATM   25  C   UNL     1      -8.633   9.792  70.405  1.00  0.00    -0.099 C  
BRANCH  25  26
HETATM   26  C   UNL     1      -9.883   9.266  69.729  1.00  0.00    -0.202 C  
HETATM   27  C   UNL     1     -11.025   9.052  70.691  1.00  0.00    -0.257 C  
HETATM   28  O   UNL     1     -11.494  10.185  71.254  1.00  0.00    -0.353 OA 
HETATM   29  O   UNL     1     -11.505   7.954  70.921  1.00  0.00    -0.280 OA 
ENDBRANCH  25  26
ENDBRANCH  23  25
ENDBRANCH  22  23
ENDBRANCH  21  22
ENDBRANCH  13  21
ENDBRANCH   2  13
TORSDOF 8
ENDMDL
MODEL      321
REMARK 921   NORMALIZED FREE ENERGY PREDICTED BY IDOCK:   -3.17 KCAL/MOL
REMARK 922        TOTAL FREE ENERGY PREDICTED BY IDOCK:   -6.11 KCAL/MOL
REMARK 923 INTER-LIGAND FREE ENERGY PREDICTED BY IDOCK:   -5.31 KCAL/MOL
REMARK 924 INTRA-LIGAND FREE ENERGY PREDICTED BY IDOCK:   -0.80 KCAL/MOL
REMARK 927      BINDING AFFINITY PREDICTED BY RF-SCORE:    0.00 PKD
ROOT
HETATM    1  O   UNL     1      -9.746   3.306  67.977  1.00  0.00    -0.144 OA 
HETATM    2  C   UNL     1      -8.987   4.511  68.156  1.00  0.00    -0.116 C  
HETATM    3  H   UNL     1      -9.790   2.828  68.796  1.00  0.00     0.000 HD 
ENDROOT
BRANCH   2   4
HETATM    4  C   UNL     1      -9.640   5.254  69.303  1.00  0.00    -0.214 A  
HETATM    5  C   UNL     1     -10.751   6.757  71.399  1.00  0.00    -0.224 A  
HETATM    6  C   UNL     1     -10.673   6.173  69.054  1.00  0.00    -0.377 A  
HETATM    7  O   UNL     1     -12.159   8.421  72.196  1.00  0.00    -0.327 OA 
HETATM    8  O   UNL     1     -10.860   7.389  73.630  1.00  0.00    -0.346 OA 
HETATM    9  C   UNL     1      -9.188   5.087  70.624  1.00  0.00    -0.195 A  
HETATM   10  C   UNL     1     -11.229   6.925  70.094  1.00  0.00    -0.361 A  
HETATM   11  N   UNL     1     -11.296   7.581  72.486  1.00  0.00    -0.315 N  
HETATM   12  C   UNL     1      -9.738   5.830  71.672  1.00  0.00    -0.192 A  
ENDBRANCH   2   4
BRANCH   2  13
HETATM   13  C   UNL     1      -8.915   5.293  66.815  1.00  0.00    -0.111 C  
BRANCH  13  14
HETATM   14  N   UNL     1      -8.114   4.513  65.841  1.00  0.00    -0.102 N  
HETATM   15  C   UNL     1      -7.750   2.925  63.952  1.00  0.00    -0.076 C  
HETATM   16  C   UNL     1      -8.674   3.573  64.993  1.00  0.00    -0.116 C  
HETATM   17  H   UNL     1      -7.107   4.677  65.793  1.00  0.00     0.000 HD 
HETATM   18  O   UNL     1      -9.871   3.287  65.049  1.00  0.00    -0.130 OA 
HETATM   19 CL   UNL     1      -6.047   2.988  64.451  1.00  0.00    -0.021 Cl 
HETATM   20 CL   UNL     1      -7.976   3.738  62.392  1.00  0.00    -0.062 Cl 
ENDBRANCH  13  14
BRANCH  13  21
HETATM   21  C   UNL     1      -8.331   6.706  67.039  1.00  0.00    -0.113 C  
BRANCH  21  22
HETATM   22  O   UNL     1      -8.199   7.445  65.809  1.00  0.00    -0.121 OA 
BRANCH  22  23
HETATM   23  C   UNL     1      -8.850   8.638  65.771  1.00  0.00    -0.193 C  
HETATM   24  O   UNL     1      -8.684   9.503  64.921  1.00  0.00    -0.165 OA 
BRANCH  23  25
HETATM   25  C   UNL     1      -9.824   8.760  66.912  1.00  0.00    -0.295 C  
BRANCH  25  26
HETATM   26  C   UNL     1      -9.705  10.101  67.608  1.00  0.00    -0.187 C  
HETATM   27  C   UNL     1     -10.963  10.927  67.508  1.00  0.00    -0.293 C  
HETATM   28  O   UNL     1     -12.025  10.398  68.149  1.00  0.00    -0.263 OA 
HETATM   29  O   UNL     1     -11.012  11.998  66.924  1.00  0.00    -0.253 OA 
ENDBRANCH  25  26
ENDBRANCH  23  25
ENDBRANCH  22  23
ENDBRANCH  21  22
ENDBRANCH  13  21
ENDBRANCH   2  13
TORSDOF 8
ENDMDL
MODEL      322
REMARK 921   NORMALIZED FREE ENERGY PREDICTED BY IDOCK:   -3.06 KCAL/MOL
REMARK 922        TOTAL FREE ENERGY PREDICTED BY IDOCK:   -5.96 KCAL/MOL
REMARK 923 INTER-LIGAND FREE ENERGY PREDICTED BY IDOCK:   -4.68 KCAL/MOL
REMARK 924 INTRA-LIGAND FREE ENERGY PREDICTED BY IDOCK:   -1.28 KCAL/MOL
REMARK 927      BINDING AFFINITY PREDICTED BY RF-SCORE:    0.00 PKD
ROOT
HETATM    1  O   UNL     1      -7.765  10.543  69.687  1.00  0.00    -0.213 OA 
HETATM    2  C   UNL     1      -8.901  10.132  68.912  1.00  0.00    -0.154 C  
HETATM    3  H   UNL     1      -7.851  10.226  70.577  1.00  0.00     0.000 HD 
ENDROOT
BRANCH   2   4
HETATM    4  C   UNL     1      -8.988   8.627  69.056  1.00  0.00    -0.142 A  
HETATM    5  C   UNL     1      -9.067   5.823  69.183  1.00  0.00    -0.117 A  
HETATM    6  C   UNL     1      -7.917   7.906  69.611  1.00  0.00    -0.118 A  
HETATM    7  O   UNL     1      -8.085   3.771  69.643  1.00  0.00    -0.054 OA 
HETATM    8  O   UNL     1     -10.099   3.784  68.774  1.00  0.00     0.160 OA 
HETATM    9  C   UNL     1     -10.108   7.919  68.585  1.00  0.00    -0.210 A  
HETATM   10  C   UNL     1      -7.951   6.510  69.676  1.00  0.00    -0.120 A  
HETATM   11  N   UNL     1      -9.085   4.354  69.202  1.00  0.00    -0.115 N  
HETATM   12  C   UNL     1     -10.154   6.523  68.647  1.00  0.00    -0.175 A  
ENDBRANCH   2   4
BRANCH   2  13
HETATM   13  C   UNL     1      -8.761  10.652  67.454  1.00  0.00    -0.125 C  
BRANCH  13  14
HETATM   14  N   UNL     1      -7.679   9.901  66.773  1.00  0.00    -0.098 N  
HETATM   15  C   UNL     1      -6.704   8.378  65.054  1.00  0.00    -0.063 C  
HETATM   16  C   UNL     1      -7.923   8.996  65.754  1.00  0.00    -0.103 C  
HETATM   17  H   UNL     1      -6.715  10.057  67.067  1.00  0.00     0.000 HD 
HETATM   18  O   UNL     1      -9.069   8.718  65.400  1.00  0.00    -0.200 OA 
HETATM   19 CL   UNL     1      -5.262   8.409  66.092  1.00  0.00    -0.027 Cl 
HETATM   20 CL   UNL     1      -6.403   9.248  63.539  1.00  0.00    -0.090 Cl 
ENDBRANCH  13  14
BRANCH  13  21
HETATM   21  C   UNL     1      -8.501  12.175  67.440  1.00  0.00    -0.173 C  
BRANCH  21  22
HETATM   22  O   UNL     1      -9.327  12.863  66.481  1.00  0.00    -0.246 OA 
BRANCH  22  23
HETATM   23  C   UNL     1      -9.778  14.085  66.868  1.00  0.00    -0.271 C  
HETATM   24  O   UNL     1      -9.782  15.089  66.167  1.00  0.00    -0.268 OA 
BRANCH  23  25
HETATM   25  C   UNL     1     -10.293  14.050  68.282  1.00  0.00    -0.247 C  
BRANCH  25  26
HETATM   26  C   UNL     1     -11.729  13.569  68.343  1.00  0.00    -0.393 C  
HETATM   27  C   UNL     1     -11.868  12.220  69.004  1.00  0.00    -0.305 C  
HETATM   28  O   UNL     1     -11.538  12.208  70.312  1.00  0.00    -0.208 OA 
HETATM   29  O   UNL     1     -12.273  11.229  68.418  1.00  0.00    -0.604 OA 
ENDBRANCH  25  26
ENDBRANCH  23  25
ENDBRANCH  22  23
ENDBRANCH  21  22
ENDBRANCH  13  21
ENDBRANCH   2  13
TORSDOF 8
ENDMDL
MODEL      323
REMARK 921   NORMALIZED FREE ENERGY PREDICTED BY IDOCK:   -3.00 KCAL/MOL
REMARK 922        TOTAL FREE ENERGY PREDICTED BY IDOCK:   -5.88 KCAL/MOL
REMARK 923 INTER-LIGAND FREE ENERGY PREDICTED BY IDOCK:   -4.53 KCAL/MOL
REMARK 924 INTRA-LIGAND FREE ENERGY PREDICTED BY IDOCK:   -1.35 KCAL/MOL
REMARK 927      BINDING AFFINITY PREDICTED BY RF-SCORE:    0.00 PKD
ROOT
HETATM    1  O   UNL     1      -9.343   8.754  65.413  1.00  0.00    -0.412 OA 
HETATM    2  C   UNL     1      -8.723   8.445  66.669  1.00  0.00    -0.131 C  
HETATM    3  H   UNL     1      -8.823   8.403  64.701  1.00  0.00     0.000 HD 
ENDROOT
BRANCH   2   4
HETATM    4  C   UNL     1      -8.533   6.943  66.688  1.00  0.00    -0.121 A  
HETATM    5  C   UNL     1      -8.249   4.155  66.870  1.00  0.00    -0.101 A  
HETATM    6  C   UNL     1      -9.591   6.091  66.326  1.00  0.00    -0.136 A  
HETATM    7  O   UNL     1      -9.108   2.002  66.743  1.00  0.00    -0.124 OA 
HETATM    8  O   UNL     1      -7.030   2.252  67.401  1.00  0.00    -0.043 OA 
HETATM    9  C   UNL     1      -7.324   6.371  67.123  1.00  0.00    -0.083 A  
HETATM   10  C   UNL     1      -9.455   4.702  66.416  1.00  0.00    -0.169 A  
HETATM   11  N   UNL     1      -8.120   2.699  67.015  1.00  0.00    -0.075 N  
HETATM   12  C   UNL     1      -7.176   4.984  67.213  1.00  0.00    -0.077 A  
ENDBRANCH   2   4
BRANCH   2  13
HETATM   13  C   UNL     1      -9.574   9.020  67.835  1.00  0.00    -0.147 C  
BRANCH  13  14
HETATM   14  N   UNL     1      -9.726   7.982  68.882  1.00  0.00    -0.156 N  
HETATM   15  C   UNL     1      -9.851   7.109  71.216  1.00  0.00    -0.177 C  
HETATM   16  C   UNL     1      -9.544   8.244  70.229  1.00  0.00    -0.168 C  
HETATM   17  H   UNL     1      -9.976   7.034  68.599  1.00  0.00     0.000 HD 
HETATM   18  O   UNL     1      -9.179   9.352  70.626  1.00  0.00    -0.244 OA 
HETATM   19 CL   UNL     1      -9.729   5.514  70.444  1.00  0.00    -0.226 Cl 
HETATM   20 CL   UNL     1     -11.470   7.354  71.896  1.00  0.00    -0.285 Cl 
ENDBRANCH  13  14
BRANCH  13  21
HETATM   21  C   UNL     1     -10.941   9.520  67.317  1.00  0.00     0.008 C  
BRANCH  21  22
HETATM   22  O   UNL     1     -11.078  10.950  67.425  1.00  0.00    -0.293 OA 
BRANCH  22  23
HETATM   23  C   UNL     1     -10.610  11.664  66.367  1.00  0.00    -0.258 C  
HETATM   24  O   UNL     1     -10.670  11.310  65.197  1.00  0.00    -0.288 OA 
BRANCH  23  25
HETATM   25  C   UNL     1     -10.011  12.970  66.817  1.00  0.00    -0.245 C  
BRANCH  25  26
HETATM   26  C   UNL     1      -9.123  12.790  68.032  1.00  0.00    -0.207 C  
HETATM   27  C   UNL     1      -7.654  12.876  67.703  1.00  0.00    -0.156 C  
HETATM   28  O   UNL     1      -7.254  14.089  67.270  1.00  0.00    -0.143 OA 
HETATM   29  O   UNL     1      -6.884  11.940  67.844  1.00  0.00    -0.072 OA 
ENDBRANCH  25  26
ENDBRANCH  23  25
ENDBRANCH  22  23
ENDBRANCH  21  22
ENDBRANCH  13  21
ENDBRANCH   2  13
TORSDOF 8
ENDMDL
MODEL      324
REMARK 921   NORMALIZED FREE ENERGY PREDICTED BY IDOCK:   -2.92 KCAL/MOL
REMARK 922        TOTAL FREE ENERGY PREDICTED BY IDOCK:   -5.76 KCAL/MOL
REMARK 923 INTER-LIGAND FREE ENERGY PREDICTED BY IDOCK:   -4.91 KCAL/MOL
REMARK 924 INTRA-LIGAND FREE ENERGY PREDICTED BY IDOCK:   -0.85 KCAL/MOL
REMARK 927      BINDING AFFINITY PREDICTED BY RF-SCORE:    0.00 PKD
ROOT
HETATM    1  O   UNL     1      -8.014   9.000  67.682  1.00  0.00    -0.100 OA 
HETATM    2  C   UNL     1      -8.652   9.087  66.400  1.00  0.00    -0.125 C  
HETATM    3  H   UNL     1      -8.298   8.213  68.130  1.00  0.00     0.000 HD 
ENDROOT
BRANCH   2   4
HETATM    4  C   UNL     1      -8.342   7.788  65.685  1.00  0.00    -0.143 A  
HETATM    5  C   UNL     1      -7.862   5.430  64.237  1.00  0.00    -0.104 A  
HETATM    6  C   UNL     1      -7.333   7.742  64.707  1.00  0.00    -0.075 A  
HETATM    7  O   UNL     1      -6.787   4.252  62.551  1.00  0.00    -0.030 OA 
HETATM    8  O   UNL     1      -8.336   3.219  63.711  1.00  0.00    -0.089 OA 
HETATM    9  C   UNL     1      -9.092   6.626  65.938  1.00  0.00    -0.059 A  
HETATM   10  C   UNL     1      -7.091   6.571  63.983  1.00  0.00    -0.054 A  
HETATM   11  N   UNL     1      -7.646   4.214  63.443  1.00  0.00    -0.061 N  
HETATM   12  C   UNL     1      -8.856   5.449  65.222  1.00  0.00    -0.132 A  
ENDBRANCH   2   4
BRANCH   2  13
HETATM   13  C   UNL     1      -8.188  10.375  65.666  1.00  0.00    -0.158 C  
BRANCH  13  14
HETATM   14  N   UNL     1      -8.218  11.513  66.616  1.00  0.00    -0.188 N  
HETATM   15  C   UNL     1      -7.248  13.174  68.205  1.00  0.00    -0.107 C  
HETATM   16  C   UNL     1      -7.112  11.906  67.349  1.00  0.00    -0.129 C  
HETATM   17  H   UNL     1      -9.091  12.029  66.734  1.00  0.00     0.000 HD 
HETATM   18  O   UNL     1      -6.050  11.283  67.298  1.00  0.00    -0.059 OA 
HETATM   19 CL   UNL     1      -8.942  13.509  68.622  1.00  0.00    -0.071 Cl 
HETATM   20 CL   UNL     1      -6.535  14.542  67.331  1.00  0.00    -0.054 Cl 
ENDBRANCH  13  14
BRANCH  13  21
HETATM   21  C   UNL     1      -9.066  10.641  64.422  1.00  0.00    -0.215 C  
BRANCH  21  22
HETATM   22  O   UNL     1     -10.456  10.816  64.761  1.00  0.00    -0.326 OA 
BRANCH  22  23
HETATM   23  C   UNL     1     -11.105  11.793  64.076  1.00  0.00    -0.390 C  
HETATM   24  O   UNL     1     -12.037  11.611  63.301  1.00  0.00    -0.409 OA 
BRANCH  23  25
HETATM   25  C   UNL     1     -10.541  13.151  64.401  1.00  0.00    -0.441 C  
BRANCH  25  26
HETATM   26  C   UNL     1     -11.624  14.115  64.845  1.00  0.00    -0.379 C  
HETATM   27  C   UNL     1     -11.238  14.905  66.071  1.00  0.00    -0.327 C  
HETATM   28  O   UNL     1     -10.204  15.749  65.883  1.00  0.00    -0.307 OA 
HETATM   29  O   UNL     1     -11.829  14.813  67.135  1.00  0.00    -0.374 OA 
ENDBRANCH  25  26
ENDBRANCH  23  25
ENDBRANCH  22  23
ENDBRANCH  21  22
ENDBRANCH  13  21
ENDBRANCH   2  13
TORSDOF 8
ENDMDL
MODEL      325
REMARK 921   NORMALIZED FREE ENERGY PREDICTED BY IDOCK:   -2.89 KCAL/MOL
REMARK 922        TOTAL FREE ENERGY PREDICTED BY IDOCK:   -5.71 KCAL/MOL
REMARK 923 INTER-LIGAND FREE ENERGY PREDICTED BY IDOCK:   -4.05 KCAL/MOL
REMARK 924 INTRA-LIGAND FREE ENERGY PREDICTED BY IDOCK:   -1.67 KCAL/MOL
REMARK 927      BINDING AFFINITY PREDICTED BY RF-SCORE:    0.00 PKD
ROOT
HETATM    1  O   UNL     1      -6.584   7.974  69.768  1.00  0.00    -0.036 OA 
HETATM    2  C   UNL     1      -7.788   8.386  69.108  1.00  0.00    -0.105 C  
HETATM    3  H   UNL     1      -6.639   8.175  70.694  1.00  0.00     0.000 HD 
ENDROOT
BRANCH   2   4
HETATM    4  C   UNL     1      -8.927   7.715  69.848  1.00  0.00    -0.144 A  
HETATM    5  C   UNL     1     -11.033   6.592  71.327  1.00  0.00    -0.262 A  
HETATM    6  C   UNL     1     -10.253   8.121  69.625  1.00  0.00    -0.205 A  
HETATM    7  O   UNL     1     -13.269   6.487  71.940  1.00  0.00    -0.203 OA 
HETATM    8  O   UNL     1     -11.850   5.169  72.969  1.00  0.00    -0.273 OA 
HETATM    9  C   UNL     1      -8.677   6.721  70.811  1.00  0.00    -0.146 A  
HETATM   10  C   UNL     1     -11.306   7.566  70.359  1.00  0.00    -0.253 A  
HETATM   11  N   UNL     1     -12.129   6.044  72.137  1.00  0.00    -0.248 N  
HETATM   12  C   UNL     1      -9.722   6.157  71.549  1.00  0.00    -0.182 A  
ENDBRANCH   2   4
BRANCH   2  13
HETATM   13  C   UNL     1      -7.699   8.057  67.591  1.00  0.00    -0.110 C  
BRANCH  13  14
HETATM   14  N   UNL     1      -7.730   6.586  67.411  1.00  0.00    -0.100 N  
HETATM   15  C   UNL     1      -8.487   4.435  66.397  1.00  0.00    -0.112 C  
HETATM   16  C   UNL     1      -8.642   5.951  66.586  1.00  0.00    -0.119 C  
HETATM   17  H   UNL     1      -7.050   6.017  67.917  1.00  0.00     0.000 HD 
HETATM   18  O   UNL     1      -9.527   6.579  66.001  1.00  0.00    -0.083 OA 
HETATM   19 CL   UNL     1      -7.622   3.687  67.757  1.00  0.00    -0.066 Cl 
HETATM   20 CL   UNL     1      -7.640   4.126  64.870  1.00  0.00    -0.076 Cl 
ENDBRANCH  13  14
BRANCH  13  21
HETATM   21  C   UNL     1      -6.431   8.686  66.971  1.00  0.00    -0.057 C  
BRANCH  21  22
HETATM   22  O   UNL     1      -6.190  10.022  67.454  1.00  0.00    -0.058 OA 
BRANCH  22  23
HETATM   23  C   UNL     1      -6.602  11.023  66.633  1.00  0.00    -0.128 C  
HETATM   24  O   UNL     1      -6.004  11.408  65.636  1.00  0.00    -0.019 OA 
BRANCH  23  25
HETATM   25  C   UNL     1      -7.913  11.600  67.097  1.00  0.00    -0.163 C  
BRANCH  25  26
HETATM   26  C   UNL     1      -8.914  11.701  65.963  1.00  0.00    -0.149 C  
HETATM   27  C   UNL     1      -9.738  10.448  65.796  1.00  0.00    -0.228 C  
HETATM   28  O   UNL     1     -10.553  10.180  66.835  1.00  0.00    -0.238 OA 
HETATM   29  O   UNL     1      -9.695   9.752  64.794  1.00  0.00    -0.283 OA 
ENDBRANCH  25  26
ENDBRANCH  23  25
ENDBRANCH  22  23
ENDBRANCH  21  22
ENDBRANCH  13  21
ENDBRANCH   2  13
TORSDOF 8
ENDMDL
MODEL      326
REMARK 921   NORMALIZED FREE ENERGY PREDICTED BY IDOCK:   -2.86 KCAL/MOL
REMARK 922        TOTAL FREE ENERGY PREDICTED BY IDOCK:   -5.67 KCAL/MOL
REMARK 923 INTER-LIGAND FREE ENERGY PREDICTED BY IDOCK:   -4.97 KCAL/MOL
REMARK 924 INTRA-LIGAND FREE ENERGY PREDICTED BY IDOCK:   -0.70 KCAL/MOL
REMARK 927      BINDING AFFINITY PREDICTED BY RF-SCORE:    0.00 PKD
ROOT
HETATM    1  O   UNL     1      -7.422  10.440  69.787  1.00  0.00    -0.150 OA 
HETATM    2  C   UNL     1      -8.730   9.896  70.016  1.00  0.00    -0.157 C  
HETATM    3  H   UNL     1      -7.025  10.683  70.614  1.00  0.00     0.000 HD 
ENDROOT
BRANCH   2   4
HETATM    4  C   UNL     1      -8.549   8.763  71.004  1.00  0.00    -0.236 A  
HETATM    5  C   UNL     1      -8.291   6.565  72.732  1.00  0.00    -0.116 A  
HETATM    6  C   UNL     1      -7.476   7.866  70.865  1.00  0.00    -0.073 A  
HETATM    7  O   UNL     1      -7.254   4.595  73.390  1.00  0.00    -0.076 OA 
HETATM    8  O   UNL     1      -9.031   5.250  74.496  1.00  0.00    -0.113 OA 
HETATM    9  C   UNL     1      -9.479   8.549  72.038  1.00  0.00    -0.364 A  
HETATM   10  C   UNL     1      -7.343   6.770  71.722  1.00  0.00    -0.085 A  
HETATM   11  N   UNL     1      -8.184   5.385  73.602  1.00  0.00    -0.112 N  
HETATM   12  C   UNL     1      -9.354   7.458  72.902  1.00  0.00    -0.210 A  
ENDBRANCH   2   4
BRANCH   2  13
HETATM   13  C   UNL     1      -9.381   9.497  68.662  1.00  0.00    -0.142 C  
BRANCH  13  14
HETATM   14  N   UNL     1      -9.525  10.708  67.818  1.00  0.00    -0.152 N  
HETATM   15  C   UNL     1      -9.912  11.969  65.700  1.00  0.00    -0.245 C  
HETATM   16  C   UNL     1      -9.649  10.650  66.440  1.00  0.00    -0.190 C  
HETATM   17  H   UNL     1      -9.534  11.622  68.271  1.00  0.00     0.000 HD 
HETATM   18  O   UNL     1      -9.580   9.580  65.832  1.00  0.00    -0.221 OA 
HETATM   19 CL   UNL     1      -9.350  13.372  66.633  1.00  0.00    -0.258 Cl 
HETATM   20 CL   UNL     1     -11.646  12.102  65.353  1.00  0.00    -0.399 Cl 
ENDBRANCH  13  14
BRANCH  13  21
HETATM   21  C   UNL     1     -10.737   8.794  68.896  1.00  0.00    -0.087 C  
BRANCH  21  22
HETATM   22  O   UNL     1     -10.606   7.360  68.959  1.00  0.00    -0.214 OA 
BRANCH  22  23
HETATM   23  C   UNL     1      -9.877   6.795  67.961  1.00  0.00    -0.136 C  
HETATM   24  O   UNL     1      -8.659   6.665  67.965  1.00  0.00    -0.119 OA 
BRANCH  23  25
HETATM   25  C   UNL     1     -10.764   6.329  66.838  1.00  0.00    -0.411 C  
BRANCH  25  26
HETATM   26  C   UNL     1     -10.621   4.840  66.593  1.00  0.00    -0.109 C  
HETATM   27  C   UNL     1     -10.339   4.508  65.149  1.00  0.00    -0.117 C  
HETATM   28  O   UNL     1      -9.151   4.959  64.699  1.00  0.00    -0.148 OA 
HETATM   29  O   UNL     1     -11.106   3.862  64.453  1.00  0.00    -0.331 OA 
ENDBRANCH  25  26
ENDBRANCH  23  25
ENDBRANCH  22  23
ENDBRANCH  21  22
ENDBRANCH  13  21
ENDBRANCH   2  13
TORSDOF 8
ENDMDL
MODEL      327
REMARK 921   NORMALIZED FREE ENERGY PREDICTED BY IDOCK:   -2.86 KCAL/MOL
REMARK 922        TOTAL FREE ENERGY PREDICTED BY IDOCK:   -5.67 KCAL/MOL
REMARK 923 INTER-LIGAND FREE ENERGY PREDICTED BY IDOCK:   -4.59 KCAL/MOL
REMARK 924 INTRA-LIGAND FREE ENERGY PREDICTED BY IDOCK:   -1.08 KCAL/MOL
REMARK 927      BINDING AFFINITY PREDICTED BY RF-SCORE:    0.00 PKD
ROOT
HETATM    1  O   UNL     1      -9.866   3.226  67.516  1.00  0.00    -0.280 OA 
HETATM    2  C   UNL     1      -9.207   4.487  67.696  1.00  0.00    -0.137 C  
HETATM    3  H   UNL     1      -9.906   2.762  68.343  1.00  0.00     0.000 HD 
ENDROOT
BRANCH   2   4
HETATM    4  C   UNL     1      -9.957   5.201  68.801  1.00  0.00    -0.237 A  
HETATM    5  C   UNL     1     -11.250   6.652  70.828  1.00  0.00    -0.315 A  
HETATM    6  C   UNL     1     -10.997   6.094  68.489  1.00  0.00    -0.404 A  
HETATM    7  O   UNL     1     -12.756   8.269  71.539  1.00  0.00    -0.309 OA 
HETATM    8  O   UNL     1     -11.529   7.260  73.051  1.00  0.00    -0.244 OA 
HETATM    9  C   UNL     1      -9.591   5.034  70.149  1.00  0.00    -0.257 A  
HETATM   10  C   UNL     1     -11.644   6.819  69.495  1.00  0.00    -0.183 A  
HETATM   11  N   UNL     1     -11.891   7.451  71.881  1.00  0.00    -0.287 N  
HETATM   12  C   UNL     1     -10.232   5.752  71.162  1.00  0.00    -0.275 A  
ENDBRANCH   2   4
BRANCH   2  13
HETATM   13  C   UNL     1      -9.141   5.247  66.342  1.00  0.00    -0.137 C  
BRANCH  13  14
HETATM   14  N   UNL     1      -8.102   4.625  65.487  1.00  0.00    -0.105 N  
HETATM   15  C   UNL     1      -7.045   3.929  63.337  1.00  0.00    -0.049 C  
HETATM   16  C   UNL     1      -8.247   4.479  64.118  1.00  0.00    -0.106 C  
HETATM   17  H   UNL     1      -7.243   4.291  65.926  1.00  0.00     0.000 HD 
HETATM   18  O   UNL     1      -9.286   4.804  63.542  1.00  0.00    -0.051 OA 
HETATM   19 CL   UNL     1      -5.967   2.971  64.374  1.00  0.00    -0.014 Cl 
HETATM   20 CL   UNL     1      -6.166   5.281  62.599  1.00  0.00    -0.021 Cl 
ENDBRANCH  13  14
BRANCH  13  21
HETATM   21  C   UNL     1      -8.872   6.750  66.573  1.00  0.00    -0.143 C  
BRANCH  21  22
HETATM   22  O   UNL     1      -7.525   7.003  67.018  1.00  0.00    -0.089 OA 
BRANCH  22  23
HETATM   23  C   UNL     1      -7.283   8.266  67.460  1.00  0.00    -0.088 C  
HETATM   24  O   UNL     1      -6.208   8.847  67.378  1.00  0.00    -0.054 OA 
BRANCH  23  25
HETATM   25  C   UNL     1      -8.522   8.877  68.059  1.00  0.00    -0.126 C  
BRANCH  25  26
HETATM   26  C   UNL     1      -8.194   9.749  69.254  1.00  0.00    -0.132 C  
HETATM   27  C   UNL     1      -8.442   9.057  70.571  1.00  0.00    -0.200 C  
HETATM   28  O   UNL     1      -7.640   7.997  70.798  1.00  0.00    -0.073 OA 
HETATM   29  O   UNL     1      -9.275   9.438  71.377  1.00  0.00    -0.277 OA 
ENDBRANCH  25  26
ENDBRANCH  23  25
ENDBRANCH  22  23
ENDBRANCH  21  22
ENDBRANCH  13  21
ENDBRANCH   2  13
TORSDOF 8
ENDMDL
MODEL      328
REMARK 921   NORMALIZED FREE ENERGY PREDICTED BY IDOCK:   -2.86 KCAL/MOL
REMARK 922        TOTAL FREE ENERGY PREDICTED BY IDOCK:   -5.67 KCAL/MOL
REMARK 923 INTER-LIGAND FREE ENERGY PREDICTED BY IDOCK:   -4.73 KCAL/MOL
REMARK 924 INTRA-LIGAND FREE ENERGY PREDICTED BY IDOCK:   -0.94 KCAL/MOL
REMARK 927      BINDING AFFINITY PREDICTED BY RF-SCORE:    0.00 PKD
ROOT
HETATM    1  O   UNL     1      -7.725  10.549  69.722  1.00  0.00    -0.272 OA 
HETATM    2  C   UNL     1      -8.815  10.090  68.910  1.00  0.00    -0.148 C  
HETATM    3  H   UNL     1      -7.860  10.282  70.623  1.00  0.00     0.000 HD 
ENDROOT
BRANCH   2   4
HETATM    4  C   UNL     1      -8.908   8.595  69.134  1.00  0.00    -0.137 A  
HETATM    5  C   UNL     1      -9.152   5.853  69.692  1.00  0.00    -0.137 A  
HETATM    6  C   UNL     1     -10.092   7.905  68.824  1.00  0.00    -0.203 A  
HETATM    7  O   UNL     1     -10.390   3.892  69.795  1.00  0.00     0.391 OA 
HETATM    8  O   UNL     1      -8.325   3.855  70.535  1.00  0.00    -0.060 OA 
HETATM    9  C   UNL     1      -7.840   7.881  69.709  1.00  0.00    -0.104 A  
HETATM   10  C   UNL     1     -10.219   6.540  69.100  1.00  0.00    -0.208 A  
HETATM   11  N   UNL     1      -9.300   4.432  70.031  1.00  0.00    -0.139 N  
HETATM   12  C   UNL     1      -7.956   6.517  69.987  1.00  0.00    -0.116 A  
ENDBRANCH   2   4
BRANCH   2  13
HETATM   13  C   UNL     1      -8.594  10.526  67.435  1.00  0.00    -0.122 C  
BRANCH  13  14
HETATM   14  N   UNL     1      -7.523   9.693  66.837  1.00  0.00    -0.091 N  
HETATM   15  C   UNL     1      -6.548   8.060  65.223  1.00  0.00    -0.051 C  
HETATM   16  C   UNL     1      -7.764   8.768  65.836  1.00  0.00    -0.094 C  
HETATM   17  H   UNL     1      -6.568   9.806  67.179  1.00  0.00     0.000 HD 
HETATM   18  O   UNL     1      -8.905   8.542  65.429  1.00  0.00    -0.179 OA 
HETATM   19 CL   UNL     1      -5.163   8.046  66.336  1.00  0.00    -0.024 Cl 
HETATM   20 CL   UNL     1      -6.119   8.858  63.699  1.00  0.00    -0.080 Cl 
ENDBRANCH  13  14
BRANCH  13  21
HETATM   21  C   UNL     1      -8.262  12.033  67.356  1.00  0.00    -0.168 C  
BRANCH  21  22
HETATM   22  O   UNL     1      -9.191  12.755  66.523  1.00  0.00    -0.233 OA 
BRANCH  22  23
HETATM   23  C   UNL     1      -9.494  14.012  66.940  1.00  0.00    -0.265 C  
HETATM   24  O   UNL     1      -8.677  14.854  67.292  1.00  0.00    -0.182 OA 
BRANCH  23  25
HETATM   25  C   UNL     1     -10.980  14.253  66.902  1.00  0.00    -0.304 C  
BRANCH  25  26
HETATM   26  C   UNL     1     -11.409  14.899  65.600  1.00  0.00    -0.325 C  
HETATM   27  C   UNL     1     -12.210  13.971  64.721  1.00  0.00    -0.433 C  
HETATM   28  O   UNL     1     -13.404  13.614  65.236  1.00  0.00    -0.669 OA 
HETATM   29  O   UNL     1     -11.827  13.597  63.624  1.00  0.00    -0.380 OA 
ENDBRANCH  25  26
ENDBRANCH  23  25
ENDBRANCH  22  23
ENDBRANCH  21  22
ENDBRANCH  13  21
ENDBRANCH   2  13
TORSDOF 8
ENDMDL
MODEL      329
REMARK 921   NORMALIZED FREE ENERGY PREDICTED BY IDOCK:   -2.85 KCAL/MOL
REMARK 922        TOTAL FREE ENERGY PREDICTED BY IDOCK:   -5.65 KCAL/MOL
REMARK 923 INTER-LIGAND FREE ENERGY PREDICTED BY IDOCK:   -5.35 KCAL/MOL
REMARK 924 INTRA-LIGAND FREE ENERGY PREDICTED BY IDOCK:   -0.30 KCAL/MOL
REMARK 927      BINDING AFFINITY PREDICTED BY RF-SCORE:    0.00 PKD
ROOT
HETATM    1  O   UNL     1      -6.435  14.128  68.991  1.00  0.00    -0.088 OA 
HETATM    2  C   UNL     1      -6.994  13.825  67.705  1.00  0.00    -0.171 C  
HETATM    3  H   UNL     1      -5.863  14.882  68.925  1.00  0.00     0.000 HD 
ENDROOT
BRANCH   2   4
HETATM    4  C   UNL     1      -7.658  15.098  67.224  1.00  0.00    -0.236 A  
HETATM    5  C   UNL     1      -8.857  17.525  66.475  1.00  0.00    -0.266 A  
HETATM    6  C   UNL     1      -6.883  16.147  66.699  1.00  0.00     0.110 A  
HETATM    7  O   UNL     1      -8.732  19.722  65.737  1.00  0.00    -0.379 OA 
HETATM    8  O   UNL     1     -10.703  18.916  66.262  1.00  0.00    -0.395 OA 
HETATM    9  C   UNL     1      -9.047  15.281  67.348  1.00  0.00    -0.201 A  
HETATM   10  C   UNL     1      -7.475  17.357  66.325  1.00  0.00    -0.354 A  
HETATM   11  N   UNL     1      -9.475  18.813  66.133  1.00  0.00    -0.260 N  
HETATM   12  C   UNL     1      -9.649  16.486  66.975  1.00  0.00    -0.249 A  
ENDBRANCH   2   4
BRANCH   2  13
HETATM   13  C   UNL     1      -7.930  12.590  67.813  1.00  0.00    -0.163 C  
BRANCH  13  14
HETATM   14  N   UNL     1      -8.412  12.227  66.459  1.00  0.00    -0.393 N  
HETATM   15  C   UNL     1      -8.570  10.822  64.403  1.00  0.00    -0.040 C  
HETATM   16  C   UNL     1      -7.898  11.160  65.741  1.00  0.00     0.090 C  
HETATM   17  H   UNL     1      -9.155  12.786  66.038  1.00  0.00     0.000 HD 
HETATM   18  O   UNL     1      -6.957  10.489  66.170  1.00  0.00    -0.118 OA 
HETATM   19 CL   UNL     1      -9.411  12.226  63.714  1.00  0.00     0.072 Cl 
HETATM   20 CL   UNL     1      -9.696   9.474  64.645  1.00  0.00    -0.061 Cl 
ENDBRANCH  13  14
BRANCH  13  21
HETATM   21  C   UNL     1      -9.098  12.874  68.783  1.00  0.00     0.179 C  
BRANCH  21  22
HETATM   22  O   UNL     1     -10.068  11.808  68.798  1.00  0.00    -0.206 OA 
BRANCH  22  23
HETATM   23  C   UNL     1     -11.366  12.197  68.699  1.00  0.00    -0.280 C  
HETATM   24  O   UNL     1     -11.910  13.027  69.417  1.00  0.00    -0.306 OA 
BRANCH  23  25
HETATM   25  C   UNL     1     -12.062  11.482  67.572  1.00  0.00     0.264 C  
BRANCH  25  26
HETATM   26  C   UNL     1     -11.608  11.994  66.219  1.00  0.00    -0.378 C  
HETATM   27  C   UNL     1     -12.640  12.861  65.544  1.00  0.00    -0.296 C  
HETATM   28  O   UNL     1     -12.894  14.020  66.185  1.00  0.00    -0.394 OA 
HETATM   29  O   UNL     1     -13.179  12.558  64.492  1.00  0.00    -0.832 OA 
ENDBRANCH  25  26
ENDBRANCH  23  25
ENDBRANCH  22  23
ENDBRANCH  21  22
ENDBRANCH  13  21
ENDBRANCH   2  13
TORSDOF 8
ENDMDL
MODEL      330
REMARK 921   NORMALIZED FREE ENERGY PREDICTED BY IDOCK:   -2.64 KCAL/MOL
REMARK 922        TOTAL FREE ENERGY PREDICTED BY IDOCK:   -5.35 KCAL/MOL
REMARK 923 INTER-LIGAND FREE ENERGY PREDICTED BY IDOCK:   -5.04 KCAL/MOL
REMARK 924 INTRA-LIGAND FREE ENERGY PREDICTED BY IDOCK:   -0.31 KCAL/MOL
REMARK 927      BINDING AFFINITY PREDICTED BY RF-SCORE:    0.00 PKD
ROOT
HETATM    1  O   UNL     1      -5.767  13.743  68.121  1.00  0.00    -0.098 OA 
HETATM    2  C   UNL     1      -6.884  13.084  68.734  1.00  0.00    -0.102 C  
HETATM    3  H   UNL     1      -4.999  13.187  68.169  1.00  0.00     0.000 HD 
ENDROOT
BRANCH   2   4
HETATM    4  C   UNL     1      -7.013  11.742  68.046  1.00  0.00    -0.076 A  
HETATM    5  C   UNL     1      -7.399   9.298  66.717  1.00  0.00    -0.086 A  
HETATM    6  C   UNL     1      -6.702  11.612  66.681  1.00  0.00    -0.028 A  
HETATM    7  O   UNL     1      -7.419   8.000  64.792  1.00  0.00    -0.081 OA 
HETATM    8  O   UNL     1      -8.081   7.079  66.670  1.00  0.00    -0.106 OA 
HETATM    9  C   UNL     1      -7.502  10.618  68.737  1.00  0.00    -0.104 A  
HETATM   10  C   UNL     1      -6.893  10.398  66.015  1.00  0.00    -0.128 A  
HETATM   11  N   UNL     1      -7.651   8.036  66.009  1.00  0.00    -0.084 N  
HETATM   12  C   UNL     1      -7.694   9.399  68.081  1.00  0.00    -0.083 A  
ENDBRANCH   2   4
BRANCH   2  13
HETATM   13  C   UNL     1      -8.142  13.993  68.655  1.00  0.00    -0.113 C  
BRANCH  13  14
HETATM   14  N   UNL     1      -9.342  13.145  68.456  1.00  0.00    -0.371 N  
HETATM   15  C   UNL     1     -11.207  12.115  67.159  1.00  0.00    -0.314 C  
HETATM   16  C   UNL     1     -10.058  13.127  67.272  1.00  0.00    -0.233 C  
HETATM   17  H   UNL     1      -9.652  12.549  69.224  1.00  0.00     0.000 HD 
HETATM   18  O   UNL     1      -9.770  13.871  66.333  1.00  0.00    -0.282 OA 
HETATM   19 CL   UNL     1     -11.828  11.641  68.754  1.00  0.00    -0.385 Cl 
HETATM   20 CL   UNL     1     -10.642  10.695  66.260  1.00  0.00    -0.265 Cl 
ENDBRANCH  13  14
BRANCH  13  21
HETATM   21  C   UNL     1      -7.986  15.042  67.531  1.00  0.00    -0.178 C  
BRANCH  21  22
HETATM   22  O   UNL     1      -7.706  16.359  68.046  1.00  0.00    -0.148 OA 
BRANCH  22  23
HETATM   23  C   UNL     1      -6.513  16.891  67.670  1.00  0.00    -0.145 C  
HETATM   24  O   UNL     1      -5.849  16.524  66.709  1.00  0.00    -0.319 OA 
BRANCH  23  25
HETATM   25  C   UNL     1      -6.108  18.015  68.586  1.00  0.00    -0.195 C  
BRANCH  25  26
HETATM   26  C   UNL     1      -6.185  19.359  67.890  1.00  0.00    -0.227 C  
HETATM   27  C   UNL     1      -7.560  19.662  67.348  1.00  0.00    -0.257 C  
HETATM   28  O   UNL     1      -8.508  19.808  68.296  1.00  0.00    -0.319 OA 
HETATM   29  O   UNL     1      -7.792  19.793  66.157  1.00  0.00    -0.313 OA 
ENDBRANCH  25  26
ENDBRANCH  23  25
ENDBRANCH  22  23
ENDBRANCH  21  22
ENDBRANCH  13  21
ENDBRANCH   2  13
TORSDOF 8
ENDMDL
MODEL      331
REMARK 921   NORMALIZED FREE ENERGY PREDICTED BY IDOCK:   -2.56 KCAL/MOL
REMARK 922        TOTAL FREE ENERGY PREDICTED BY IDOCK:   -5.22 KCAL/MOL
REMARK 923 INTER-LIGAND FREE ENERGY PREDICTED BY IDOCK:   -5.20 KCAL/MOL
REMARK 924 INTRA-LIGAND FREE ENERGY PREDICTED BY IDOCK:   -0.02 KCAL/MOL
REMARK 927      BINDING AFFINITY PREDICTED BY RF-SCORE:    0.00 PKD
ROOT
HETATM    1  O   UNL     1      -9.609   9.294  64.589  1.00  0.00    -0.412 OA 
HETATM    2  C   UNL     1      -8.711   9.773  65.599  1.00  0.00    -0.148 C  
HETATM    3  H   UNL     1      -9.161   8.676  64.025  1.00  0.00     0.000 HD 
ENDROOT
BRANCH   2   4
HETATM    4  C   UNL     1      -8.163   8.543  66.294  1.00  0.00    -0.109 A  
HETATM    5  C   UNL     1      -7.247   6.296  67.708  1.00  0.00    -0.083 A  
HETATM    6  C   UNL     1      -8.853   7.321  66.219  1.00  0.00    -0.179 A  
HETATM    7  O   UNL     1      -7.484   4.104  68.433  1.00  0.00    -0.059 OA 
HETATM    8  O   UNL     1      -5.762   5.255  69.156  1.00  0.00    -0.010 OA 
HETATM    9  C   UNL     1      -6.995   8.613  67.075  1.00  0.00    -0.074 A  
HETATM   10  C   UNL     1      -8.401   6.199  66.921  1.00  0.00    -0.106 A  
HETATM   11  N   UNL     1      -6.799   5.135  68.488  1.00  0.00    -0.054 N  
HETATM   12  C   UNL     1      -6.534   7.498  67.779  1.00  0.00    -0.054 A  
ENDBRANCH   2   4
BRANCH   2  13
HETATM   13  C   UNL     1      -9.444  10.784  66.522  1.00  0.00    -0.169 C  
BRANCH  13  14
HETATM   14  N   UNL     1      -9.399  10.288  67.919  1.00  0.00    -0.138 N  
HETATM   15  C   UNL     1     -10.344   9.674  70.145  1.00  0.00    -0.266 C  
HETATM   16  C   UNL     1     -10.494  10.331  68.765  1.00  0.00    -0.203 C  
HETATM   17  H   UNL     1      -8.523   9.899  68.271  1.00  0.00     0.000 HD 
HETATM   18  O   UNL     1     -11.557  10.848  68.417  1.00  0.00    -0.339 OA 
HETATM   19 CL   UNL     1      -8.643   9.586  70.652  1.00  0.00    -0.239 Cl 
HETATM   20 CL   UNL     1     -11.068   8.056  70.098  1.00  0.00    -0.230 Cl 
ENDBRANCH  13  14
BRANCH  13  21
HETATM   21  C   UNL     1     -10.895  11.010  66.040  1.00  0.00    -0.122 C  
BRANCH  21  22
HETATM   22  O   UNL     1     -11.145  12.384  65.682  1.00  0.00    -0.286 OA 
BRANCH  22  23
HETATM   23  C   UNL     1     -10.522  12.817  64.554  1.00  0.00    -0.368 C  
HETATM   24  O   UNL     1     -10.406  12.170  63.521  1.00  0.00    -0.420 OA 
BRANCH  23  25
HETATM   25  C   UNL     1      -9.998  14.217  64.728  1.00  0.00    -0.009 C  
BRANCH  25  26
HETATM   26  C   UNL     1      -9.627  14.501  66.170  1.00  0.00    -0.325 C  
HETATM   27  C   UNL     1      -9.351  15.962  66.428  1.00  0.00    -0.297 C  
HETATM   28  O   UNL     1     -10.425  16.763  66.276  1.00  0.00    -0.307 OA 
HETATM   29  O   UNL     1      -8.259  16.382  66.774  1.00  0.00    -0.196 OA 
ENDBRANCH  25  26
ENDBRANCH  23  25
ENDBRANCH  22  23
ENDBRANCH  21  22
ENDBRANCH  13  21
ENDBRANCH   2  13
TORSDOF 8
ENDMDL
MODEL      332
REMARK 921   NORMALIZED FREE ENERGY PREDICTED BY IDOCK:   -2.38 KCAL/MOL
REMARK 922        TOTAL FREE ENERGY PREDICTED BY IDOCK:   -4.96 KCAL/MOL
REMARK 923 INTER-LIGAND FREE ENERGY PREDICTED BY IDOCK:   -3.98 KCAL/MOL
REMARK 924 INTRA-LIGAND FREE ENERGY PREDICTED BY IDOCK:   -0.98 KCAL/MOL
REMARK 927      BINDING AFFINITY PREDICTED BY RF-SCORE:    0.00 PKD
ROOT
HETATM    1  O   UNL     1      -7.433  13.653  69.662  1.00  0.00    -0.296 OA 
HETATM    2  C   UNL     1      -6.927  13.856  68.335  1.00  0.00    -0.102 C  
HETATM    3  H   UNL     1      -7.062  14.298  70.251  1.00  0.00     0.000 HD 
ENDROOT
BRANCH   2   4
HETATM    4  C   UNL     1      -7.228  15.299  67.985  1.00  0.00    -0.138 A  
HETATM    5  C   UNL     1      -7.880  17.981  67.467  1.00  0.00    -0.214 A  
HETATM    6  C   UNL     1      -6.510  16.341  68.597  1.00  0.00    -0.126 A  
HETATM    7  O   UNL     1      -7.629  20.255  67.855  1.00  0.00    -0.293 OA 
HETATM    8  O   UNL     1      -9.176  19.611  66.440  1.00  0.00    -0.349 OA 
HETATM    9  C   UNL     1      -8.265  15.626  67.093  1.00  0.00    -0.244 A  
HETATM   10  C   UNL     1      -6.831  17.677  68.343  1.00  0.00    -0.214 A  
HETATM   11  N   UNL     1      -8.255  19.383  67.238  1.00  0.00    -0.275 N  
HETATM   12  C   UNL     1      -8.593  16.959  66.830  1.00  0.00    -0.256 A  
ENDBRANCH   2   4
BRANCH   2  13
HETATM   13  C   UNL     1      -7.535  12.800  67.371  1.00  0.00    -0.145 C  
BRANCH  13  14
HETATM   14  N   UNL     1      -8.687  12.143  68.034  1.00  0.00    -0.173 N  
HETATM   15  C   UNL     1     -11.074  11.468  68.301  1.00  0.00    -0.239 C  
HETATM   16  C   UNL     1      -9.991  12.300  67.598  1.00  0.00    -0.198 C  
HETATM   17  H   UNL     1      -8.511  11.550  68.846  1.00  0.00     0.000 HD 
HETATM   18  O   UNL     1     -10.272  13.054  66.665  1.00  0.00    -0.248 OA 
HETATM   19 CL   UNL     1     -10.578  10.988  69.937  1.00  0.00    -0.069 Cl 
HETATM   20 CL   UNL     1     -11.440  10.042  67.313  1.00  0.00     0.311 Cl 
ENDBRANCH  13  14
BRANCH  13  21
HETATM   21  C   UNL     1      -6.461  11.777  66.936  1.00  0.00    -0.121 C  
BRANCH  21  22
HETATM   22  O   UNL     1      -6.930  10.901  65.893  1.00  0.00    -0.114 OA 
BRANCH  22  23
HETATM   23  C   UNL     1      -7.301   9.657  66.296  1.00  0.00    -0.094 C  
HETATM   24  O   UNL     1      -8.433   9.333  66.631  1.00  0.00    -0.124 OA 
BRANCH  23  25
HETATM   25  C   UNL     1      -6.133   8.708  66.267  1.00  0.00    -0.055 C  
BRANCH  25  26
HETATM   26  C   UNL     1      -5.457   8.694  64.910  1.00  0.00    -0.043 C  
HETATM   27  C   UNL     1      -6.033   7.657  63.979  1.00  0.00    -0.049 C  
HETATM   28  O   UNL     1      -7.315   7.883  63.625  1.00  0.00    -0.090 OA 
HETATM   29  O   UNL     1      -5.389   6.711  63.555  1.00  0.00    -0.025 OA 
ENDBRANCH  25  26
ENDBRANCH  23  25
ENDBRANCH  22  23
ENDBRANCH  21  22
ENDBRANCH  13  21
ENDBRANCH   2  13
TORSDOF 8
ENDMDL
MODEL      333
REMARK 921   NORMALIZED FREE ENERGY PREDICTED BY IDOCK:   -2.31 KCAL/MOL
REMARK 922        TOTAL FREE ENERGY PREDICTED BY IDOCK:   -4.85 KCAL/MOL
REMARK 923 INTER-LIGAND FREE ENERGY PREDICTED BY IDOCK:   -3.40 KCAL/MOL
REMARK 924 INTRA-LIGAND FREE ENERGY PREDICTED BY IDOCK:   -1.46 KCAL/MOL
REMARK 927      BINDING AFFINITY PREDICTED BY RF-SCORE:    0.00 PKD
ROOT
HETATM    1  O   UNL     1      -9.891   4.189  68.674  1.00  0.00    -0.122 OA 
HETATM    2  C   UNL     1      -8.708   4.924  68.332  1.00  0.00    -0.101 C  
HETATM    3  H   UNL     1      -9.733   3.667  69.451  1.00  0.00     0.000 HD 
ENDROOT
BRANCH   2   4
HETATM    4  C   UNL     1      -8.325   5.708  69.570  1.00  0.00    -0.103 A  
HETATM    5  C   UNL     1      -7.627   7.299  71.777  1.00  0.00    -0.086 A  
HETATM    6  C   UNL     1      -9.320   6.297  70.371  1.00  0.00    -0.171 A  
HETATM    7  O   UNL     1      -8.181   8.717  73.529  1.00  0.00    -0.404 OA 
HETATM    8  O   UNL     1      -6.058   8.317  73.151  1.00  0.00    -0.071 OA 
HETATM    9  C   UNL     1      -6.976   5.915  69.908  1.00  0.00    -0.066 A  
HETATM   10  C   UNL     1      -8.977   7.090  71.470  1.00  0.00    -0.139 A  
HETATM   11  N   UNL     1      -7.263   8.173  72.900  1.00  0.00    -0.107 N  
HETATM   12  C   UNL     1      -6.622   6.703  71.006  1.00  0.00    -0.053 A  
ENDBRANCH   2   4
BRANCH   2  13
HETATM   13  C   UNL     1      -8.966   5.778  67.060  1.00  0.00    -0.114 C  
BRANCH  13  14
HETATM   14  N   UNL     1      -8.352   5.104  65.891  1.00  0.00    -0.115 N  
HETATM   15  C   UNL     1      -8.319   3.650  63.863  1.00  0.00    -0.090 C  
HETATM   16  C   UNL     1      -9.033   4.182  65.115  1.00  0.00    -0.135 C  
HETATM   17  H   UNL     1      -7.386   5.330  65.647  1.00  0.00     0.000 HD 
HETATM   18  O   UNL     1     -10.176   3.821  65.398  1.00  0.00    -0.092 OA 
HETATM   19 CL   UNL     1      -6.554   3.787  64.003  1.00  0.00    -0.041 Cl 
HETATM   20 CL   UNL     1      -8.906   4.535  62.443  1.00  0.00    -0.113 Cl 
ENDBRANCH  13  14
BRANCH  13  21
HETATM   21  C   UNL     1      -8.423   7.213  67.247  1.00  0.00    -0.122 C  
BRANCH  21  22
HETATM   22  O   UNL     1      -9.427   8.215  66.991  1.00  0.00    -0.156 OA 
BRANCH  22  23
HETATM   23  C   UNL     1      -9.425   9.275  67.842  1.00  0.00    -0.137 C  
HETATM   24  O   UNL     1     -10.409   9.940  68.141  1.00  0.00    -0.174 OA 
BRANCH  23  25
HETATM   25  C   UNL     1      -8.046   9.525  68.393  1.00  0.00    -0.101 C  
BRANCH  25  26
HETATM   26  C   UNL     1      -8.099  10.200  69.749  1.00  0.00    -0.167 C  
HETATM   27  C   UNL     1      -7.000  11.215  69.942  1.00  0.00     0.004 C  
HETATM   28  O   UNL     1      -7.082  12.282  69.122  1.00  0.00    -0.086 OA 
HETATM   29  O   UNL     1      -6.128  11.099  70.788  1.00  0.00    -0.336 OA 
ENDBRANCH  25  26
ENDBRANCH  23  25
ENDBRANCH  22  23
ENDBRANCH  21  22
ENDBRANCH  13  21
ENDBRANCH   2  13
TORSDOF 8
ENDMDL
MODEL      334
REMARK 921   NORMALIZED FREE ENERGY PREDICTED BY IDOCK:   -1.64 KCAL/MOL
REMARK 922        TOTAL FREE ENERGY PREDICTED BY IDOCK:   -3.88 KCAL/MOL
REMARK 923 INTER-LIGAND FREE ENERGY PREDICTED BY IDOCK:   -3.72 KCAL/MOL
REMARK 924 INTRA-LIGAND FREE ENERGY PREDICTED BY IDOCK:   -0.16 KCAL/MOL
REMARK 927      BINDING AFFINITY PREDICTED BY RF-SCORE:    0.00 PKD
ROOT
HETATM    1  O   UNL     1     -11.097  15.686  69.673  1.00  0.00    -0.251 OA 
HETATM    2  C   UNL     1     -11.136  14.341  69.176  1.00  0.00    -0.262 C  
HETATM    3  H   UNL     1     -10.488  16.202  69.159  1.00  0.00     0.000 HD 
ENDROOT
BRANCH   2   4
HETATM    4  C   UNL     1     -11.464  14.445  67.701  1.00  0.00    -0.369 A  
HETATM    5  C   UNL     1     -11.951  14.535  64.936  1.00  0.00    -0.422 A  
HETATM    6  C   UNL     1     -12.278  13.478  67.086  1.00  0.00    -0.328 A  
HETATM    7  O   UNL     1     -12.835  13.635  62.988  1.00  0.00    -0.491 OA 
HETATM    8  O   UNL     1     -11.656  15.478  62.836  1.00  0.00     2.101 OA 
HETATM    9  C   UNL     1     -10.915  15.470  66.908  1.00  0.00    -0.268 A  
HETATM   10  C   UNL     1     -12.523  13.518  65.710  1.00  0.00    -0.514 A  
HETATM   11  N   UNL     1     -12.163  14.550  63.483  1.00  0.00     0.207 N  
HETATM   12  C   UNL     1     -11.156  15.520  65.532  1.00  0.00    -0.265 A  
ENDBRANCH   2   4
BRANCH   2  13
HETATM   13  C   UNL     1     -12.132  13.496  70.018  1.00  0.00    -0.341 C  
BRANCH  13  14
HETATM   14  N   UNL     1     -12.715  14.349  71.081  1.00  0.00    -0.331 N  
HETATM   15  C   UNL     1     -13.747  14.827  73.302  1.00  0.00     0.366 C  
HETATM   16  C   UNL     1     -13.290  13.829  72.228  1.00  0.00    -0.521 C  
HETATM   17  H   UNL     1     -12.692  15.363  70.962  1.00  0.00     0.000 HD 
HETATM   18  O   UNL     1     -13.405  12.614  72.396  1.00  0.00    -0.514 OA 
HETATM   19 CL   UNL     1     -14.072  16.432  72.614  1.00  0.00     0.323 Cl 
HETATM   20 CL   UNL     1     -12.506  14.926  74.565  1.00  0.00    -0.287 Cl 
ENDBRANCH  13  14
BRANCH  13  21
HETATM   21  C   UNL     1     -11.431  12.249  70.602  1.00  0.00     0.804 C  
BRANCH  21  22
HETATM   22  O   UNL     1     -12.072  11.022  70.200  1.00  0.00    -0.297 OA 
BRANCH  22  23
HETATM   23  C   UNL     1     -11.347  10.229  69.368  1.00  0.00    -0.221 C  
HETATM   24  O   UNL     1     -11.179  10.432  68.172  1.00  0.00    -0.288 OA 
BRANCH  23  25
HETATM   25  C   UNL     1     -10.756   9.061  70.110  1.00  0.00    -0.258 C  
BRANCH  25  26
HETATM   26  C   UNL     1     -11.599   8.675  71.309  1.00  0.00    -0.340 C  
HETATM   27  C   UNL     1     -12.225   7.310  71.171  1.00  0.00    -0.340 C  
HETATM   28  O   UNL     1     -11.338   6.294  71.143  1.00  0.00    -0.294 OA 
HETATM   29  O   UNL     1     -13.432   7.133  71.119  1.00  0.00    -0.316 OA 
ENDBRANCH  25  26
ENDBRANCH  23  25
ENDBRANCH  22  23
ENDBRANCH  21  22
ENDBRANCH  13  21
ENDBRANCH   2  13
TORSDOF 8
ENDMDL
MODEL      335
REMARK 921   NORMALIZED FREE ENERGY PREDICTED BY IDOCK:   -1.62 KCAL/MOL
REMARK 922        TOTAL FREE ENERGY PREDICTED BY IDOCK:   -3.85 KCAL/MOL
REMARK 923 INTER-LIGAND FREE ENERGY PREDICTED BY IDOCK:   -2.89 KCAL/MOL
REMARK 924 INTRA-LIGAND FREE ENERGY PREDICTED BY IDOCK:   -0.96 KCAL/MOL
REMARK 927      BINDING AFFINITY PREDICTED BY RF-SCORE:    0.00 PKD
ROOT
HETATM    1  O   UNL     1     -12.417  14.248  66.118  1.00  0.00    -0.442 OA 
HETATM    2  C   UNL     1     -11.245  14.196  66.942  1.00  0.00    -0.317 C  
HETATM    3  H   UNL     1     -13.063  14.821  66.512  1.00  0.00     0.000 HD 
ENDROOT
BRANCH   2   4
HETATM    4  C   UNL     1     -10.801  15.630  67.137  1.00  0.00    -0.297 A  
HETATM    5  C   UNL     1      -9.826  18.238  67.511  1.00  0.00    -0.317 A  
HETATM    6  C   UNL     1     -10.319  16.377  66.048  1.00  0.00    -0.365 A  
HETATM    7  O   UNL     1      -8.797  20.165  66.728  1.00  0.00    -0.326 OA 
HETATM    8  O   UNL     1      -9.299  20.052  68.860  1.00  0.00    -0.146 OA 
HETATM    9  C   UNL     1     -10.805  16.222  68.413  1.00  0.00    -0.334 A  
HETATM   10  C   UNL     1      -9.832  17.675  66.229  1.00  0.00    -0.297 A  
HETATM   11  N   UNL     1      -9.268  19.581  67.714  1.00  0.00    -0.315 N  
HETATM   12  C   UNL     1     -10.323  17.520  68.605  1.00  0.00    -0.369 A  
ENDBRANCH   2   4
BRANCH   2  13
HETATM   13  C   UNL     1     -10.187  13.257  66.297  1.00  0.00    -0.296 C  
BRANCH  13  14
HETATM   14  N   UNL     1     -10.825  12.488  65.202  1.00  0.00    -0.280 N  
HETATM   15  C   UNL     1     -11.075  11.634  62.870  1.00  0.00     0.273 C  
HETATM   16  C   UNL     1     -10.407  12.574  63.884  1.00  0.00    -0.409 C  
HETATM   17  H   UNL     1     -11.604  11.869  65.428  1.00  0.00     0.000 HD 
HETATM   18  O   UNL     1      -9.515  13.352  63.541  1.00  0.00     1.613 OA 
HETATM   19 CL   UNL     1     -12.681  11.108  63.417  1.00  0.00     0.702 Cl 
HETATM   20 CL   UNL     1     -10.019  10.237  62.594  1.00  0.00    -0.004 Cl 
ENDBRANCH  13  14
BRANCH  13  21
HETATM   21  C   UNL     1      -9.560  12.329  67.362  1.00  0.00    -0.179 C  
BRANCH  21  22
HETATM   22  O   UNL     1      -8.344  11.710  66.900  1.00  0.00    -0.159 OA 
BRANCH  22  23
HETATM   23  C   UNL     1      -7.871  10.699  67.676  1.00  0.00    -0.105 C  
HETATM   24  O   UNL     1      -8.103  10.561  68.871  1.00  0.00    -0.119 OA 
BRANCH  23  25
HETATM   25  C   UNL     1      -7.026   9.748  66.872  1.00  0.00    -0.088 C  
BRANCH  25  26
HETATM   26  C   UNL     1      -7.275   9.898  65.385  1.00  0.00    -0.125 C  
HETATM   27  C   UNL     1      -6.300   9.112  64.544  1.00  0.00    -0.075 C  
HETATM   28  O   UNL     1      -6.399   7.774  64.688  1.00  0.00    -0.044 OA 
HETATM   29  O   UNL     1      -5.509   9.636  63.777  1.00  0.00    -0.069 OA 
ENDBRANCH  25  26
ENDBRANCH  23  25
ENDBRANCH  22  23
ENDBRANCH  21  22
ENDBRANCH  13  21
ENDBRANCH   2  13
TORSDOF 8
ENDMDL
MODEL      336
REMARK 921   NORMALIZED FREE ENERGY PREDICTED BY IDOCK:   -1.50 KCAL/MOL
REMARK 922        TOTAL FREE ENERGY PREDICTED BY IDOCK:   -3.67 KCAL/MOL
REMARK 923 INTER-LIGAND FREE ENERGY PREDICTED BY IDOCK:   -3.59 KCAL/MOL
REMARK 924 INTRA-LIGAND FREE ENERGY PREDICTED BY IDOCK:   -0.08 KCAL/MOL
REMARK 927      BINDING AFFINITY PREDICTED BY RF-SCORE:    0.00 PKD
ROOT
HETATM    1  O   UNL     1      -9.087   9.774  67.312  1.00  0.00    -0.134 OA 
HETATM    2  C   UNL     1      -8.695  10.834  68.195  1.00  0.00    -0.130 C  
HETATM    3  H   UNL     1     -10.026   9.801  67.172  1.00  0.00     0.000 HD 
ENDROOT
BRANCH   2   4
HETATM    4  C   UNL     1      -9.218  12.114  67.576  1.00  0.00    -0.182 A  
HETATM    5  C   UNL     1     -10.038  14.548  66.442  1.00  0.00    -0.284 A  
HETATM    6  C   UNL     1      -9.073  12.345  66.198  1.00  0.00    -0.044 A  
HETATM    7  O   UNL     1     -10.206  16.011  64.647  1.00  0.00    -0.301 OA 
HETATM    8  O   UNL     1     -10.927  16.686  66.606  1.00  0.00    -0.092 OA 
HETATM    9  C   UNL     1      -9.800  13.117  68.372  1.00  0.00    -0.206 A  
HETATM   10  C   UNL     1      -9.479  13.555  65.628  1.00  0.00     0.099 A  
HETATM   11  N   UNL     1     -10.418  15.841  65.856  1.00  0.00    -0.333 N  
HETATM   12  C   UNL     1     -10.212  14.329  67.813  1.00  0.00    -0.235 A  
ENDBRANCH   2   4
BRANCH   2  13
HETATM   13  C   UNL     1      -7.159  10.788  68.424  1.00  0.00    -0.075 C  
BRANCH  13  14
HETATM   14  N   UNL     1      -6.754  11.962  69.235  1.00  0.00    -0.141 N  
HETATM   15  C   UNL     1      -5.890  14.272  69.617  1.00  0.00    -0.106 C  
HETATM   16  C   UNL     1      -6.147  13.079  68.685  1.00  0.00    -0.073 C  
HETATM   17  H   UNL     1      -6.931  11.947  70.240  1.00  0.00     0.000 HD 
HETATM   18  O   UNL     1      -5.850  13.128  67.491  1.00  0.00    -0.240 OA 
HETATM   19 CL   UNL     1      -5.794  13.770  71.319  1.00  0.00    -0.206 Cl 
HETATM   20 CL   UNL     1      -7.176  15.472  69.390  1.00  0.00    -0.190 Cl 
ENDBRANCH  13  14
BRANCH  13  21
HETATM   21  C   UNL     1      -6.407  10.735  67.075  1.00  0.00    -0.078 C  
BRANCH  21  22
HETATM   22  O   UNL     1      -6.339   9.399  66.539  1.00  0.00    -0.064 OA 
BRANCH  22  23
HETATM   23  C   UNL     1      -5.784   8.468  67.359  1.00  0.00    -0.039 C  
HETATM   24  O   UNL     1      -5.133   8.715  68.367  1.00  0.00    -0.032 OA 
BRANCH  23  25
HETATM   25  C   UNL     1      -6.085   7.074  66.878  1.00  0.00    -0.037 C  
BRANCH  25  26
HETATM   26  C   UNL     1      -6.894   7.086  65.596  1.00  0.00    -0.052 C  
HETATM   27  C   UNL     1      -8.206   6.354  65.724  1.00  0.00    -0.134 C  
HETATM   28  O   UNL     1      -9.077   6.924  66.582  1.00  0.00    -0.140 OA 
HETATM   29  O   UNL     1      -8.473   5.350  65.084  1.00  0.00    -0.141 OA 
ENDBRANCH  25  26
ENDBRANCH  23  25
ENDBRANCH  22  23
ENDBRANCH  21  22
ENDBRANCH  13  21
ENDBRANCH   2  13
TORSDOF 8
ENDMDL
MODEL      337
REMARK 921   NORMALIZED FREE ENERGY PREDICTED BY IDOCK:   -1.17 KCAL/MOL
REMARK 922        TOTAL FREE ENERGY PREDICTED BY IDOCK:   -3.18 KCAL/MOL
REMARK 923 INTER-LIGAND FREE ENERGY PREDICTED BY IDOCK:   -4.32 KCAL/MOL
REMARK 924 INTRA-LIGAND FREE ENERGY PREDICTED BY IDOCK:    1.14 KCAL/MOL
REMARK 927      BINDING AFFINITY PREDICTED BY RF-SCORE:    0.00 PKD
ROOT
HETATM    1  O   UNL     1      -9.479   9.526  67.237  1.00  0.00    -0.132 OA 
HETATM    2  C   UNL     1      -9.343  10.443  68.332  1.00  0.00    -0.150 C  
HETATM    3  H   UNL     1     -10.309   9.667  66.799  1.00  0.00     0.000 HD 
ENDROOT
BRANCH   2   4
HETATM    4  C   UNL     1      -9.539  11.827  67.750  1.00  0.00    -0.184 A  
HETATM    5  C   UNL     1     -10.056  14.354  66.637  1.00  0.00    -0.274 A  
HETATM    6  C   UNL     1     -10.111  12.848  68.529  1.00  0.00    -0.193 A  
HETATM    7  O   UNL     1     -10.938  16.497  66.759  1.00  0.00    -0.136 OA 
HETATM    8  O   UNL     1     -10.063  15.844  64.858  1.00  0.00    -0.412 OA 
HETATM    9  C   UNL     1      -9.212  12.102  66.410  1.00  0.00    -0.207 A  
HETATM   10  C   UNL     1     -10.371  14.108  67.980  1.00  0.00    -0.231 A  
HETATM   11  N   UNL     1     -10.375  15.658  66.043  1.00  0.00    -0.315 N  
HETATM   12  C   UNL     1      -9.466  13.358  65.851  1.00  0.00    -0.044 A  
ENDBRANCH   2   4
BRANCH   2  13
HETATM   13  C   UNL     1      -7.984  10.212  69.049  1.00  0.00    -0.115 C  
BRANCH  13  14
HETATM   14  N   UNL     1      -7.354  11.525  69.327  1.00  0.00    -0.302 N  
HETATM   15  C   UNL     1      -5.917  13.505  68.838  1.00  0.00    -0.082 C  
HETATM   16  C   UNL     1      -6.400  12.088  68.497  1.00  0.00    -0.055 C  
HETATM   17  H   UNL     1      -7.634  12.035  70.166  1.00  0.00     0.000 HD 
HETATM   18  O   UNL     1      -5.975  11.491  67.506  1.00  0.00    -0.055 OA 
HETATM   19 CL   UNL     1      -6.150  13.885  70.558  1.00  0.00    -0.167 Cl 
HETATM   20 CL   UNL     1      -6.778  14.672  67.817  1.00  0.00    -0.179 Cl 
ENDBRANCH  13  14
BRANCH  13  21
HETATM   21  C   UNL     1      -7.068   9.302  68.201  1.00  0.00    -0.077 C  
BRANCH  21  22
HETATM   22  O   UNL     1      -6.996   7.960  68.722  1.00  0.00    -0.063 OA 
BRANCH  22  23
HETATM   23  C   UNL     1      -7.616   7.762  69.915  1.00  0.00    -0.090 C  
HETATM   24  O   UNL     1      -7.811   8.627  70.760  1.00  0.00    -0.084 OA 
BRANCH  23  25
HETATM   25  C   UNL     1      -8.053   6.330  70.068  1.00  0.00    -0.120 C  
BRANCH  25  26
HETATM   26  C   UNL     1      -9.486   6.131  69.615  1.00  0.00    -0.162 C  
HETATM   27  C   UNL     1      -9.714   4.789  68.964  1.00  0.00    -0.178 C  
HETATM   28  O   UNL     1      -9.558   3.738  69.794  1.00  0.00    -0.191 OA 
HETATM   29  O   UNL     1     -10.041   4.664  67.795  1.00  0.00    -0.122 OA 
ENDBRANCH  25  26
ENDBRANCH  23  25
ENDBRANCH  22  23
ENDBRANCH  21  22
ENDBRANCH  13  21
ENDBRANCH   2  13
TORSDOF 8
ENDMDL
MODEL      338
REMARK 921   NORMALIZED FREE ENERGY PREDICTED BY IDOCK:   -0.99 KCAL/MOL
REMARK 922        TOTAL FREE ENERGY PREDICTED BY IDOCK:   -2.92 KCAL/MOL
REMARK 923 INTER-LIGAND FREE ENERGY PREDICTED BY IDOCK:   -7.72 KCAL/MOL
REMARK 924 INTRA-LIGAND FREE ENERGY PREDICTED BY IDOCK:    4.80 KCAL/MOL
REMARK 927      BINDING AFFINITY PREDICTED BY RF-SCORE:    0.00 PKD
ROOT
HETATM    1  O   UNL     1     -12.357  15.485  68.151  1.00  0.00    -0.351 OA 
HETATM    2  C   UNL     1     -11.237  15.846  67.331  1.00  0.00    -0.134 C  
HETATM    3  H   UNL     1     -13.084  15.215  67.603  1.00  0.00     0.000 HD 
ENDROOT
BRANCH   2   4
HETATM    4  C   UNL     1     -10.965  14.653  66.438  1.00  0.00    -0.325 A  
HETATM    5  C   UNL     1     -10.619  12.406  64.789  1.00  0.00    -0.300 A  
HETATM    6  C   UNL     1     -11.160  14.748  65.050  1.00  0.00    -0.412 A  
HETATM    7  O   UNL     1     -10.738  11.350  62.726  1.00  0.00    -0.005 OA 
HETATM    8  O   UNL     1     -10.140  10.158  64.467  1.00  0.00    -0.304 OA 
HETATM    9  C   UNL     1     -10.573  13.417  66.982  1.00  0.00    -0.264 A  
HETATM   10  C   UNL     1     -10.990  13.633  64.224  1.00  0.00    -0.317 A  
HETATM   11  N   UNL     1     -10.490  11.220  63.932  1.00  0.00    -0.363 N  
HETATM   12  C   UNL     1     -10.397  12.296  66.166  1.00  0.00    -0.269 A  
ENDBRANCH   2   4
BRANCH   2  13
HETATM   13  C   UNL     1     -10.047  16.288  68.227  1.00  0.00    -0.243 C  
BRANCH  13  14
HETATM   14  N   UNL     1      -8.950  15.298  68.101  1.00  0.00    -0.171 N  
HETATM   15  C   UNL     1      -6.669  14.499  67.482  1.00  0.00    -0.116 C  
HETATM   16  C   UNL     1      -7.768  15.571  67.434  1.00  0.00    -0.194 C  
HETATM   17  H   UNL     1      -9.072  14.377  68.523  1.00  0.00     0.000 HD 
HETATM   18  O   UNL     1      -7.590  16.641  66.850  1.00  0.00    -0.178 OA 
HETATM   19 CL   UNL     1      -7.337  12.882  67.790  1.00  0.00    -0.119 Cl 
HETATM   20 CL   UNL     1      -5.488  14.937  68.730  1.00  0.00    -0.085 Cl 
ENDBRANCH  13  14
BRANCH  13  21
HETATM   21  C   UNL     1     -10.502  16.458  69.694  1.00  0.00    -0.278 C  
BRANCH  21  22
HETATM   22  O   UNL     1     -11.936  16.518  69.818  1.00  0.00     0.182 OA 
BRANCH  22  23
HETATM   23  C   UNL     1     -12.464  15.807  70.849  1.00  0.00    -0.402 C  
HETATM   24  O   UNL     1     -13.658  15.596  71.021  1.00  0.00    -0.588 OA 
BRANCH  23  25
HETATM   25  C   UNL     1     -11.383  15.291  71.761  1.00  0.00    -0.445 C  
BRANCH  25  26
HETATM   26  C   UNL     1     -11.927  14.936  73.130  1.00  0.00    -0.326 C  
HETATM   27  C   UNL     1     -13.040  15.853  73.574  1.00  0.00    -0.565 C  
HETATM   28  O   UNL     1     -14.157  15.770  72.824  1.00  0.00    -0.576 OA 
HETATM   29  O   UNL     1     -12.951  16.585  74.547  1.00  0.00    -0.569 OA 
ENDBRANCH  25  26
ENDBRANCH  23  25
ENDBRANCH  22  23
ENDBRANCH  21  22
ENDBRANCH  13  21
ENDBRANCH   2  13
TORSDOF 8
ENDMDL
MODEL      339
REMARK 921   NORMALIZED FREE ENERGY PREDICTED BY IDOCK:   -0.71 KCAL/MOL
REMARK 922        TOTAL FREE ENERGY PREDICTED BY IDOCK:   -2.50 KCAL/MOL
REMARK 923 INTER-LIGAND FREE ENERGY PREDICTED BY IDOCK:   -4.59 KCAL/MOL
REMARK 924 INTRA-LIGAND FREE ENERGY PREDICTED BY IDOCK:    2.09 KCAL/MOL
REMARK 927      BINDING AFFINITY PREDICTED BY RF-SCORE:    0.00 PKD
ROOT
HETATM    1  O   UNL     1      -6.663  15.371  66.901  1.00  0.00    -0.237 OA 
HETATM    2  C   UNL     1      -7.027  14.299  67.781  1.00  0.00    -0.177 C  
HETATM    3  H   UNL     1      -6.405  15.022  66.057  1.00  0.00     0.000 HD 
ENDROOT
BRANCH   2   4
HETATM    4  C   UNL     1      -8.094  13.503  67.059  1.00  0.00    -0.015 A  
HETATM    5  C   UNL     1     -10.008  12.077  65.579  1.00  0.00    -0.241 A  
HETATM    6  C   UNL     1      -7.817  12.206  66.594  1.00  0.00     0.088 A  
HETATM    7  O   UNL     1     -10.663  10.238  64.323  1.00  0.00     0.280 OA 
HETATM    8  O   UNL     1     -12.082  11.894  64.553  1.00  0.00    -0.274 OA 
HETATM    9  C   UNL     1      -9.355  14.064  66.786  1.00  0.00    -0.289 A  
HETATM   10  C   UNL     1      -8.766  11.492  65.856  1.00  0.00    -0.058 A  
HETATM   11  N   UNL     1     -10.987  11.351  64.759  1.00  0.00    -0.272 N  
HETATM   12  C   UNL     1     -10.312  13.358  66.051  1.00  0.00    -0.297 A  
ENDBRANCH   2   4
BRANCH   2  13
HETATM   13  C   UNL     1      -7.449  14.870  69.164  1.00  0.00    -0.158 C  
BRANCH  13  14
HETATM   14  N   UNL     1      -6.731  14.135  70.232  1.00  0.00    -0.402 N  
HETATM   15  C   UNL     1      -5.190  13.885  72.179  1.00  0.00    -0.205 C  
HETATM   16  C   UNL     1      -5.768  14.727  71.032  1.00  0.00    -0.094 C  
HETATM   17  H   UNL     1      -6.956  13.151  70.385  1.00  0.00     0.000 HD 
HETATM   18  O   UNL     1      -5.409  15.892  70.852  1.00  0.00    -0.155 OA 
HETATM   19 CL   UNL     1      -5.351  12.144  71.865  1.00  0.00     0.168 Cl 
HETATM   20 CL   UNL     1      -6.005  14.327  73.690  1.00  0.00    -0.002 Cl 
ENDBRANCH  13  14
BRANCH  13  21
HETATM   21  C   UNL     1      -8.982  14.791  69.341  1.00  0.00     0.043 C  
BRANCH  21  22
HETATM   22  O   UNL     1      -9.612  16.083  69.239  1.00  0.00    -0.238 OA 
BRANCH  22  23
HETATM   23  C   UNL     1     -10.934  16.065  68.923  1.00  0.00    -0.309 C  
HETATM   24  O   UNL     1     -11.639  17.057  68.785  1.00  0.00     0.141 OA 
BRANCH  23  25
HETATM   25  C   UNL     1     -11.430  14.655  68.746  1.00  0.00    -0.322 C  
BRANCH  25  26
HETATM   26  C   UNL     1     -11.676  13.977  70.080  1.00  0.00    -0.349 C  
HETATM   27  C   UNL     1     -11.963  14.956  71.191  1.00  0.00    -0.335 C  
HETATM   28  O   UNL     1     -13.112  15.647  71.037  1.00  0.00    -0.500 OA 
HETATM   29  O   UNL     1     -11.237  15.093  72.162  1.00  0.00    -0.384 OA 
ENDBRANCH  25  26
ENDBRANCH  23  25
ENDBRANCH  22  23
ENDBRANCH  21  22
ENDBRANCH  13  21
ENDBRANCH   2  13
TORSDOF 8
ENDMDL
MODEL      340
REMARK 921   NORMALIZED FREE ENERGY PREDICTED BY IDOCK:    0.87 KCAL/MOL
REMARK 922        TOTAL FREE ENERGY PREDICTED BY IDOCK:   -0.19 KCAL/MOL
REMARK 923 INTER-LIGAND FREE ENERGY PREDICTED BY IDOCK:   -2.52 KCAL/MOL
REMARK 924 INTRA-LIGAND FREE ENERGY PREDICTED BY IDOCK:    2.33 KCAL/MOL
REMARK 927      BINDING AFFINITY PREDICTED BY RF-SCORE:    0.00 PKD
ROOT
HETATM    1  O   UNL     1      -6.705  15.368  66.920  1.00  0.00    -0.237 OA 
HETATM    2  C   UNL     1      -7.041  14.270  67.779  1.00  0.00    -0.177 C  
HETATM    3  H   UNL     1      -6.543  15.051  66.040  1.00  0.00     0.000 HD 
ENDROOT
BRANCH   2   4
HETATM    4  C   UNL     1      -8.207  13.561  67.123  1.00  0.00    -0.126 A  
HETATM    5  C   UNL     1     -10.339  12.330  65.772  1.00  0.00    -0.258 A  
HETATM    6  C   UNL     1      -7.988  12.425  66.326  1.00  0.00     0.599 A  
HETATM    7  O   UNL     1     -11.179  10.759  64.285  1.00  0.00     0.164 OA 
HETATM    8  O   UNL     1     -12.578  12.196  65.173  1.00  0.00    -0.505 OA 
HETATM    9  C   UNL     1      -9.518  14.057  67.248  1.00  0.00    -0.231 A  
HETATM   10  C   UNL     1      -9.046  11.809  65.650  1.00  0.00    -0.034 A  
HETATM   11  N   UNL     1     -11.444  11.718  65.023  1.00  0.00    -0.239 N  
HETATM   12  C   UNL     1     -10.583  13.447  66.579  1.00  0.00    -0.287 A  
ENDBRANCH   2   4
BRANCH   2  13
HETATM   13  C   UNL     1      -7.305  14.788  69.220  1.00  0.00    -0.168 C  
BRANCH  13  14
HETATM   14  N   UNL     1      -6.660  13.872  70.191  1.00  0.00    -0.375 N  
HETATM   15  C   UNL     1      -5.139  13.257  72.071  1.00  0.00    -0.124 C  
HETATM   16  C   UNL     1      -5.635  14.272  71.031  1.00  0.00    -0.190 C  
HETATM   17  H   UNL     1      -6.987  12.906  70.244  1.00  0.00     0.000 HD 
HETATM   18  O   UNL     1      -5.156  15.405  70.968  1.00  0.00    -0.140 OA 
HETATM   19 CL   UNL     1      -5.485  11.586  71.578  1.00  0.00     0.105 Cl 
HETATM   20 CL   UNL     1      -5.892  13.617  73.635  1.00  0.00     0.197 Cl 
ENDBRANCH  13  14
BRANCH  13  21
HETATM   21  C   UNL     1      -8.822  14.926  69.480  1.00  0.00     0.027 C  
BRANCH  21  22
HETATM   22  O   UNL     1      -9.249  16.302  69.512  1.00  0.00    -0.171 OA 
BRANCH  22  23
HETATM   23  C   UNL     1     -10.533  16.525  69.127  1.00  0.00    -0.317 C  
HETATM   24  O   UNL     1     -11.217  15.749  68.472  1.00  0.00    -0.314 OA 
BRANCH  23  25
HETATM   25  C   UNL     1     -11.025  17.858  69.626  1.00  0.00     1.304 C  
BRANCH  25  26
HETATM   26  C   UNL     1     -10.402  19.007  68.859  1.00  0.00    -0.142 C  
HETATM   27  C   UNL     1      -9.800  18.576  67.544  1.00  0.00    -0.310 C  
HETATM   28  O   UNL     1     -10.698  18.124  66.646  1.00  0.00    -0.307 OA 
HETATM   29  O   UNL     1      -8.607  18.657  67.301  1.00  0.00    -0.261 OA 
ENDBRANCH  25  26
ENDBRANCH  23  25
ENDBRANCH  22  23
ENDBRANCH  21  22
ENDBRANCH  13  21
ENDBRANCH   2  13
TORSDOF 8
ENDMDL
MODEL      341
REMARK 921   NORMALIZED FREE ENERGY PREDICTED BY IDOCK:    1.55 KCAL/MOL
REMARK 922        TOTAL FREE ENERGY PREDICTED BY IDOCK:    0.81 KCAL/MOL
REMARK 923 INTER-LIGAND FREE ENERGY PREDICTED BY IDOCK:    0.09 KCAL/MOL
REMARK 924 INTRA-LIGAND FREE ENERGY PREDICTED BY IDOCK:    0.71 KCAL/MOL
REMARK 927      BINDING AFFINITY PREDICTED BY RF-SCORE:    0.00 PKD
ROOT
HETATM    1  O   UNL     1     -11.015  18.007  71.722  1.00  0.00     1.077 OA 
HETATM    2  C   UNL     1     -11.050  17.595  70.349  1.00  0.00     1.821 C  
HETATM    3  H   UNL     1     -11.824  17.762  72.153  1.00  0.00     0.000 HD 
ENDROOT
BRANCH   2   4
HETATM    4  C   UNL     1     -11.351  16.110  70.361  1.00  0.00    -0.377 A  
HETATM    5  C   UNL     1     -12.059  13.393  70.338  1.00  0.00    -0.333 A  
HETATM    6  C   UNL     1     -11.289  15.365  69.171  1.00  0.00    -0.323 A  
HETATM    7  O   UNL     1     -12.467  11.398  69.223  1.00  0.00    -0.276 OA 
HETATM    8  O   UNL     1     -12.824  11.468  71.386  1.00  0.00    -0.419 OA 
HETATM    9  C   UNL     1     -11.754  15.463  71.543  1.00  0.00    -0.467 A  
HETATM   10  C   UNL     1     -11.642  14.012  69.154  1.00  0.00    -0.356 A  
HETATM   11  N   UNL     1     -12.480  11.986  70.314  1.00  0.00    -0.156 N  
HETATM   12  C   UNL     1     -12.106  14.111  71.538  1.00  0.00    -0.252 A  
ENDBRANCH   2   4
BRANCH   2  13
HETATM   13  C   UNL     1      -9.725  17.996  69.642  1.00  0.00     0.514 C  
BRANCH  13  14
HETATM   14  N   UNL     1      -9.972  18.125  68.186  1.00  0.00    -0.338 N  
HETATM   15  C   UNL     1     -10.668  19.290  66.092  1.00  0.00    -0.386 C  
HETATM   16  C   UNL     1     -10.583  19.233  67.624  1.00  0.00    -0.447 C  
HETATM   17  H   UNL     1      -9.679  17.364  67.571  1.00  0.00     0.000 HD 
HETATM   18  O   UNL     1     -11.016  20.152  68.321  1.00  0.00     0.079 OA 
HETATM   19 CL   UNL     1     -10.587  17.671  65.366  1.00  0.00    -0.136 Cl 
HETATM   20 CL   UNL     1      -9.360  20.318  65.478  1.00  0.00     0.084 Cl 
ENDBRANCH  13  14
BRANCH  13  21
HETATM   21  C   UNL     1      -8.611  16.970  69.948  1.00  0.00     1.480 C  
BRANCH  21  22
HETATM   22  O   UNL     1      -8.580  15.894  68.991  1.00  0.00    -0.209 OA 
BRANCH  22  23
HETATM   23  C   UNL     1      -7.941  16.169  67.823  1.00  0.00    -0.142 C  
HETATM   24  O   UNL     1      -7.591  17.284  67.457  1.00  0.00    -0.173 OA 
BRANCH  23  25
HETATM   25  C   UNL     1      -7.701  14.913  67.028  1.00  0.00    -0.079 C  
BRANCH  25  26
HETATM   26  C   UNL     1      -6.864  13.913  67.800  1.00  0.00    -0.184 C  
HETATM   27  C   UNL     1      -7.646  12.695  68.222  1.00  0.00    -0.133 C  
HETATM   28  O   UNL     1      -8.077  11.932  67.197  1.00  0.00    -0.158 OA 
HETATM   29  O   UNL     1      -7.848  12.405  69.391  1.00  0.00     0.381 OA 
ENDBRANCH  25  26
ENDBRANCH  23  25
ENDBRANCH  22  23
ENDBRANCH  21  22
ENDBRANCH  13  21
ENDBRANCH   2  13
TORSDOF 8
ENDMDL
MODEL      342
REMARK 921   NORMALIZED FREE ENERGY PREDICTED BY IDOCK:    3.23 KCAL/MOL
REMARK 922        TOTAL FREE ENERGY PREDICTED BY IDOCK:    3.27 KCAL/MOL
REMARK 923 INTER-LIGAND FREE ENERGY PREDICTED BY IDOCK:    3.55 KCAL/MOL
REMARK 924 INTRA-LIGAND FREE ENERGY PREDICTED BY IDOCK:   -0.28 KCAL/MOL
REMARK 927      BINDING AFFINITY PREDICTED BY RF-SCORE:    0.00 PKD
ROOT
HETATM    1  O   UNL     1     -10.872  18.205  71.453  1.00  0.00     1.160 OA 
HETATM    2  C   UNL     1     -11.121  17.887  70.077  1.00  0.00     2.036 C  
HETATM    3  H   UNL     1     -11.598  17.910  71.989  1.00  0.00     0.000 HD 
ENDROOT
BRANCH   2   4
HETATM    4  C   UNL     1     -11.393  16.398  70.030  1.00  0.00    -0.185 A  
HETATM    5  C   UNL     1     -12.050  13.671  69.895  1.00  0.00    -0.341 A  
HETATM    6  C   UNL     1     -11.293  15.698  68.816  1.00  0.00    -0.351 A  
HETATM    7  O   UNL     1     -12.396  11.710  68.702  1.00  0.00    -0.394 OA 
HETATM    8  O   UNL     1     -12.799  11.696  70.857  1.00  0.00    -0.277 OA 
HETATM    9  C   UNL     1     -11.809  15.702  71.180  1.00  0.00    -0.454 A  
HETATM   10  C   UNL     1     -11.619  14.340  68.743  1.00  0.00    -0.357 A  
HETATM   11  N   UNL     1     -12.443  12.258  69.812  1.00  0.00     0.026 N  
HETATM   12  C   UNL     1     -12.135  14.344  71.119  1.00  0.00    -0.410 A  
ENDBRANCH   2   4
BRANCH   2  13
HETATM   13  C   UNL     1      -9.933  18.371  69.200  1.00  0.00    -0.177 C  
BRANCH  13  14
HETATM   14  N   UNL     1     -10.362  18.413  67.782  1.00  0.00    -0.387 N  
HETATM   15  C   UNL     1     -11.262  19.472  65.709  1.00  0.00     0.315 C  
HETATM   16  C   UNL     1     -10.978  19.517  67.218  1.00  0.00    -0.341 C  
HETATM   17  H   UNL     1     -10.197  17.593  67.196  1.00  0.00     0.000 HD 
HETATM   18  O   UNL     1     -11.263  20.509  67.890  1.00  0.00     0.705 OA 
HETATM   19 CL   UNL     1     -11.370  17.803  65.108  1.00  0.00     0.769 Cl 
HETATM   20 CL   UNL     1      -9.991  20.364  64.854  1.00  0.00     0.861 Cl 
ENDBRANCH  13  14
BRANCH  13  21
HETATM   21  C   UNL     1      -8.700  17.461  69.401  1.00  0.00     0.411 C  
BRANCH  21  22
HETATM   22  O   UNL     1      -7.660  17.729  68.441  1.00  0.00    -0.249 OA 
BRANCH  22  23
HETATM   23  C   UNL     1      -6.811  18.740  68.765  1.00  0.00    -0.285 C  
HETATM   24  O   UNL     1      -6.843  19.379  69.810  1.00  0.00    -0.250 OA 
BRANCH  23  25
HETATM   25  C   UNL     1      -5.802  18.972  67.673  1.00  0.00    -0.191 C  
BRANCH  25  26
HETATM   26  C   UNL     1      -5.196  17.672  67.185  1.00  0.00    -0.155 C  
HETATM   27  C   UNL     1      -5.689  17.272  65.816  1.00  0.00     0.401 C  
HETATM   28  O   UNL     1      -5.321  18.113  64.829  1.00  0.00    -0.079 OA 
HETATM   29  O   UNL     1      -6.339  16.259  65.612  1.00  0.00     1.749 OA 
ENDBRANCH  25  26
ENDBRANCH  23  25
ENDBRANCH  22  23
ENDBRANCH  21  22
ENDBRANCH  13  21
ENDBRANCH   2  13
TORSDOF 8
ENDMDL
MODEL      343
REMARK 921   NORMALIZED FREE ENERGY PREDICTED BY IDOCK:    3.23 KCAL/MOL
REMARK 922        TOTAL FREE ENERGY PREDICTED BY IDOCK:    3.28 KCAL/MOL
REMARK 923 INTER-LIGAND FREE ENERGY PREDICTED BY IDOCK:   -4.90 KCAL/MOL
REMARK 924 INTRA-LIGAND FREE ENERGY PREDICTED BY IDOCK:    8.18 KCAL/MOL
REMARK 927      BINDING AFFINITY PREDICTED BY RF-SCORE:    0.00 PKD
ROOT
HETATM    1  O   UNL     1     -12.246  15.466  68.381  1.00  0.00    -0.535 OA 
HETATM    2  C   UNL     1     -11.350  15.960  67.376  1.00  0.00    -0.048 C  
HETATM    3  H   UNL     1     -13.038  15.137  67.974  1.00  0.00     0.000 HD 
ENDROOT
BRANCH   2   4
HETATM    4  C   UNL     1     -11.147  14.823  66.396  1.00  0.00    -0.340 A  
HETATM    5  C   UNL     1     -10.640  12.672  64.663  1.00  0.00    -0.333 A  
HETATM    6  C   UNL     1     -11.617  13.534  66.700  1.00  0.00    -0.396 A  
HETATM    7  O   UNL     1     -10.715  10.413  64.136  1.00  0.00     0.122 OA 
HETATM    8  O   UNL     1      -9.702  11.769  62.741  1.00  0.00    -0.273 OA 
HETATM    9  C   UNL     1     -10.436  15.018  65.198  1.00  0.00    -0.438 A  
HETATM   10  C   UNL     1     -11.367  12.459  65.841  1.00  0.00    -0.399 A  
HETATM   11  N   UNL     1     -10.330  11.537  63.784  1.00  0.00    -0.357 N  
HETATM   12  C   UNL     1     -10.183  13.952  64.331  1.00  0.00     0.067 A  
ENDBRANCH   2   4
BRANCH   2  13
HETATM   13  C   UNL     1     -10.054  16.499  68.042  1.00  0.00    -0.255 C  
BRANCH  13  14
HETATM   14  N   UNL     1      -8.966  15.509  67.858  1.00  0.00    -0.173 N  
HETATM   15  C   UNL     1      -7.891  13.261  67.994  1.00  0.00    -0.148 C  
HETATM   16  C   UNL     1      -9.033  14.220  68.360  1.00  0.00    -0.189 C  
HETATM   17  H   UNL     1      -8.132  15.789  67.340  1.00  0.00     0.000 HD 
HETATM   18  O   UNL     1      -9.984  13.846  69.048  1.00  0.00    -0.124 OA 
HETATM   19 CL   UNL     1      -6.402  14.137  67.580  1.00  0.00    -0.115 Cl 
HETATM   20 CL   UNL     1      -8.408  12.232  66.646  1.00  0.00    -0.080 Cl 
ENDBRANCH  13  14
BRANCH  13  21
HETATM   21  C   UNL     1     -10.298  16.814  69.535  1.00  0.00    -0.217 C  
BRANCH  21  22
HETATM   22  O   UNL     1     -11.695  16.754  69.885  1.00  0.00     0.361 OA 
BRANCH  22  23
HETATM   23  C   UNL     1     -12.007  15.911  70.904  1.00  0.00    -0.394 C  
HETATM   24  O   UNL     1     -11.941  14.689  70.853  1.00  0.00    -0.294 OA 
BRANCH  23  25
HETATM   25  C   UNL     1     -12.435  16.675  72.129  1.00  0.00     0.601 C  
BRANCH  25  26
HETATM   26  C   UNL     1     -12.703  15.751  73.300  1.00  0.00    -0.640 C  
HETATM   27  C   UNL     1     -13.053  14.348  72.871  1.00  0.00    -0.517 C  
HETATM   28  O   UNL     1     -12.050  13.693  72.251  1.00  0.00     0.316 OA 
HETATM   29  O   UNL     1     -14.138  13.835  73.092  1.00  0.00    -0.106 OA 
ENDBRANCH  25  26
ENDBRANCH  23  25
ENDBRANCH  22  23
ENDBRANCH  21  22
ENDBRANCH  13  21
ENDBRANCH   2  13
TORSDOF 8
ENDMDL
MODEL      344
REMARK 921   NORMALIZED FREE ENERGY PREDICTED BY IDOCK:   10.87 KCAL/MOL
REMARK 922        TOTAL FREE ENERGY PREDICTED BY IDOCK:   14.49 KCAL/MOL
REMARK 923 INTER-LIGAND FREE ENERGY PREDICTED BY IDOCK:   13.76 KCAL/MOL
REMARK 924 INTRA-LIGAND FREE ENERGY PREDICTED BY IDOCK:    0.73 KCAL/MOL
REMARK 927      BINDING AFFINITY PREDICTED BY RF-SCORE:    0.00 PKD
ROOT
HETATM    1  O   UNL     1      -7.508   9.143  67.702  1.00  0.00    -0.084 OA 
HETATM    2  C   UNL     1      -7.981   9.869  66.558  1.00  0.00    -0.110 C  
HETATM    3  H   UNL     1      -8.153   8.496  67.962  1.00  0.00     0.000 HD 
ENDROOT
BRANCH   2   4
HETATM    4  C   UNL     1      -8.314   8.831  65.507  1.00  0.00    -0.153 A  
HETATM    5  C   UNL     1      -8.995   6.813  63.676  1.00  0.00     1.213 A  
HETATM    6  C   UNL     1      -9.601   8.780  64.945  1.00  0.00     0.648 A  
HETATM    7  O   UNL     1     -10.537   5.698  62.346  1.00  0.00     1.639 OA 
HETATM    8  O   UNL     1      -8.494   4.906  62.452  1.00  0.00    -0.092 OA 
HETATM    9  C   UNL     1      -7.369   7.864  65.120  1.00  0.00    -0.071 A  
HETATM   10  C   UNL     1      -9.946   7.778  64.033  1.00  0.00     5.322 A  
HETATM   11  N   UNL     1      -9.369   5.728  62.759  1.00  0.00     0.636 N  
HETATM   12  C   UNL     1      -7.702   6.859  64.207  1.00  0.00    -0.113 A  
ENDBRANCH   2   4
BRANCH   2  13
HETATM   13  C   UNL     1      -6.927  10.928  66.132  1.00  0.00    -0.099 C  
BRANCH  13  14
HETATM   14  N   UNL     1      -6.603  11.786  67.298  1.00  0.00    -0.118 N  
HETATM   15  C   UNL     1      -6.353  13.937  68.537  1.00  0.00    -0.093 C  
HETATM   16  C   UNL     1      -6.586  13.168  67.228  1.00  0.00     0.057 C  
HETATM   17  H   UNL     1      -6.383  11.339  68.188  1.00  0.00     0.000 HD 
HETATM   18  O   UNL     1      -6.779  13.762  66.166  1.00  0.00     2.897 OA 
HETATM   19 CL   UNL     1      -5.496  12.948  69.738  1.00  0.00    -0.087 Cl 
HETATM   20 CL   UNL     1      -7.915  14.483  69.174  1.00  0.00    -0.094 Cl 
ENDBRANCH  13  14
BRANCH  13  21
HETATM   21  C   UNL     1      -7.440  11.757  64.933  1.00  0.00     2.382 C  
BRANCH  21  22
HETATM   22  O   UNL     1      -8.864  11.629  64.749  1.00  0.00     0.200 OA 
BRANCH  22  23
HETATM   23  C   UNL     1      -9.548  12.799  64.651  1.00  0.00     0.266 C  
HETATM   24  O   UNL     1      -9.784  13.391  63.605  1.00  0.00     0.683 OA 
BRANCH  23  25
HETATM   25  C   UNL     1      -9.999  13.279  66.004  1.00  0.00    -0.297 C  
BRANCH  25  26
HETATM   26  C   UNL     1     -11.453  13.708  65.990  1.00  0.00    -0.340 C  
HETATM   27  C   UNL     1     -11.769  14.742  67.041  1.00  0.00    -0.315 C  
HETATM   28  O   UNL     1     -11.150  15.926  66.856  1.00  0.00    -0.228 OA 
HETATM   29  O   UNL     1     -12.541  14.539  67.964  1.00  0.00     0.106 OA 
ENDBRANCH  25  26
ENDBRANCH  23  25
ENDBRANCH  22  23
ENDBRANCH  21  22
ENDBRANCH  13  21
ENDBRANCH   2  13
TORSDOF 8
ENDMDL
